# generated using pymatgen
data_H8PbC4(N3Cl2)2
_symmetry_space_group_name_H-M   'P 1'
_cell_length_a   16.62664798
_cell_length_b   22.51257711
_cell_length_c   21.59447961
_cell_angle_alpha   90.00119102
_cell_angle_beta   89.99929836
_cell_angle_gamma   90.00372035
_symmetry_Int_Tables_number   1
_chemical_formula_structural   H8PbC4(N3Cl2)2
_chemical_formula_sum   'H192 Pb24 C96 N144 Cl96'
_cell_volume   8083.00145423
_cell_formula_units_Z   24
loop_
 _symmetry_equiv_pos_site_id
 _symmetry_equiv_pos_as_xyz
  1  'x, y, z'
loop_
 _atom_site_type_symbol
 _atom_site_label
 _atom_site_symmetry_multiplicity
 _atom_site_fract_x
 _atom_site_fract_y
 _atom_site_fract_z
 _atom_site_occupancy
  H  H0  1  0.00602339  0.03078341  0.67696815  1
  H  H1  1  -0.00769414  0.36232083  0.68122642  1
  H  H2  1  -0.00590570  0.69657234  0.67714698  1
  H  H3  1  0.50144619  0.03125215  0.68388763  1
  H  H4  1  0.50748968  0.36070868  0.68048882  1
  H  H5  1  0.49631465  0.69635906  0.67960551  1
  H  H6  1  -0.00169203  0.30257180  0.17972150  1
  H  H7  1  0.00557112  0.63681172  0.17955426  1
  H  H8  1  0.00274805  0.97097491  0.18276283  1
  H  H9  1  0.49677480  0.30203964  0.17806187  1
  H  H10  1  0.49665762  0.63639427  0.18119859  1
  H  H11  1  0.50653512  0.97186829  0.17927768  1
  H  H12  1  0.00182409  0.02967957  0.81815523  1
  H  H13  1  -0.01103672  0.36613617  0.82212930  1
  H  H14  1  0.00269154  0.69621135  0.82008969  1
  H  H15  1  0.50150441  0.03248423  0.82567287  1
  H  H16  1  0.49563794  0.36250298  0.81757310  1
  H  H17  1  0.50733407  0.69691994  0.81960665  1
  H  H18  1  -0.00897579  0.30337905  0.32404372  1
  H  H19  1  0.00285000  0.63447307  0.32259078  1
  H  H20  1  0.00681556  0.97173835  0.32036270  1
  H  H21  1  0.49824818  0.30710578  0.32216954  1
  H  H22  1  0.50087227  0.63591752  0.31817095  1
  H  H23  1  0.49314388  0.96656538  0.32137080  1
  H  H24  1  0.25437674  0.19861276  0.67871421  1
  H  H25  1  0.24879791  0.52978233  0.68192505  1
  H  H26  1  0.24927793  0.86309884  0.67850462  1
  H  H27  1  0.75039677  0.19652071  0.67672902  1
  H  H28  1  0.74476079  0.53014605  0.68054065  1
  H  H29  1  0.75513512  0.86395375  0.67816227  1
  H  H30  1  0.26261298  0.13248393  0.17580903  1
  H  H31  1  0.26381690  0.47212102  0.17892471  1
  H  H32  1  0.25296839  0.80396086  0.17659425  1
  H  H33  1  0.74561823  0.13831987  0.17965131  1
  H  H34  1  0.75041043  0.46945887  0.17772522  1
  H  H35  1  0.74088707  0.80079434  0.18094580  1
  H  H36  1  0.25499770  0.19422591  0.82431639  1
  H  H37  1  0.25435250  0.53181157  0.81912554  1
  H  H38  1  0.25101111  0.86154877  0.82133886  1
  H  H39  1  0.74946908  0.19591692  0.82323733  1
  H  H40  1  0.74357061  0.52666274  0.82279163  1
  H  H41  1  0.74329389  0.86325467  0.81986770  1
  H  H42  1  0.26268245  0.13464581  0.32044121  1
  H  H43  1  0.24981527  0.46903464  0.31864454  1
  H  H44  1  0.24862250  0.80443547  0.32031819  1
  H  H45  1  0.73798424  0.13590103  0.31936190  1
  H  H46  1  0.74808670  0.46832124  0.32118882  1
  H  H47  1  0.75311038  0.80413138  0.32012033  1
  H  H48  1  0.12521864  0.05449558  0.60174205  1
  H  H49  1  0.12442785  0.38518681  0.61698747  1
  H  H50  1  0.13228638  0.71722264  0.62129718  1
  H  H51  1  0.62614771  0.05301016  0.61417630  1
  H  H52  1  0.62397508  0.38918792  0.60273154  1
  H  H53  1  0.62906804  0.71987451  0.61704530  1
  H  H54  1  0.38662820  0.27168312  0.09626597  1
  H  H55  1  0.36347008  0.61306560  0.11802506  1
  H  H56  1  0.36780706  0.95305297  0.12273728  1
  H  H57  1  0.88676623  0.27935120  0.09881544  1
  H  H58  1  0.86709109  0.61653836  0.12628006  1
  H  H59  1  0.87339524  0.94476792  0.11633984  1
  H  H60  1  0.37533342  0.05474731  0.89137800  1
  H  H61  1  0.38477044  0.39104789  0.89766195  1
  H  H62  1  0.36842111  0.71577624  0.87668466  1
  H  H63  1  0.88090532  0.05542655  0.89206989  1
  H  H64  1  0.88013488  0.38949284  0.90442077  1
  H  H65  1  0.86935077  0.71853114  0.88104746  1
  H  H66  1  0.13020501  0.28184706  0.37913513  1
  H  H67  1  0.11427904  0.60702639  0.40239249  1
  H  H68  1  0.12807742  0.94967457  0.39207117  1
  H  H69  1  0.63058481  0.28288848  0.38501199  1
  H  H70  1  0.61672452  0.60927799  0.39455749  1
  H  H71  1  0.63093677  0.94868742  0.37701275  1
  H  H72  1  0.36549510  0.22423325  0.60040959  1
  H  H73  1  0.38301957  0.55203021  0.61964715  1
  H  H74  1  0.37180318  0.88546078  0.60900943  1
  H  H75  1  0.86790684  0.22182720  0.60044612  1
  H  H76  1  0.88189018  0.55070131  0.62181827  1
  H  H77  1  0.86855837  0.89133285  0.59983975  1
  H  H78  1  0.12482097  0.11705324  0.12101133  1
  H  H79  1  0.12463138  0.45177384  0.12421881  1
  H  H80  1  0.13213779  0.77793740  0.10380772  1
  H  H81  1  0.62196373  0.11269608  0.10794441  1
  H  H82  1  0.62516049  0.44528202  0.11131131  1
  H  H83  1  0.63686951  0.77587423  0.09705835  1
  H  H84  1  0.11557211  0.21832393  0.87599921  1
  H  H85  1  0.13559268  0.55290308  0.89249236  1
  H  H86  1  0.13285816  0.88928058  0.89783177  1
  H  H87  1  0.61599134  0.21643671  0.88467366  1
  H  H88  1  0.63565189  0.55877916  0.90537506  1
  H  H89  1  0.63185625  0.89291799  0.89990783  1
  H  H90  1  0.36940278  0.10952631  0.40606996  1
  H  H91  1  0.37521460  0.44648833  0.38640958  1
  H  H92  1  0.36600767  0.77956359  0.39796402  1
  H  H93  1  0.87480572  0.11442188  0.37821535  1
  H  H94  1  0.87472912  0.44576952  0.39046360  1
  H  H95  1  0.86328933  0.77791774  0.40088887  1
  H  H96  1  0.38229922  0.27650939  0.39649922  1
  H  H97  1  0.36853369  0.61373703  0.38252139  1
  H  H98  1  0.38372421  0.94330394  0.40241226  1
  H  H99  1  0.88551156  0.27560973  0.40944295  1
  H  H100  1  0.86716371  0.61438062  0.38229835  1
  H  H101  1  0.87895006  0.94798081  0.38550838  1
  H  H102  1  0.12974787  0.05293138  0.88496540  1
  H  H103  1  0.12545765  0.38374135  0.87590038  1
  H  H104  1  0.11702392  0.72192856  0.90005681  1
  H  H105  1  0.62392437  0.05517531  0.89527126  1
  H  H106  1  0.63229003  0.38309169  0.87719077  1
  H  H107  1  0.61476641  0.72347408  0.90176875  1
  H  H108  1  0.13411897  0.27858005  0.12157687  1
  H  H109  1  0.11319534  0.61116692  0.09801977  1
  H  H110  1  0.12200671  0.94801130  0.10798288  1
  H  H111  1  0.63274992  0.28238548  0.11835060  1
  H  H112  1  0.61181132  0.60943765  0.10387700  1
  H  H113  1  0.61494750  0.94500504  0.09721803  1
  H  H114  1  0.37620448  0.05041588  0.61446646  1
  H  H115  1  0.37604939  0.38429926  0.61559088  1
  H  H116  1  0.38099381  0.72329552  0.60268648  1
  H  H117  1  0.87654530  0.05306289  0.61040277  1
  H  H118  1  0.87685070  0.38828681  0.60150667  1
  H  H119  1  0.88632832  0.72718992  0.59574332  1
  H  H120  1  0.12362877  0.11677959  0.37797205  1
  H  H121  1  0.12568064  0.44740641  0.38837793  1
  H  H122  1  0.11818368  0.78256115  0.38779544  1
  H  H123  1  0.62743748  0.11165456  0.40121874  1
  H  H124  1  0.62547980  0.44319460  0.39209905  1
  H  H125  1  0.61608025  0.78173401  0.37742262  1
  H  H126  1  0.36098885  0.22149737  0.90857043  1
  H  H127  1  0.38408622  0.55439558  0.88308808  1
  H  H128  1  0.38074322  0.88909710  0.88626695  1
  H  H129  1  0.86377749  0.22631179  0.90043109  1
  H  H130  1  0.88141842  0.54770887  0.87972638  1
  H  H131  1  0.87918043  0.88318580  0.87789050  1
  H  H132  1  0.37030349  0.10841196  0.09511483  1
  H  H133  1  0.36897046  0.44239823  0.09367116  1
  H  H134  1  0.38053409  0.77919094  0.10813440  1
  H  H135  1  0.87175780  0.11421633  0.11052516  1
  H  H136  1  0.87430501  0.44611491  0.10710883  1
  H  H137  1  0.88252740  0.78380670  0.12916655  1
  H  H138  1  0.11768595  0.21568148  0.62049152  1
  H  H139  1  0.13510359  0.55622200  0.60314935  1
  H  H140  1  0.12344669  0.88599756  0.61170081  1
  H  H141  1  0.61937105  0.22175481  0.61200158  1
  H  H142  1  0.63520568  0.55513116  0.59887929  1
  H  H143  1  0.62049063  0.88587853  0.61839911  1
  H  H144  1  0.95273290  0.25282982  -0.00789722  1
  H  H145  1  0.33445875  0.74880739  0.00398104  1
  H  H146  1  0.79713197  0.75087030  0.50687967  1
  H  H147  1  0.71105475  0.58107336  1.00646575  1
  H  H148  1  0.18919801  0.58168871  1.00376839  1
  H  H149  1  0.70466276  0.57926138  0.49288290  1
  H  H150  1  0.20016408  0.58140274  0.49642694  1
  H  H151  1  0.54859865  0.58219370  -0.00297742  1
  H  H152  1  0.85325623  0.91353665  0.99045045  1
  H  H153  1  0.29048768  0.42014284  -0.00575661  1
  H  H154  1  0.89739707  0.57846242  0.48767073  1
  H  H155  1  0.66649467  0.41382455  -0.00013750  1
  H  H156  1  0.10693595  0.75512560  0.51649544  1
  H  H157  1  0.58002021  0.07852864  0.50173999  1
  H  H158  1  0.11003846  0.25140995  0.48863702  1
  H  H159  1  0.88535548  0.58759419  1.01329330  1
  H  H160  1  0.69851217  0.91540130  1.00227431  1
  H  H161  1  0.45335419  0.41986960  1.00228005  1
  H  H162  1  0.33429222  0.41719868  0.49715042  1
  H  H163  1  0.09233361  0.08237820  0.99539847  1
  H  H164  1  0.70996923  0.74752822  -0.00802392  1
  H  H165  1  0.30248620  0.25325999  0.49294583  1
  H  H166  1  0.54337408  0.75191944  1.00588189  1
  H  H167  1  0.96098660  0.74498367  0.49409125  1
  H  H168  1  0.10556270  0.41457190  -0.00851507  1
  H  H169  1  0.64231633  0.75405790  0.48598996  1
  H  H170  1  0.04374306  0.59069880  0.50599662  1
  H  H171  1  0.79827039  0.25535871  1.00264139  1
  H  H172  1  0.54604017  0.92094522  -0.00880283  1
  H  H173  1  0.69865752  0.08462020  0.50664644  1
  H  H174  1  0.06646621  0.91636193  0.00129234  1
  H  H175  1  0.10894079  0.25261578  0.01094580  1
  H  H176  1  0.44232700  0.75371380  0.49693635  1
  H  H177  1  0.04486739  0.58342939  -0.00813249  1
  H  H178  1  0.45928942  0.24279280  -0.00325934  1
  H  H179  1  0.82399090  0.08170636  0.00251094  1
  H  H180  1  0.80674745  0.92402166  0.49483964  1
  H  H181  1  0.89903051  0.74909966  0.99305645  1
  H  H182  1  0.08042011  0.91869146  0.50192685  1
  H  H183  1  0.42016858  0.07587425  0.50212266  1
  H  H184  1  0.66060174  0.25098648  0.50664454  1
  H  H185  1  0.39193213  0.92677513  0.01380302  1
  H  H186  1  0.28630993  0.24597917  1.00894955  1
  H  H187  1  0.16924618  0.41665604  0.49800499  1
  H  H188  1  0.64584442  0.91636631  0.50967258  1
  H  H189  1  0.55501455  0.57908545  0.50103247  1
  H  H190  1  0.44836981  0.91418457  0.50808553  1
  H  H191  1  0.29203113  0.07986602  0.50405706  1
  Pb  Pb192  1  0.24593616  0.04864434  0.74227173  1
  Pb  Pb193  1  0.25571218  0.38190715  0.75539147  1
  Pb  Pb194  1  0.25141003  0.71214206  0.75196132  1
  Pb  Pb195  1  0.75108682  0.04712543  0.75128302  1
  Pb  Pb196  1  0.75297224  0.37976797  0.75016483  1
  Pb  Pb197  1  0.75534665  0.71677030  0.74774719  1
  Pb  Pb198  1  0.25444918  0.28330086  0.24606757  1
  Pb  Pb199  1  0.24122107  0.61831198  0.25073520  1
  Pb  Pb200  1  0.24827387  0.95497137  0.25374630  1
  Pb  Pb201  1  0.75217132  0.28839094  0.24998137  1
  Pb  Pb202  1  0.74549080  0.61956759  0.24860384  1
  Pb  Pb203  1  0.75179033  0.94981881  0.24262216  1
  Pb  Pb204  1  -0.00441682  0.21497913  0.75273356  1
  Pb  Pb205  1  0.00417897  0.54645843  0.74428983  1
  Pb  Pb206  1  0.00463329  0.88095453  0.74996033  1
  Pb  Pb207  1  0.49879942  0.21245656  0.75473068  1
  Pb  Pb208  1  0.50987884  0.54912205  0.75156178  1
  Pb  Pb209  1  0.49754219  0.88231154  0.75438112  1
  Pb  Pb210  1  -0.00311481  0.12069905  0.24521105  1
  Pb  Pb211  1  -0.00214797  0.45225970  0.25003795  1
  Pb  Pb212  1  0.00280964  0.78505291  0.25729443  1
  Pb  Pb213  1  0.50468120  0.11768170  0.25672869  1
  Pb  Pb214  1  0.49867631  0.45309319  0.24390107  1
  Pb  Pb215  1  0.49357861  0.78531795  0.24678649  1
  C  C216  1  0.00233263  0.04600516  0.62961855  1
  C  C217  1  -0.00234998  0.37770546  0.63382701  1
  C  C218  1  0.00448581  0.71331063  0.63053200  1
  C  C219  1  0.50131599  0.04537127  0.63575564  1
  C  C220  1  0.50263185  0.37706887  0.63336425  1
  C  C221  1  0.50244535  0.71274797  0.63254229  1
  C  C222  1  0.00733773  0.28786301  0.13222405  1
  C  C223  1  -0.00519078  0.62218933  0.13235609  1
  C  C224  1  -0.00100755  0.95460873  0.13555762  1
  C  C225  1  0.50516953  0.28600530  0.13111509  1
  C  C226  1  0.49029568  0.62056682  0.13397480  1
  C  C227  1  0.49574697  0.95694761  0.13207799  1
  C  C228  1  0.00404289  0.04593857  0.86536829  1
  C  C229  1  -0.00074974  0.37974658  0.86959621  1
  C  C230  1  -0.00370875  0.71201344  0.86721332  1
  C  C231  1  0.50025049  0.04764019  0.87339634  1
  C  C232  1  0.50457138  0.37835427  0.86453217  1
  C  C233  1  0.49640885  0.71212410  0.86659781  1
  C  C234  1  0.00265305  0.28788213  0.37075137  1
  C  C235  1  -0.00546764  0.61919123  0.36998609  1
  C  C236  1  0.00491481  0.95613710  0.36775368  1
  C  C237  1  0.50401386  0.28947110  0.36844264  1
  C  C238  1  0.49515596  0.62009029  0.36537769  1
  C  C239  1  0.50245140  0.95264927  0.36891543  1
  C  C240  1  0.24617886  0.21294642  0.63126343  1
  C  C241  1  0.25583086  0.54531016  0.63469978  1
  C  C242  1  0.24814942  0.87830119  0.63098883  1
  C  C243  1  0.74548696  0.21306330  0.62972430  1
  C  C244  1  0.75446019  0.54468751  0.63315956  1
  C  C245  1  0.74748231  0.88002898  0.63096713  1
  C  C246  1  0.25213640  0.11893689  0.12824608  1
  C  C247  1  0.25277730  0.45644729  0.13220196  1
  C  C248  1  0.25574586  0.78741214  0.12953527  1
  C  C249  1  0.74641472  0.12167479  0.13252615  1
  C  C250  1  0.74935043  0.45350145  0.13044913  1
  C  C251  1  0.75330786  0.78703571  0.13375659  1
  C  C252  1  0.24389187  0.20997373  0.87108269  1
  C  C253  1  0.25776714  0.54623395  0.86689559  1
  C  C254  1  0.25491016  0.87863051  0.86830255  1
  C  C255  1  0.74332756  0.21202020  0.87024588  1
  C  C256  1  0.75307550  0.54291515  0.86946528  1
  C  C257  1  0.75123514  0.87862179  0.86731007  1
  C  C258  1  0.25229500  0.12034790  0.36780696  1
  C  C259  1  0.25032821  0.45379281  0.36637153  1
  C  C260  1  0.24408645  0.79003170  0.36827112  1
  C  C261  1  0.74678452  0.12082003  0.36655670  1
  C  C262  1  0.74966900  0.45242161  0.36834206  1
  C  C263  1  0.74340910  0.78856243  0.36721092  1
  C  C264  1  0.19195479  0.09431557  0.04122251  1
  C  C265  1  0.45748616  0.07531802  0.96421939  1
  C  C266  1  0.77352295  0.91055840  0.53615629  1
  C  C267  1  0.05795189  0.40500585  0.95809547  1
  C  C268  1  0.04057085  0.92895194  0.46269995  1
  C  C269  1  0.56263021  0.92914758  0.45673315  1
  C  C270  1  0.73471198  0.56917049  0.53642967  1
  C  C271  1  0.26909875  0.24094823  0.53439114  1
  C  C272  1  0.81854559  0.76353509  0.04819804  1
  C  C273  1  0.98312511  0.26204416  0.03575644  1
  C  C274  1  0.22537925  0.57187612  0.96302990  1
  C  C275  1  0.54148366  0.06907333  0.54124019  1
  C  C276  1  0.01472340  0.59533774  0.03487322  1
  C  C277  1  0.52163149  0.59158309  0.45966861  1
  C  C278  1  0.48392534  0.40755341  0.95945861  1
  C  C279  1  0.48199814  0.92604818  0.46662816  1
  C  C280  1  0.30668773  0.57201041  0.95793737  1
  C  C281  1  0.76680146  0.76097002  0.46341640  1
  C  C282  1  0.27219882  0.09120246  0.03264079  1
  C  C283  1  0.80787224  0.90512311  0.95515732  1
  C  C284  1  0.72728170  0.09395539  0.46240747  1
  C  C285  1  0.51393023  0.74040020  0.96239617  1
  C  C286  1  0.70773118  0.42464521  0.03733225  1
  C  C287  1  0.45961403  0.06789885  0.54137902  1
  C  C288  1  0.28664533  0.90533682  0.53796259  1
  C  C289  1  0.23216042  0.57163766  0.53924513  1
  C  C290  1  0.95894189  0.92868746  0.45926862  1
  C  C291  1  0.21025726  0.42725360  0.46029810  1
  C  C292  1  0.03020779  0.92673186  0.04187493  1
  C  C293  1  0.47614817  0.74148937  0.53818785  1
  C  C294  1  0.93396878  0.59751852  0.04532036  1
  C  C295  1  0.94667667  0.73904294  0.95663537  1
  C  C296  1  0.71453162  0.42232667  0.46037194  1
  C  C297  1  0.68843178  0.24162548  0.95904229  1
  C  C298  1  0.97711786  0.40669600  0.96630648  1
  C  C299  1  0.51577519  0.59292499  0.03922637  1
  C  C300  1  0.18817137  0.23760088  0.54288083  1
  C  C301  1  0.29249468  0.42735595  0.45979089  1
  C  C302  1  0.18113982  0.23777259  0.95678294  1
  C  C303  1  0.78467931  0.09266928  0.04103277  1
  C  C304  1  0.04646395  0.07253744  0.95712264  1
  C  C305  1  0.78920291  0.42528183  0.03756642  1
  C  C306  1  0.53796166  0.07555448  0.96542503  1
  C  C307  1  0.51688875  0.93058645  0.03518508  1
  C  C308  1  0.73876354  0.75973956  0.03543413  1
  C  C309  1  0.03329849  0.07419079  0.53598550  1
  C  C310  1  0.20526569  0.90570522  0.53903658  1
  C  C311  1  0.47599380  0.25613939  0.46135767  1
  N  N312  1  0.98340356  0.25759971  0.46677501  1
  N  N313  1  0.79197790  0.42313449  0.46109895  1
  N  N314  1  0.26667787  0.42554177  0.03829951  1
  N  N315  1  0.44266179  0.59378589  0.45596180  1
  N  N316  1  0.95610165  0.07364396  0.53730745  1
  N  N317  1  0.94041418  0.59716502  0.45801334  1
  N  N318  1  0.97048608  0.40699015  0.53874497  1
  N  N319  1  0.56261824  0.40514703  0.95266092  1
  N  N320  1  0.95104574  0.92538368  0.04442622  1
  N  N321  1  0.80568777  0.09351555  0.45430270  1
  N  N322  1  0.55531337  0.73987781  0.54242851  1
  N  N323  1  0.01841378  0.58656040  0.46250025  1
  N  N324  1  0.43663438  0.59308543  0.04413261  1
  N  N325  1  0.06243843  0.73661226  0.54435635  1
  N  N326  1  0.55344199  0.25844285  0.45858116  1
  N  N327  1  0.27431412  0.76433837  0.46390380  1
  N  N328  1  0.70534832  0.09194996  0.03968313  1
  N  N329  1  0.19798050  0.76625823  0.46065090  1
  N  N330  1  0.25927139  0.23943073  0.96621827  1
  N  N331  1  0.96707063  0.07402134  0.96003140  1
  N  N332  1  0.31096786  0.57112881  0.54489842  1
  N  N333  1  0.02536343  0.74029839  0.96339517  1
  N  N334  1  0.04662295  0.40580672  0.54358680  1
  N  N335  1  0.81328391  0.56715225  0.54404302  1
  N  N336  1  0.18984774  0.43005355  0.04713734  1
  N  N337  1  0.81281487  0.57089206  0.95483225  1
  N  N338  1  0.29536825  0.75835662  0.03989405  1
  N  N339  1  0.45498665  0.40564111  0.54290613  1
  N  N340  1  0.77949514  0.24278263  0.53591475  1
  N  N341  1  0.98474065  0.74830749  0.53829530  1
  N  N342  1  0.06008815  0.26016068  0.45559834  1
  N  N343  1  0.56371398  0.25885301  0.04389964  1
  N  N344  1  0.26756254  0.09612950  0.46355049  1
  N  N345  1  0.19050301  0.09831788  0.45497970  1
  N  N346  1  0.53108644  0.40750590  0.53892483  1
  N  N347  1  0.06184235  0.26151845  0.04468499  1
  N  N348  1  0.76699674  0.24433148  0.96333578  1
  N  N349  1  0.22444737  0.91076085  0.96177114  1
  N  N350  1  0.21736891  0.75825371  0.03650533  1
  N  N351  1  0.30082668  0.91096381  0.95775483  1
  N  N352  1  0.73596041  0.57435280  0.96286256  1
  N  N353  1  0.68810262  0.76181484  0.45421320  1
  N  N354  1  0.48628994  0.25524343  0.03797121  1
  N  N355  1  0.70156997  0.24285020  0.54149332  1
  N  N356  1  0.69439028  0.90804001  0.54320875  1
  N  N357  1  0.43838526  0.93207006  0.04535342  1
  N  N358  1  0.43540905  0.73817100  0.95404960  1
  N  N359  1  0.72887767  0.90906437  0.96132317  1
  N  N360  1  0.06464012  0.05750288  0.59135017  1
  N  N361  1  0.06484896  0.38780262  0.60258304  1
  N  N362  1  0.07466734  0.72435370  0.60421543  1
  N  N363  1  0.56616545  0.05515752  0.60028969  1
  N  N364  1  0.56214436  0.38983604  0.59474613  1
  N  N365  1  0.57010306  0.72206852  0.60181636  1
  N  N366  1  0.44893836  0.27262816  0.09013653  1
  N  N367  1  0.42271403  0.61016273  0.10325340  1
  N  N368  1  0.42568716  0.94908798  0.10464258  1
  N  N369  1  0.94880972  0.27802372  0.09011067  1
  N  N370  1  0.92289505  0.61415223  0.10564789  1
  N  N371  1  0.93315392  0.94274881  0.10336320  1
  N  N372  1  0.43404036  0.05856326  0.90796810  1
  N  N373  1  0.44699192  0.39134787  0.90576777  1
  N  N374  1  0.42630063  0.72062710  0.89402063  1
  N  N375  1  0.94234699  0.05746722  0.90225762  1
  N  N376  1  0.94194342  0.39128443  0.91303965  1
  N  N377  1  0.92749191  0.72227279  0.89764751  1
  N  N378  1  0.07301071  0.27908219  0.39756835  1
  N  N379  1  0.05230073  0.61018208  0.41128594  1
  N  N380  1  0.06798618  0.94594770  0.40442918  1
  N  N381  1  0.57099124  0.27927098  0.39933173  1
  N  N382  1  0.55554222  0.60763715  0.40446964  1
  N  N383  1  0.57437571  0.94478771  0.39722558  1
  N  N384  1  0.30425343  0.22507461  0.59072629  1
  N  N385  1  0.32397778  0.55483664  0.60432772  1
  N  N386  1  0.31225546  0.88887193  0.59429182  1
  N  N387  1  0.80644179  0.22489061  0.59151350  1
  N  N388  1  0.82397584  0.55228168  0.60468297  1
  N  N389  1  0.80690705  0.89318974  0.59058253  1
  N  N390  1  0.18035481  0.11115772  0.10026047  1
  N  N391  1  0.18165277  0.44661155  0.10610918  1
  N  N392  1  0.19317373  0.77592666  0.09286364  1
  N  N393  1  0.68320964  0.11008098  0.09698529  1
  N  N394  1  0.68407341  0.44217772  0.09646359  1
  N  N395  1  0.69886256  0.77479104  0.09026609  1
  N  N396  1  0.17121478  0.22105972  0.89706859  1
  N  N397  1  0.19590352  0.55568776  0.90497050  1
  N  N398  1  0.19468298  0.89039233  0.90656349  1
  N  N399  1  0.67347227  0.22201743  0.90131994  1
  N  N400  1  0.69779937  0.55471241  0.91195631  1
  N  N401  1  0.69385326  0.88994083  0.90806282  1
  N  N402  1  0.30706224  0.10804293  0.41049147  1
  N  N403  1  0.31577904  0.44360362  0.40101617  1
  N  N404  1  0.30416783  0.77939844  0.40701471  1
  N  N405  1  0.81615533  0.11033983  0.39475716  1
  N  N406  1  0.81410158  0.44189781  0.40244201  1
  N  N407  1  0.80152921  0.77734808  0.40934982  1
  N  N408  1  0.44328027  0.27474444  0.40709737  1
  N  N409  1  0.42788170  0.61126341  0.39705228  1
  N  N410  1  0.44549150  0.94119864  0.41056538  1
  N  N411  1  0.94772800  0.27472480  0.41364010  1
  N  N412  1  0.92552706  0.60832546  0.39821272  1
  N  N413  1  0.93794195  0.94482276  0.40182294  1
  N  N414  1  0.07010749  0.05593542  0.89921952  1
  N  N415  1  0.07026453  0.38822461  0.89688263  1
  N  N416  1  0.05471775  0.72320318  0.90725734  1
  N  N417  1  0.56467965  0.05886125  0.91003955  1
  N  N418  1  0.57369964  0.38718104  0.89340477  1
  N  N419  1  0.55270019  0.72483430  0.90910473  1
  N  N420  1  0.07644897  0.27841395  0.10376451  1
  N  N421  1  0.05141483  0.61091342  0.08960838  1
  N  N422  1  0.06095329  0.94430520  0.09737532  1
  N  N423  1  0.57496433  0.27742903  0.10224592  1
  N  N424  1  0.55019005  0.60966798  0.09393246  1
  N  N425  1  0.55284021  0.94509247  0.08930741  1
  N  N426  1  0.43589169  0.05335477  0.60043912  1
  N  N427  1  0.43587919  0.38683671  0.60146212  1
  N  N428  1  0.44249114  0.72522844  0.59313295  1
  N  N429  1  0.93655531  0.05580877  0.59689362  1
  N  N430  1  0.93863048  0.38921958  0.59429172  1
  N  N431  1  0.94849135  0.72409035  0.58828794  1
  N  N432  1  0.18153995  0.11391294  0.39574756  1
  N  N433  1  0.18561092  0.44348647  0.40178044  1
  N  N434  1  0.17788259  0.78216072  0.40129219  1
  N  N435  1  0.68913330  0.11002658  0.40871503  1
  N  N436  1  0.68566037  0.44017400  0.40465967  1
  N  N437  1  0.67398458  0.77923020  0.39516626  1
  N  N438  1  0.29839263  0.21971911  0.91422252  1
  N  N439  1  0.32595301  0.55682100  0.90001813  1
  N  N440  1  0.32109323  0.89099060  0.89993323  1
  N  N441  1  0.80210194  0.22486145  0.90923597  1
  N  N442  1  0.82342245  0.55259414  0.89674311  1
  N  N443  1  0.82202498  0.88757711  0.89634830  1
  N  N444  1  0.30895859  0.10637371  0.08546323  1
  N  N445  1  0.30652529  0.44481619  0.08866020  1
  N  N446  1  0.32044583  0.77635449  0.09595097  1
  N  N447  1  0.81143826  0.11046555  0.09782987  1
  N  N448  1  0.81411242  0.44250027  0.09371461  1
  N  N449  1  0.82704691  0.77963226  0.10766811  1
  N  N450  1  0.17501744  0.22090089  0.60190274  1
  N  N451  1  0.19666196  0.55607453  0.59400999  1
  N  N452  1  0.18242834  0.88946589  0.59618447  1
  N  N453  1  0.67923078  0.22394975  0.59789225  1
  N  N454  1  0.69729417  0.55577219  0.59082845  1
  N  N455  1  0.67905098  0.88894837  0.60146979  1
  Cl  Cl456  1  0.25294084  0.05512629  0.60478255  1
  Cl  Cl457  1  0.25107415  0.38620226  0.62253192  1
  Cl  Cl458  1  0.25639899  0.71897215  0.61994593  1
  Cl  Cl459  1  0.74958677  0.05415188  0.61595615  1
  Cl  Cl460  1  0.74908611  0.38826055  0.61777475  1
  Cl  Cl461  1  0.76310947  0.72623228  0.60961601  1
  Cl  Cl462  1  0.26608654  0.27251332  0.10225508  1
  Cl  Cl463  1  0.23458222  0.61146710  0.11692218  1
  Cl  Cl464  1  0.24442244  0.95060434  0.12064533  1
  Cl  Cl465  1  0.76471548  0.27765493  0.10987392  1
  Cl  Cl466  1  0.73217060  0.60233654  0.10707547  1
  Cl  Cl467  1  0.73901032  0.93933030  0.10484715  1
  Cl  Cl468  1  0.25163303  0.05399302  0.87276109  1
  Cl  Cl469  1  0.26567174  0.39400427  0.89592332  1
  Cl  Cl470  1  0.24070440  0.71825289  0.88522715  1
  Cl  Cl471  1  0.75547148  0.05328911  0.88339801  1
  Cl  Cl472  1  0.75832222  0.38652844  0.88565023  1
  Cl  Cl473  1  0.73840124  0.71928286  0.88230746  1
  Cl  Cl474  1  0.25733844  0.27698888  0.37866811  1
  Cl  Cl475  1  0.23494469  0.60837158  0.38607517  1
  Cl  Cl476  1  0.25756905  0.94974659  0.38568946  1
  Cl  Cl477  1  0.75671514  0.28054042  0.38301779  1
  Cl  Cl478  1  0.74199523  0.61266663  0.38435076  1
  Cl  Cl479  1  0.75617535  0.94493446  0.37622324  1
  Cl  Cl480  1  -0.00956901  0.21640871  0.62216334  1
  Cl  Cl481  1  0.01239618  0.56543875  0.60574941  1
  Cl  Cl482  1  -0.00656658  0.88538360  0.61709849  1
  Cl  Cl483  1  0.49583056  0.22125260  0.62295554  1
  Cl  Cl484  1  0.51302672  0.55603785  0.61723879  1
  Cl  Cl485  1  0.49648497  0.88593210  0.62255362  1
  Cl  Cl486  1  -0.00468912  0.11656154  0.11414170  1
  Cl  Cl487  1  -0.00258823  0.44813855  0.11790990  1
  Cl  Cl488  1  0.01132095  0.78024973  0.12730858  1
  Cl  Cl489  1  0.49766691  0.11406299  0.12372025  1
  Cl  Cl490  1  0.48955316  0.44017897  0.10759734  1
  Cl  Cl491  1  0.50875676  0.77960808  0.11078377  1
  Cl  Cl492  1  -0.01380233  0.22607313  0.88914792  1
  Cl  Cl493  1  0.00832169  0.55195686  0.87676960  1
  Cl  Cl494  1  0.00977974  0.88895885  0.88456952  1
  Cl  Cl495  1  0.48248008  0.22265596  0.89674776  1
  Cl  Cl496  1  0.51757435  0.55991734  0.88785453  1
  Cl  Cl497  1  0.50891787  0.89260877  0.89138388  1
  Cl  Cl498  1  0.00013268  0.11545176  0.37475455  1
  Cl  Cl499  1  0.00022432  0.45160774  0.38066823  1
  Cl  Cl500  1  -0.01171394  0.77000769  0.39700047  1
  Cl  Cl501  1  0.49556884  0.11099882  0.39375709  1
  Cl  Cl502  1  0.50200768  0.44741756  0.37260664  1
  Cl  Cl503  1  0.48784879  0.77776533  0.38230732  1
  Cl  Cl504  1  0.35955418  0.14832085  0.74648385  1
  Cl  Cl505  1  0.36017714  0.48051599  0.75013297  1
  Cl  Cl506  1  0.36322582  0.81282822  0.75559592  1
  Cl  Cl507  1  0.85606038  0.15138488  0.75129769  1
  Cl  Cl508  1  0.86532684  0.48131637  0.74951334  1
  Cl  Cl509  1  0.85741132  0.81234429  0.75548741  1
  Cl  Cl510  1  0.13331184  0.18875367  0.24332339  1
  Cl  Cl511  1  0.13843496  0.51991300  0.24723259  1
  Cl  Cl512  1  0.13950846  0.85110402  0.25413088  1
  Cl  Cl513  1  0.64087665  0.18652177  0.24813797  1
  Cl  Cl514  1  0.63839392  0.51776754  0.24676625  1
  Cl  Cl515  1  0.63685424  0.85374458  0.25631462  1
  Cl  Cl516  1  0.14169654  0.14498396  0.74974418  1
  Cl  Cl517  1  0.14006507  0.47888617  0.74917258  1
  Cl  Cl518  1  0.14142341  0.81423930  0.74466822  1
  Cl  Cl519  1  0.63722970  0.14671630  0.75039617  1
  Cl  Cl520  1  0.64695031  0.48346620  0.75531286  1
  Cl  Cl521  1  0.64159342  0.81451784  0.74328087  1
  Cl  Cl522  1  0.35454045  0.18507049  0.24887350  1
  Cl  Cl523  1  0.36025853  0.52125823  0.24829592  1
  Cl  Cl524  1  0.35874672  0.85344904  0.24159993  1
  Cl  Cl525  1  0.85986687  0.18518453  0.25283938  1
  Cl  Cl526  1  0.86096029  0.52122414  0.25037115  1
  Cl  Cl527  1  0.85776256  0.85546029  0.24599844  1
  Cl  Cl528  1  0.11863466  0.30939798  0.76033900  1
  Cl  Cl529  1  0.11103880  0.64927411  0.74477314  1
  Cl  Cl530  1  0.10845472  0.98155852  0.74639626  1
  Cl  Cl531  1  0.61368090  0.31210219  0.75812502  1
  Cl  Cl532  1  0.60546585  0.64966311  0.74492945  1
  Cl  Cl533  1  0.61479183  0.97921860  0.75291888  1
  Cl  Cl534  1  0.38792275  0.01952030  0.24819332  1
  Cl  Cl535  1  0.38792473  0.35230261  0.25056042  1
  Cl  Cl536  1  0.39122892  0.68616396  0.24730008  1
  Cl  Cl537  1  0.88611131  0.01942147  0.24924311  1
  Cl  Cl538  1  0.89584742  0.34879265  0.25057194  1
  Cl  Cl539  1  0.87917300  0.69094700  0.24674523  1
  Cl  Cl540  1  0.39107839  0.31502307  0.74932183  1
  Cl  Cl541  1  0.38697588  0.64304338  0.75711972  1
  Cl  Cl542  1  0.39508206  0.98034514  0.75265638  1
  Cl  Cl543  1  0.89549358  0.31628847  0.75222881  1
  Cl  Cl544  1  0.89083579  0.64682753  0.74571621  1
  Cl  Cl545  1  0.88738046  0.97885224  0.75027681  1
  Cl  Cl546  1  0.10806504  0.02075892  0.25007102  1
  Cl  Cl547  1  0.11692456  0.35592160  0.24578072  1
  Cl  Cl548  1  0.10011178  0.68312711  0.25559033  1
  Cl  Cl549  1  0.60642202  0.02028756  0.25328602  1
  Cl  Cl550  1  0.60967150  0.35146641  0.24268042  1
  Cl  Cl551  1  0.61194583  0.68866517  0.25201576  1
