# generated using pymatgen
data_H8PbC4(N3Cl2)2
_symmetry_space_group_name_H-M   'P 1'
_cell_length_a   16.62249373
_cell_length_b   22.50651006
_cell_length_c   21.59024835
_cell_angle_alpha   89.99987999
_cell_angle_beta   89.98818659
_cell_angle_gamma   90.00480055
_symmetry_Int_Tables_number   1
_chemical_formula_structural   H8PbC4(N3Cl2)2
_chemical_formula_sum   'H192 Pb24 C96 N144 Cl96'
_cell_volume   8077.22093004
_cell_formula_units_Z   24
loop_
 _symmetry_equiv_pos_site_id
 _symmetry_equiv_pos_as_xyz
  1  'x, y, z'
loop_
 _atom_site_type_symbol
 _atom_site_label
 _atom_site_symmetry_multiplicity
 _atom_site_fract_x
 _atom_site_fract_y
 _atom_site_fract_z
 _atom_site_occupancy
  H  H0  1  0.00426867  0.03007538  0.68096103  1
  H  H1  1  -0.00948825  0.36590801  0.67625744  1
  H  H2  1  -0.00638773  0.69819085  0.67860688  1
  H  H3  1  0.49361234  0.03138830  0.68028896  1
  H  H4  1  0.49331498  0.36270275  0.68084349  1
  H  H5  1  0.50400554  0.69917534  0.68058961  1
  H  H6  1  0.00216102  0.30121403  0.18226897  1
  H  H7  1  0.00948734  0.63639089  0.17615271  1
  H  H8  1  0.00460394  0.96966984  0.18214333  1
  H  H9  1  0.50509239  0.30318892  0.17598846  1
  H  H10  1  0.49283697  0.63550402  0.17970993  1
  H  H11  1  0.49639260  0.96781908  0.18111315  1
  H  H12  1  -0.00328754  0.03212675  0.82187421  1
  H  H13  1  0.00828868  0.36500851  0.82022426  1
  H  H14  1  0.00445143  0.69596632  0.82092062  1
  H  H15  1  0.50208566  0.02950983  0.81909880  1
  H  H16  1  0.49870426  0.36293127  0.82183786  1
  H  H17  1  0.49463054  0.69760688  0.81883693  1
  H  H18  1  -0.00453102  0.30089561  0.32434072  1
  H  H19  1  0.00059710  0.63563028  0.31724788  1
  H  H20  1  0.00241048  0.96971504  0.31840988  1
  H  H21  1  0.50154851  0.30152685  0.31988500  1
  H  H22  1  0.50456495  0.63502058  0.31944797  1
  H  H23  1  0.49649244  0.96951772  0.32066109  1
  H  H24  1  0.25635907  0.19828187  0.67947603  1
  H  H25  1  0.24567111  0.53094675  0.67795058  1
  H  H26  1  0.25059880  0.86271997  0.68034866  1
  H  H27  1  0.74945621  0.19609251  0.67672439  1
  H  H28  1  0.74320177  0.52858195  0.68103293  1
  H  H29  1  0.75718682  0.86626481  0.67679118  1
  H  H30  1  0.26330097  0.13417993  0.18062691  1
  H  H31  1  0.24935105  0.46891924  0.18036621  1
  H  H32  1  0.24202846  0.80077544  0.18063100  1
  H  H33  1  0.74235732  0.13405935  0.18077539  1
  H  H34  1  0.74919771  0.46888417  0.18048064  1
  H  H35  1  0.75358949  0.80274116  0.18092510  1
  H  H36  1  0.24099900  0.19944577  0.82219992  1
  H  H37  1  0.25158000  0.53180032  0.81953523  1
  H  H38  1  0.24202839  0.86617552  0.81949285  1
  H  H39  1  0.75527240  0.19984267  0.81932626  1
  H  H40  1  0.74716890  0.52941729  0.82176911  1
  H  H41  1  0.74771656  0.86320365  0.81671090  1
  H  H42  1  0.25279910  0.13645882  0.32169637  1
  H  H43  1  0.25394024  0.46973737  0.31745974  1
  H  H44  1  0.24699637  0.80306829  0.31958673  1
  H  H45  1  0.75246665  0.13481596  0.32155517  1
  H  H46  1  0.76140815  0.46622251  0.32303982  1
  H  H47  1  0.75422559  0.80229480  0.31879017  1
  H  H48  1  0.12592769  0.05485635  0.60589542  1
  H  H49  1  0.12736637  0.38329557  0.62225291  1
  H  H50  1  0.12951012  0.71642645  0.61940966  1
  H  H51  1  0.63107234  0.04878441  0.62499472  1
  H  H52  1  0.63039900  0.38226509  0.62261133  1
  H  H53  1  0.62451619  0.72246504  0.60601555  1
  H  H54  1  0.37107340  0.28133880  0.11529597  1
  H  H55  1  0.38256511  0.61009378  0.09945848  1
  H  H56  1  0.37024086  0.94468589  0.11258948  1
  H  H57  1  0.86911441  0.27945709  0.11850737  1
  H  H58  1  0.87653444  0.61383290  0.11498322  1
  H  H59  1  0.87086034  0.95108018  0.12182787  1
  H  H60  1  0.37528900  0.05373551  0.88579744  1
  H  H61  1  0.37527213  0.38878052  0.89203490  1
  H  H62  1  0.37002307  0.72048285  0.88917184  1
  H  H63  1  0.87852731  0.05648982  0.89846623  1
  H  H64  1  0.87527915  0.38606335  0.88338016  1
  H  H65  1  0.86965284  0.71798379  0.88090697  1
  H  H66  1  0.12944954  0.28182690  0.38329913  1
  H  H67  1  0.11805180  0.61146668  0.39210845  1
  H  H68  1  0.12549960  0.94734773  0.38879885  1
  H  H69  1  0.63066704  0.27912258  0.38794938  1
  H  H70  1  0.61469258  0.60910548  0.40092281  1
  H  H71  1  0.62896988  0.94944362  0.38455802  1
  H  H72  1  0.36718389  0.22471012  0.59886514  1
  H  H73  1  0.38094767  0.55118791  0.61787854  1
  H  H74  1  0.37306251  0.88777874  0.60928695  1
  H  H75  1  0.87277119  0.22236813  0.60612505  1
  H  H76  1  0.87827778  0.54915480  0.62058954  1
  H  H77  1  0.86737292  0.89003865  0.59784534  1
  H  H78  1  0.12395631  0.11555347  0.12446170  1
  H  H79  1  0.12572445  0.44755703  0.10660410  1
  H  H80  1  0.13255705  0.77329313  0.09836533  1
  H  H81  1  0.62917692  0.11360232  0.10216337  1
  H  H82  1  0.62606986  0.44399630  0.10863993  1
  H  H83  1  0.62728692  0.78082317  0.11197200  1
  H  H84  1  0.13621491  0.22787231  0.90680925  1
  H  H85  1  0.11924197  0.55189465  0.88233292  1
  H  H86  1  0.13184911  0.89187489  0.90176727  1
  H  H87  1  0.62968242  0.22198956  0.89116569  1
  H  H88  1  0.62219859  0.55391168  0.89165400  1
  H  H89  1  0.62695839  0.88612648  0.89014529  1
  H  H90  1  0.36899988  0.10916902  0.39783171  1
  H  H91  1  0.36508620  0.44244516  0.39786126  1
  H  H92  1  0.36830736  0.77896268  0.39463850  1
  H  H93  1  0.86772826  0.11302756  0.39762976  1
  H  H94  1  0.86874111  0.44115954  0.40566487  1
  H  H95  1  0.86907406  0.77885516  0.39765132  1
  H  H96  1  0.38228920  0.27715516  0.39495644  1
  H  H97  1  0.36750870  0.61451464  0.37862495  1
  H  H98  1  0.38001819  0.94482381  0.39695566  1
  H  H99  1  0.88230632  0.27924352  0.40203782  1
  H  H100  1  0.86939734  0.61258828  0.37902706  1
  H  H101  1  0.87574525  0.94927883  0.38621587  1
  H  H102  1  0.12649185  0.05483884  0.88840188  1
  H  H103  1  0.12373042  0.39038304  0.89747266  1
  H  H104  1  0.11645014  0.72231191  0.90289232  1
  H  H105  1  0.62504940  0.05579321  0.89122441  1
  H  H106  1  0.62448654  0.38711540  0.89147941  1
  H  H107  1  0.61877690  0.72079810  0.89041441  1
  H  H108  1  0.11760521  0.27910320  0.10351683  1
  H  H109  1  0.12432352  0.60778899  0.09993805  1
  H  H110  1  0.11924347  0.94443775  0.10539064  1
  H  H111  1  0.61829563  0.27599162  0.09840657  1
  H  H112  1  0.63029281  0.61449876  0.12182379  1
  H  H113  1  0.61904526  0.94585556  0.10732993  1
  H  H114  1  0.38412191  0.05644502  0.59932806  1
  H  H115  1  0.38460259  0.39113063  0.59742714  1
  H  H116  1  0.37614251  0.72129503  0.61158965  1
  H  H117  1  0.87661188  0.05197567  0.61308328  1
  H  H118  1  0.88171225  0.38715391  0.59344597  1
  H  H119  1  0.88285828  0.72588142  0.59826455  1
  H  H120  1  0.12021985  0.11449555  0.38446236  1
  H  H121  1  0.11726993  0.44694416  0.37648365  1
  H  H122  1  0.11999968  0.77843492  0.38905381  1
  H  H123  1  0.61989796  0.11510961  0.38241885  1
  H  H124  1  0.62366003  0.44964716  0.37601926  1
  H  H125  1  0.62090924  0.78202757  0.38296979  1
  H  H126  1  0.38147308  0.21894732  0.87415398  1
  H  H127  1  0.36790179  0.55320909  0.89538960  1
  H  H128  1  0.37932792  0.88383103  0.87659257  1
  H  H129  1  0.87823427  0.22152880  0.89425400  1
  H  H130  1  0.87101407  0.55381734  0.89160560  1
  H  H131  1  0.87599426  0.88659583  0.88520275  1
  H  H132  1  0.37002922  0.10912854  0.09669020  1
  H  H133  1  0.37475482  0.44558211  0.10877094  1
  H  H134  1  0.37984934  0.78366862  0.12392911  1
  H  H135  1  0.87718991  0.11537293  0.12096644  1
  H  H136  1  0.87538878  0.44785166  0.11047618  1
  H  H137  1  0.87632122  0.77641917  0.10832706  1
  H  H138  1  0.11972396  0.21954340  0.62134533  1
  H  H139  1  0.13401198  0.55837346  0.59872873  1
  H  H140  1  0.12420027  0.88698161  0.61148593  1
  H  H141  1  0.62333580  0.21982428  0.60850023  1
  H  H142  1  0.63218423  0.55610069  0.59935875  1
  H  H143  1  0.62121681  0.88342511  0.61997563  1
  H  H144  1  0.08374656  0.08310778  0.99473653  1
  H  H145  1  0.04516912  0.74803805  1.00330160  1
  H  H146  1  0.68050709  0.91590749  0.99805684  1
  H  H147  1  0.21185884  0.25335160  1.00623855  1
  H  H148  1  0.64175078  0.42096375  0.49200848  1
  H  H149  1  0.29620296  0.08223942  -0.00743498  1
  H  H150  1  0.90102368  0.58200689  0.49075273  1
  H  H151  1  0.35854168  0.75391147  0.01030598  1
  H  H152  1  0.10717404  0.41136187  0.50621027  1
  H  H153  1  0.20235518  0.74270020  -0.00054872  1
  H  H154  1  0.91564890  0.92030094  0.49694860  1
  H  H155  1  0.06228953  0.58506858  0.50208254  1
  H  H156  1  0.57144008  0.07445805  0.99802136  1
  H  H157  1  0.42518979  0.75127234  0.50636048  1
  H  H158  1  0.70371411  0.58083559  0.49777029  1
  H  H159  1  0.54602179  0.58449399  0.50653243  1
  H  H160  1  0.44900782  0.58080384  -0.00680381  1
  H  H161  1  0.35094515  0.58636650  0.51232627  1
  H  H162  1  0.30572468  0.07993984  0.50121631  1
  H  H163  1  0.08020681  0.91990736  0.49929803  1
  H  H164  1  0.14067248  0.24883351  0.51258497  1
  H  H165  1  0.20364040  0.57301680  0.49553844  1
  H  H166  1  0.45072073  0.08446503  0.49324424  1
  H  H167  1  0.35738295  0.91340063  0.99025978  1
  H  H168  1  0.10081855  0.75339295  0.51515482  1
  H  H169  1  0.95350435  0.73960558  0.49567764  1
  H  H170  1  0.91063274  0.58316283  0.00782797  1
  H  H171  1  0.89888474  0.92201849  0.00907290  1
  H  H172  1  0.40107361  0.25332366  0.00571529  1
  H  H173  1  0.69196894  0.09010543  -0.00831643  1
  H  H174  1  0.58863041  0.25197914  0.49271072  1
  H  H175  1  0.61466971  0.07990979  0.51089187  1
  H  H176  1  0.43697330  0.91474308  0.50416157  1
  H  H177  1  0.67390731  0.75048820  0.00256638  1
  H  H178  1  0.60014976  0.91823066  0.49152510  1
  H  H179  1  0.05493764  0.25322302  -0.00346526  1
  H  H180  1  0.80538881  0.75575391  0.50529589  1
  H  H181  1  0.31043309  0.57833640  1.00644613  1
  H  H182  1  0.41856607  0.08140304  0.99798381  1
  H  H183  1  0.30134637  0.25270364  0.49317814  1
  H  H184  1  0.60347204  0.58710682  0.01369887  1
  H  H185  1  0.82240901  0.25244617  0.50216392  1
  H  H186  1  0.20062984  0.91746485  1.00285402  1
  H  H187  1  0.05966369  0.91894404  -0.00394637  1
  H  H188  1  0.29685110  0.41590183  0.50332241  1
  H  H189  1  0.92071582  0.08320587  0.50378918  1
  H  H190  1  0.45890708  0.41207523  0.49599895  1
  H  H191  1  0.82854248  0.41617728  0.00219418  1
  Pb  Pb192  1  0.24705812  0.04937932  0.74378598  1
  Pb  Pb193  1  0.25173774  0.38095231  0.74749914  1
  Pb  Pb194  1  0.25066875  0.71188697  0.75842177  1
  Pb  Pb195  1  0.75226674  0.04520637  0.75452530  1
  Pb  Pb196  1  0.75217311  0.37891727  0.74860857  1
  Pb  Pb197  1  0.74671627  0.71498946  0.74608035  1
  Pb  Pb198  1  0.24269350  0.28471967  0.24808773  1
  Pb  Pb199  1  0.24540509  0.61906856  0.25003873  1
  Pb  Pb200  1  0.24779828  0.95357011  0.24555779  1
  Pb  Pb201  1  0.74723495  0.28748590  0.25393138  1
  Pb  Pb202  1  0.74209248  0.61794969  0.25825334  1
  Pb  Pb203  1  0.74702869  0.95433517  0.24778162  1
  Pb  Pb204  1  -0.00230776  0.21578082  0.75603576  1
  Pb  Pb205  1  -0.00244818  0.54775377  0.74939750  1
  Pb  Pb206  1  0.00160948  0.87941181  0.75066226  1
  Pb  Pb207  1  0.50250581  0.21295564  0.74616227  1
  Pb  Pb208  1  0.50216952  0.54568039  0.75223986  1
  Pb  Pb209  1  0.49699996  0.88138120  0.74770799  1
  Pb  Pb210  1  -0.00529765  0.12031050  0.25255326  1
  Pb  Pb211  1  -0.00701291  0.45225359  0.25111156  1
  Pb  Pb212  1  -0.00560806  0.78429706  0.24925261  1
  Pb  Pb213  1  0.49766973  0.12041101  0.24292654  1
  Pb  Pb214  1  0.49148265  0.45056490  0.25485111  1
  Pb  Pb215  1  0.49821316  0.78772448  0.25364176  1
  C  C216  1  0.00253920  0.04570512  0.63344276  1
  C  C217  1  0.00088585  0.37894498  0.62861556  1
  C  C218  1  0.00218761  0.71323756  0.63109101  1
  C  C219  1  0.50341334  0.04592991  0.63284518  1
  C  C220  1  0.50258955  0.37790525  0.63373647  1
  C  C221  1  0.50121289  0.71439861  0.63304688  1
  C  C222  1  -0.00384843  0.28697778  0.13453960  1
  C  C223  1  0.00303554  0.62012983  0.12916958  1
  C  C224  1  -0.00209244  0.95463745  0.13463034  1
  C  C225  1  0.49761033  0.28760939  0.12884690  1
  C  C226  1  0.50257563  0.62021058  0.13249031  1
  C  C227  1  0.49537746  0.95301154  0.13347103  1
  C  C228  1  0.00096553  0.04765484  0.86933485  1
  C  C229  1  0.00214155  0.38024740  0.86744679  1
  C  C230  1  -0.00272413  0.71151968  0.86811826  1
  C  C231  1  0.50142312  0.04573126  0.86654470  1
  C  C232  1  0.49968938  0.37941837  0.86881748  1
  C  C233  1  0.49462990  0.71296792  0.86620907  1
  C  C234  1  0.00270719  0.28735867  0.37202916  1
  C  C235  1  -0.00432385  0.62045723  0.36487607  1
  C  C236  1  0.00121853  0.95437873  0.36608534  1
  C  C237  1  0.50525896  0.28632739  0.36748206  1
  C  C238  1  0.49518750  0.62032240  0.36681466  1
  C  C239  1  0.50236978  0.95393782  0.36823506  1
  C  C240  1  0.24721344  0.21345222  0.63212225  1
  C  C241  1  0.25388004  0.54659872  0.63063319  1
  C  C242  1  0.24896739  0.87894253  0.63333363  1
  C  C243  1  0.74893444  0.21222826  0.62944408  1
  C  C244  1  0.75100149  0.54387879  0.63377152  1
  C  C245  1  0.74824269  0.88010797  0.62931894  1
  C  C246  1  0.25209603  0.11971736  0.13339467  1
  C  C247  1  0.25004193  0.45401624  0.13259294  1
  C  C248  1  0.25145627  0.78577892  0.13324756  1
  C  C249  1  0.74944388  0.12094660  0.13288820  1
  C  C250  1  0.75027342  0.45347162  0.13296766  1
  C  C251  1  0.75259398  0.78686838  0.13355527  1
  C  C252  1  0.25274990  0.21454719  0.86915049  1
  C  C253  1  0.24653589  0.54583505  0.86736023  1
  C  C254  1  0.25102894  0.88042392  0.86719769  1
  C  C255  1  0.75459161  0.21384536  0.86740602  1
  C  C256  1  0.74645801  0.54548925  0.86885604  1
  C  C257  1  0.75052601  0.87856958  0.86430510  1
  C  C258  1  0.24751743  0.12091227  0.36892637  1
  C  C259  1  0.24506314  0.45373242  0.36432844  1
  C  C260  1  0.24500493  0.78738244  0.36705495  1
  C  C261  1  0.74639201  0.12082566  0.36922952  1
  C  C262  1  0.75023252  0.45266462  0.37037454  1
  C  C263  1  0.74781236  0.78789089  0.36647269  1
  C  C264  1  0.26639149  0.42631652  0.45983334  1
  C  C265  1  0.77505624  0.09422479  0.46421650  1
  C  C266  1  0.71751040  0.90542968  0.95795424  1
  C  C267  1  0.46355733  0.41031752  0.96036621  1
  C  C268  1  0.45572729  0.74091090  0.95902375  1
  C  C269  1  0.45448375  0.92598399  0.04096880  1
  C  C270  1  0.30976001  0.90481913  0.95517984  1
  C  C271  1  0.52573016  0.25738832  0.03324293  1
  C  C272  1  0.70464109  0.24108295  0.53702022  1
  C  C273  1  0.56351493  0.07049618  0.54478367  1
  C  C274  1  0.47901252  0.59206936  0.03639175  1
  C  C275  1  0.31071729  0.76251217  0.04520996  1
  C  C276  1  0.69096419  0.90476775  0.54119862  1
  C  C277  1  0.97893461  0.40315007  0.53127940  1
  C  C278  1  0.05656140  0.26312397  0.46147793  1
  C  C279  1  0.02175889  0.26228819  0.03904273  1
  C  C280  1  0.72403590  0.09779371  0.03486385  1
  C  C281  1  0.02720069  0.59422978  0.46066959  1
  C  C282  1  0.48219407  0.07304179  0.53581237  1
  C  C283  1  0.28487143  0.90887804  0.54080104  1
  C  C284  1  0.95797579  0.92958347  0.45959123  1
  C  C285  1  0.97647499  0.26236470  0.46771291  1
  C  C286  1  0.77068857  0.42655240  0.46751661  1
  C  C287  1  0.27579781  0.57009375  0.96453665  1
  C  C288  1  0.80479008  0.09801607  0.04342987  1
  C  C289  1  0.77274630  0.76399116  0.46242865  1
  C  C290  1  0.94525635  0.59360321  0.45555413  1
  C  C291  1  0.77101707  0.90728315  0.53362682  1
  C  C292  1  0.04015745  0.92902545  0.46059025  1
  C  C293  1  0.27019711  0.24181371  0.53601526  1
  C  C294  1  0.78863468  0.42654844  0.04074484  1
  C  C295  1  0.02610838  0.92890202  0.03809185  1
  C  C296  1  0.51557386  0.59531395  0.46328838  1
  C  C297  1  0.96157162  0.07281550  0.54180716  1
  C  C298  1  0.69003999  0.42950333  0.45882049  1
  C  C299  1  0.69444357  0.09514575  0.45928693  1
  C  C300  1  0.71351200  0.76041713  0.04129667  1
  C  C301  1  0.26814414  0.09345128  0.03673533  1
  C  C302  1  0.94427950  0.93099758  0.04416038  1
  C  C303  1  0.31716383  0.24125542  0.95443109  1
  C  C304  1  0.47248732  0.92573437  0.46322486  1
  C  C305  1  0.19461186  0.56997200  0.95804553  1
  C  C306  1  0.19508639  0.09023855  0.45806407  1
  C  C307  1  0.78452862  0.57474621  0.96130965  1
  C  C308  1  0.45716130  0.07277914  0.95837046  1
  C  C309  1  0.05947469  0.40254285  0.53965459  1
  C  C310  1  0.02894825  0.41060905  0.96136290  1
  C  C311  1  0.03329025  0.58742919  0.03467118  1
  N  N312  1  0.95146145  0.40907159  0.95823598  1
  N  N313  1  0.23162045  0.76027163  0.03726227  1
  N  N314  1  0.27965083  0.76067358  0.46157533  1
  N  N315  1  0.23930768  0.24411771  0.96456338  1
  N  N316  1  0.70642878  0.57501120  0.96241955  1
  N  N317  1  0.53219744  0.92632056  0.03801822  1
  N  N318  1  0.43688112  0.59822045  0.45626280  1
  N  N319  1  0.79675752  0.90580922  0.95661892  1
  N  N320  1  0.94284179  0.26133506  0.04402062  1
  N  N321  1  0.80841690  0.56949724  0.54576631  1
  N  N322  1  0.53977878  0.73870718  0.53851471  1
  N  N323  1  0.18789813  0.42697343  0.45232825  1
  N  N324  1  0.20691903  0.90872263  0.54033921  1
  N  N325  1  0.01754700  0.74039624  0.96158084  1
  N  N326  1  0.95455943  0.59106831  0.04054939  1
  N  N327  1  0.27370252  0.08982149  0.46200929  1
  N  N328  1  0.23067274  0.90716028  0.96267517  1
  N  N329  1  0.56189870  0.40207106  0.54655941  1
  N  N330  1  0.53353590  0.74121096  0.96074829  1
  N  N331  1  0.22967258  0.57986130  0.53815974  1
  N  N332  1  0.55195945  0.92742156  0.45778763  1
  N  N333  1  0.04379343  0.07302883  0.95959570  1
  N  N334  1  0.04064773  0.07400600  0.53917709  1
  N  N335  1  0.21295004  0.42858885  0.03830855  1
  N  N336  1  0.96580077  0.07401744  0.96417475  1
  N  N337  1  0.53679045  0.07428972  0.95891510  1
  N  N338  1  0.97931365  0.74639477  0.53837103  1
  N  N339  1  0.05740530  0.73408786  0.54293530  1
  N  N340  1  0.70936195  0.42482405  0.03959029  1
  N  N341  1  0.79093884  0.23722145  0.96261236  1
  N  N342  1  0.18974673  0.09579705  0.04577189  1
  N  N343  1  0.30771127  0.56859090  0.54235245  1
  N  N344  1  0.78388717  0.24159787  0.53741080  1
  N  N345  1  0.48486790  0.40526227  0.53915254  1
  N  N346  1  0.55779402  0.59329856  0.04552722  1
  N  N347  1  0.19123334  0.23987158  0.54478116  1
  N  N348  1  0.69388895  0.76360028  0.45720729  1
  N  N349  1  0.44733398  0.26014857  0.03994213  1
  N  N350  1  0.94002604  0.73869891  0.95586967  1
  N  N351  1  0.54722713  0.26102870  0.45784362  1
  N  N352  1  0.54089741  0.40952598  0.96161828  1
  N  N353  1  0.46184681  0.73779157  0.54163909  1
  N  N354  1  0.79275933  0.75882008  0.03970637  1
  N  N355  1  0.46902803  0.26026121  0.46212280  1
  N  N356  1  0.73095175  0.57310457  0.54002799  1
  N  N357  1  0.28905033  0.42822688  0.03888998  1
  N  N358  1  0.71482785  0.23722005  0.96169842  1
  N  N359  1  0.20296572  0.76144161  0.46004884  1
  N  N360  1  0.06462747  0.05702833  0.59666985  1
  N  N361  1  0.07193479  0.38742672  0.60132671  1
  N  N362  1  0.07147740  0.72335329  0.60301557  1
  N  N363  1  0.57460029  0.05381844  0.60524180  1
  N  N364  1  0.57269582  0.38700359  0.60572915  1
  N  N365  1  0.56384579  0.72347673  0.59562903  1
  N  N366  1  0.42942941  0.27944979  0.09888235  1
  N  N367  1  0.44426803  0.60830452  0.09052499  1
  N  N368  1  0.42970034  0.94208110  0.09879564  1
  N  N369  1  0.92858826  0.27682430  0.10357070  1
  N  N370  1  0.93536833  0.61165162  0.09861722  1
  N  N371  1  0.92844275  0.94668066  0.10420394  1
  N  N372  1  0.43485999  0.05688474  0.90057830  1
  N  N373  1  0.43531143  0.39229875  0.90447016  1
  N  N374  1  0.42966150  0.72380737  0.90179941  1
  N  N375  1  0.93968297  0.05828813  0.90762849  1
  N  N376  1  0.93476125  0.38986949  0.89815536  1
  N  N377  1  0.92796042  0.72212552  0.89702494  1
  N  N378  1  0.07241629  0.27828502  0.40218657  1
  N  N379  1  0.05714060  0.61085638  0.40373381  1
  N  N380  1  0.06556756  0.94405538  0.40202985  1
  N  N381  1  0.57060323  0.27695177  0.40091326  1
  N  N382  1  0.55259750  0.60858674  0.40873030  1
  N  N383  1  0.56950837  0.94467844  0.39935657  1
  N  N384  1  0.30551614  0.22563345  0.59026080  1
  N  N385  1  0.32275508  0.55775977  0.60218933  1
  N  N386  1  0.31270752  0.89106951  0.59693962  1
  N  N387  1  0.81188825  0.22322927  0.59405517  1
  N  N388  1  0.82032602  0.55298084  0.60446660  1
  N  N389  1  0.80621434  0.89208574  0.58742348  1
  N  N390  1  0.18175335  0.11172277  0.10626371  1
  N  N391  1  0.18703496  0.44450961  0.09629101  1
  N  N392  1  0.19519880  0.77306574  0.09203300  1
  N  N393  1  0.69022483  0.11196174  0.09208009  1
  N  N394  1  0.68706804  0.44158195  0.09749854  1
  N  N395  1  0.68726795  0.77717382  0.09859929  1
  N  N396  1  0.19861360  0.22557313  0.91235273  1
  N  N397  1  0.17751007  0.55546067  0.89938723  1
  N  N398  1  0.19439670  0.89124951  0.90876480  1
  N  N399  1  0.69065829  0.22322261  0.90270262  1
  N  N400  1  0.68284166  0.55646527  0.90344235  1
  N  N401  1  0.68775148  0.88922318  0.90161209  1
  N  N402  1  0.30737786  0.11022821  0.40770177  1
  N  N403  1  0.30286622  0.44248352  0.40605135  1
  N  N404  1  0.30681202  0.77669181  0.40418323  1
  N  N405  1  0.80688380  0.11002158  0.40928984  1
  N  N406  1  0.80682753  0.44049571  0.41422743  1
  N  N407  1  0.80760077  0.77830071  0.40697967  1
  N  N408  1  0.44358526  0.27546632  0.40526012  1
  N  N409  1  0.42580871  0.61338634  0.39577553  1
  N  N410  1  0.44132591  0.94210065  0.40755916  1
  N  N411  1  0.94334192  0.27697570  0.41305348  1
  N  N412  1  0.92729714  0.60998472  0.39597946  1
  N  N413  1  0.93534467  0.94512688  0.40046132  1
  N  N414  1  0.06673400  0.05731535  0.90224149  1
  N  N415  1  0.06254861  0.39326566  0.90706763  1
  N  N416  1  0.05431135  0.72197959  0.90940781  1
  N  N417  1  0.56402396  0.05459557  0.90308877  1
  N  N418  1  0.56370937  0.38990308  0.90339192  1
  N  N419  1  0.55769255  0.72362870  0.90154445  1
  N  N420  1  0.05613698  0.27766696  0.09418975  1
  N  N421  1  0.06358144  0.60561136  0.08942776  1
  N  N422  1  0.05808895  0.94339800  0.09497124  1
  N  N423  1  0.55723426  0.27410334  0.08812330  1
  N  N424  1  0.57198076  0.61149191  0.10434252  1
  N  N425  1  0.55764716  0.94342017  0.09694723  1
  N  N426  1  0.44593122  0.05760941  0.59106384  1
  N  N427  1  0.44703477  0.38843548  0.59125476  1
  N  N428  1  0.43651644  0.72494178  0.59928761  1
  N  N429  1  0.93655655  0.05580338  0.59936498  1
  N  N430  1  0.94356617  0.38919651  0.58495094  1
  N  N431  1  0.94478988  0.72284531  0.58972694  1
  N  N432  1  0.17849498  0.10945273  0.40045949  1
  N  N433  1  0.17597989  0.44383255  0.39281110  1
  N  N434  1  0.18028644  0.77753542  0.40126840  1
  N  N435  1  0.67734200  0.11127301  0.40059958  1
  N  N436  1  0.67871902  0.44551673  0.39730696  1
  N  N437  1  0.68013887  0.77863467  0.39754751  1
  N  N438  1  0.32576931  0.22380999  0.89503590  1
  N  N439  1  0.30720083  0.55527410  0.90665793  1
  N  N440  1  0.32226917  0.88874519  0.89559776  1
  N  N441  1  0.81732059  0.22233141  0.90429845  1
  N  N442  1  0.81087091  0.55712260  0.90469915  1
  N  N443  1  0.81579127  0.88892438  0.89779763  1
  N  N444  1  0.30789476  0.10800218  0.09009962  1
  N  N445  1  0.31373522  0.44361243  0.09735922  1
  N  N446  1  0.32285497  0.77877102  0.10473133  1
  N  N447  1  0.81960007  0.11175513  0.10247684  1
  N  N448  1  0.81534209  0.44393074  0.09775786  1
  N  N449  1  0.81543895  0.77539017  0.09757282  1
  N  N450  1  0.17790947  0.22200348  0.60368663  1
  N  N451  1  0.19593873  0.55598921  0.58969075  1
  N  N452  1  0.18462742  0.88982602  0.59930851  1
  N  N453  1  0.68298499  0.22317655  0.59424453  1
  N  N454  1  0.69434512  0.55536416  0.59251522  1
  N  N455  1  0.67764734  0.88842109  0.60034341  1
  Cl  Cl456  1  0.25824214  0.05785586  0.60631796  1
  Cl  Cl457  1  0.26624280  0.39135093  0.61000923  1
  Cl  Cl458  1  0.25335184  0.71596807  0.62582604  1
  Cl  Cl459  1  0.75626491  0.04990306  0.62554605  1
  Cl  Cl460  1  0.76049107  0.38348149  0.61366308  1
  Cl  Cl461  1  0.75886401  0.72354302  0.60967962  1
  Cl  Cl462  1  0.24178965  0.27445143  0.10760456  1
  Cl  Cl463  1  0.25570756  0.61358228  0.11632217  1
  Cl  Cl464  1  0.24380778  0.94101673  0.10574535  1
  Cl  Cl465  1  0.74101140  0.27962207  0.12583411  1
  Cl  Cl466  1  0.75367869  0.61327525  0.12625050  1
  Cl  Cl467  1  0.74205625  0.94822611  0.11530552  1
  Cl  Cl468  1  0.25088655  0.05414302  0.88157672  1
  Cl  Cl469  1  0.24866821  0.38254216  0.87835659  1
  Cl  Cl470  1  0.23874949  0.72332195  0.89857219  1
  Cl  Cl471  1  0.74956146  0.05629356  0.88987964  1
  Cl  Cl472  1  0.74998388  0.38860183  0.88057505  1
  Cl  Cl473  1  0.74225060  0.71793985  0.87897675  1
  Cl  Cl474  1  0.26006401  0.27664472  0.38377129  1
  Cl  Cl475  1  0.24103908  0.60481941  0.38997791  1
  Cl  Cl476  1  0.25437361  0.95194288  0.37687517  1
  Cl  Cl477  1  0.75548541  0.27725862  0.39154318  1
  Cl  Cl478  1  0.73694533  0.60686650  0.39598788  1
  Cl  Cl479  1  0.75151071  0.95098868  0.37942305  1
  Cl  Cl480  1  -0.00512076  0.22126658  0.62324474  1
  Cl  Cl481  1  0.01110591  0.55840287  0.61428734  1
  Cl  Cl482  1  -0.00361330  0.88613333  0.61650710  1
  Cl  Cl483  1  0.49787819  0.22354795  0.61386525  1
  Cl  Cl484  1  0.50954343  0.55451551  0.61265061  1
  Cl  Cl485  1  0.49349852  0.88724901  0.61213923  1
  Cl  Cl486  1  0.00162464  0.11419976  0.12036844  1
  Cl  Cl487  1  0.00251031  0.45118188  0.11790762  1
  Cl  Cl488  1  0.01039390  0.77107812  0.10797826  1
  Cl  Cl489  1  0.49831402  0.10953634  0.10423152  1
  Cl  Cl490  1  0.49850233  0.44843792  0.12266721  1
  Cl  Cl491  1  0.50385290  0.78309471  0.12317157  1
  Cl  Cl492  1  0.01216723  0.22495753  0.89153233  1
  Cl  Cl493  1  -0.00651869  0.55481139  0.88407618  1
  Cl  Cl494  1  0.00943495  0.88922134  0.88708283  1
  Cl  Cl495  1  0.50669947  0.22064110  0.88179520  1
  Cl  Cl496  1  0.49604392  0.55630284  0.88773317  1
  Cl  Cl497  1  0.50387092  0.88391135  0.87777207  1
  Cl  Cl498  1  -0.00680749  0.11498834  0.38380660  1
  Cl  Cl499  1  -0.01186579  0.44363688  0.38358789  1
  Cl  Cl500  1  -0.00634582  0.77241977  0.39070198  1
  Cl  Cl501  1  0.48905163  0.11168262  0.37738193  1
  Cl  Cl502  1  0.48433217  0.43663589  0.39713357  1
  Cl  Cl503  1  0.49096261  0.78051054  0.38941282  1
  Cl  Cl504  1  0.36482515  0.14663254  0.75379330  1
  Cl  Cl505  1  0.36604327  0.47976885  0.74511141  1
  Cl  Cl506  1  0.36273041  0.81234739  0.75518627  1
  Cl  Cl507  1  0.86282386  0.14730196  0.75095359  1
  Cl  Cl508  1  0.86116835  0.48163568  0.74725413  1
  Cl  Cl509  1  0.86409551  0.81265112  0.75310272  1
  Cl  Cl510  1  0.14077652  0.18878123  0.24898434  1
  Cl  Cl511  1  0.13819941  0.52279090  0.25375552  1
  Cl  Cl512  1  0.13788477  0.85295914  0.24861474  1
  Cl  Cl513  1  0.63449202  0.18747553  0.25620570  1
  Cl  Cl514  1  0.63891102  0.52206442  0.25413384  1
  Cl  Cl515  1  0.63878302  0.85316693  0.25625557  1
  Cl  Cl516  1  0.14456635  0.14469462  0.74743925  1
  Cl  Cl517  1  0.14686670  0.47975157  0.74841520  1
  Cl  Cl518  1  0.14071558  0.81292224  0.74912905  1
  Cl  Cl519  1  0.63898893  0.14470282  0.74945714  1
  Cl  Cl520  1  0.63979148  0.47906631  0.74813717  1
  Cl  Cl521  1  0.64125544  0.81091825  0.74327016  1
  Cl  Cl522  1  0.36109094  0.18787574  0.24757672  1
  Cl  Cl523  1  0.36016439  0.52029461  0.25526177  1
  Cl  Cl524  1  0.36084781  0.85414204  0.24537380  1
  Cl  Cl525  1  0.85972623  0.18743873  0.24595497  1
  Cl  Cl526  1  0.86011702  0.52154661  0.25362187  1
  Cl  Cl527  1  0.86195880  0.85475510  0.24718894  1
  Cl  Cl528  1  0.11647505  0.31222650  0.74065626  1
  Cl  Cl529  1  0.11537847  0.64529797  0.74920451  1
  Cl  Cl530  1  0.11390221  0.98023420  0.75140259  1
  Cl  Cl531  1  0.61349285  0.31370478  0.74582878  1
  Cl  Cl532  1  0.60974276  0.64861869  0.74758846  1
  Cl  Cl533  1  0.61288036  0.97904083  0.74767363  1
  Cl  Cl534  1  0.38725436  0.01920253  0.24610471  1
  Cl  Cl535  1  0.39209223  0.35369568  0.24735198  1
  Cl  Cl536  1  0.38890780  0.68626848  0.25273788  1
  Cl  Cl537  1  0.88843555  0.02134905  0.24636956  1
  Cl  Cl538  1  0.88903808  0.35284043  0.24556550  1
  Cl  Cl539  1  0.88946209  0.68935309  0.24955287  1
  Cl  Cl540  1  0.39095609  0.31209615  0.75031993  1
  Cl  Cl541  1  0.38789010  0.64496197  0.74717928  1
  Cl  Cl542  1  0.39421165  0.97796801  0.75132962  1
  Cl  Cl543  1  0.89389682  0.31334649  0.75372442  1
  Cl  Cl544  1  0.89653213  0.64625512  0.74780326  1
  Cl  Cl545  1  0.89254740  0.98102537  0.75639644  1
  Cl  Cl546  1  0.11078463  0.02213379  0.24785795  1
  Cl  Cl547  1  0.11216976  0.35570093  0.25618307  1
  Cl  Cl548  1  0.11020964  0.68655631  0.24912562  1
  Cl  Cl549  1  0.60909258  0.01986107  0.25181154  1
  Cl  Cl550  1  0.61068923  0.35442628  0.25428301  1
  Cl  Cl551  1  0.60958926  0.68699187  0.24881744  1
