# generated using pymatgen
data_H8PbC4(N3Cl2)2
_symmetry_space_group_name_H-M   'P 1'
_cell_length_a   16.62328376
_cell_length_b   22.50762234
_cell_length_c   21.59081163
_cell_angle_alpha   90.00072098
_cell_angle_beta   90.01200326
_cell_angle_gamma   89.99483525
_symmetry_Int_Tables_number   1
_chemical_formula_structural   H8PbC4(N3Cl2)2
_chemical_formula_sum   'H192 Pb24 C96 N144 Cl96'
_cell_volume   8078.21476086
_cell_formula_units_Z   24
loop_
 _symmetry_equiv_pos_site_id
 _symmetry_equiv_pos_as_xyz
  1  'x, y, z'
loop_
 _atom_site_type_symbol
 _atom_site_label
 _atom_site_symmetry_multiplicity
 _atom_site_fract_x
 _atom_site_fract_y
 _atom_site_fract_z
 _atom_site_occupancy
  H  H0  1  -0.00366131  0.03215497  0.68350399  1
  H  H1  1  0.00470712  0.36174470  0.67777682  1
  H  H2  1  -0.00836339  0.69676327  0.67626859  1
  H  H3  1  0.50951125  0.03297690  0.68250928  1
  H  H4  1  0.50242411  0.36528094  0.67839119  1
  H  H5  1  0.50398616  0.69541174  0.68147353  1
  H  H6  1  0.01125371  0.30081698  0.17965875  1
  H  H7  1  -0.00658934  0.63329873  0.18109011  1
  H  H8  1  -0.00716732  0.97162062  0.17526992  1
  H  H9  1  0.49855157  0.30102148  0.18183449  1
  H  H10  1  0.49804661  0.63700502  0.17891786  1
  H  H11  1  0.49639950  0.96766842  0.17704309  1
  H  H12  1  -0.00521562  0.02970490  0.81885971  1
  H  H13  1  -0.00954535  0.36460905  0.81978171  1
  H  H14  1  -0.00148981  0.69716723  0.81786907  1
  H  H15  1  0.49252582  0.03153577  0.82601133  1
  H  H16  1  0.50777740  0.36336338  0.81682211  1
  H  H17  1  0.50261471  0.69724230  0.82156938  1
  H  H18  1  0.00561691  0.30253467  0.32177632  1
  H  H19  1  0.00464202  0.63828666  0.32503012  1
  H  H20  1  0.00620535  0.96881552  0.31839167  1
  H  H21  1  0.49138045  0.30331347  0.31923120  1
  H  H22  1  0.49407185  0.63569422  0.32167048  1
  H  H23  1  0.49275037  0.96607194  0.32063492  1
  H  H24  1  0.25077317  0.19998993  0.68057724  1
  H  H25  1  0.25073334  0.53185606  0.68051538  1
  H  H26  1  0.25275198  0.86448508  0.67983613  1
  H  H27  1  0.75055627  0.19955282  0.67791230  1
  H  H28  1  0.74513570  0.52890165  0.67858018  1
  H  H29  1  0.74926024  0.86204277  0.67775027  1
  H  H30  1  0.25239934  0.13408787  0.17893508  1
  H  H31  1  0.25689819  0.46823611  0.17668111  1
  H  H32  1  0.23509867  0.80130364  0.17985900  1
  H  H33  1  0.75797196  0.13506724  0.17759412  1
  H  H34  1  0.74291906  0.46602647  0.18429598  1
  H  H35  1  0.76333827  0.80347046  0.17756249  1
  H  H36  1  0.24904354  0.19666446  0.82085297  1
  H  H37  1  0.24645833  0.53080082  0.81918205  1
  H  H38  1  0.24941348  0.86369919  0.82315295  1
  H  H39  1  0.75138475  0.19633368  0.82027232  1
  H  H40  1  0.76012729  0.53376744  0.81802049  1
  H  H41  1  0.75941413  0.86533610  0.82432112  1
  H  H42  1  0.23970829  0.13440929  0.31702334  1
  H  H43  1  0.24358102  0.47048043  0.32411174  1
  H  H44  1  0.25080247  0.80349452  0.32208771  1
  H  H45  1  0.75473663  0.13511908  0.31960766  1
  H  H46  1  0.75103519  0.47061871  0.32046759  1
  H  H47  1  0.75834027  0.80053958  0.32271254  1
  H  H48  1  0.12323915  0.05382189  0.61687867  1
  H  H49  1  0.11202788  0.39139006  0.59501276  1
  H  H50  1  0.12719000  0.71762180  0.61665847  1
  H  H51  1  0.62022188  0.05750768  0.60081319  1
  H  H52  1  0.61368068  0.39235118  0.59766354  1
  H  H53  1  0.63068073  0.71877575  0.61277311  1
  H  H54  1  0.37603546  0.27708252  0.10789950  1
  H  H55  1  0.37931553  0.61134766  0.10319374  1
  H  H56  1  0.38158058  0.94529439  0.10108992  1
  H  H57  1  0.87586163  0.28050605  0.11919674  1
  H  H58  1  0.88286663  0.61042437  0.10015155  1
  H  H59  1  0.88147946  0.94248265  0.09618424  1
  H  H60  1  0.38289895  0.05652686  0.90746901  1
  H  H61  1  0.37909898  0.38660395  0.88148934  1
  H  H62  1  0.37478749  0.72073704  0.88622955  1
  H  H63  1  0.87706793  0.05464394  0.89606840  1
  H  H64  1  0.88309302  0.38979681  0.90306748  1
  H  H65  1  0.87635191  0.72432335  0.89038609  1
  H  H66  1  0.12872804  0.27752632  0.39263155  1
  H  H67  1  0.11994109  0.60931681  0.40080951  1
  H  H68  1  0.13001141  0.94505966  0.39130595  1
  H  H69  1  0.63031186  0.28256807  0.37538897  1
  H  H70  1  0.62390313  0.61688197  0.38487653  1
  H  H71  1  0.63508477  0.94895815  0.37043520  1
  H  H72  1  0.36713682  0.22116319  0.60483883  1
  H  H73  1  0.37474706  0.55506342  0.60750243  1
  H  H74  1  0.36730219  0.89027173  0.59987527  1
  H  H75  1  0.86976520  0.22366375  0.60263694  1
  H  H76  1  0.87654302  0.55320777  0.61489758  1
  H  H77  1  0.86344427  0.88708002  0.59827126  1
  H  H78  1  0.12392345  0.11521988  0.11390987  1
  H  H79  1  0.12057796  0.44766452  0.11919291  1
  H  H80  1  0.13366181  0.77653860  0.09389890  1
  H  H81  1  0.62052089  0.11345336  0.12192561  1
  H  H82  1  0.62423798  0.44712757  0.10854947  1
  H  H83  1  0.62219205  0.78430222  0.12645792  1
  H  H84  1  0.12738579  0.22092336  0.89445465  1
  H  H85  1  0.11848248  0.55459065  0.88786096  1
  H  H86  1  0.12244602  0.88790981  0.89070315  1
  H  H87  1  0.62482800  0.21924310  0.88954090  1
  H  H88  1  0.61853431  0.55032559  0.86991573  1
  H  H89  1  0.62040528  0.88573247  0.87858466  1
  H  H90  1  0.37631184  0.11430099  0.37740148  1
  H  H91  1  0.38353024  0.45364432  0.37919370  1
  H  H92  1  0.36952707  0.77719108  0.39608530  1
  H  H93  1  0.87664950  0.11618333  0.39332966  1
  H  H94  1  0.87863226  0.44633672  0.38752103  1
  H  H95  1  0.87011412  0.77674377  0.40033886  1
  H  H96  1  0.38394551  0.27742143  0.40178231  1
  H  H97  1  0.37504684  0.61134342  0.39626528  1
  H  H98  1  0.38992786  0.94261291  0.40586864  1
  H  H99  1  0.87971123  0.27863394  0.39139531  1
  H  H100  1  0.87182456  0.61710531  0.38684115  1
  H  H101  1  0.88079760  0.94508099  0.38761312  1
  H  H102  1  0.12541136  0.05243776  0.88660072  1
  H  H103  1  0.12932740  0.38444560  0.87668190  1
  H  H104  1  0.12632129  0.71993486  0.88468887  1
  H  H105  1  0.62960350  0.05094708  0.88327203  1
  H  H106  1  0.62811864  0.38887135  0.89179477  1
  H  H107  1  0.62349512  0.72208196  0.89315747  1
  H  H108  1  0.12315603  0.27394024  0.09989941  1
  H  H109  1  0.13077720  0.61573685  0.12198683  1
  H  H110  1  0.12868916  0.94912158  0.11724897  1
  H  H111  1  0.62456375  0.27723975  0.11095062  1
  H  H112  1  0.62857120  0.61456900  0.11494738  1
  H  H113  1  0.62918181  0.94782101  0.11639563  1
  H  H114  1  0.37272671  0.05215925  0.62199467  1
  H  H115  1  0.36674276  0.38494438  0.61923752  1
  H  H116  1  0.38148866  0.72017218  0.60797700  1
  H  H117  1  0.87367260  0.05242072  0.61166941  1
  H  H118  1  0.86608611  0.38411586  0.62421139  1
  H  H119  1  0.88008762  0.72499162  0.59705230  1
  H  H120  1  0.12898164  0.11209321  0.39914395  1
  H  H121  1  0.13831015  0.44029531  0.40768820  1
  H  H122  1  0.11983027  0.77835306  0.38601453  1
  H  H123  1  0.62864852  0.11082923  0.38750275  1
  H  H124  1  0.62993932  0.44674842  0.39437999  1
  H  H125  1  0.62324801  0.78268207  0.38090684  1
  H  H126  1  0.37624187  0.21862678  0.89060941  1
  H  H127  1  0.36683116  0.55583199  0.89464949  1
  H  H128  1  0.37193464  0.88995394  0.89448015  1
  H  H129  1  0.87457027  0.21891476  0.89152237  1
  H  H130  1  0.86385464  0.55762898  0.90272080  1
  H  H131  1  0.86546776  0.89467235  0.90654639  1
  H  H132  1  0.37307389  0.10943906  0.10593276  1
  H  H133  1  0.36644849  0.44140699  0.09484033  1
  H  H134  1  0.37777728  0.78635593  0.13023042  1
  H  H135  1  0.86686024  0.10833022  0.09457939  1
  H  H136  1  0.87323617  0.44651342  0.12097635  1
  H  H137  1  0.86684987  0.77526848  0.09131402  1
  H  H138  1  0.11818814  0.21955642  0.61755279  1
  H  H139  1  0.12608525  0.55493484  0.60815201  1
  H  H140  1  0.11988618  0.88468978  0.61681624  1
  H  H141  1  0.62107606  0.22265739  0.61033966  1
  H  H142  1  0.62819386  0.55530007  0.60318504  1
  H  H143  1  0.61647412  0.88491039  0.61454511  1
  H  H144  1  0.94860424  0.58140433  -0.00605264  1
  H  H145  1  0.03837056  0.41688268  0.49470696  1
  H  H146  1  0.57051599  0.39878436  0.99879091  1
  H  H147  1  0.32763846  0.24458445  0.99617131  1
  H  H148  1  0.59620148  0.58349307  0.00354058  1
  H  H149  1  0.43675759  0.58547263  -0.00049377  1
  H  H150  1  0.59024648  0.58427095  0.49762930  1
  H  H151  1  0.31476692  0.74412614  0.50313700  1
  H  H152  1  0.08355703  0.74758003  0.99674581  1
  H  H153  1  0.78770192  0.74937793  -0.00706584  1
  H  H154  1  0.60482963  0.07932569  0.99340640  1
  H  H155  1  0.81475861  0.11805543  0.49878725  1
  H  H156  1  0.58979565  0.74822275  0.50343318  1
  H  H157  1  0.29311671  0.43070482  -0.00720979  1
  H  H158  1  0.10339690  0.58588483  0.01440784  1
  H  H159  1  0.79013394  0.58360788  1.00804971  1
  H  H160  1  0.55064751  0.08333607  0.49522496  1
  H  H161  1  0.10092263  0.91926351  0.00907991  1
  H  H162  1  0.29960212  0.91840251  0.49879908  1
  H  H163  1  0.95566483  0.41288392  1.00857007  1
  H  H164  1  0.19894400  0.09014189  0.50586693  1
  H  H165  1  0.83778138  0.42280674  0.00597541  1
  H  H166  1  0.14754608  0.41309568  0.01255253  1
  H  H167  1  0.36345902  0.41997707  0.48780815  1
  H  H168  1  0.66962687  0.24601942  0.99497626  1
  H  H169  1  0.82875263  0.24729815  1.00077614  1
  H  H170  1  0.15755143  0.75150558  0.49293704  1
  H  H171  1  0.21508249  0.42517238  0.50846576  1
  H  H172  1  0.92255710  0.07049258  0.49834679  1
  H  H173  1  0.30988200  0.24658324  0.49385396  1
  H  H174  1  0.90618877  0.58565942  0.49346505  1
  H  H175  1  0.67919432  0.43345681  -0.00416394  1
  H  H176  1  0.66426551  0.25031922  0.50499800  1
  H  H177  1  0.21023816  0.74888728  -0.00994146  1
  H  H178  1  0.41828866  0.40827734  0.99575822  1
  H  H179  1  0.83738315  0.41704068  0.49738824  1
  H  H180  1  0.32138786  0.91960880  0.99807502  1
  H  H181  1  0.68422126  0.06408471  0.48311609  1
  H  H182  1  0.40874694  0.75179762  0.99822377  1
  H  H183  1  0.63780392  0.91760590  0.98833811  1
  H  H184  1  0.64672806  0.91399706  0.50529041  1
  H  H185  1  0.92874589  0.91298742  0.49630928  1
  H  H186  1  0.45579258  0.24917667  0.50592664  1
  H  H187  1  0.57719426  0.75179917  1.00238306  1
  H  H188  1  0.08179888  0.07891388  0.50331014  1
  H  H189  1  0.16128651  0.08602819  0.00071755  1
  H  H190  1  0.92975848  0.75042490  0.99536588  1
  H  H191  1  0.46458492  0.91642086  0.51055434  1
  Pb  Pb192  1  0.24715707  0.04642279  0.75431776  1
  Pb  Pb193  1  0.24600006  0.38087435  0.74753755  1
  Pb  Pb194  1  0.24867178  0.71274204  0.74612973  1
  Pb  Pb195  1  0.74800450  0.04655775  0.74233129  1
  Pb  Pb196  1  0.74784943  0.37965365  0.75423530  1
  Pb  Pb197  1  0.74484005  0.71569848  0.75299683  1
  Pb  Pb198  1  0.25680245  0.28386143  0.24949212  1
  Pb  Pb199  1  0.25510958  0.61878273  0.25124844  1
  Pb  Pb200  1  0.25181670  0.95440264  0.25444106  1
  Pb  Pb201  1  0.75181150  0.28745886  0.24734388  1
  Pb  Pb202  1  0.75259264  0.62132479  0.24725846  1
  Pb  Pb203  1  0.75860635  0.95100199  0.24389934  1
  Pb  Pb204  1  -0.00282505  0.21255610  0.75244640  1
  Pb  Pb205  1  -0.00600495  0.54871074  0.75153852  1
  Pb  Pb206  1  -0.00272884  0.87895221  0.75257224  1
  Pb  Pb207  1  0.49767422  0.21267997  0.74761318  1
  Pb  Pb208  1  0.49688419  0.54629671  0.74967015  1
  Pb  Pb209  1  0.49300030  0.88215222  0.74895493  1
  Pb  Pb210  1  0.00052194  0.12125850  0.25237115  1
  Pb  Pb211  1  0.00475338  0.45167471  0.25754701  1
  Pb  Pb212  1  0.00557183  0.78420088  0.24084260  1
  Pb  Pb213  1  0.50672737  0.11696648  0.24964693  1
  Pb  Pb214  1  0.50235749  0.45469830  0.24085243  1
  Pb  Pb215  1  0.50074234  0.78819534  0.25613609  1
  C  C216  1  -0.00229986  0.04639010  0.63542848  1
  C  C217  1  -0.00557628  0.37773701  0.63106758  1
  C  C218  1  0.00006449  0.71249930  0.62947392  1
  C  C219  1  0.50057472  0.04712327  0.63494701  1
  C  C220  1  0.49430511  0.38032162  0.63124412  1
  C  C221  1  0.50525861  0.71109410  0.63401585  1
  C  C222  1  0.00299945  0.28579679  0.13253526  1
  C  C223  1  0.00308794  0.61950478  0.13334145  1
  C  C224  1  0.00156318  0.95510617  0.12861342  1
  C  C225  1  0.49974803  0.28573617  0.13418342  1
  C  C226  1  0.50174330  0.62049519  0.13161985  1
  C  C227  1  0.50254220  0.95368996  0.12940023  1
  C  C228  1  -0.00068397  0.04518616  0.86632983  1
  C  C229  1  0.00135001  0.37908441  0.86705037  1
  C  C230  1  -0.00002480  0.71304908  0.86541980  1
  C  C231  1  0.50214797  0.04616650  0.87332006  1
  C  C232  1  0.50561050  0.37841759  0.86461083  1
  C  C233  1  0.50021807  0.71347627  0.86892721  1
  C  C234  1  0.00446889  0.28648542  0.36895781  1
  C  C235  1  -0.00156092  0.62161296  0.37187421  1
  C  C236  1  0.00586987  0.95292366  0.36580565  1
  C  C237  1  0.50226748  0.28801841  0.36618726  1
  C  C238  1  0.49833141  0.62082779  0.36924802  1
  C  C239  1  0.50604016  0.95267616  0.36787605  1
  C  C240  1  0.24560652  0.21367007  0.63266497  1
  C  C241  1  0.25056247  0.54664641  0.63268090  1
  C  C242  1  0.24697986  0.87961870  0.63237634  1
  C  C243  1  0.74662032  0.21494094  0.63041334  1
  C  C244  1  0.75033206  0.54542483  0.63178815  1
  C  C245  1  0.74263336  0.87773960  0.63038191  1
  C  C246  1  0.24918794  0.11954600  0.13124499  1
  C  C247  1  0.24786011  0.45291412  0.12941031  1
  C  C248  1  0.24872072  0.78787301  0.13273846  1
  C  C249  1  0.74858636  0.11922919  0.13083219  1
  C  C250  1  0.74685442  0.45261763  0.13607446  1
  C  C251  1  0.75119295  0.78856749  0.13068695  1
  C  C252  1  0.25131131  0.21207314  0.86841566  1
  C  C253  1  0.24386830  0.54640966  0.86675387  1
  C  C254  1  0.24834442  0.88018867  0.87031086  1
  C  C255  1  0.74986380  0.21201602  0.86791262  1
  C  C256  1  0.74757443  0.54711708  0.86531424  1
  C  C257  1  0.74785036  0.88117240  0.87087785  1
  C  C258  1  0.24863575  0.12026469  0.36457540  1
  C  C259  1  0.25535687  0.45508636  0.37098722  1
  C  C260  1  0.24618586  0.78718922  0.36938599  1
  C  C261  1  0.75333788  0.12065060  0.36759297  1
  C  C262  1  0.75338877  0.45450270  0.36766606  1
  C  C263  1  0.75024075  0.78676315  0.37043882  1
  C  C264  1  0.20378360  0.09477130  0.03797278  1
  C  C265  1  0.68181221  0.56933691  0.95100975  1
  C  C266  1  0.47866236  0.07459496  0.97029185  1
  C  C267  1  0.02868822  0.58916527  0.46632379  1
  C  C268  1  0.69451096  0.76223039  0.45921906  1
  C  C269  1  0.76147216  0.57260464  0.96419895  1
  C  C270  1  0.27949765  0.75663141  0.46279231  1
  C  C271  1  0.78924902  0.23796754  0.96167332  1
  C  C272  1  0.04173161  0.06884671  0.54168557  1
  C  C273  1  0.95974401  0.06676737  0.53955730  1
  C  C274  1  0.71390612  0.43453493  0.03851837  1
  C  C275  1  0.45827736  0.40227624  0.95637859  1
  C  C276  1  0.47408382  0.92866459  0.03388265  1
  C  C277  1  0.76705284  0.91396251  0.96704980  1
  C  C278  1  0.04052698  0.25614149  0.46092927  1
  C  C279  1  0.04468245  0.73966867  0.95719528  1
  C  C280  1  0.44195703  0.40547798  0.54217641  1
  C  C281  1  0.22846789  0.09733836  0.46154711  1
  C  C282  1  0.77533109  0.76039048  0.46567764  1
  C  C283  1  0.23757182  0.76078450  0.03410631  1
  C  C284  1  0.31689452  0.76464042  0.04827908  1
  C  C285  1  0.27500302  0.23777700  0.53549943  1
  C  C286  1  0.57322982  0.92924747  0.45320517  1
  C  C287  1  0.97736307  0.74462187  0.53526233  1
  C  C288  1  0.52079073  0.07213749  0.53852657  1
  C  C289  1  0.69297074  0.09194168  0.04368054  1
  C  C290  1  0.97604968  0.92274919  0.03330514  1
  C  C291  1  0.53638503  0.74122459  0.96344325  1
  C  C292  1  0.97908135  0.59277062  0.03699900  1
  C  C293  1  0.46452788  0.59238514  0.46353612  1
  C  C294  1  0.20327599  0.90917182  0.96252527  1
  C  C295  1  0.54563687  0.73767796  0.54173773  1
  C  C296  1  0.54607887  0.59404802  0.46121567  1
  C  C297  1  0.19374507  0.23723570  0.54179070  1
  C  C298  1  0.02599130  0.25605694  0.03765635  1
  C  C299  1  0.93220312  0.40627570  0.54528654  1
  C  C300  1  0.79467627  0.42703941  0.45931842  1
  C  C301  1  0.98402841  0.40334443  0.96419864  1
  C  C302  1  0.55502290  0.92975832  0.03905283  1
  C  C303  1  0.55106322  0.59349104  0.04099523  1
  C  C304  1  0.49320055  0.92728032  0.46649473  1
  C  C305  1  0.96780774  0.92488621  0.45780459  1
  C  C306  1  0.45416317  0.74099379  0.96115779  1
  C  C307  1  0.28540702  0.09280519  0.03687431  1
  C  C308  1  0.48499577  0.26044557  0.46230932  1
  C  C309  1  0.68459563  0.76065623  0.04616385  1
  C  C310  1  0.72090456  0.57609078  0.53793801  1
  C  C311  1  0.79560206  0.43207244  0.04324477  1
  N  N312  1  0.46323884  0.25942213  0.03988956  1
  N  N313  1  0.55668604  0.07220677  0.96096359  1
  N  N314  1  0.44220940  0.06989498  0.54541916  1
  N  N315  1  0.29024280  0.23905780  0.95897368  1
  N  N316  1  0.69410849  0.90418966  0.54141424  1
  N  N317  1  0.21219289  0.23874154  0.96215482  1
  N  N318  1  0.78271175  0.24084996  0.53584839  1
  N  N319  1  0.01048054  0.40876227  0.53657129  1
  N  N320  1  0.30695178  0.09725939  0.45395049  1
  N  N321  1  0.53799253  0.40377656  0.95885251  1
  N  N322  1  0.27031697  0.90737349  0.53899102  1
  N  N323  1  0.04707934  0.92573209  0.45955030  1
  N  N324  1  0.28265652  0.90972629  0.96268581  1
  N  N325  1  0.70460591  0.24058230  0.54017398  1
  N  N326  1  0.05455313  0.74175302  0.54034130  1
  N  N327  1  0.79868180  0.57561178  0.54089761  1
  N  N328  1  0.28828821  0.57197796  0.53851343  1
  N  N329  1  0.94998747  0.59257696  0.46055712  1
  N  N330  1  0.19260445  0.90550321  0.54316123  1
  N  N331  1  0.71550176  0.42643405  0.46201313  1
  N  N332  1  0.19133223  0.43082408  0.04206805  1
  N  N333  1  0.46620711  0.73825112  0.53963356  1
  N  N334  1  0.51896408  0.40858438  0.53415208  1
  N  N335  1  0.05794575  0.59522605  0.04558066  1
  N  N336  1  0.23867184  0.42173178  0.46427601  1
  N  N337  1  0.21202714  0.57171294  0.53867888  1
  N  N338  1  0.70938413  0.09954862  0.46028218  1
  N  N339  1  0.76959009  0.08974930  0.03352895  1
  N  N340  1  0.04461793  0.07261205  0.95794105  1
  N  N341  1  0.96520716  0.74185521  0.95767698  1
  N  N342  1  0.05443313  0.92589059  0.04138442  1
  N  N343  1  0.31555075  0.43495208  0.45718436  1
  N  N344  1  0.76239082  0.75784299  0.03563859  1
  N  N345  1  0.06237225  0.40110821  0.95544663  1
  N  N346  1  0.68942184  0.90944836  0.95662744  1
  N  N347  1  0.79212385  0.09596677  0.46088289  1
  N  N348  1  0.56343486  0.26216605  0.45371898  1
  N  N349  1  0.94870311  0.25886493  0.04233240  1
  N  N350  1  0.27727494  0.57318425  0.96145326  1
  N  N351  1  0.77182239  0.90501269  0.53488646  1
  N  N352  1  0.47146197  0.59194061  0.03828009  1
  N  N353  1  0.19993072  0.75705114  0.45833738  1
  N  N354  1  0.96314780  0.25675838  0.46201762  1
  N  N355  1  0.96852158  0.07343416  0.96122566  1
  N  N356  1  0.26959968  0.42131514  0.03576086  1
  N  N357  1  0.20056936  0.57287659  0.95911831  1
  N  N358  1  0.54041419  0.25983325  0.04078278  1
  N  N359  1  0.70955509  0.23975311  0.95943018  1
  N  N360  1  0.06392200  0.05626379  0.60144916  1
  N  N361  1  0.04976210  0.38851387  0.58865417  1
  N  N362  1  0.06873311  0.72132705  0.60039936  1
  N  N363  1  0.55833494  0.05807991  0.59305969  1
  N  N364  1  0.55140710  0.39263039  0.59085270  1
  N  N365  1  0.57068209  0.72149504  0.59949582  1
  N  N366  1  0.43727730  0.27537952  0.09760685  1
  N  N367  1  0.44103543  0.60979314  0.09364688  1
  N  N368  1  0.44240373  0.94310386  0.08915781  1
  N  N369  1  0.93444647  0.27773801  0.10290652  1
  N  N370  1  0.94461815  0.60804766  0.09144951  1
  N  N371  1  0.94314626  0.94059583  0.08730856  1
  N  N372  1  0.44435744  0.05863017  0.91596455  1
  N  N373  1  0.43810539  0.38873249  0.89763165  1
  N  N374  1  0.43366102  0.72382203  0.90199218  1
  N  N375  1  0.93877005  0.05621733  0.90474801  1
  N  N376  1  0.94507075  0.39023461  0.91018300  1
  N  N377  1  0.93757686  0.72358083  0.90173659  1
  N  N378  1  0.06877577  0.27410382  0.40493547  1
  N  N379  1  0.05901863  0.60683070  0.41145153  1
  N  N380  1  0.06908270  0.94301660  0.40184492  1
  N  N381  1  0.57244339  0.27918040  0.39338956  1
  N  N382  1  0.56565238  0.61188493  0.40137173  1
  N  N383  1  0.58012491  0.94437741  0.39283897  1
  N  N384  1  0.30642909  0.22323171  0.59349606  1
  N  N385  1  0.31380020  0.55641563  0.59668296  1
  N  N386  1  0.30534375  0.89113843  0.59256972  1
  N  N387  1  0.80836349  0.22545498  0.59255988  1
  N  N388  1  0.81688186  0.55655124  0.60069648  1
  N  N389  1  0.80155997  0.88875906  0.59021054  1
  N  N390  1  0.18253261  0.11124481  0.09791262  1
  N  N391  1  0.17833506  0.44098015  0.10228926  1
  N  N392  1  0.19552753  0.77574231  0.08823253  1
  N  N393  1  0.67754237  0.10922692  0.10308361  1
  N  N394  1  0.68464960  0.44675252  0.09688381  1
  N  N395  1  0.67779938  0.77865627  0.10539945  1
  N  N396  1  0.18847213  0.22316175  0.90495599  1
  N  N397  1  0.17863656  0.55642768  0.90044615  1
  N  N398  1  0.18206044  0.89134105  0.90498333  1
  N  N399  1  0.68539131  0.22299020  0.90184403  1
  N  N400  1  0.67384760  0.55431359  0.89118313  1
  N  N401  1  0.67738084  0.88887535  0.89760484  1
  N  N402  1  0.31779505  0.11138408  0.39361518  1
  N  N403  1  0.32640224  0.44634947  0.39707981  1
  N  N404  1  0.30845784  0.77459969  0.40743251  1
  N  N405  1  0.81587435  0.11818052  0.40529120  1
  N  N406  1  0.81939323  0.44376706  0.40137615  1
  N  N407  1  0.80926122  0.77522582  0.41183276  1
  N  N408  1  0.44602641  0.27605379  0.40900410  1
  N  N409  1  0.43572698  0.60860028  0.40815011  1
  N  N410  1  0.45217722  0.94223923  0.41223708  1
  N  N411  1  0.94044016  0.27598911  0.40340820  1
  N  N412  1  0.93085467  0.61298628  0.40243994  1
  N  N413  1  0.94095990  0.94130984  0.40063617  1
  N  N414  1  0.06513909  0.05538321  0.89905580  1
  N  N415  1  0.07151634  0.38632875  0.89465118  1
  N  N416  1  0.06670885  0.72278228  0.89963183  1
  N  N417  1  0.57175804  0.05435495  0.90130275  1
  N  N418  1  0.56712183  0.38548079  0.90273450  1
  N  N419  1  0.56340904  0.72420209  0.90561738  1
  N  N420  1  0.06173614  0.27239406  0.09147249  1
  N  N421  1  0.07246846  0.61138389  0.10495001  1
  N  N422  1  0.07060203  0.94637710  0.10003662  1
  N  N423  1  0.56381830  0.27595204  0.09913320  1
  N  N424  1  0.56980761  0.61004352  0.09945775  1
  N  N425  1  0.57151663  0.94450778  0.09841438  1
  N  N426  1  0.43143060  0.05488020  0.60547900  1
  N  N427  1  0.42409742  0.38857435  0.60151247  1
  N  N428  1  0.44286680  0.72161322  0.59742895  1
  N  N429  1  0.93357757  0.05334746  0.59836938  1
  N  N430  1  0.92226141  0.38855959  0.60425735  1
  N  N431  1  0.94163037  0.72676581  0.58854464  1
  N  N432  1  0.19077750  0.11086865  0.40688390  1
  N  N433  1  0.20055598  0.44392816  0.41407142  1
  N  N434  1  0.17963741  0.77761621  0.40126731  1
  N  N435  1  0.68910194  0.10491541  0.39964676  1
  N  N436  1  0.69136315  0.44365578  0.40455194  1
  N  N437  1  0.67987615  0.77829628  0.40026022  1
  N  N438  1  0.31578485  0.22158211  0.90287716  1
  N  N439  1  0.30518154  0.55702335  0.90433444  1
  N  N440  1  0.31085968  0.89121085  0.90611197  1
  N  N441  1  0.81437173  0.22180910  0.90448600  1
  N  N442  1  0.80176305  0.55841013  0.90924605  1
  N  N443  1  0.80373474  0.89615082  0.91411697  1
  N  N444  1  0.31249682  0.10763172  0.09322667  1
  N  N445  1  0.30463144  0.44500584  0.08711135  1
  N  N446  1  0.32301507  0.78076359  0.10785832  1
  N  N447  1  0.80437279  0.10713612  0.08920282  1
  N  N448  1  0.81475501  0.44330787  0.10403472  1
  N  N449  1  0.80444143  0.77734785  0.08684115  1
  N  N450  1  0.17658410  0.22292721  0.60050908  1
  N  N451  1  0.18706372  0.55635490  0.59699783  1
  N  N452  1  0.17853463  0.88881723  0.60174277  1
  N  N453  1  0.68116153  0.22461689  0.59724863  1
  N  N454  1  0.68926018  0.55784750  0.59274092  1
  N  N455  1  0.67542145  0.88768745  0.59947220  1
  Cl  Cl456  1  0.24691754  0.05377894  0.62078782  1
  Cl  Cl457  1  0.23507699  0.39449446  0.60710021  1
  Cl  Cl458  1  0.25630152  0.72434911  0.61089966  1
  Cl  Cl459  1  0.74524297  0.05927683  0.60462046  1
  Cl  Cl460  1  0.73784946  0.38791405  0.62248120  1
  Cl  Cl461  1  0.75558834  0.71982804  0.62148072  1
  Cl  Cl462  1  0.25234323  0.27851383  0.11354946  1
  Cl  Cl463  1  0.25688099  0.61337986  0.11714733  1
  Cl  Cl464  1  0.25543088  0.94516699  0.11804344  1
  Cl  Cl465  1  0.74740087  0.27508952  0.11156457  1
  Cl  Cl466  1  0.75793212  0.61590895  0.11211395  1
  Cl  Cl467  1  0.75767735  0.94216816  0.10925769  1
  Cl  Cl468  1  0.25412157  0.05274567  0.88886797  1
  Cl  Cl469  1  0.25645231  0.39353391  0.88684398  1
  Cl  Cl470  1  0.24826783  0.72194208  0.87935526  1
  Cl  Cl471  1  0.75402070  0.05087495  0.87451258  1
  Cl  Cl472  1  0.75481508  0.39059465  0.89055555  1
  Cl  Cl473  1  0.75483448  0.72764355  0.89401549  1
  Cl  Cl474  1  0.25819511  0.28141432  0.38402218  1
  Cl  Cl475  1  0.24671375  0.61405522  0.38184586  1
  Cl  Cl476  1  0.26306483  0.94110569  0.39181747  1
  Cl  Cl477  1  0.75587550  0.27811775  0.37882914  1
  Cl  Cl478  1  0.74984204  0.61762327  0.37787461  1
  Cl  Cl479  1  0.75942531  0.95244343  0.37578832  1
  Cl  Cl480  1  -0.00787845  0.22104783  0.62082602  1
  Cl  Cl481  1  0.00168592  0.55340741  0.61657778  1
  Cl  Cl482  1  -0.01242851  0.88445893  0.61846660  1
  Cl  Cl483  1  0.49606891  0.22341110  0.61193056  1
  Cl  Cl484  1  0.50231703  0.55494607  0.61751903  1
  Cl  Cl485  1  0.49056629  0.88770772  0.61308456  1
  Cl  Cl486  1  -0.00777277  0.11434301  0.12172637  1
  Cl  Cl487  1  -0.00266353  0.44891964  0.12272009  1
  Cl  Cl488  1  -0.00595568  0.77499558  0.09759566  1
  Cl  Cl489  1  0.49605340  0.10947135  0.11612945  1
  Cl  Cl490  1  0.49283084  0.43961182  0.10243481  1
  Cl  Cl491  1  0.50151428  0.78209178  0.12440214  1
  Cl  Cl492  1  0.00257798  0.22175960  0.88502636  1
  Cl  Cl493  1  -0.00905894  0.55733058  0.88960765  1
  Cl  Cl494  1  -0.00419572  0.88783007  0.88848908  1
  Cl  Cl495  1  0.49995013  0.21581066  0.88034066  1
  Cl  Cl496  1  0.48726365  0.55580885  0.88888518  1
  Cl  Cl497  1  0.49401139  0.89017575  0.88056024  1
  Cl  Cl498  1  0.00096747  0.10997389  0.38893565  1
  Cl  Cl499  1  0.01641229  0.44089469  0.39852275  1
  Cl  Cl500  1  -0.00305127  0.77707744  0.37377322  1
  Cl  Cl501  1  0.50729156  0.11292261  0.38445542  1
  Cl  Cl502  1  0.50697932  0.45284530  0.37226144  1
  Cl  Cl503  1  0.49311096  0.77875659  0.38580997  1
  Cl  Cl504  1  0.36045424  0.14587035  0.74972407  1
  Cl  Cl505  1  0.36261948  0.47763018  0.75011698  1
  Cl  Cl506  1  0.35914374  0.81388613  0.75141776  1
  Cl  Cl507  1  0.85674876  0.14855985  0.74738035  1
  Cl  Cl508  1  0.85828349  0.48131461  0.74586514  1
  Cl  Cl509  1  0.85804691  0.81454656  0.75566255  1
  Cl  Cl510  1  0.13944075  0.18671229  0.24916504  1
  Cl  Cl511  1  0.13810783  0.52093223  0.24483893  1
  Cl  Cl512  1  0.13955387  0.85346772  0.25076219  1
  Cl  Cl513  1  0.63818335  0.18798889  0.25031227  1
  Cl  Cl514  1  0.64052891  0.52096602  0.24561431  1
  Cl  Cl515  1  0.63657726  0.85637081  0.25391842  1
  Cl  Cl516  1  0.13762983  0.14698277  0.74760962  1
  Cl  Cl517  1  0.14112454  0.47745461  0.75438313  1
  Cl  Cl518  1  0.13788489  0.81386983  0.74775435  1
  Cl  Cl519  1  0.63709705  0.14734414  0.74942384  1
  Cl  Cl520  1  0.63386157  0.47894630  0.75831937  1
  Cl  Cl521  1  0.63919324  0.81010360  0.75222038  1
  Cl  Cl522  1  0.36040438  0.18830207  0.25058033  1
  Cl  Cl523  1  0.35975773  0.51870832  0.25147262  1
  Cl  Cl524  1  0.36109469  0.85227331  0.24740044  1
  Cl  Cl525  1  0.85841878  0.18457183  0.24971131  1
  Cl  Cl526  1  0.86246331  0.52025658  0.24979073  1
  Cl  Cl527  1  0.85583767  0.85223361  0.24873215  1
  Cl  Cl528  1  0.11360860  0.31122600  0.75284206  1
  Cl  Cl529  1  0.11200322  0.64573707  0.74641084  1
  Cl  Cl530  1  0.11106082  0.97851493  0.75063241  1
  Cl  Cl531  1  0.60960750  0.31306786  0.75143854  1
  Cl  Cl532  1  0.61133979  0.64489362  0.75883019  1
  Cl  Cl533  1  0.61161504  0.97872860  0.75122275  1
  Cl  Cl534  1  0.38874150  0.02067709  0.25184958  1
  Cl  Cl535  1  0.39101491  0.35404169  0.25002610  1
  Cl  Cl536  1  0.39141434  0.68646127  0.24775391  1
  Cl  Cl537  1  0.89121353  0.01875168  0.24939761  1
  Cl  Cl538  1  0.88869675  0.35407725  0.24763183  1
  Cl  Cl539  1  0.89192429  0.68486130  0.24796492  1
  Cl  Cl540  1  0.38628407  0.31341720  0.74961114  1
  Cl  Cl541  1  0.38907217  0.64793774  0.74964300  1
  Cl  Cl542  1  0.39038393  0.97997345  0.74831051  1
  Cl  Cl543  1  0.88922770  0.31574647  0.74965070  1
  Cl  Cl544  1  0.89375048  0.64630412  0.75150255  1
  Cl  Cl545  1  0.88688327  0.98052322  0.74591541  1
  Cl  Cl546  1  0.11143756  0.01920783  0.24763137  1
  Cl  Cl547  1  0.10909753  0.35530552  0.24888869  1
  Cl  Cl548  1  0.10951289  0.68938282  0.24507192  1
  Cl  Cl549  1  0.61119735  0.02181480  0.25206933  1
  Cl  Cl550  1  0.61424330  0.35468162  0.24977616  1
  Cl  Cl551  1  0.61119330  0.68695440  0.24836235  1
