# generated using pymatgen
data_H8PbC4(N3Cl2)2
_symmetry_space_group_name_H-M   'P 1'
_cell_length_a   16.62976820
_cell_length_b   22.51415027
_cell_length_c   21.59362113
_cell_angle_alpha   90.00155450
_cell_angle_beta   90.00157984
_cell_angle_gamma   89.99757355
_symmetry_Int_Tables_number   1
_chemical_formula_structural   H8PbC4(N3Cl2)2
_chemical_formula_sum   'H192 Pb24 C96 N144 Cl96'
_cell_volume   8084.76186910
_cell_formula_units_Z   24
loop_
 _symmetry_equiv_pos_site_id
 _symmetry_equiv_pos_as_xyz
  1  'x, y, z'
loop_
 _atom_site_type_symbol
 _atom_site_label
 _atom_site_symmetry_multiplicity
 _atom_site_fract_x
 _atom_site_fract_y
 _atom_site_fract_z
 _atom_site_occupancy
  H  H0  1  -0.00606399  0.02802515  0.67890060  1
  H  H1  1  0.00925636  0.36679948  0.67847954  1
  H  H2  1  -0.01849591  0.69350473  0.67703863  1
  H  H3  1  0.49268248  0.03205231  0.67982838  1
  H  H4  1  0.49014400  0.36526875  0.67820032  1
  H  H5  1  0.51315766  0.69765873  0.67707309  1
  H  H6  1  0.01042134  0.30171031  0.18069896  1
  H  H7  1  0.00509157  0.63881869  0.17514458  1
  H  H8  1  0.00275781  0.96673777  0.17946543  1
  H  H9  1  0.49190317  0.31028358  0.17787859  1
  H  H10  1  0.49857234  0.64061155  0.17504044  1
  H  H11  1  0.48938212  0.96926795  0.17586561  1
  H  H12  1  0.00511044  0.02677993  0.81601359  1
  H  H13  1  -0.00044498  0.36424193  0.82111030  1
  H  H14  1  0.00216322  0.69285811  0.82440721  1
  H  H15  1  0.49371911  0.02991011  0.82637051  1
  H  H16  1  0.49968169  0.36817200  0.81996810  1
  H  H17  1  0.50208294  0.69503588  0.82622019  1
  H  H18  1  -0.01913548  0.30594894  0.32054753  1
  H  H19  1  -0.00540751  0.63681365  0.32259879  1
  H  H20  1  0.00427614  0.97364269  0.31921072  1
  H  H21  1  0.51442750  0.30079254  0.31844521  1
  H  H22  1  0.50321844  0.63598253  0.32174292  1
  H  H23  1  0.48800418  0.97280648  0.32270090  1
  H  H24  1  0.26477314  0.19572171  0.67534652  1
  H  H25  1  0.24021972  0.53302374  0.67972959  1
  H  H26  1  0.25543925  0.86117583  0.68126747  1
  H  H27  1  0.73970275  0.19557248  0.68299331  1
  H  H28  1  0.76036437  0.52553956  0.67903448  1
  H  H29  1  0.74640388  0.86551264  0.67901445  1
  H  H30  1  0.23078092  0.13464493  0.17661588  1
  H  H31  1  0.25152347  0.47323936  0.17585312  1
  H  H32  1  0.23848798  0.80540181  0.17605815  1
  H  H33  1  0.76848619  0.13533226  0.17431850  1
  H  H34  1  0.74235491  0.46747662  0.18199869  1
  H  H35  1  0.75628656  0.80618436  0.17640079  1
  H  H36  1  0.26139992  0.20225204  0.81482204  1
  H  H37  1  0.25696245  0.52336322  0.82507748  1
  H  H38  1  0.24635099  0.86447248  0.82103611  1
  H  H39  1  0.73517930  0.19558002  0.82313320  1
  H  H40  1  0.74199797  0.53309111  0.82099187  1
  H  H41  1  0.74638508  0.85764548  0.82485344  1
  H  H42  1  0.25399723  0.13815291  0.32305106  1
  H  H43  1  0.25037193  0.47141905  0.32129293  1
  H  H44  1  0.24828537  0.80190255  0.32297024  1
  H  H45  1  0.75414106  0.13570412  0.32301355  1
  H  H46  1  0.75154449  0.46974651  0.32974337  1
  H  H47  1  0.75865228  0.80470540  0.31728888  1
  H  H48  1  0.12697354  0.05299629  0.61732185  1
  H  H49  1  0.11914577  0.38766636  0.59732858  1
  H  H50  1  0.12397968  0.71457793  0.63034687  1
  H  H51  1  0.62864831  0.05280115  0.61816341  1
  H  H52  1  0.62795773  0.38377202  0.62279740  1
  H  H53  1  0.61323662  0.72683207  0.59084342  1
  H  H54  1  0.36694961  0.28624946  0.10782736  1
  H  H55  1  0.36653960  0.61206070  0.11484386  1
  H  H56  1  0.38167847  0.93934092  0.09462482  1
  H  H57  1  0.87111989  0.28204315  0.12937699  1
  H  H58  1  0.87077406  0.61644685  0.11366554  1
  H  H59  1  0.87820079  0.94286461  0.10737012  1
  H  H60  1  0.37732565  0.05724699  0.90282579  1
  H  H61  1  0.36577894  0.38712690  0.88083428  1
  H  H62  1  0.37008536  0.71777394  0.88909762  1
  H  H63  1  0.87786047  0.05309982  0.88102932  1
  H  H64  1  0.86912487  0.38658656  0.88611904  1
  H  H65  1  0.86599389  0.71953080  0.88081586  1
  H  H66  1  0.12260531  0.28478021  0.37134121  1
  H  H67  1  0.12398512  0.61403769  0.38884665  1
  H  H68  1  0.12716030  0.94597294  0.39072678  1
  H  H69  1  0.62217057  0.27905062  0.40268299  1
  H  H70  1  0.62196620  0.60916916  0.39521436  1
  H  H71  1  0.62854837  0.95205023  0.37328380  1
  H  H72  1  0.37349980  0.22375406  0.59490820  1
  H  H73  1  0.37704224  0.55177043  0.62034845  1
  H  H74  1  0.36739550  0.88960617  0.60325874  1
  H  H75  1  0.86731486  0.21818696  0.61621077  1
  H  H76  1  0.87590723  0.55261142  0.59984717  1
  H  H77  1  0.87208307  0.88829596  0.61204640  1
  H  H78  1  0.13498091  0.10408927  0.08605748  1
  H  H79  1  0.12993737  0.44711007  0.10458675  1
  H  H80  1  0.13937910  0.77176459  0.08971769  1
  H  H81  1  0.62452119  0.11832190  0.12628158  1
  H  H82  1  0.63418710  0.44515543  0.09963495  1
  H  H83  1  0.63160474  0.77857662  0.10829333  1
  H  H84  1  0.13101066  0.22130012  0.87843114  1
  H  H85  1  0.13363699  0.55308356  0.89330989  1
  H  H86  1  0.12413860  0.88796481  0.89570301  1
  H  H87  1  0.63225378  0.22641409  0.90929666  1
  H  H88  1  0.63787641  0.56040186  0.90512051  1
  H  H89  1  0.61914494  0.88584247  0.89196126  1
  H  H90  1  0.37322180  0.11359423  0.39730649  1
  H  H91  1  0.37298611  0.44295947  0.39031137  1
  H  H92  1  0.37930868  0.78067669  0.38669942  1
  H  H93  1  0.87105249  0.10884812  0.39757555  1
  H  H94  1  0.87357686  0.44589915  0.39894807  1
  H  H95  1  0.87772005  0.77607050  0.39166291  1
  H  H96  1  0.37555357  0.28145825  0.37607738  1
  H  H97  1  0.37262269  0.61341735  0.38645658  1
  H  H98  1  0.38433880  0.94342632  0.40769249  1
  H  H99  1  0.87993076  0.27679176  0.40812244  1
  H  H100  1  0.87518954  0.60774722  0.39513759  1
  H  H101  1  0.87845744  0.94918428  0.38705955  1
  H  H102  1  0.12642892  0.05336864  0.88959065  1
  H  H103  1  0.11751123  0.39150752  0.89641826  1
  H  H104  1  0.11216602  0.72234831  0.90653145  1
  H  H105  1  0.62515072  0.05312500  0.88820943  1
  H  H106  1  0.61430518  0.38982333  0.89721205  1
  H  H107  1  0.61728794  0.72706905  0.89956452  1
  H  H108  1  0.11585914  0.27998768  0.09597569  1
  H  H109  1  0.11880742  0.60891962  0.09783933  1
  H  H110  1  0.12711777  0.94408781  0.10842853  1
  H  H111  1  0.61517408  0.27453586  0.11088120  1
  H  H112  1  0.61492909  0.61217087  0.09886662  1
  H  H113  1  0.62743383  0.94812919  0.12040436  1
  H  H114  1  0.38201384  0.06003986  0.59800855  1
  H  H115  1  0.38113136  0.38882040  0.59711231  1
  H  H116  1  0.36987701  0.71762717  0.62830777  1
  H  H117  1  0.87919483  0.05715064  0.60249852  1
  H  H118  1  0.87200071  0.38487243  0.62190025  1
  H  H119  1  0.88112423  0.72481530  0.58993662  1
  H  H120  1  0.12470171  0.11532211  0.38516658  1
  H  H121  1  0.12537295  0.45294876  0.39240908  1
  H  H122  1  0.13137513  0.77391861  0.39926683  1
  H  H123  1  0.62255406  0.11345253  0.38649570  1
  H  H124  1  0.62588178  0.44713628  0.39519433  1
  H  H125  1  0.62879804  0.78153846  0.38126475  1
  H  H126  1  0.37990796  0.22059172  0.89090185  1
  H  H127  1  0.38239142  0.55370215  0.89319723  1
  H  H128  1  0.37255351  0.88846454  0.89145926  1
  H  H129  1  0.87577314  0.21701340  0.87492259  1
  H  H130  1  0.88303050  0.54859125  0.87217915  1
  H  H131  1  0.86745591  0.88753355  0.89659561  1
  H  H132  1  0.37502525  0.11648666  0.12954928  1
  H  H133  1  0.37862749  0.44713713  0.10789229  1
  H  H134  1  0.38177253  0.78651369  0.12891265  1
  H  H135  1  0.86532170  0.10166140  0.08684845  1
  H  H136  1  0.88044205  0.45130053  0.12762047  1
  H  H137  1  0.88014586  0.77724794  0.10686779  1
  H  H138  1  0.12811059  0.21406955  0.62142903  1
  H  H139  1  0.13117888  0.55817937  0.59502423  1
  H  H140  1  0.11969550  0.88165800  0.62459840  1
  H  H141  1  0.61755190  0.22176470  0.61321651  1
  H  H142  1  0.62793079  0.54980632  0.61503329  1
  H  H143  1  0.62302012  0.88813242  0.60901171  1
  H  H144  1  0.30399622  0.92044324  0.49679899  1
  H  H145  1  0.96264664  0.25224212  0.50539788  1
  H  H146  1  0.87008668  0.57764905  -0.01449052  1
  H  H147  1  0.18375499  0.44836579  0.49895881  1
  H  H148  1  0.93238901  0.91192503  0.00399570  1
  H  H149  1  0.22058317  0.74654435  -0.00760557  1
  H  H150  1  0.43503850  0.08223154  1.00573678  1
  H  H151  1  0.11357661  0.74675934  0.51728766  1
  H  H152  1  0.53539435  0.75468295  0.48893244  1
  H  H153  1  0.55440383  0.41920579  1.00629450  1
  H  H154  1  0.04351240  0.25742144  -0.01046018  1
  H  H155  1  0.32521384  0.23461507  1.00294892  1
  H  H156  1  0.71036566  0.58754952  1.00901256  1
  H  H157  1  0.22295246  0.08181525  -0.00922991  1
  H  H158  1  0.44903798  0.41759838  0.49007299  1
  H  H159  1  0.65972615  0.08290437  0.49274722  1
  H  H160  1  0.86366674  0.42263214  0.01318381  1
  H  H161  1  0.83245306  0.91994504  0.50153555  1
  H  H162  1  0.66463394  0.91316058  0.99676539  1
  H  H163  1  0.46220003  0.91911966  0.50681576  1
  H  H164  1  0.78000762  0.08995562  -0.01125161  1
  H  H165  1  0.71389288  0.24731942  1.00875203  1
  H  H166  1  0.14381472  0.91318854  0.51181940  1
  H  H167  1  0.81954725  0.75754783  0.49752017  1
  H  H168  1  0.16696625  0.24953441  0.99212852  1
  H  H169  1  0.70230367  0.41911771  -0.00693923  1
  H  H170  1  0.05269703  0.41470950  0.48947373  1
  H  H171  1  0.56079799  0.25548269  0.00358847  1
  H  H172  1  0.82653323  0.24905475  0.50542367  1
  H  H173  1  0.31246572  0.39200836  0.48231140  1
  H  H174  1  0.15951269  0.08367020  0.49812122  1
  H  H175  1  0.43027987  0.28192926  0.00136545  1
  H  H176  1  0.63437476  0.08384896  0.01829894  1
  H  H177  1  0.91877684  0.08105794  0.99310992  1
  H  H178  1  0.40305319  0.75121464  0.99629172  1
  H  H179  1  0.03893625  0.75061132  1.00600826  1
  H  H180  1  0.38187209  0.74480022  0.51698495  1
  H  H181  1  0.14793160  0.24541045  0.50644371  1
  H  H182  1  0.96181094  0.74421626  0.49158360  1
  H  H183  1  0.07094833  0.06926568  0.99632640  1
  H  H184  1  0.66528326  0.91809977  0.49916059  1
  H  H185  1  0.56840615  0.57529355  0.50200629  1
  H  H186  1  0.41043758  0.58303199  0.49230583  1
  H  H187  1  0.66684286  0.75064941  0.49292338  1
  H  H188  1  0.54881811  0.25591645  0.50804250  1
  H  H189  1  0.66653623  0.25159914  0.50226953  1
  H  H190  1  0.55054528  0.58175371  -0.00391921  1
  H  H191  1  0.88662060  0.25869013  1.01360875  1
  Pb  Pb192  1  0.25016414  0.04707990  0.75142442  1
  Pb  Pb193  1  0.24636318  0.38253566  0.73912342  1
  Pb  Pb194  1  0.24784441  0.71290638  0.76230658  1
  Pb  Pb195  1  0.74996840  0.04750840  0.75110475  1
  Pb  Pb196  1  0.74932336  0.38064726  0.75818944  1
  Pb  Pb197  1  0.75272070  0.71587987  0.73837565  1
  Pb  Pb198  1  0.24961678  0.28740349  0.24017679  1
  Pb  Pb199  1  0.25069709  0.61980321  0.24626880  1
  Pb  Pb200  1  0.25463850  0.95179462  0.25292600  1
  Pb  Pb201  1  0.75020962  0.28439945  0.25757078  1
  Pb  Pb202  1  0.74930244  0.61943835  0.25055743  1
  Pb  Pb203  1  0.75399312  0.95187335  0.24774729  1
  Pb  Pb204  1  -0.00049732  0.21384627  0.74227405  1
  Pb  Pb205  1  0.00154472  0.54685936  0.74401616  1
  Pb  Pb206  1  -0.00058049  0.87966697  0.75786411  1
  Pb  Pb207  1  0.49623488  0.21773008  0.75574670  1
  Pb  Pb208  1  0.50451412  0.55035030  0.75661878  1
  Pb  Pb209  1  0.49870573  0.88099601  0.74534977  1
  Pb  Pb210  1  0.00470308  0.11802573  0.23920589  1
  Pb  Pb211  1  0.00124357  0.45371691  0.25161527  1
  Pb  Pb212  1  0.00726560  0.78249998  0.24765845  1
  Pb  Pb213  1  0.50073061  0.11946919  0.25117303  1
  Pb  Pb214  1  0.50169549  0.45321325  0.24775277  1
  Pb  Pb215  1  0.50290518  0.78650540  0.24990892  1
  C  C216  1  0.00038560  0.04512617  0.63242843  1
  C  C217  1  0.00025541  0.38010907  0.63080221  1
  C  C218  1  -0.00448511  0.70929423  0.63057944  1
  C  C219  1  0.50106863  0.04696680  0.63239274  1
  C  C220  1  0.49972771  0.37927370  0.63078882  1
  C  C221  1  0.49796725  0.71295301  0.63068691  1
  C  C222  1  -0.00150083  0.28831340  0.13323742  1
  C  C223  1  -0.00208532  0.62192259  0.12871974  1
  C  C224  1  0.00224134  0.95080731  0.13210955  1
  C  C225  1  0.49115531  0.29257892  0.13098134  1
  C  C226  1  0.49365491  0.62269178  0.12871510  1
  C  C227  1  0.49988848  0.95265960  0.12967113  1
  C  C228  1  0.00361565  0.04243665  0.86359331  1
  C  C229  1  -0.00455864  0.38010926  0.86826027  1
  C  C230  1  -0.00615125  0.71035161  0.87073934  1
  C  C231  1  0.49833699  0.04596242  0.87363457  1
  C  C232  1  0.49345729  0.38179204  0.86779853  1
  C  C233  1  0.49588740  0.71227663  0.87280121  1
  C  C234  1  -0.00577153  0.28989786  0.36686384  1
  C  C235  1  -0.00186465  0.61982079  0.36929430  1
  C  C236  1  0.00368733  0.95635394  0.36584780  1
  C  C237  1  0.50384335  0.28689597  0.36589585  1
  C  C238  1  0.49881042  0.61973573  0.36908244  1
  C  C239  1  0.50018806  0.95738848  0.36937339  1
  C  C240  1  0.25447893  0.21083225  0.62838114  1
  C  C241  1  0.24929839  0.54695295  0.63210912  1
  C  C242  1  0.24711887  0.87752756  0.63435652  1
  C  C243  1  0.74166814  0.21097374  0.63532934  1
  C  C244  1  0.75465411  0.54168903  0.63185539  1
  C  C245  1  0.74708062  0.88114559  0.63139170  1
  C  C246  1  0.24658074  0.11942131  0.13045304  1
  C  C247  1  0.25370836  0.45573108  0.12924394  1
  C  C248  1  0.25313912  0.78919423  0.13007579  1
  C  C249  1  0.75272801  0.11860574  0.12860784  1
  C  C250  1  0.75292164  0.45405118  0.13430953  1
  C  C251  1  0.75636146  0.78818955  0.13005789  1
  C  C252  1  0.25735311  0.21498977  0.86321907  1
  C  C253  1  0.25809378  0.54256938  0.87095640  1
  C  C254  1  0.24757174  0.88017384  0.86852857  1
  C  C255  1  0.74738621  0.21193481  0.86939734  1
  C  C256  1  0.75484148  0.54708140  0.86814127  1
  C  C257  1  0.74394440  0.87643428  0.87102258  1
  C  C258  1  0.25008725  0.12239418  0.37034575  1
  C  C259  1  0.24943540  0.45581712  0.36886176  1
  C  C260  1  0.25274517  0.78601308  0.37011108  1
  C  C261  1  0.74882635  0.11981204  0.37019642  1
  C  C262  1  0.75026380  0.45390088  0.37696942  1
  C  C263  1  0.75549853  0.78856508  0.36470337  1
  C  C264  1  0.56021163  0.40431190  0.54343078  1
  C  C265  1  0.78971018  0.90888413  0.53845958  1
  C  C266  1  0.27192093  0.90729437  0.53853254  1
  C  C267  1  0.78569618  0.23779836  0.54289516  1
  C  C268  1  0.28434944  0.09385938  0.46447683  1
  C  C269  1  0.20869460  0.23716465  0.95567474  1
  C  C270  1  0.52089304  0.26341358  0.46311922  1
  C  C271  1  0.19041062  0.90393834  0.54587964  1
  C  C272  1  0.53235618  0.58921307  0.46253294  1
  C  C273  1  0.95823144  0.07097808  0.95438670  1
  C  C274  1  0.81965710  0.57033185  0.95402147  1
  C  C275  1  0.21914804  0.42276451  0.03789546  1
  C  C276  1  0.52054912  0.40775850  0.96480736  1
  C  C277  1  0.02166203  0.40522984  0.53273081  1
  C  C278  1  0.48164321  0.91904277  0.03538023  1
  C  C279  1  0.97367167  0.07730340  0.53893673  1
  C  C280  1  0.01580878  0.26611007  0.03426667  1
  C  C281  1  0.96695516  0.58644719  0.46097816  1
  C  C282  1  0.51016141  0.74199367  0.53357725  1
  C  C283  1  0.93533847  0.26701242  0.04607841  1
  C  C284  1  0.43949985  0.40558683  0.95775083  1
  C  C285  1  0.73266811  0.42922905  0.03638252  1
  C  C286  1  0.06329095  0.73791875  0.54836001  1
  C  C287  1  0.47951156  0.40617108  0.53308278  1
  C  C288  1  0.95024957  0.40839261  0.95872371  1
  C  C289  1  0.22146846  0.57759435  0.96103050  1
  C  C290  1  0.73940822  0.57477285  0.96576714  1
  C  C291  1  0.44127193  0.58709353  0.04164004  1
  C  C292  1  0.55002605  0.07170307  0.96453856  1
  C  C293  1  0.27663831  0.23916084  0.53218294  1
  C  C294  1  0.70743123  0.76008928  0.45473261  1
  C  C295  1  0.32234221  0.76232813  0.04725688  1
  C  C296  1  0.81385935  0.43094102  0.04625243  1
  C  C297  1  0.19587893  0.23651438  0.53978454  1
  C  C298  1  0.52673867  0.74771990  0.96598029  1
  C  C299  1  0.71825503  0.75433980  0.04001925  1
  C  C300  1  0.29966394  0.75895661  0.46075922  1
  C  C301  1  0.70683921  0.42524142  0.46805136  1
  C  C302  1  0.96296056  0.92664092  0.45739831  1
  C  C303  1  0.78845143  0.42478120  0.46925178  1
  C  C304  1  0.20299315  0.09394243  0.46203486  1
  C  C305  1  0.70378280  0.23922043  0.54161992  1
  C  C306  1  0.94098957  0.40449722  0.54292005  1
  C  C307  1  0.70742406  0.90813070  0.53732168  1
  C  C308  1  0.29039928  0.23359646  0.96056874  1
  C  C309  1  0.78140243  0.08862350  0.46474904  1
  C  C310  1  0.02354454  0.58749629  0.03602438  1
  C  C311  1  0.56603231  0.92873646  0.45368894  1
  N  N312  1  0.94640397  0.59006129  0.04044027  1
  N  N313  1  0.79569717  0.75398412  0.03822312  1
  N  N314  1  0.29648487  0.42218628  0.03794481  1
  N  N315  1  0.05095870  0.07570107  0.54246798  1
  N  N316  1  0.31864570  0.09350976  0.04910925  1
  N  N317  1  0.78252714  0.90828582  0.96292476  1
  N  N318  1  0.22205260  0.75707927  0.46611251  1
  N  N319  1  0.44904510  0.26038348  0.04102865  1
  N  N320  1  0.03791462  0.07091571  0.95629495  1
  N  N321  1  0.45286424  0.59145452  0.45863351  1
  N  N322  1  0.78697721  0.75854306  0.45730725  1
  N  N323  1  0.30512310  0.57161185  0.54327182  1
  N  N324  1  0.43270378  0.73817926  0.54713078  1
  N  N325  1  0.28953549  0.42901671  0.46086874  1
  N  N326  1  0.20731145  0.42847704  0.46019068  1
  N  N327  1  0.48811466  0.92609740  0.46411837  1
  N  N328  1  0.70268141  0.09119623  0.45956471  1
  N  N329  1  0.29879662  0.57817666  0.96200359  1
  N  N330  1  0.55427862  0.07305489  0.54300979  1
  N  N331  1  0.73575763  0.24230112  0.96368169  1
  N  N332  1  0.24513842  0.75712450  0.03531088  1
  N  N333  1  0.52902993  0.25244477  0.04443416  1
  N  N334  1  0.70401952  0.90778283  0.96007580  1
  N  N335  1  0.76110050  0.08529621  0.03425047  1
  N  N336  1  0.44828790  0.74303090  0.96146271  1
  N  N337  1  0.01259959  0.74288913  0.96318344  1
  N  N338  1  0.04073292  0.92515079  0.45945667  1
  N  N339  1  0.98435884  0.25880545  0.46090834  1
  N  N340  1  0.81226692  0.23889661  0.95321559  1
  N  N341  1  0.22934110  0.57400421  0.53525043  1
  N  N342  1  0.51973901  0.58876423  0.03671207  1
  N  N343  1  0.02745930  0.40986271  0.96364750  1
  N  N344  1  0.55849544  0.92207161  0.04255249  1
  N  N345  1  0.47836375  0.07553024  0.53634470  1
  N  N346  1  0.04535931  0.92547486  0.03915073  1
  N  N347  1  0.98539084  0.74189245  0.53566564  1
  N  N348  1  0.28801008  0.90874308  0.96096959  1
  N  N349  1  0.93527582  0.74200217  0.95605462  1
  N  N350  1  0.70601927  0.57024824  0.54171398  1
  N  N351  1  0.78217077  0.57146295  0.53705790  1
  N  N352  1  0.21183372  0.90827288  0.96233762  1
  N  N353  1  0.06080340  0.26181908  0.44980616  1
  N  N354  1  0.24266421  0.08890486  0.03594456  1
  N  N355  1  0.68497588  0.09811218  0.04585491  1
  N  N356  1  0.96734986  0.92576514  0.04018254  1
  N  N357  1  0.47092017  0.07390217  0.96797373  1
  N  N358  1  0.04424312  0.58867039  0.46033818  1
  N  N359  1  0.44273663  0.26277173  0.45376575  1
  N  N360  1  0.06784378  0.05527361  0.60202312  1
  N  N361  1  0.05776392  0.38994820  0.58884192  1
  N  N362  1  0.06938456  0.71974169  0.60761069  1
  N  N363  1  0.56964132  0.05510088  0.60251123  1
  N  N364  1  0.57152688  0.38837913  0.60257044  1
  N  N365  1  0.55128901  0.72662380  0.58543093  1
  N  N366  1  0.42721115  0.28658406  0.09527482  1
  N  N367  1  0.42483487  0.60749730  0.09872358  1
  N  N368  1  0.44332976  0.93753063  0.08744878  1
  N  N369  1  0.92599484  0.28050622  0.10742962  1
  N  N370  1  0.92976271  0.61170615  0.09892331  1
  N  N371  1  0.93923512  0.93935437  0.09685092  1
  N  N372  1  0.43865144  0.05663048  0.91213098  1
  N  N373  1  0.42354590  0.39030894  0.89926754  1
  N  N374  1  0.42868863  0.72040743  0.90411895  1
  N  N375  1  0.93683287  0.05488883  0.89658275  1
  N  N376  1  0.92797818  0.39075475  0.90083617  1
  N  N377  1  0.92398404  0.72279607  0.89804430  1
  N  N378  1  0.06633733  0.27900164  0.39079483  1
  N  N379  1  0.06390121  0.60969534  0.40194949  1
  N  N380  1  0.06622879  0.94386834  0.40112973  1
  N  N381  1  0.56034868  0.27798255  0.40947387  1
  N  N382  1  0.56116512  0.60673557  0.40681049  1
  N  N383  1  0.57341676  0.94668528  0.39453210  1
  N  N384  1  0.31198522  0.22393402  0.58545608  1
  N  N385  1  0.31877892  0.55468212  0.60329778  1
  N  N386  1  0.30586203  0.89075792  0.59406505  1
  N  N387  1  0.80788398  0.22021842  0.60137307  1
  N  N388  1  0.81378044  0.55365206  0.59256347  1
  N  N389  1  0.81260785  0.89224165  0.59733115  1
  N  N390  1  0.19735340  0.10743109  0.08410333  1
  N  N391  1  0.19020956  0.44284283  0.09273896  1
  N  N392  1  0.20173679  0.77600071  0.08567664  1
  N  N393  1  0.67979148  0.10920986  0.10643018  1
  N  N394  1  0.69597363  0.44353727  0.09157135  1
  N  N395  1  0.69142249  0.77493817  0.09528799  1
  N  N396  1  0.18948119  0.22532105  0.89507363  1
  N  N397  1  0.19373821  0.55648310  0.90619780  1
  N  N398  1  0.18516243  0.89061622  0.90512089  1
  N  N399  1  0.69459790  0.22281187  0.91392941  1
  N  N400  1  0.70010737  0.55983134  0.91172260  1
  N  N401  1  0.67937457  0.88718131  0.90495182  1
  N  N402  1  0.31266159  0.11081475  0.40918166  1
  N  N403  1  0.31211163  0.43752670  0.40127347  1
  N  N404  1  0.32062867  0.77625857  0.40234909  1
  N  N405  1  0.81034101  0.10643297  0.40934913  1
  N  N406  1  0.81424240  0.44200729  0.41354637  1
  N  N407  1  0.81653408  0.77943961  0.40274892  1
  N  N408  1  0.43389543  0.27711090  0.39334604  1
  N  N409  1  0.43240788  0.61081318  0.40128151  1
  N  N410  1  0.44659417  0.94656530  0.41307470  1
  N  N411  1  0.94228228  0.27875956  0.41180017  1
  N  N412  1  0.93576223  0.60513302  0.40627799  1
  N  N413  1  0.93821382  0.94490447  0.40065554  1
  N  N414  1  0.06568585  0.04965013  0.90110904  1
  N  N415  1  0.05588952  0.39152488  0.90602462  1
  N  N416  1  0.04999717  0.72189113  0.91238419  1
  N  N417  1  0.56714566  0.05581320  0.90566143  1
  N  N418  1  0.55327355  0.39272489  0.90745709  1
  N  N419  1  0.55655389  0.72858153  0.91135326  1
  N  N420  1  0.05396717  0.27936154  0.08906521  1
  N  N421  1  0.05730069  0.60678879  0.08915224  1
  N  N422  1  0.06664428  0.94146991  0.09663936  1
  N  N423  1  0.55438907  0.27718870  0.09726349  1
  N  N424  1  0.55323496  0.61261789  0.08948770  1
  N  N425  1  0.56980294  0.94324806  0.10272568  1
  N  N426  1  0.44403987  0.05947400  0.59145021  1
  N  N427  1  0.44268823  0.39039391  0.58877781  1
  N  N428  1  0.42574603  0.71939174  0.60649863  1
  N  N429  1  0.94028060  0.05898041  0.59294190  1
  N  N430  1  0.92879787  0.38947122  0.60211796  1
  N  N431  1  0.94346280  0.72015999  0.58555577  1
  N  N432  1  0.18282911  0.11167110  0.40216297  1
  N  N433  1  0.18586821  0.45324580  0.40546533  1
  N  N434  1  0.19288084  0.77454237  0.40836304  1
  N  N435  1  0.68187372  0.11073007  0.40157105  1
  N  N436  1  0.68422385  0.44269242  0.41161238  1
  N  N437  1  0.68765860  0.77713932  0.39685062  1
  N  N438  1  0.31952018  0.22048014  0.90247743  1
  N  N439  1  0.32192368  0.55581733  0.90461260  1
  N  N440  1  0.31180270  0.89156838  0.90286899  1
  N  N441  1  0.81923471  0.22220126  0.89407277  1
  N  N442  1  0.82775202  0.55357538  0.89360343  1
  N  N443  1  0.80641568  0.89034331  0.90675867  1
  N  N444  1  0.32018806  0.11054863  0.10840772  1
  N  N445  1  0.31828833  0.44316403  0.09613900  1
  N  N446  1  0.32755302  0.78067345  0.10652322  1
  N  N447  1  0.80381314  0.10727491  0.08280568  1
  N  N448  1  0.82450719  0.44610470  0.10734859  1
  N  N449  1  0.81970586  0.77550446  0.09555143  1
  N  N450  1  0.18357973  0.21897815  0.60091694  1
  N  N451  1  0.19336766  0.55876963  0.59009035  1
  N  N452  1  0.17664713  0.88590414  0.60550752  1
  N  N453  1  0.67758256  0.22245838  0.59937256  1
  N  N454  1  0.68766168  0.55176049  0.60049447  1
  N  N455  1  0.68266777  0.89106284  0.59567052  1
  Cl  Cl456  1  0.25713105  0.05853502  0.61976840  1
  Cl  Cl457  1  0.25111676  0.38946976  0.60152143  1
  Cl  Cl458  1  0.24787805  0.72021751  0.63195465  1
  Cl  Cl459  1  0.75342751  0.05751369  0.61818484  1
  Cl  Cl460  1  0.75091574  0.38187284  0.63107488  1
  Cl  Cl461  1  0.75342204  0.72967786  0.59778858  1
  Cl  Cl462  1  0.24205349  0.27717501  0.10451630  1
  Cl  Cl463  1  0.24001117  0.61518672  0.11419788  1
  Cl  Cl464  1  0.25368989  0.94600702  0.12129703  1
  Cl  Cl465  1  0.73282151  0.26493243  0.10626357  1
  Cl  Cl466  1  0.73765021  0.61287056  0.11502975  1
  Cl  Cl467  1  0.75520059  0.94587140  0.11474862  1
  Cl  Cl468  1  0.24910990  0.06213156  0.89484437  1
  Cl  Cl469  1  0.24002231  0.38987207  0.87103794  1
  Cl  Cl470  1  0.23481796  0.72383712  0.90092364  1
  Cl  Cl471  1  0.75245230  0.06259696  0.89143112  1
  Cl  Cl472  1  0.74054133  0.38598305  0.89228611  1
  Cl  Cl473  1  0.73866531  0.72308557  0.87015366  1
  Cl  Cl474  1  0.25072904  0.28740391  0.37152601  1
  Cl  Cl475  1  0.24979585  0.61545477  0.37817811  1
  Cl  Cl476  1  0.25973627  0.94280656  0.38913298  1
  Cl  Cl477  1  0.75374658  0.27444350  0.39254327  1
  Cl  Cl478  1  0.74830911  0.61468411  0.38142639  1
  Cl  Cl479  1  0.75578938  0.94999570  0.38127477  1
  Cl  Cl480  1  -0.00986743  0.22682479  0.60537844  1
  Cl  Cl481  1  0.00100594  0.55442475  0.61005809  1
  Cl  Cl482  1  -0.00648537  0.88085747  0.62796590  1
  Cl  Cl483  1  0.49438822  0.22604635  0.62188419  1
  Cl  Cl484  1  0.50382804  0.55591099  0.62031561  1
  Cl  Cl485  1  0.49143084  0.89129933  0.60625194  1
  Cl  Cl486  1  0.00687514  0.10046969  0.09543920  1
  Cl  Cl487  1  0.00856946  0.45240030  0.12442857  1
  Cl  Cl488  1  0.01676688  0.77111914  0.10530759  1
  Cl  Cl489  1  0.50135068  0.11421458  0.11469533  1
  Cl  Cl490  1  0.50831979  0.44701133  0.11285722  1
  Cl  Cl491  1  0.50837102  0.77828415  0.11774666  1
  Cl  Cl492  1  0.00508579  0.21651038  0.87453276  1
  Cl  Cl493  1  0.01214274  0.55352259  0.87563388  1
  Cl  Cl494  1  -0.00736985  0.88862935  0.89412158  1
  Cl  Cl495  1  0.51118869  0.23039369  0.90017472  1
  Cl  Cl496  1  0.51566180  0.56244861  0.89524637  1
  Cl  Cl497  1  0.49693457  0.88546693  0.87906590  1
  Cl  Cl498  1  -0.00699178  0.11548279  0.37080316  1
  Cl  Cl499  1  0.00277868  0.44413865  0.38681171  1
  Cl  Cl500  1  0.00069831  0.76944388  0.39158139  1
  Cl  Cl501  1  0.49889789  0.11408093  0.37990211  1
  Cl  Cl502  1  0.49466433  0.44851677  0.38234757  1
  Cl  Cl503  1  0.50425022  0.78225571  0.38584421  1
  Cl  Cl504  1  0.36106787  0.14860911  0.75043776  1
  Cl  Cl505  1  0.36416713  0.47726650  0.74835375  1
  Cl  Cl506  1  0.36090293  0.81294274  0.75044427  1
  Cl  Cl507  1  0.86540204  0.14538856  0.75735711  1
  Cl  Cl508  1  0.86422860  0.47861377  0.75763440  1
  Cl  Cl509  1  0.85438648  0.81411233  0.75429323  1
  Cl  Cl510  1  0.14238595  0.18373831  0.25240872  1
  Cl  Cl511  1  0.14218190  0.51706194  0.25551413  1
  Cl  Cl512  1  0.14145866  0.85041495  0.25441867  1
  Cl  Cl513  1  0.63641420  0.18689213  0.24596396  1
  Cl  Cl514  1  0.64328767  0.51528467  0.25491063  1
  Cl  Cl515  1  0.63951381  0.85354537  0.25260346  1
  Cl  Cl516  1  0.13733189  0.14703070  0.74626034  1
  Cl  Cl517  1  0.14214118  0.48145100  0.74509754  1
  Cl  Cl518  1  0.13881627  0.81515460  0.75314502  1
  Cl  Cl519  1  0.64301640  0.14769184  0.75613616  1
  Cl  Cl520  1  0.64155773  0.48345738  0.75083981  1
  Cl  Cl521  1  0.63570734  0.81429379  0.74004844  1
  Cl  Cl522  1  0.36322721  0.18727872  0.24254483  1
  Cl  Cl523  1  0.36251114  0.52046230  0.24782585  1
  Cl  Cl524  1  0.36238552  0.85120463  0.24690695  1
  Cl  Cl525  1  0.85602078  0.18827183  0.24192373  1
  Cl  Cl526  1  0.86246267  0.51956520  0.24982764  1
  Cl  Cl527  1  0.85987074  0.85295250  0.24802325  1
  Cl  Cl528  1  0.10833777  0.31549998  0.74646155  1
  Cl  Cl529  1  0.10944062  0.64969842  0.74698198  1
  Cl  Cl530  1  0.11163013  0.98023429  0.74684234  1
  Cl  Cl531  1  0.61160881  0.31494956  0.74646352  1
  Cl  Cl532  1  0.60115306  0.65029790  0.74859637  1
  Cl  Cl533  1  0.61282753  0.98072218  0.75306827  1
  Cl  Cl534  1  0.39248469  0.01751923  0.24650417  1
  Cl  Cl535  1  0.38957109  0.35239613  0.25207089  1
  Cl  Cl536  1  0.38855996  0.68710064  0.24822074  1
  Cl  Cl537  1  0.88624080  0.02162971  0.24277104  1
  Cl  Cl538  1  0.88365947  0.35422594  0.24105786  1
  Cl  Cl539  1  0.88569684  0.68798320  0.24314214  1
  Cl  Cl540  1  0.39055695  0.31089355  0.76087875  1
  Cl  Cl541  1  0.38315095  0.64505378  0.75259260  1
  Cl  Cl542  1  0.39212691  0.98466021  0.75334344  1
  Cl  Cl543  1  0.88523161  0.31196458  0.75220747  1
  Cl  Cl544  1  0.88789604  0.64739003  0.75370376  1
  Cl  Cl545  1  0.88894349  0.98121746  0.75364591  1
  Cl  Cl546  1  0.10463265  0.01902677  0.24764557  1
  Cl  Cl547  1  0.10669124  0.34907050  0.25221614  1
  Cl  Cl548  1  0.10362160  0.68447861  0.25228668  1
  Cl  Cl549  1  0.61697112  0.02134233  0.24723253  1
  Cl  Cl550  1  0.61032842  0.35022618  0.24205018  1
  Cl  Cl551  1  0.60750698  0.68323027  0.25439190  1
