# generated using pymatgen
data_H8PbC4(N3Cl2)2
_symmetry_space_group_name_H-M   'P 1'
_cell_length_a   16.62926158
_cell_length_b   22.51322888
_cell_length_c   21.59266469
_cell_angle_alpha   90.00136235
_cell_angle_beta   90.00563376
_cell_angle_gamma   89.99288186
_symmetry_Int_Tables_number   1
_chemical_formula_structural   H8PbC4(N3Cl2)2
_chemical_formula_sum   'H192 Pb24 C96 N144 Cl96'
_cell_volume   8083.82655181
_cell_formula_units_Z   24
loop_
 _symmetry_equiv_pos_site_id
 _symmetry_equiv_pos_as_xyz
  1  'x, y, z'
loop_
 _atom_site_type_symbol
 _atom_site_label
 _atom_site_symmetry_multiplicity
 _atom_site_fract_x
 _atom_site_fract_y
 _atom_site_fract_z
 _atom_site_occupancy
  H  H0  1  -0.00063572  0.03154515  0.68338486  1
  H  H1  1  -0.01158189  0.36255440  0.67533943  1
  H  H2  1  -0.00240626  0.69312912  0.67628147  1
  H  H3  1  0.50858259  0.03239724  0.67639822  1
  H  H4  1  0.51218492  0.36297652  0.67661230  1
  H  H5  1  0.50537467  0.69480187  0.67695470  1
  H  H6  1  -0.00226580  0.30252076  0.17842487  1
  H  H7  1  -0.01232205  0.63680481  0.17870171  1
  H  H8  1  0.00713066  0.97181760  0.17495544  1
  H  H9  1  0.50008079  0.30488858  0.17823554  1
  H  H10  1  0.50883387  0.63643135  0.17969693  1
  H  H11  1  0.48438561  0.97103047  0.17496904  1
  H  H12  1  0.01374708  0.03021429  0.81999128  1
  H  H13  1  -0.01362517  0.36134115  0.82034292  1
  H  H14  1  -0.01279019  0.69787483  0.82321482  1
  H  H15  1  0.48760532  0.02878822  0.82259647  1
  H  H16  1  0.49614351  0.35893819  0.82006834  1
  H  H17  1  0.51464458  0.69945847  0.82097354  1
  H  H18  1  -0.00143497  0.30412134  0.31961077  1
  H  H19  1  0.00129413  0.64247658  0.31978883  1
  H  H20  1  -0.00478402  0.96604092  0.31950233  1
  H  H21  1  0.49575971  0.30238321  0.31791088  1
  H  H22  1  0.49369630  0.63657804  0.32200365  1
  H  H23  1  0.50640802  0.97186984  0.31801939  1
  H  H24  1  0.25330389  0.19605265  0.68056280  1
  H  H25  1  0.25185413  0.52813294  0.68207774  1
  H  H26  1  0.24595661  0.86047432  0.67690275  1
  H  H27  1  0.75108150  0.19807901  0.68209279  1
  H  H28  1  0.75541095  0.53015554  0.67731921  1
  H  H29  1  0.75761354  0.85989596  0.67926161  1
  H  H30  1  0.25096250  0.13739893  0.17999528  1
  H  H31  1  0.26091789  0.46648843  0.17892972  1
  H  H32  1  0.25361139  0.80343051  0.17772140  1
  H  H33  1  0.75096911  0.13477524  0.17658079  1
  H  H34  1  0.75246188  0.46869557  0.18003913  1
  H  H35  1  0.74591935  0.80671769  0.18220195  1
  H  H36  1  0.25640210  0.19691269  0.82166863  1
  H  H37  1  0.26456129  0.53035758  0.81896044  1
  H  H38  1  0.26033956  0.86402153  0.82384154  1
  H  H39  1  0.73720386  0.19633078  0.82205225  1
  H  H40  1  0.74216939  0.53128157  0.81700171  1
  H  H41  1  0.75745348  0.86555195  0.82054067  1
  H  H42  1  0.23409910  0.13768645  0.32381293  1
  H  H43  1  0.24940547  0.46707123  0.32574581  1
  H  H44  1  0.25163604  0.80647691  0.32324977  1
  H  H45  1  0.76359722  0.13694836  0.32185692  1
  H  H46  1  0.75014243  0.47293882  0.31977858  1
  H  H47  1  0.74810274  0.80154214  0.32029427  1
  H  H48  1  0.12533423  0.05280887  0.61550130  1
  H  H49  1  0.12608105  0.38432574  0.62031341  1
  H  H50  1  0.12041739  0.72157332  0.60662941  1
  H  H51  1  0.62470810  0.05653434  0.59903254  1
  H  H52  1  0.61848794  0.39284513  0.59325884  1
  H  H53  1  0.61976673  0.72409986  0.59991961  1
  H  H54  1  0.37632754  0.28172922  0.10501071  1
  H  H55  1  0.37909983  0.61254202  0.11580411  1
  H  H56  1  0.38339671  0.94048261  0.08973801  1
  H  H57  1  0.87703557  0.27660659  0.10704080  1
  H  H58  1  0.88187210  0.60547420  0.09517895  1
  H  H59  1  0.88564668  0.94352275  0.10489617  1
  H  H60  1  0.37592581  0.05510497  0.90396825  1
  H  H61  1  0.37982788  0.38721827  0.89855174  1
  H  H62  1  0.37436826  0.71640799  0.87194390  1
  H  H63  1  0.87252047  0.04969273  0.87250659  1
  H  H64  1  0.88175772  0.39118878  0.90596399  1
  H  H65  1  0.88394188  0.72893250  0.90766753  1
  H  H66  1  0.12584299  0.28239549  0.38844998  1
  H  H67  1  0.12763904  0.61407959  0.38880236  1
  H  H68  1  0.13030519  0.94890043  0.37962578  1
  H  H69  1  0.62195836  0.27794278  0.38811893  1
  H  H70  1  0.63166260  0.61549315  0.37877797  1
  H  H71  1  0.62836722  0.94585969  0.39249970  1
  H  H72  1  0.37641508  0.22077877  0.61013527  1
  H  H73  1  0.36665276  0.55301259  0.60575563  1
  H  H74  1  0.37266351  0.88626445  0.60849974  1
  H  H75  1  0.87412423  0.22292767  0.60925072  1
  H  H76  1  0.86773263  0.55823297  0.59884205  1
  H  H77  1  0.86948022  0.88735876  0.59891365  1
  H  H78  1  0.13418101  0.11030472  0.10461698  1
  H  H79  1  0.12562541  0.44819824  0.12361512  1
  H  H80  1  0.12556936  0.77996821  0.10996128  1
  H  H81  1  0.63150240  0.11181414  0.10183990  1
  H  H82  1  0.61599155  0.44844183  0.12332698  1
  H  H83  1  0.62211750  0.78026545  0.11117806  1
  H  H84  1  0.12279216  0.21853176  0.88222142  1
  H  H85  1  0.12459923  0.54933588  0.87389889  1
  H  H86  1  0.12121270  0.88425184  0.87887653  1
  H  H87  1  0.62567951  0.22226229  0.90247023  1
  H  H88  1  0.61962157  0.55218122  0.88961205  1
  H  H89  1  0.62430136  0.88804687  0.88224784  1
  H  H90  1  0.37633673  0.11721422  0.37297946  1
  H  H91  1  0.37381780  0.44502372  0.39351040  1
  H  H92  1  0.37630111  0.77806768  0.39238002  1
  H  H93  1  0.87156921  0.10892601  0.40467113  1
  H  H94  1  0.87612958  0.44702302  0.38639970  1
  H  H95  1  0.88200104  0.78195010  0.38132021  1
  H  H96  1  0.37280890  0.28130593  0.39018473  1
  H  H97  1  0.38420663  0.60969164  0.40260215  1
  H  H98  1  0.38011688  0.94647485  0.38749126  1
  H  H99  1  0.87651503  0.27779576  0.39251493  1
  H  H100  1  0.87927166  0.61383422  0.39239543  1
  H  H101  1  0.88234395  0.94283838  0.39737757  1
  H  H102  1  0.11728386  0.05797619  0.90490237  1
  H  H103  1  0.12577083  0.38168224  0.87464282  1
  H  H104  1  0.12802920  0.71503830  0.87622739  1
  H  H105  1  0.62261272  0.05134028  0.88281616  1
  H  H106  1  0.62785950  0.38430676  0.88454205  1
  H  H107  1  0.61941431  0.72596156  0.90461610  1
  H  H108  1  0.12620133  0.28248559  0.11297649  1
  H  H109  1  0.12674024  0.61590507  0.12689761  1
  H  H110  1  0.13466266  0.94455853  0.10841342  1
  H  H111  1  0.62517535  0.27771282  0.10765659  1
  H  H112  1  0.62664011  0.61307598  0.10341576  1
  H  H113  1  0.62575661  0.95478782  0.12805237  1
  H  H114  1  0.37689630  0.05238815  0.61601401  1
  H  H115  1  0.37307624  0.38478999  0.62374549  1
  H  H116  1  0.37197054  0.71977139  0.61741095  1
  H  H117  1  0.87556187  0.05341780  0.61274042  1
  H  H118  1  0.88003777  0.39406597  0.59419762  1
  H  H119  1  0.87163599  0.72001485  0.60815416  1
  H  H120  1  0.13270476  0.10634190  0.40931553  1
  H  H121  1  0.12574236  0.44507334  0.39420691  1
  H  H122  1  0.12757975  0.78010057  0.39211067  1
  H  H123  1  0.62553836  0.11400559  0.37623546  1
  H  H124  1  0.62684970  0.44456413  0.39096942  1
  H  H125  1  0.63339406  0.77762334  0.39623542  1
  H  H126  1  0.37039112  0.22324046  0.90114904  1
  H  H127  1  0.36957508  0.55772293  0.90339459  1
  H  H128  1  0.36683470  0.89328221  0.90695770  1
  H  H129  1  0.87306607  0.21769272  0.88126204  1
  H  H130  1  0.86750203  0.55581185  0.88552784  1
  H  H131  1  0.87126123  0.89030404  0.90106688  1
  H  H132  1  0.38288411  0.11337031  0.11523301  1
  H  H133  1  0.37124411  0.44371245  0.09808929  1
  H  H134  1  0.37386134  0.77924686  0.10443655  1
  H  H135  1  0.88008454  0.11311491  0.11396920  1
  H  H136  1  0.86347988  0.43896894  0.09945395  1
  H  H137  1  0.87138349  0.78008963  0.11528825  1
  H  H138  1  0.12746645  0.22154575  0.61058392  1
  H  H139  1  0.11815651  0.54905884  0.62212857  1
  H  H140  1  0.12435676  0.88689692  0.60394941  1
  H  H141  1  0.62504285  0.21904031  0.61217436  1
  H  H142  1  0.62030343  0.55251478  0.61755612  1
  H  H143  1  0.62198783  0.88412000  0.62289111  1
  H  H144  1  0.09141077  0.91634289  0.00260991  1
  H  H145  1  0.84513802  0.08583187  1.00026537  1
  H  H146  1  0.96344709  0.74548455  1.00766258  1
  H  H147  1  0.30743806  0.58011608  0.49654207  1
  H  H148  1  0.04068819  0.08692910  1.00685141  1
  H  H149  1  0.67494033  0.76479325  0.00346143  1
  H  H150  1  0.08052345  0.25154260  0.49697559  1
  H  H151  1  0.38672360  0.74926002  0.98481464  1
  H  H152  1  0.83205740  0.41960277  0.49863697  1
  H  H153  1  0.82734562  0.75373093  0.00341184  1
  H  H154  1  0.69280005  0.74781540  0.50567195  1
  H  H155  1  0.64081351  0.41278990  0.01225384  1
  H  H156  1  0.14711474  0.57863876  0.50954922  1
  H  H157  1  0.42205746  0.25007539  0.49802884  1
  H  H158  1  0.79557227  0.41421736  -0.00189288  1
  H  H159  1  0.79744204  0.08489902  0.50585118  1
  H  H160  1  0.95595255  0.58315754  -0.00497983  1
  H  H161  1  0.09140131  0.25123256  0.00179565  1
  H  H162  1  0.29429158  0.58493546  1.00643581  1
  H  H163  1  0.67937859  0.55151997  0.99552201  1
  H  H164  1  0.32384742  0.91321271  0.50304116  1
  H  H165  1  0.56112046  0.60795980  -0.00079784  1
  H  H166  1  0.21346857  0.08387688  0.50845429  1
  H  H167  1  0.42876568  0.55964707  0.02232864  1
  H  H168  1  0.60585168  0.58897079  0.48796290  1
  H  H169  1  0.92492500  0.24641623  -0.00160326  1
  H  H170  1  0.55355419  0.75316860  0.49711110  1
  H  H171  1  0.95331965  0.41855993  0.49261515  1
  H  H172  1  0.80143079  0.90984719  0.49638864  1
  H  H173  1  0.58942344  0.08235431  0.98909676  1
  H  H174  1  0.92245771  0.07739091  0.50059620  1
  H  H175  1  0.10825923  0.58163212  0.01396609  1
  H  H176  1  0.94421086  0.91438602  0.50627341  1
  H  H177  1  0.81170877  0.60363070  0.97997653  1
  H  H178  1  0.14788567  0.41927762  1.00758598  1
  H  H179  1  0.54650050  0.75423812  1.00939074  1
  H  H180  1  0.64796376  0.91807950  0.51147742  1
  H  H181  1  0.68008280  0.42771555  0.49857189  1
  H  H182  1  0.54219900  0.41549370  0.49229121  1
  H  H183  1  0.80374674  0.92464152  1.00004008  1
  H  H184  1  0.45174723  0.58012403  0.50817637  1
  H  H185  1  0.67174086  0.24724452  0.50285025  1
  H  H186  1  0.08259456  0.07525453  0.50189984  1
  H  H187  1  0.40596778  0.08095477  0.50121173  1
  H  H188  1  0.10832853  0.75351676  0.98145610  1
  H  H189  1  0.61635493  0.92073239  1.01353726  1
  H  H190  1  0.96132857  0.41402148  1.00530486  1
  H  H191  1  0.19515557  0.08240619  -0.00306255  1
  Pb  Pb192  1  0.25176011  0.04917218  0.75532888  1
  Pb  Pb193  1  0.25084900  0.37815585  0.75649979  1
  Pb  Pb194  1  0.24589409  0.71295846  0.74625659  1
  Pb  Pb195  1  0.74717771  0.04661405  0.74114445  1
  Pb  Pb196  1  0.74902980  0.38118576  0.74667798  1
  Pb  Pb197  1  0.75159916  0.71691556  0.75558174  1
  Pb  Pb198  1  0.25221418  0.28698613  0.25062322  1
  Pb  Pb199  1  0.25171282  0.61399084  0.25383906  1
  Pb  Pb200  1  0.25637581  0.95364656  0.24449382  1
  Pb  Pb201  1  0.75265405  0.28098016  0.25077037  1
  Pb  Pb202  1  0.75277007  0.62032131  0.24056798  1
  Pb  Pb203  1  0.75449167  0.95234148  0.25161627  1
  Pb  Pb204  1  -0.00148501  0.21398833  0.74674823  1
  Pb  Pb205  1  -0.00365643  0.54603148  0.75426624  1
  Pb  Pb206  1  0.00104761  0.88247479  0.75061990  1
  Pb  Pb207  1  0.50049414  0.21332427  0.75142785  1
  Pb  Pb208  1  0.49719820  0.54852566  0.75374658  1
  Pb  Pb209  1  0.49471575  0.88026261  0.75472271  1
  Pb  Pb210  1  0.00771704  0.11687059  0.25739646  1
  Pb  Pb211  1  -0.00548333  0.44942611  0.24773395  1
  Pb  Pb212  1  0.00541481  0.78691149  0.24183999  1
  Pb  Pb213  1  0.50334672  0.12049292  0.24289270  1
  Pb  Pb214  1  0.50447782  0.45075290  0.25500672  1
  Pb  Pb215  1  0.49747844  0.78348106  0.25475919  1
  C  C216  1  0.00003510  0.04582015  0.63533728  1
  C  C217  1  -0.00229965  0.37892435  0.62872360  1
  C  C218  1  -0.00375488  0.71097463  0.62986740  1
  C  C219  1  0.50267994  0.04680811  0.62879183  1
  C  C220  1  0.50153841  0.37876198  0.62996796  1
  C  C221  1  0.49928719  0.71145386  0.63016707  1
  C  C222  1  0.00043031  0.28661603  0.13093195  1
  C  C223  1  -0.00135319  0.62069680  0.13194943  1
  C  C224  1  0.00969079  0.95408270  0.12839131  1
  C  C225  1  0.50058824  0.28870454  0.13097995  1
  C  C226  1  0.50495503  0.62085244  0.13210674  1
  C  C227  1  0.49891297  0.95534455  0.12895021  1
  C  C228  1  0.00085235  0.04556964  0.86654594  1
  C  C229  1  -0.00231715  0.37711907  0.86705443  1
  C  C230  1  -0.00006607  0.71354337  0.86989028  1
  C  C231  1  0.49558486  0.04468833  0.86963890  1
  C  C232  1  0.50130393  0.37621316  0.86682918  1
  C  C233  1  0.50223686  0.71421857  0.86793732  1
  C  C234  1  0.00023121  0.28773450  0.36681447  1
  C  C235  1  0.00275370  0.62458786  0.36642073  1
  C  C236  1  0.00251965  0.95254747  0.36730346  1
  C  C237  1  0.49708209  0.28689406  0.36547736  1
  C  C238  1  0.50388706  0.62103869  0.36910014  1
  C  C239  1  0.50510318  0.95552639  0.36528682  1
  C  C240  1  0.25204656  0.21233028  0.63353575  1
  C  C241  1  0.24526358  0.54377201  0.63474525  1
  C  C242  1  0.24786080  0.87761696  0.62999402  1
  C  C243  1  0.75024564  0.21350291  0.63450678  1
  C  C244  1  0.74740426  0.54674068  0.63075687  1
  C  C245  1  0.74994413  0.87618352  0.63211435  1
  C  C246  1  0.25632380  0.12116614  0.13288051  1
  C  C247  1  0.25152281  0.45301507  0.13129352  1
  C  C248  1  0.25053925  0.78836679  0.13028967  1
  C  C249  1  0.75481082  0.12040497  0.12881667  1
  C  C250  1  0.74406623  0.45319393  0.13277278  1
  C  C251  1  0.74589766  0.79018992  0.13490495  1
  C  C252  1  0.25004711  0.21257082  0.86871489  1
  C  C253  1  0.25242958  0.54494444  0.86598700  1
  C  C254  1  0.24907987  0.87998620  0.87019117  1
  C  C255  1  0.74570392  0.21188407  0.86895686  1
  C  C256  1  0.74303952  0.54628173  0.86483180  1
  C  C257  1  0.75125013  0.88105977  0.86783272  1
  C  C258  1  0.24731915  0.12178846  0.37018679  1
  C  C259  1  0.24965128  0.45241793  0.37344681  1
  C  C260  1  0.25214948  0.78854246  0.36965865  1
  C  C261  1  0.75387887  0.12135986  0.36871340  1
  C  C262  1  0.75034861  0.45650410  0.36711725  1
  C  C263  1  0.75430586  0.78698676  0.36785385  1
  C  C264  1  0.19224047  0.56902910  0.54463480  1
  C  C265  1  0.53329944  0.07319855  0.53313304  1
  C  C266  1  0.26596217  0.91105261  0.96560820  1
  C  C267  1  0.01367331  0.07474980  0.96251855  1
  C  C268  1  0.45190841  0.07186224  0.53703130  1
  C  C269  1  0.05792617  0.92912146  0.45661892  1
  C  C270  1  0.96075727  0.06846207  0.54032243  1
  C  C271  1  0.22890856  0.09295089  0.03871934  1
  C  C272  1  0.31490784  0.09302042  0.45345650  1
  C  C273  1  0.19970271  0.24135255  0.95740287  1
  C  C274  1  0.97140519  0.92161447  0.03565349  1
  C  C275  1  0.04006024  0.26109503  0.45869579  1
  C  C276  1  0.68665324  0.42287324  0.04664729  1
  C  C277  1  0.77135393  0.57931331  0.53684076  1
  C  C278  1  0.19469830  0.42865353  0.04166968  1
  C  C279  1  0.27562572  0.42698709  0.03452975  1
  C  C280  1  0.43827171  0.40851079  0.54466658  1
  C  C281  1  0.69349778  0.90690442  0.54581343  1
  C  C282  1  0.48126492  0.59207870  0.46496233  1
  C  C283  1  0.80760883  0.76091060  0.45706854  1
  C  C284  1  0.79392592  0.42829763  0.45870096  1
  C  C285  1  0.69254815  0.09064125  0.45445888  1
  C  C286  1  0.72662884  0.75922099  0.46419079  1
  C  C287  1  0.97718061  0.92627663  0.46450782  1
  C  C288  1  0.03197677  0.74566631  0.53947827  1
  C  C289  1  0.71152596  0.23839206  0.54169144  1
  C  C290  1  0.04279243  0.06780052  0.54108109  1
  C  C291  1  0.96450311  0.25800262  0.03669520  1
  C  C292  1  0.48558001  0.92404048  0.03260116  1
  C  C293  1  0.05884367  0.40957366  0.54285404  1
  C  C294  1  0.26702343  0.57222905  0.96242026  1
  C  C295  1  0.80141755  0.09517957  0.03643550  1
  C  C296  1  0.56550640  0.92867593  0.04442401  1
  C  C297  1  0.44460316  0.74480307  0.54281012  1
  C  C298  1  0.06103934  0.59098746  0.04763150  1
  C  C299  1  0.78890878  0.76198370  0.04324753  1
  C  C300  1  0.20989621  0.42577037  0.46572421  1
  C  C301  1  0.51854520  0.74268289  0.96547170  1
  C  C302  1  0.28922712  0.24205188  0.54114185  1
  C  C303  1  0.27396526  0.57003060  0.53846924  1
  C  C304  1  0.43784253  0.73997280  0.95365417  1
  C  C305  1  0.29089765  0.42562341  0.46553796  1
  C  C306  1  0.21466632  0.75522873  0.46018286  1
  C  C307  1  0.46139481  0.26048556  0.45865921  1
  C  C308  1  0.72344741  0.24165870  0.96388247  1
  C  C309  1  0.04673397  0.26031019  0.03858014  1
  C  C310  1  0.71988651  0.09499508  0.03376379  1
  C  C311  1  0.28437854  0.76120375  0.03605011  1
  N  N312  1  0.28667384  0.90771353  0.54036138  1
  N  N313  1  0.18924934  0.90805651  0.95747325  1
  N  N314  1  0.80068249  0.24049775  0.95825544  1
  N  N315  1  0.76565533  0.42034249  0.03940778  1
  N  N316  1  0.46369659  0.92796027  0.45792945  1
  N  N317  1  0.46338213  0.26033428  0.03765962  1
  N  N318  1  0.98247456  0.58744640  0.03800152  1
  N  N319  1  0.69411765  0.57681175  0.54174337  1
  N  N320  1  0.93594626  0.07233387  0.95140865  1
  N  N321  1  0.77067963  0.09066486  0.46332030  1
  N  N322  1  0.20860115  0.90700347  0.53724474  1
  N  N323  1  0.98470833  0.40783503  0.96108907  1
  N  N324  1  0.70343455  0.57245555  0.95747917  1
  N  N325  1  0.78615883  0.56805513  0.95758096  1
  N  N326  1  0.77444108  0.90739672  0.96207402  1
  N  N327  1  0.30783784  0.09284541  0.04259493  1
  N  N328  1  0.70910819  0.76172053  0.04274094  1
  N  N329  1  0.21146741  0.24203349  0.54014734  1
  N  N330  1  0.04335704  0.59241708  0.45751483  1
  N  N331  1  0.53955170  0.25894554  0.03861306  1
  N  N332  1  0.18901172  0.56913883  0.95269478  1
  N  N333  1  0.96078752  0.25908640  0.46055040  1
  N  N334  1  0.06220466  0.73589521  0.95470860  1
  N  N335  1  0.53856886  0.59050389  0.03960726  1
  N  N336  1  0.27674865  0.24329442  0.96471576  1
  N  N337  1  0.96735803  0.59238283  0.45884222  1
  N  N338  1  0.95453324  0.74514913  0.53854463  1
  N  N339  1  0.29206903  0.75423186  0.46142564  1
  N  N340  1  0.71418471  0.42674690  0.45910955  1
  N  N341  1  0.52315014  0.74477121  0.53754936  1
  N  N342  1  0.20650165  0.76160108  0.03659466  1
  N  N343  1  0.46859772  0.07335743  0.96517601  1
  N  N344  1  0.54587851  0.07178721  0.95678968  1
  N  N345  1  0.05034862  0.92334072  0.03806869  1
  N  N346  1  0.47309246  0.40878287  0.96049102  1
  N  N347  1  0.55990288  0.59401691  0.45562619  1
  N  N348  1  0.54908883  0.40714958  0.95612168  1
  N  N349  1  0.98510341  0.74831380  0.96280628  1
  N  N350  1  0.98063293  0.41125815  0.53462311  1
  N  N351  1  0.54017670  0.92813707  0.45949944  1
  N  N352  1  0.79075477  0.24013713  0.54031405  1
  N  N353  1  0.54084094  0.25931097  0.45840207  1
  N  N354  1  0.45642984  0.59586080  0.04191638  1
  N  N355  1  0.23748758  0.08961996  0.46496899  1
  N  N356  1  0.06146290  0.40437528  0.95156175  1
  N  N357  1  0.77265427  0.90765155  0.53847155  1
  N  N358  1  0.69700016  0.90847164  0.95596870  1
  N  N359  1  0.51629320  0.40956912  0.53523869  1
  N  N360  1  0.06581596  0.05394746  0.60043607  1
  N  N361  1  0.06942119  0.39030125  0.60118465  1
  N  N362  1  0.06025375  0.72509901  0.59443253  1
  N  N363  1  0.56372735  0.05813222  0.58850346  1
  N  N364  1  0.55649870  0.38907316  0.58700205  1
  N  N365  1  0.55816163  0.72236257  0.59059943  1
  N  N366  1  0.43759774  0.27912175  0.09472164  1
  N  N367  1  0.43884826  0.60554312  0.10233855  1
  N  N368  1  0.44559233  0.94014842  0.08364174  1
  N  N369  1  0.93730752  0.27407033  0.09454401  1
  N  N370  1  0.94389535  0.60948802  0.08900945  1
  N  N371  1  0.94601910  0.94031837  0.09170480  1
  N  N372  1  0.43753124  0.05624946  0.91061463  1
  N  N373  1  0.44196394  0.38976607  0.90534889  1
  N  N374  1  0.42973989  0.72256811  0.89303003  1
  N  N375  1  0.92946985  0.05428338  0.89174398  1
  N  N376  1  0.94425687  0.38882801  0.91073406  1
  N  N377  1  0.94593565  0.72469171  0.91367190  1
  N  N378  1  0.06581072  0.27821356  0.40144085  1
  N  N379  1  0.06701404  0.61225188  0.40027398  1
  N  N380  1  0.07288084  0.94460895  0.39799528  1
  N  N381  1  0.56118489  0.27551666  0.39995076  1
  N  N382  1  0.57362498  0.61295917  0.39699013  1
  N  N383  1  0.56714864  0.94509435  0.40222298  1
  N  N384  1  0.31624315  0.22410926  0.59746905  1
  N  N385  1  0.30565705  0.55449803  0.59492933  1
  N  N386  1  0.31218353  0.88855500  0.59592969  1
  N  N387  1  0.81308598  0.22465435  0.59854105  1
  N  N388  1  0.80626803  0.56095955  0.59022477  1
  N  N389  1  0.80733835  0.88567716  0.59081333  1
  N  N390  1  0.19550496  0.10978699  0.09382019  1
  N  N391  1  0.18109880  0.44492744  0.10295989  1
  N  N392  1  0.18553692  0.77866347  0.09699185  1
  N  N393  1  0.69234338  0.11003035  0.08994629  1
  N  N394  1  0.67314588  0.44237203  0.10478348  1
  N  N395  1  0.68284401  0.78292536  0.09841392  1
  N  N396  1  0.18077806  0.22301039  0.89915296  1
  N  N397  1  0.18151672  0.55246914  0.89253283  1
  N  N398  1  0.17874783  0.88872257  0.89678463  1
  N  N399  1  0.68731594  0.22458049  0.91046234  1
  N  N400  1  0.68006749  0.54953792  0.90200020  1
  N  N401  1  0.68286716  0.89059126  0.89803311  1
  N  N402  1  0.32111272  0.11144056  0.39437249  1
  N  N403  1  0.31500336  0.44179119  0.40902916  1
  N  N404  1  0.31566608  0.77536715  0.40369879  1
  N  N405  1  0.80965290  0.11146590  0.41117943  1
  N  N406  1  0.81652569  0.44483130  0.40127985  1
  N  N407  1  0.82394397  0.77746723  0.39900019  1
  N  N408  1  0.43331162  0.27726367  0.40200219  1
  N  N409  1  0.44598200  0.60812125  0.41104484  1
  N  N410  1  0.44079422  0.94451048  0.39964729  1
  N  N411  1  0.93769854  0.27552563  0.40282229  1
  N  N412  1  0.94047912  0.61247734  0.40263713  1
  N  N413  1  0.94347951  0.94128144  0.40752458  1
  N  N414  1  0.05502234  0.05835737  0.91065195  1
  N  N415  1  0.06902324  0.38706760  0.89278171  1
  N  N416  1  0.07138602  0.72351896  0.89453767  1
  N  N417  1  0.56383114  0.05502978  0.89895192  1
  N  N418  1  0.56821244  0.38710549  0.89811473  1
  N  N419  1  0.55762720  0.72632481  0.91155343  1
  N  N420  1  0.06727973  0.27782381  0.09763851  1
  N  N421  1  0.07114385  0.60991592  0.10631808  1
  N  N422  1  0.07470167  0.94401615  0.09495884  1
  N  N423  1  0.56420201  0.27606617  0.09649236  1
  N  N424  1  0.56572491  0.61559889  0.09288384  1
  N  N425  1  0.57220681  0.94781626  0.10529045  1
  N  N426  1  0.43438780  0.05550181  0.59787427  1
  N  N427  1  0.42916640  0.39034184  0.60357917  1
  N  N428  1  0.42959324  0.72448424  0.60020175  1
  N  N429  1  0.93552130  0.05480386  0.59927549  1
  N  N430  1  0.94155738  0.39035530  0.58696621  1
  N  N431  1  0.93201900  0.72296132  0.59606969  1
  N  N432  1  0.19464948  0.11055524  0.41444002  1
  N  N433  1  0.18483790  0.44188455  0.40954306  1
  N  N434  1  0.18746197  0.77593246  0.40499871  1
  N  N435  1  0.68213044  0.10899718  0.39573335  1
  N  N436  1  0.68748123  0.44794334  0.40346585  1
  N  N437  1  0.69429379  0.77569707  0.40720657  1
  N  N438  1  0.30833669  0.22471023  0.90821073  1
  N  N439  1  0.30745850  0.55717150  0.90962722  1
  N  N440  1  0.30479893  0.89412741  0.91332580  1
  N  N441  1  0.81443494  0.22192323  0.89757683  1
  N  N442  1  0.80702277  0.56178250  0.89720647  1
  N  N443  1  0.80923788  0.89292535  0.90789450  1
  N  N444  1  0.32322730  0.11052188  0.10130181  1
  N  N445  1  0.30976580  0.44165992  0.08845479  1
  N  N446  1  0.31342930  0.77718766  0.09252394  1
  N  N447  1  0.82199909  0.11087591  0.09658475  1
  N  N448  1  0.80100344  0.44208116  0.09163030  1
  N  N449  1  0.81184690  0.77738687  0.10094448  1
  N  N450  1  0.18828286  0.22338845  0.59894849  1
  N  N451  1  0.17591693  0.55303433  0.60461912  1
  N  N452  1  0.18500765  0.88975676  0.59382361  1
  N  N453  1  0.68504293  0.22262137  0.59922609  1
  N  N454  1  0.67896116  0.55664089  0.60165119  1
  N  N455  1  0.67934891  0.88894418  0.60443535  1
  Cl  Cl456  1  0.24771539  0.05860216  0.61616435  1
  Cl  Cl457  1  0.24905461  0.38258111  0.62643087  1
  Cl  Cl458  1  0.24469831  0.72102477  0.61740099  1
  Cl  Cl459  1  0.75190975  0.05752708  0.60412097  1
  Cl  Cl460  1  0.74603019  0.39888679  0.60377175  1
  Cl  Cl461  1  0.74217061  0.72268006  0.62035199  1
  Cl  Cl462  1  0.25354133  0.28344172  0.12009886  1
  Cl  Cl463  1  0.25807009  0.61350281  0.11753386  1
  Cl  Cl464  1  0.26033773  0.94129914  0.11086906  1
  Cl  Cl465  1  0.74942188  0.27995094  0.11833568  1
  Cl  Cl466  1  0.75420161  0.60613847  0.09916058  1
  Cl  Cl467  1  0.76523740  0.94369194  0.11597163  1
  Cl  Cl468  1  0.24228158  0.05644446  0.89051792  1
  Cl  Cl469  1  0.25624472  0.38611735  0.88996864  1
  Cl  Cl470  1  0.24927618  0.71460979  0.87831833  1
  Cl  Cl471  1  0.74395699  0.04929522  0.87299514  1
  Cl  Cl472  1  0.75996340  0.39341497  0.89344291  1
  Cl  Cl473  1  0.75424146  0.72696524  0.90100031  1
  Cl  Cl474  1  0.24972710  0.28220307  0.38266359  1
  Cl  Cl475  1  0.25703481  0.60983905  0.38779541  1
  Cl  Cl476  1  0.25844638  0.94764285  0.38007324  1
  Cl  Cl477  1  0.74869335  0.28025672  0.38464064  1
  Cl  Cl478  1  0.75641365  0.61313977  0.37323329  1
  Cl  Cl479  1  0.75529648  0.94182131  0.39435882  1
  Cl  Cl480  1  0.00203396  0.22362319  0.61496702  1
  Cl  Cl481  1  -0.01030647  0.54821465  0.62401504  1
  Cl  Cl482  1  -0.00556631  0.88798510  0.61526778  1
  Cl  Cl483  1  0.49941527  0.22010452  0.61693975  1
  Cl  Cl484  1  0.49195143  0.55425176  0.61784540  1
  Cl  Cl485  1  0.49477523  0.88209122  0.62165016  1
  Cl  Cl486  1  0.01230377  0.10576800  0.12151340  1
  Cl  Cl487  1  -0.01779058  0.43668068  0.10394350  1
  Cl  Cl488  1  -0.00404878  0.77422310  0.10294025  1
  Cl  Cl489  1  0.51138135  0.10885964  0.11032442  1
  Cl  Cl490  1  0.49080849  0.45352893  0.12332684  1
  Cl  Cl491  1  0.49996344  0.77481203  0.11908813  1
  Cl  Cl492  1  -0.00151302  0.21892072  0.87940444  1
  Cl  Cl493  1  -0.01142649  0.55975569  0.89432650  1
  Cl  Cl494  1  -0.00724950  0.88713723  0.88751398  1
  Cl  Cl495  1  0.49892868  0.21907638  0.88266413  1
  Cl  Cl496  1  0.49601836  0.56205116  0.89498950  1
  Cl  Cl497  1  0.49332691  0.89246006  0.88835118  1
  Cl  Cl498  1  0.00214339  0.10588445  0.39328308  1
  Cl  Cl499  1  -0.00250767  0.44141668  0.38541675  1
  Cl  Cl500  1  0.00591052  0.78414679  0.37187231  1
  Cl  Cl501  1  0.50111667  0.11392891  0.37434789  1
  Cl  Cl502  1  0.50544541  0.44155540  0.39459388  1
  Cl  Cl503  1  0.50695145  0.77372566  0.39222307  1
  Cl  Cl504  1  0.35484139  0.14747141  0.75187384  1
  Cl  Cl505  1  0.35786387  0.48109343  0.74779133  1
  Cl  Cl506  1  0.35662409  0.81344186  0.75210582  1
  Cl  Cl507  1  0.86184922  0.14527698  0.75244060  1
  Cl  Cl508  1  0.85541640  0.48368495  0.75665145  1
  Cl  Cl509  1  0.85187446  0.81339914  0.75296992  1
  Cl  Cl510  1  0.14249444  0.18527731  0.24981056  1
  Cl  Cl511  1  0.13902475  0.52206818  0.24453495  1
  Cl  Cl512  1  0.14026353  0.85541093  0.24398513  1
  Cl  Cl513  1  0.63993273  0.18729412  0.25385183  1
  Cl  Cl514  1  0.63607470  0.52280991  0.24650148  1
  Cl  Cl515  1  0.64437567  0.85352020  0.25115466  1
  Cl  Cl516  1  0.13400844  0.14620354  0.74840243  1
  Cl  Cl517  1  0.13442592  0.47793193  0.75900314  1
  Cl  Cl518  1  0.13607894  0.81459518  0.75662714  1
  Cl  Cl519  1  0.64019135  0.14892584  0.74837313  1
  Cl  Cl520  1  0.63587966  0.48114381  0.74896909  1
  Cl  Cl521  1  0.63251599  0.81312321  0.75579847  1
  Cl  Cl522  1  0.36238401  0.18464306  0.25265088  1
  Cl  Cl523  1  0.35558528  0.51873900  0.25249810  1
  Cl  Cl524  1  0.36020352  0.84902996  0.25491659  1
  Cl  Cl525  1  0.85891658  0.18633475  0.24755047  1
  Cl  Cl526  1  0.85833954  0.51606758  0.24638094  1
  Cl  Cl527  1  0.86474254  0.85221591  0.25089249  1
  Cl  Cl528  1  0.11014724  0.31424333  0.75199862  1
  Cl  Cl529  1  0.10922067  0.64534569  0.75423531  1
  Cl  Cl530  1  0.10292430  0.97958612  0.75194720  1
  Cl  Cl531  1  0.61473771  0.31340071  0.75071517  1
  Cl  Cl532  1  0.60625529  0.64438635  0.75460358  1
  Cl  Cl533  1  0.60963359  0.97928994  0.74741159  1
  Cl  Cl534  1  0.39530287  0.01804661  0.24610432  1
  Cl  Cl535  1  0.39033475  0.35262586  0.25316394  1
  Cl  Cl536  1  0.39777108  0.68386696  0.25031500  1
  Cl  Cl537  1  0.89181816  0.01883696  0.24818965  1
  Cl  Cl538  1  0.89247360  0.35361590  0.25394963  1
  Cl  Cl539  1  0.88886061  0.68883776  0.24417516  1
  Cl  Cl540  1  0.39270877  0.31635709  0.74552718  1
  Cl  Cl541  1  0.38507763  0.64818607  0.74888398  1
  Cl  Cl542  1  0.38888824  0.98445771  0.74662827  1
  Cl  Cl543  1  0.88676944  0.31549796  0.74810282  1
  Cl  Cl544  1  0.88836501  0.64968347  0.75618755  1
  Cl  Cl545  1  0.88241576  0.97925034  0.75342101  1
  Cl  Cl546  1  0.11291708  0.01965876  0.25597019  1
  Cl  Cl547  1  0.11102905  0.35227623  0.24265855  1
  Cl  Cl548  1  0.11190290  0.68842426  0.23990398  1
  Cl  Cl549  1  0.61851327  0.02088465  0.24377215  1
  Cl  Cl550  1  0.61138250  0.35737786  0.25363698  1
  Cl  Cl551  1  0.61696582  0.68713282  0.25059499  1
