# generated using pymatgen
data_H8PbC4(N3Cl2)2
_symmetry_space_group_name_H-M   'P 1'
_cell_length_a   16.63276474
_cell_length_b   22.52027788
_cell_length_c   21.59452778
_cell_angle_alpha   89.99918410
_cell_angle_beta   89.97586059
_cell_angle_gamma   90.00799366
_symmetry_Int_Tables_number   1
_chemical_formula_structural   H8PbC4(N3Cl2)2
_chemical_formula_sum   'H192 Pb24 C96 N144 Cl96'
_cell_volume   8088.75829888
_cell_formula_units_Z   24
loop_
 _symmetry_equiv_pos_site_id
 _symmetry_equiv_pos_as_xyz
  1  'x, y, z'
loop_
 _atom_site_type_symbol
 _atom_site_label
 _atom_site_symmetry_multiplicity
 _atom_site_fract_x
 _atom_site_fract_y
 _atom_site_fract_z
 _atom_site_occupancy
  H  H0  1  -0.01244184  0.03217808  0.68076200  1
  H  H1  1  -0.00055526  0.36333530  0.68124829  1
  H  H2  1  0.00477627  0.69415228  0.67600507  1
  H  H3  1  0.50869178  0.03080288  0.67969662  1
  H  H4  1  0.50073629  0.36374358  0.68259089  1
  H  H5  1  0.49985248  0.69765057  0.67967449  1
  H  H6  1  -0.00207011  0.30503780  0.18222537  1
  H  H7  1  -0.01636756  0.63806639  0.17807565  1
  H  H8  1  0.00887928  0.97600474  0.17563640  1
  H  H9  1  0.49625120  0.30581423  0.18118170  1
  H  H10  1  0.50410285  0.63786576  0.17740080  1
  H  H11  1  0.48997074  0.96811265  0.17559147  1
  H  H12  1  -0.00294870  0.03013532  0.82229857  1
  H  H13  1  0.01225855  0.36512654  0.82276742  1
  H  H14  1  -0.01950948  0.69496759  0.82664854  1
  H  H15  1  0.51263505  0.02587177  0.82562273  1
  H  H16  1  0.52544908  0.36863301  0.84081445  1
  H  H17  1  0.51416698  0.69749193  0.82136211  1
  H  H18  1  0.00552510  0.30148894  0.32232616  1
  H  H19  1  0.01396448  0.63894635  0.32271627  1
  H  H20  1  -0.00159039  0.96946242  0.32160950  1
  H  H21  1  0.50143371  0.30089344  0.31752273  1
  H  H22  1  0.49046103  0.63814063  0.32474080  1
  H  H23  1  0.47518984  0.96777898  0.34296459  1
  H  H24  1  0.24730081  0.19336554  0.67718510  1
  H  H25  1  0.25202485  0.52711272  0.67609944  1
  H  H26  1  0.27654004  0.86660967  0.65853738  1
  H  H27  1  0.74778512  0.19832306  0.67921074  1
  H  H28  1  0.74256148  0.52837231  0.67776957  1
  H  H29  1  0.74673777  0.85615439  0.67575547  1
  H  H30  1  0.24830574  0.14103717  0.17466780  1
  H  H31  1  0.24517119  0.47451623  0.17249067  1
  H  H32  1  0.25516588  0.80309162  0.17139370  1
  H  H33  1  0.74205280  0.13499124  0.18347699  1
  H  H34  1  0.72503015  0.46626740  0.15475340  1
  H  H35  1  0.74572037  0.80781824  0.17991489  1
  H  H36  1  0.24799427  0.19197965  0.82260196  1
  H  H37  1  0.25906801  0.52963150  0.82105137  1
  H  H38  1  0.24777054  0.86208789  0.82081195  1
  H  H39  1  0.75924091  0.19701298  0.81973912  1
  H  H40  1  0.74146851  0.53063895  0.81922742  1
  H  H41  1  0.76837112  0.86690345  0.82119941  1
  H  H42  1  0.24533882  0.13872122  0.31938608  1
  H  H43  1  0.25128082  0.46865090  0.32221191  1
  H  H44  1  0.23334502  0.80037319  0.32574409  1
  H  H45  1  0.75342474  0.13508567  0.31959735  1
  H  H46  1  0.75476082  0.47350732  0.32176035  1
  H  H47  1  0.74883431  0.80283981  0.32237029  1
  H  H48  1  0.12637036  0.04595569  0.62551677  1
  H  H49  1  0.13409261  0.38492231  0.61922336  1
  H  H50  1  0.11658929  0.72291910  0.59561441  1
  H  H51  1  0.62573967  0.05708783  0.60223353  1
  H  H52  1  0.63365012  0.38763576  0.61944815  1
  H  H53  1  0.62049613  0.72283474  0.60821141  1
  H  H54  1  0.37964550  0.27893903  0.10369398  1
  H  H55  1  0.37769190  0.61551534  0.10932924  1
  H  H56  1  0.37791711  0.94091675  0.09505504  1
  H  H57  1  0.88287618  0.28127805  0.10538753  1
  H  H58  1  0.88364269  0.60789991  0.09038341  1
  H  H59  1  0.87127224  0.94868746  0.12235302  1
  H  H60  1  0.36915296  0.04532817  0.87206477  1
  H  H61  1  0.41449190  0.39596528  0.92009218  1
  H  H62  1  0.37538801  0.71343023  0.87706909  1
  H  H63  1  0.87222948  0.05358528  0.88958753  1
  H  H64  1  0.89585629  0.38964761  0.89666948  1
  H  H65  1  0.88520359  0.72710815  0.91653386  1
  H  H66  1  0.11068457  0.27597371  0.40540542  1
  H  H67  1  0.13250327  0.61531954  0.39831711  1
  H  H68  1  0.11171937  0.94138465  0.39749208  1
  H  H69  1  0.61529043  0.27675548  0.39636807  1
  H  H70  1  0.63583063  0.61954561  0.36923779  1
  H  H71  1  0.58296537  0.93472658  0.42310766  1
  H  H72  1  0.38103168  0.21910441  0.61702806  1
  H  H73  1  0.35918602  0.55987873  0.59346132  1
  H  H74  1  0.41143738  0.88807729  0.60173081  1
  H  H75  1  0.88455239  0.21796649  0.62418403  1
  H  H76  1  0.86330465  0.55619553  0.60531602  1
  H  H77  1  0.88780932  0.88198512  0.62528386  1
  H  H78  1  0.13305520  0.10799930  0.09942357  1
  H  H79  1  0.10952903  0.44724785  0.11471874  1
  H  H80  1  0.12528571  0.77808006  0.10729192  1
  H  H81  1  0.63467066  0.10873011  0.10031096  1
  H  H82  1  0.58625882  0.44705091  0.10063095  1
  H  H83  1  0.62457100  0.77599981  0.11085309  1
  H  H84  1  0.11845337  0.21778353  0.88746899  1
  H  H85  1  0.12514170  0.54710621  0.87869229  1
  H  H86  1  0.13246467  0.88985419  0.89540142  1
  H  H87  1  0.61850043  0.21451273  0.86983128  1
  H  H88  1  0.61080898  0.55137266  0.88396797  1
  H  H89  1  0.62922379  0.88429850  0.87851686  1
  H  H90  1  0.37132237  0.11317880  0.38631329  1
  H  H91  1  0.36316215  0.44303055  0.40409141  1
  H  H92  1  0.37637992  0.78524690  0.37231424  1
  H  H93  1  0.86627254  0.11317880  0.39795199  1
  H  H94  1  0.86561701  0.44423656  0.40302758  1
  H  H95  1  0.88123067  0.77884307  0.38495081  1
  H  H96  1  0.36739828  0.27948049  0.38038355  1
  H  H97  1  0.39412681  0.60776814  0.41388766  1
  H  H98  1  0.33697082  0.94355965  0.39468677  1
  H  H99  1  0.86537975  0.28424149  0.37399244  1
  H  H100  1  0.88413202  0.61594671  0.38425501  1
  H  H101  1  0.86470536  0.94363033  0.38172981  1
  H  H102  1  0.12129069  0.05360387  0.89207650  1
  H  H103  1  0.14385222  0.38487642  0.88601683  1
  H  H104  1  0.12542389  0.71487260  0.87226307  1
  H  H105  1  0.61130115  0.06131918  0.91087444  1
  H  H106  1  0.66130063  0.38981556  0.89577590  1
  H  H107  1  0.62168481  0.72287739  0.90260555  1
  H  H108  1  0.13123613  0.28463047  0.12222272  1
  H  H109  1  0.12605240  0.61771058  0.12801503  1
  H  H110  1  0.11606545  0.94447549  0.09247598  1
  H  H111  1  0.62776174  0.28257222  0.11471940  1
  H  H112  1  0.62640422  0.61153214  0.10435974  1
  H  H113  1  0.62446277  0.94631655  0.11482245  1
  H  H114  1  0.37723276  0.05185440  0.61548573  1
  H  H115  1  0.38582411  0.38879461  0.60465944  1
  H  H116  1  0.37153864  0.72001435  0.61493436  1
  H  H117  1  0.88056820  0.05889472  0.59681575  1
  H  H118  1  0.88638934  0.39072277  0.60263049  1
  H  H119  1  0.86950538  0.71802951  0.61646636  1
  H  H120  1  0.12280969  0.11295720  0.39201884  1
  H  H121  1  0.11663609  0.45012741  0.38361937  1
  H  H122  1  0.13461309  0.77277832  0.41173728  1
  H  H123  1  0.61840204  0.11357220  0.37818815  1
  H  H124  1  0.61970495  0.44958395  0.38070473  1
  H  H125  1  0.63313057  0.77638810  0.39825962  1
  H  H126  1  0.36699416  0.22345477  0.89430172  1
  H  H127  1  0.37135809  0.55624406  0.89911127  1
  H  H128  1  0.38094300  0.88197216  0.88251314  1
  H  H129  1  0.86331435  0.22366123  0.90356133  1
  H  H130  1  0.86008747  0.55492386  0.89267132  1
  H  H131  1  0.87410267  0.89457513  0.90701503  1
  H  H132  1  0.37999206  0.11534647  0.11099290  1
  H  H133  1  0.35515483  0.44560185  0.09187114  1
  H  H134  1  0.37335797  0.77658073  0.09706067  1
  H  H135  1  0.88105269  0.11445891  0.12644828  1
  H  H136  1  0.83197071  0.43363232  0.07418981  1
  H  H137  1  0.87158603  0.78726495  0.10991460  1
  H  H138  1  0.13456075  0.22234517  0.59765047  1
  H  H139  1  0.11411178  0.55057285  0.62057849  1
  H  H140  1  0.16488747  0.89210641  0.58109446  1
  H  H141  1  0.63789750  0.22162516  0.59844254  1
  H  H142  1  0.61546380  0.55449159  0.60950185  1
  H  H143  1  0.64499652  0.89106734  0.59187829  1
  H  H144  1  0.89624936  0.91844365  0.49101699  1
  H  H145  1  0.03801498  0.24936790  0.51101690  1
  H  H146  1  0.68777925  0.72293532  0.02172885  1
  H  H147  1  0.29227506  0.41495161  0.50415395  1
  H  H148  1  0.97312474  0.75024208  1.01152728  1
  H  H149  1  0.79023239  0.25172375  1.00783907  1
  H  H150  1  0.16459761  0.74916213  0.00001068  1
  H  H151  1  0.40382610  0.75026860  0.50299123  1
  H  H152  1  0.70371439  0.24860191  0.49165603  1
  H  H153  1  0.91932225  0.58237218  0.49723286  1
  H  H154  1  0.28329077  0.58952102  0.49506608  1
  H  H155  1  0.47810887  0.58225832  0.50981029  1
  H  H156  1  0.47636220  0.42524877  1.02696944  1
  H  H157  1  0.34373149  0.08541679  0.00403018  1
  H  H158  1  0.63166517  0.24512807  -0.01632868  1
  H  H159  1  0.94231316  0.25032467  -0.00261298  1
  H  H160  1  0.95137031  0.41697587  1.00750740  1
  H  H161  1  0.15022570  0.57826567  -0.00658176  1
  H  H162  1  0.81375769  0.78294452  0.00316197  1
  H  H163  1  0.05083230  0.90842484  0.50453063  1
  H  H164  1  0.22308302  0.91934347  0.47260914  1
  H  H165  1  0.03855246  0.91828797  -0.00659421  1
  H  H166  1  0.57076715  0.75260479  0.49872918  1
  H  H167  1  0.10732715  0.07722110  0.51279777  1
  H  H168  1  0.58988727  0.91698211  0.00736318  1
  H  H169  1  0.86864727  0.24863296  0.50636259  1
  H  H170  1  0.80588376  0.58244310  1.00329287  1
  H  H171  1  0.10272375  0.25436067  0.00980602  1
  H  H172  1  0.95357206  0.09198186  0.49954280  1
  H  H173  1  0.80429801  0.08598769  0.50707577  1
  H  H174  1  0.76204764  0.41214842  -0.02921366  1
  H  H175  1  0.90271095  0.74420956  0.50835714  1
  H  H176  1  0.72343144  0.91959939  0.49404135  1
  H  H177  1  0.96722123  0.58146283  -0.00621249  1
  H  H178  1  0.41413465  0.08341702  0.50535377  1
  H  H179  1  0.52886183  0.08635303  1.00847207  1
  H  H180  1  0.79326192  0.41821915  0.50352912  1
  H  H181  1  0.55001892  0.24819002  0.50274370  1
  H  H182  1  0.65823848  0.58318016  0.50303186  1
  H  H183  1  0.28431094  0.41630889  -0.00955973  1
  H  H184  1  0.19108492  0.92153942  1.00391450  1
  H  H185  1  0.70616487  0.08195689  -0.00337915  1
  H  H186  1  0.55318726  0.74960237  1.00979819  1
  H  H187  1  0.51336251  0.91239352  0.52497987  1
  H  H188  1  0.91456953  0.08410378  1.00114185  1
  H  H189  1  0.20452116  0.24963507  0.49634670  1
  H  H190  1  0.95183811  0.41833475  0.49652507  1
  H  H191  1  0.44961816  0.41650055  0.49776109  1
  Pb  Pb192  1  0.25138685  0.04712551  0.75004579  1
  Pb  Pb193  1  0.25616093  0.38169480  0.75515761  1
  Pb  Pb194  1  0.24373731  0.71728299  0.74400770  1
  Pb  Pb195  1  0.74611302  0.05082277  0.75193824  1
  Pb  Pb196  1  0.75217354  0.38073110  0.74274347  1
  Pb  Pb197  1  0.75180701  0.71527751  0.76260011  1
  Pb  Pb198  1  0.24712122  0.28571093  0.25479562  1
  Pb  Pb199  1  0.25017582  0.61979883  0.26108226  1
  Pb  Pb200  1  0.24304541  0.94789670  0.23809986  1
  Pb  Pb201  1  0.74488533  0.28493946  0.24883441  1
  Pb  Pb202  1  0.74734931  0.61566855  0.24047283  1
  Pb  Pb203  1  0.74394861  0.95315713  0.26321022  1
  Pb  Pb204  1  0.00260610  0.21539418  0.75455990  1
  Pb  Pb205  1  -0.00426100  0.54710621  0.75643068  1
  Pb  Pb206  1  0.00107909  0.88396749  0.74897846  1
  Pb  Pb207  1  0.49834615  0.21582423  0.74606755  1
  Pb  Pb208  1  0.49369774  0.55192576  0.74302537  1
  Pb  Pb209  1  0.50221539  0.88003868  0.74980058  1
  Pb  Pb210  1  0.00005109  0.11881112  0.25722897  1
  Pb  Pb211  1  -0.00771868  0.45189073  0.24665919  1
  Pb  Pb212  1  -0.00468085  0.78324332  0.25111876  1
  Pb  Pb213  1  0.49443702  0.11439902  0.24365472  1
  Pb  Pb214  1  0.49143944  0.45272173  0.25847875  1
  Pb  Pb215  1  0.50111509  0.78586585  0.24993155  1
  C  C216  1  -0.00192581  0.04658861  0.63331906  1
  C  C217  1  0.00689395  0.37882510  0.63405155  1
  C  C218  1  -0.00346314  0.71058630  0.62921656  1
  C  C219  1  0.50400572  0.04636473  0.63229429  1
  C  C220  1  0.50712465  0.37909940  0.63525191  1
  C  C221  1  0.49721586  0.71370606  0.63225684  1
  C  C222  1  0.00424864  0.28976394  0.13473603  1
  C  C223  1  -0.00250381  0.62178499  0.13202622  1
  C  C224  1  -0.00070019  0.95735729  0.12996868  1
  C  C225  1  0.50133959  0.28926295  0.13407683  1
  C  C226  1  0.50312016  0.62170713  0.13026316  1
  C  C227  1  0.49767620  0.95230504  0.12850300  1
  C  C228  1  -0.00370469  0.04568961  0.86969206  1
  C  C229  1  0.01728595  0.37949933  0.87055656  1
  C  C230  1  -0.00318872  0.71153710  0.87215785  1
  C  C231  1  0.49779487  0.04285619  0.87125301  1
  C  C232  1  0.53401028  0.38434387  0.88800991  1
  C  C233  1  0.50388044  0.71088540  0.86886412  1
  C  C234  1  -0.00647986  0.28726170  0.36952912  1
  C  C235  1  0.00960083  0.62350175  0.37006119  1
  C  C236  1  -0.00955831  0.95324669  0.36869709  1
  C  C237  1  0.49432174  0.28595985  0.36494183  1
  C  C238  1  0.50673507  0.62246950  0.37057615  1
  C  C239  1  0.46526634  0.95027553  0.38932892  1
  C  C240  1  0.25415168  0.21044957  0.63053841  1
  C  C241  1  0.24206264  0.54447880  0.62994742  1
  C  C242  1  0.28472446  0.88210679  0.61119387  1
  C  C243  1  0.75734890  0.21277740  0.63165067  1
  C  C244  1  0.73969961  0.54560068  0.63091599  1
  C  C245  1  0.75994980  0.87466445  0.63042287  1
  C  C246  1  0.25432513  0.12310299  0.12829967  1
  C  C247  1  0.23670020  0.45703616  0.12607539  1
  C  C248  1  0.25075300  0.78708621  0.12420090  1
  C  C249  1  0.75294356  0.12033600  0.13632310  1
  C  C250  1  0.71501980  0.45075082  0.10769630  1
  C  C251  1  0.74751903  0.79078935  0.13297780  1
  C  C252  1  0.24415717  0.21070238  0.86859095  1
  C  C253  1  0.25093898  0.54397340  0.86852249  1
  C  C254  1  0.25352637  0.87753500  0.86804352  1
  C  C255  1  0.74636913  0.21197408  0.86655344  1
  C  C256  1  0.73771169  0.54525148  0.86692625  1
  C  C257  1  0.75734512  0.88107645  0.86854882  1
  C  C258  1  0.24615645  0.12220661  0.36627610  1
  C  C259  1  0.24398646  0.45403407  0.36970183  1
  C  C260  1  0.24869859  0.78574856  0.37205159  1
  C  C261  1  0.74618968  0.12046610  0.36703357  1
  C  C262  1  0.74682037  0.45693714  0.36852099  1
  C  C263  1  0.75486068  0.78655414  0.36918264  1
  C  C264  1  0.44292761  0.73293094  0.95649718  1
  C  C265  1  0.98361273  0.40653912  0.53890983  1
  C  C266  1  0.76212725  0.23984847  0.96415758  1
  C  C267  1  0.00864297  0.26042331  0.46742985  1
  C  C268  1  0.51830954  0.25925323  0.46015040  1
  C  C269  1  0.28732340  0.09212574  0.45760047  1
  C  C270  1  0.73550705  0.09324928  0.04025018  1
  C  C271  1  0.45001452  0.74042395  0.54026353  1
  C  C272  1  0.05746783  0.26340415  0.04499247  1
  C  C273  1  0.05956203  0.06881935  0.54622446  1
  C  C274  1  0.69076445  0.09530342  0.45577717  1
  C  C275  1  0.59154267  0.41012598  0.97717258  1
  C  C276  1  0.40396255  0.91961677  0.47515743  1
  C  C277  1  0.76989882  0.57121042  0.96290811  1
  C  C278  1  0.73545987  0.23850417  0.53436157  1
  C  C279  1  0.42804698  0.07264601  0.95275944  1
  C  C280  1  0.57833950  0.59557781  0.45229799  1
  C  C281  1  0.28523242  0.75579217  0.03007336  1
  C  C282  1  0.27746747  0.57326469  0.96382108  1
  C  C283  1  0.06904194  0.40408605  0.96164251  1
  C  C284  1  0.95554357  0.07357070  0.96335570  1
  C  C285  1  0.31729909  0.76164841  0.45566912  1
  C  C286  1  0.68155320  0.23678063  0.95211118  1
  C  C287  1  0.96225250  0.59390301  0.46123219  1
  C  C288  1  0.52318276  0.73710328  0.96694351  1
  C  C289  1  0.04369045  0.59444183  0.46428672  1
  C  C290  1  0.81693543  0.23780168  0.54309506  1
  C  C291  1  0.22514486  0.90811581  0.96326195  1
  C  C292  1  0.72674904  0.75424617  0.46262883  1
  C  C293  1  0.98725305  0.40606547  0.96679993  1
  C  C294  1  0.65439072  0.42205570  0.02164788  1
  C  C295  1  0.45800338  0.07316139  0.54193753  1
  C  C296  1  0.50905041  0.41307286  0.98497436  1
  C  C297  1  0.27547793  0.24781868  0.95899081  1
  C  C298  1  0.77138557  0.09502944  0.46452902  1
  C  C299  1  0.53210871  0.74155222  0.53777105  1
  C  C300  1  0.34045164  0.90734101  0.52046358  1
  C  C301  1  0.92808157  0.26294395  0.45616608  1
  C  C302  1  0.68854086  0.56935639  0.95847815  1
  C  C303  1  0.19634342  0.56973547  0.95851355  1
  C  C304  1  0.25788840  0.90968557  0.51407679  1
  C  C305  1  0.46247615  0.59285004  0.03884084  1
  C  C306  1  0.48191513  0.40587445  0.54020928  1
  C  C307  1  0.23860433  0.75744161  0.46884534  1
  C  C308  1  0.03691852  0.07348889  0.96238174  1
  C  C309  1  0.97579446  0.26189851  0.03889943  1
  C  C310  1  0.01864550  0.92158498  0.46273623  1
  C  C311  1  0.30614451  0.90465940  0.95720537  1
  N  N312  1  0.54718045  0.92497027  0.04101724  1
  N  N313  1  0.06857822  0.73925091  0.95272857  1
  N  N314  1  0.76629024  0.42580505  0.46135180  1
  N  N315  1  0.80442104  0.75553384  0.45930659  1
  N  N316  1  0.94614974  0.73793411  0.54218631  1
  N  N317  1  0.93784486  0.92512450  0.04606205  1
  N  N318  1  0.19811581  0.24516229  0.95821231  1
  N  N319  1  0.20948299  0.09139642  0.46016326  1
  N  N320  1  0.18100140  0.57641726  0.54568844  1
  N  N321  1  0.77404097  0.90787897  0.96589290  1
  N  N322  1  0.93955348  0.92318153  0.45609643  1
  N  N323  1  0.99265501  0.74406547  0.96601593  1
  N  N324  1  0.23216325  0.24337879  0.53859203  1
  N  N325  1  0.82376942  0.90895704  0.54903657  1
  N  N326  1  0.73433004  0.41612270  0.01413190  1
  N  N327  1  0.26435595  0.42703204  0.46370022  1
  N  N328  1  0.30973387  0.24236015  0.54398711  1
  N  N329  1  0.30054050  0.09304835  0.04042737  1
  N  N330  1  0.98093490  0.07264845  0.53721730  1
  N  N331  1  0.53713272  0.07468062  0.53698018  1
  N  N332  1  0.70860920  0.76166039  0.04115080  1
  N  N333  1  0.53961249  0.59091464  0.03623308  1
  N  N334  1  0.79113506  0.76250585  0.04206392  1
  N  N335  1  0.20648458  0.75751756  0.03449156  1
  N  N336  1  0.25691780  0.42435023  0.03337923  1
  N  N337  1  0.48430469  0.91494498  0.48221320  1
  N  N338  1  0.56086041  0.40561330  0.54510428  1
  N  N339  1  0.81381202  0.09552504  0.04865530  1
  N  N340  1  0.02351505  0.73979979  0.53391139  1
  N  N341  1  0.01494027  0.92393388  0.03740286  1
  N  N342  1  0.18686478  0.42978575  0.45838243  1
  N  N343  1  0.68884330  0.42783518  0.45530736  1
  N  N344  1  0.69948944  0.57507988  0.54094579  1
  N  N345  1  0.46961528  0.92299610  0.03323268  1
  N  N346  1  0.69850917  0.90482275  0.95657742  1
  N  N347  1  0.25813189  0.58001425  0.53828370  1
  N  N348  1  0.43944834  0.26008056  0.45482433  1
  N  N349  1  0.22282643  0.09022814  0.03536709  1
  N  N350  1  0.98845334  0.58852606  0.03870310  1
  N  N351  1  0.47189531  0.25940530  0.03963523  1
  N  N352  1  0.74731505  0.91148570  0.53874808  1
  N  N353  1  0.17936741  0.42539657  0.04001998  1
  N  N354  1  0.54776324  0.26033674  0.04370357  1
  N  N355  1  0.50524400  0.07808944  0.96480997  1
  N  N356  1  0.50141028  0.59155794  0.46583509  1
  N  N357  1  0.06472333  0.59189334  0.05014208  1
  N  N358  1  0.06234284  0.40439099  0.54425030  1
  N  N359  1  0.77783301  0.57536084  0.53820829  1
  N  N360  1  0.07023583  0.05180393  0.60552945  1
  N  N361  1  0.07515634  0.38731820  0.60358274  1
  N  N362  1  0.05446546  0.72351006  0.58869561  1
  N  N363  1  0.56410424  0.05816857  0.59377434  1
  N  N364  1  0.57473213  0.38882852  0.60433067  1
  N  N365  1  0.56019142  0.72499375  0.59540234  1
  N  N366  1  0.44153134  0.27767575  0.09533423  1
  N  N367  1  0.43719997  0.61122378  0.09542814  1
  N  N368  1  0.43941703  0.93950898  0.08829818  1
  N  N369  1  0.94389171  0.27825976  0.09521197  1
  N  N370  1  0.94600293  0.60944331  0.08714827  1
  N  N371  1  0.92872899  0.94422983  0.10434806  1
  N  N372  1  0.42336952  0.05240508  0.89417739  1
  N  N373  1  0.47590036  0.39667509  0.92943077  1
  N  N374  1  0.43188755  0.71760866  0.89726208  1
  N  N375  1  0.93127141  0.05633755  0.90421664  1
  N  N376  1  0.95652885  0.39047734  0.90911644  1
  N  N377  1  0.94762149  0.72422901  0.91843105  1
  N  N378  1  0.04848327  0.27575367  0.41270004  1
  N  N379  1  0.07221501  0.61219534  0.40934707  1
  N  N380  1  0.05030236  0.93956956  0.40838600  1
  N  N381  1  0.55356446  0.27488853  0.40545346  1
  N  N382  1  0.58187222  0.61344735  0.39254054  1
  N  N383  1  0.52124821  0.93874105  0.43117588  1
  N  N384  1  0.32279506  0.22343890  0.60189492  1
  N  N385  1  0.29701115  0.55812603  0.58797280  1
  N  N386  1  0.35467399  0.88996543  0.58198559  1
  N  N387  1  0.82845448  0.22192844  0.60407940  1
  N  N388  1  0.80214218  0.55806589  0.59449623  1
  N  N389  1  0.83154405  0.88744677  0.60670417  1
  N  N390  1  0.19445190  0.10826776  0.09022423  1
  N  N391  1  0.16729106  0.44402958  0.09830113  1
  N  N392  1  0.18433672  0.77798628  0.09215401  1
  N  N393  1  0.69673001  0.10837488  0.09359555  1
  N  N394  1  0.64313715  0.44155172  0.08100533  1
  N  N395  1  0.68558142  0.77125565  0.10059141  1
  N  N396  1  0.17825552  0.22150470  0.90076305  1
  N  N397  1  0.18125100  0.55163746  0.89803834  1
  N  N398  1  0.19325328  0.89083982  0.90654796  1
  N  N399  1  0.67348595  0.21986163  0.89150047  1
  N  N400  1  0.66963590  0.55399848  0.90047792  1
  N  N401  1  0.68699287  0.88817129  0.89626797  1
  N  N402  1  0.31174948  0.11026706  0.40074732  1
  N  N403  1  0.30100993  0.44156466  0.41023637  1
  N  N404  1  0.32317083  0.77869477  0.39591712  1
  N  N405  1  0.80515746  0.11063336  0.40765983  1
  N  N406  1  0.80334392  0.44573234  0.40996253  1
  N  N407  1  0.82188183  0.77594472  0.39980494  1
  N  N408  1  0.42627206  0.27651700  0.39541868  1
  N  N409  1  0.45674745  0.61057599  0.41634669  1
  N  N410  1  0.39350965  0.93895326  0.41551871  1
  N  N411  1  0.92021958  0.27912233  0.39594024  1
  N  N412  1  0.94238082  0.61201934  0.40143050  1
  N  N413  1  0.92223040  0.94556610  0.39910654  1
  N  N414  1  0.06130059  0.05692727  0.90594679  1
  N  N415  1  0.08634057  0.38819095  0.90314547  1
  N  N416  1  0.07037867  0.72144044  0.89350554  1
  N  N417  1  0.54917271  0.05652035  0.91558313  1
  N  N418  1  0.60462310  0.39204655  0.91606058  1
  N  N419  1  0.56042842  0.72293518  0.91102921  1
  N  N420  1  0.07355436  0.28025989  0.10461454  1
  N  N421  1  0.06994900  0.61092665  0.10865564  1
  N  N422  1  0.05402166  0.94541051  0.08727788  1
  N  N423  1  0.56768707  0.27800875  0.10228570  1
  N  N424  1  0.56541183  0.60909807  0.09467087  1
  N  N425  1  0.56572506  0.94348553  0.09832681  1
  N  N426  1  0.43630563  0.05566954  0.60016226  1
  N  N427  1  0.44734869  0.39016074  0.59516387  1
  N  N428  1  0.43024911  0.72336015  0.59941944  1
  N  N429  1  0.94308279  0.06163854  0.59195807  1
  N  N430  1  0.94793492  0.39095457  0.59360193  1
  N  N431  1  0.92812194  0.71936234  0.59952459  1
  N  N432  1  0.18382202  0.11037862  0.40203933  1
  N  N433  1  0.17466706  0.44635200  0.39956777  1
  N  N434  1  0.19662362  0.77213595  0.41793762  1
  N  N435  1  0.67580029  0.11043755  0.39706312  1
  N  N436  1  0.67739005  0.44534739  0.39667609  1
  N  N437  1  0.69437519  0.77292710  0.40844898  1
  N  N438  1  0.30616801  0.22710653  0.90514630  1
  N  N439  1  0.31010922  0.55772246  0.90965311  1
  N  N440  1  0.32282947  0.88641205  0.89971649  1
  N  N441  1  0.80124195  0.22443029  0.91034153  1
  N  N442  1  0.79948879  0.55594765  0.90481513  1
  N  N443  1  0.81182384  0.89347192  0.91145030  1
  N  N444  1  0.32101961  0.11440251  0.09633639  1
  N  N445  1  0.29310783  0.44596464  0.08442487  1
  N  N446  1  0.31288687  0.77395483  0.08563828  1
  N  N447  1  0.82301136  0.11237436  0.10867462  1
  N  N448  1  0.77113238  0.43898268  0.06573601  1
  N  N449  1  0.81140843  0.78833789  0.09668571  1
  N  N450  1  0.19662147  0.22153109  0.58985681  1
  N  N451  1  0.17144619  0.55575934  0.60347339  1
  N  N452  1  0.22571856  0.89380034  0.57061043  1
  N  N453  1  0.69975520  0.22297742  0.58975907  1
  N  N454  1  0.67523194  0.55614898  0.59694560  1
  N  N455  1  0.70722818  0.88789695  0.58674969  1
  Cl  Cl456  1  0.25327629  0.04941720  0.61921476  1
  Cl  Cl457  1  0.26287910  0.39129037  0.61372409  1
  Cl  Cl458  1  0.24014135  0.72390443  0.61039416  1
  Cl  Cl459  1  0.75591516  0.05520533  0.61440018  1
  Cl  Cl460  1  0.76407529  0.39579975  0.60773500  1
  Cl  Cl461  1  0.74629161  0.72151006  0.62880373  1
  Cl  Cl462  1  0.25874223  0.28215689  0.12289254  1
  Cl  Cl463  1  0.25499001  0.62020923  0.12975035  1
  Cl  Cl464  1  0.24424003  0.94200532  0.10416679  1
  Cl  Cl465  1  0.75635969  0.28507557  0.11399085  1
  Cl  Cl466  1  0.75893226  0.61362132  0.10347967  1
  Cl  Cl467  1  0.74580337  0.94780846  0.13153803  1
  Cl  Cl468  1  0.24411120  0.05145634  0.88163620  1
  Cl  Cl469  1  0.28648778  0.39419261  0.89670447  1
  Cl  Cl470  1  0.25042226  0.71892996  0.87782694  1
  Cl  Cl471  1  0.73419378  0.05988274  0.88796269  1
  Cl  Cl472  1  0.77904068  0.39351599  0.87988577  1
  Cl  Cl473  1  0.75951969  0.72888408  0.90134757  1
  Cl  Cl474  1  0.23429513  0.27425781  0.39241605  1
  Cl  Cl475  1  0.27107446  0.60815642  0.40142877  1
  Cl  Cl476  1  0.22432102  0.94660876  0.37215764  1
  Cl  Cl477  1  0.73572605  0.27931179  0.38227732  1
  Cl  Cl478  1  0.75981186  0.61716797  0.37152818  1
  Cl  Cl479  1  0.71184833  0.93799262  0.40424765  1
  Cl  Cl480  1  0.01596768  0.21997801  0.61918211  1
  Cl  Cl481  1  -0.01431961  0.55407673  0.62328224  1
  Cl  Cl482  1  0.02832783  0.88857925  0.61434155  1
  Cl  Cl483  1  0.51263064  0.22337056  0.61095106  1
  Cl  Cl484  1  0.48267982  0.56054370  0.60062111  1
  Cl  Cl485  1  0.53287006  0.89562274  0.61454122  1
  Cl  Cl486  1  0.00970178  0.10680374  0.12511257  1
  Cl  Cl487  1  -0.03065312  0.44280148  0.11320828  1
  Cl  Cl488  1  -0.00623110  0.77243799  0.10619040  1
  Cl  Cl489  1  0.50994574  0.10544748  0.10320264  1
  Cl  Cl490  1  0.46856832  0.45106725  0.12378459  1
  Cl  Cl491  1  0.50100159  0.77825187  0.11427022  1
  Cl  Cl492  1  -0.01157533  0.22257389  0.88759543  1
  Cl  Cl493  1  -0.01647563  0.56289742  0.89646321  1
  Cl  Cl494  1  0.00337569  0.89425600  0.89437384  1
  Cl  Cl495  1  0.48873186  0.21344953  0.87597786  1
  Cl  Cl496  1  0.48985683  0.55154649  0.87344646  1
  Cl  Cl497  1  0.50548244  0.88609474  0.87907149  1
  Cl  Cl498  1  -0.00617803  0.11061842  0.39556709  1
  Cl  Cl499  1  -0.01408986  0.44427960  0.38492260  1
  Cl  Cl500  1  0.00847411  0.77785507  0.38259295  1
  Cl  Cl501  1  0.49342610  0.11013894  0.37442610  1
  Cl  Cl502  1  0.48558207  0.44804457  0.39219714  1
  Cl  Cl503  1  0.51245414  0.78290802  0.38201577  1
  Cl  Cl504  1  0.36033748  0.14930398  0.74370792  1
  Cl  Cl505  1  0.35562261  0.48747368  0.74443954  1
  Cl  Cl506  1  0.36536134  0.81290423  0.74330831  1
  Cl  Cl507  1  0.86455035  0.14814784  0.74777279  1
  Cl  Cl508  1  0.85163927  0.48827490  0.75006814  1
  Cl  Cl509  1  0.86532322  0.81538801  0.74629223  1
  Cl  Cl510  1  0.14202794  0.18183862  0.24707454  1
  Cl  Cl511  1  0.13403332  0.52138251  0.25268550  1
  Cl  Cl512  1  0.14757475  0.84765001  0.24134603  1
  Cl  Cl513  1  0.63916630  0.18355365  0.24980364  1
  Cl  Cl514  1  0.64106900  0.52027704  0.24923739  1
  Cl  Cl515  1  0.64294783  0.84830457  0.24853947  1
  Cl  Cl516  1  0.13939334  0.14726532  0.75459164  1
  Cl  Cl517  1  0.13496282  0.47760092  0.75305717  1
  Cl  Cl518  1  0.14806925  0.81497690  0.75170893  1
  Cl  Cl519  1  0.64381486  0.14912664  0.74890766  1
  Cl  Cl520  1  0.63404391  0.47558048  0.74416486  1
  Cl  Cl521  1  0.64342265  0.81771351  0.75293223  1
  Cl  Cl522  1  0.36204051  0.18589249  0.24760721  1
  Cl  Cl523  1  0.35099420  0.51352528  0.25106986  1
  Cl  Cl524  1  0.36290454  0.85268695  0.25692382  1
  Cl  Cl525  1  0.86402108  0.18803113  0.24829814  1
  Cl  Cl526  1  0.85704645  0.51602965  0.24626908  1
  Cl  Cl527  1  0.86383442  0.85591247  0.25473837  1
  Cl  Cl528  1  0.11740665  0.31485429  0.75394163  1
  Cl  Cl529  1  0.11058220  0.64658197  0.75595539  1
  Cl  Cl530  1  0.11205794  0.98411330  0.74920207  1
  Cl  Cl531  1  0.61648054  0.31279402  0.76177595  1
  Cl  Cl532  1  0.61496192  0.64596316  0.75115686  1
  Cl  Cl533  1  0.60811388  0.98454772  0.75081479  1
  Cl  Cl534  1  0.39170206  0.01758378  0.24555741  1
  Cl  Cl535  1  0.39230546  0.34991052  0.25629588  1
  Cl  Cl536  1  0.39308548  0.68306691  0.25655461  1
  Cl  Cl537  1  0.88339185  0.02109271  0.25302576  1
  Cl  Cl538  1  0.88334397  0.35071654  0.25776704  1
  Cl  Cl539  1  0.89281694  0.68823447  0.24916226  1
  Cl  Cl540  1  0.39530213  0.32023986  0.74909061  1
  Cl  Cl541  1  0.39483472  0.65031500  0.74874218  1
  Cl  Cl542  1  0.38816418  0.97910928  0.75274443  1
  Cl  Cl543  1  0.89384236  0.31769165  0.74639457  1
  Cl  Cl544  1  0.89207542  0.65221953  0.74898243  1
  Cl  Cl545  1  0.89270707  0.97808349  0.74815254  1
  Cl  Cl546  1  0.10474278  0.01399076  0.25272930  1
  Cl  Cl547  1  0.10821137  0.35215385  0.24767009  1
  Cl  Cl548  1  0.11192012  0.68521538  0.24570937  1
  Cl  Cl549  1  0.60881341  0.01623987  0.25253962  1
  Cl  Cl550  1  0.61138277  0.35714329  0.24223818  1
  Cl  Cl551  1  0.61295235  0.68468182  0.24920224  1
