# generated using pymatgen
data_H8PbC4(N3Cl2)2
_symmetry_space_group_name_H-M   'P 1'
_cell_length_a   16.62289223
_cell_length_b   22.50889354
_cell_length_c   21.59083825
_cell_angle_alpha   89.99704480
_cell_angle_beta   89.98500217
_cell_angle_gamma   90.00397122
_symmetry_Int_Tables_number   1
_chemical_formula_structural   H8PbC4(N3Cl2)2
_chemical_formula_sum   'H192 Pb24 C96 N144 Cl96'
_cell_volume   8078.49059718
_cell_formula_units_Z   24
loop_
 _symmetry_equiv_pos_site_id
 _symmetry_equiv_pos_as_xyz
  1  'x, y, z'
loop_
 _atom_site_type_symbol
 _atom_site_label
 _atom_site_symmetry_multiplicity
 _atom_site_fract_x
 _atom_site_fract_y
 _atom_site_fract_z
 _atom_site_occupancy
  H  H0  1  0.01352503  0.02996116  0.67814750  1
  H  H1  1  -0.01787499  0.36533749  0.67512426  1
  H  H2  1  -0.00857757  0.69703911  0.67628442  1
  H  H3  1  0.48274590  0.02836517  0.67828635  1
  H  H4  1  0.51780217  0.36588468  0.67593951  1
  H  H5  1  0.49912981  0.69725940  0.68154465  1
  H  H6  1  -0.00057007  0.29980660  0.17520274  1
  H  H7  1  0.00260801  0.63668116  0.18034129  1
  H  H8  1  -0.01039075  0.97184439  0.18027536  1
  H  H9  1  0.50350510  0.30249380  0.18040120  1
  H  H10  1  0.50893980  0.63575570  0.17614113  1
  H  H11  1  0.50328387  0.97267188  0.18287388  1
  H  H12  1  -0.00860435  0.03221554  0.82211293  1
  H  H13  1  -0.01237660  0.36154500  0.82343147  1
  H  H14  1  -0.01133506  0.69679598  0.81754183  1
  H  H15  1  0.50435364  0.02986065  0.81920973  1
  H  H16  1  0.51279346  0.36558819  0.81931562  1
  H  H17  1  0.51029889  0.69821528  0.81981493  1
  H  H18  1  -0.00692114  0.30158983  0.32165686  1
  H  H19  1  0.01288745  0.63755679  0.32000162  1
  H  H20  1  0.00949897  0.96851386  0.32106343  1
  H  H21  1  0.50554277  0.30215154  0.32065268  1
  H  H22  1  0.49133824  0.63641727  0.31945934  1
  H  H23  1  0.50371573  0.96824879  0.32212931  1
  H  H24  1  0.26090771  0.20066223  0.67861113  1
  H  H25  1  0.25937816  0.52973243  0.67797298  1
  H  H26  1  0.25477979  0.86449888  0.67864363  1
  H  H27  1  0.73861605  0.19489143  0.67738263  1
  H  H28  1  0.73329588  0.53301894  0.67302345  1
  H  H29  1  0.73402103  0.86405690  0.67313037  1
  H  H30  1  0.24997821  0.13696652  0.17992197  1
  H  H31  1  0.24710325  0.47035972  0.17798056  1
  H  H32  1  0.24907879  0.80222756  0.18080039  1
  H  H33  1  0.74797214  0.13852982  0.17757427  1
  H  H34  1  0.74980426  0.46882754  0.18155461  1
  H  H35  1  0.74111026  0.80100154  0.18257885  1
  H  H36  1  0.24332198  0.19438181  0.82496525  1
  H  H37  1  0.24720158  0.53079949  0.82409982  1
  H  H38  1  0.24578252  0.86375954  0.81839337  1
  H  H39  1  0.75583173  0.19538210  0.82226678  1
  H  H40  1  0.74760028  0.53155279  0.81709451  1
  H  H41  1  0.75413863  0.86437023  0.81700928  1
  H  H42  1  0.24639764  0.14619628  0.32367430  1
  H  H43  1  0.24997683  0.46818058  0.32616267  1
  H  H44  1  0.25823431  0.80200954  0.32148360  1
  H  H45  1  0.76474682  0.13204308  0.32379100  1
  H  H46  1  0.74942560  0.48040745  0.32479029  1
  H  H47  1  0.75200406  0.80480669  0.32558792  1
  H  H48  1  0.11964294  0.05986679  0.59363329  1
  H  H49  1  0.12574386  0.38328632  0.62967146  1
  H  H50  1  0.13017749  0.71698108  0.61966839  1
  H  H51  1  0.62333402  0.04691911  0.62530683  1
  H  H52  1  0.61562521  0.39719703  0.58749393  1
  H  H53  1  0.63089851  0.72039225  0.61495258  1
  H  H54  1  0.37634140  0.27913075  0.11139120  1
  H  H55  1  0.36701068  0.61566297  0.12636550  1
  H  H56  1  0.37854531  0.94808332  0.11086453  1
  H  H57  1  0.87554067  0.27866008  0.10675436  1
  H  H58  1  0.87162998  0.61441931  0.11513143  1
  H  H59  1  0.88117090  0.94546821  0.09644226  1
  H  H60  1  0.37390438  0.05316432  0.88356036  1
  H  H61  1  0.37311388  0.38247637  0.87056349  1
  H  H62  1  0.36912321  0.71405469  0.87275369  1
  H  H63  1  0.87708251  0.05671969  0.90075621  1
  H  H64  1  0.88259060  0.39007465  0.90821709  1
  H  H65  1  0.87025613  0.72195076  0.89283222  1
  H  H66  1  0.12161129  0.27963862  0.38699233  1
  H  H67  1  0.12317534  0.60851133  0.40273012  1
  H  H68  1  0.12167175  0.94259247  0.40253559  1
  H  H69  1  0.61635361  0.27347103  0.40260365  1
  H  H70  1  0.62641566  0.61529966  0.38051076  1
  H  H71  1  0.61829764  0.94290399  0.40081263  1
  H  H72  1  0.37345260  0.22572444  0.59701897  1
  H  H73  1  0.37384983  0.55730750  0.59965540  1
  H  H74  1  0.38542375  0.88623176  0.61452314  1
  H  H75  1  0.87875455  0.21578747  0.62489563  1
  H  H76  1  0.87483223  0.54925598  0.62474133  1
  H  H77  1  0.87623153  0.88078387  0.62639792  1
  H  H78  1  0.12272790  0.11768243  0.11280034  1
  H  H79  1  0.12819942  0.44456216  0.10560821  1
  H  H80  1  0.13014385  0.77825830  0.10673369  1
  H  H81  1  0.62597441  0.11160459  0.10638880  1
  H  H82  1  0.62530229  0.44521236  0.11065143  1
  H  H83  1  0.63079833  0.77629521  0.10122807  1
  H  H84  1  0.12588912  0.22064321  0.90114761  1
  H  H85  1  0.13302910  0.55536385  0.90271739  1
  H  H86  1  0.12387268  0.88910771  0.88933921  1
  H  H87  1  0.62387249  0.21857874  0.88376460  1
  H  H88  1  0.63170035  0.55682915  0.89303036  1
  H  H89  1  0.62021260  0.88355507  0.87671286  1
  H  H90  1  0.37188752  0.11285489  0.38896864  1
  H  H91  1  0.37338182  0.44625277  0.39842196  1
  H  H92  1  0.36597395  0.77709073  0.40282960  1
  H  H93  1  0.87243723  0.10766861  0.40739927  1
  H  H94  1  0.87377745  0.44652640  0.39052901  1
  H  H95  1  0.86888518  0.77845359  0.40095049  1
  H  H96  1  0.36982568  0.28182943  0.38027648  1
  H  H97  1  0.37852243  0.61170385  0.39977947  1
  H  H98  1  0.37059418  0.94577556  0.38541875  1
  H  H99  1  0.87247012  0.27463373  0.39560160  1
  H  H100  1  0.87645339  0.61724845  0.38018359  1
  H  H101  1  0.87475786  0.94747360  0.38205620  1
  H  H102  1  0.12485229  0.05245943  0.88004613  1
  H  H103  1  0.12749588  0.38132525  0.87583927  1
  H  H104  1  0.11899257  0.71702965  0.88438757  1
  H  H105  1  0.62268346  0.05615965  0.89557544  1
  H  H106  1  0.61808923  0.39009854  0.90326822  1
  H  H107  1  0.61515427  0.72484654  0.90245422  1
  H  H108  1  0.12449195  0.27929202  0.10652485  1
  H  H109  1  0.11974260  0.60852687  0.10572754  1
  H  H110  1  0.12650180  0.95181229  0.12181679  1
  H  H111  1  0.62533964  0.27753966  0.10846162  1
  H  H112  1  0.61136247  0.60753418  0.09029821  1
  H  H113  1  0.62718128  0.94705773  0.11044661  1
  H  H114  1  0.38005423  0.06003250  0.59194569  1
  H  H115  1  0.37422950  0.38062636  0.62883997  1
  H  H116  1  0.38260956  0.72219668  0.60316714  1
  H  H117  1  0.87451188  0.04881722  0.62145971  1
  H  H118  1  0.88497125  0.39779353  0.58695212  1
  H  H119  1  0.88533423  0.72558629  0.59173174  1
  H  H120  1  0.12341210  0.11202560  0.39081176  1
  H  H121  1  0.12552147  0.44010055  0.39512418  1
  H  H122  1  0.11898417  0.78415540  0.37609691  1
  H  H123  1  0.62752934  0.11557942  0.37686320  1
  H  H124  1  0.62568118  0.44749735  0.39167575  1
  H  H125  1  0.62018230  0.78173517  0.38858023  1
  H  H126  1  0.37471517  0.21919465  0.88722312  1
  H  H127  1  0.38070210  0.55452690  0.88464108  1
  H  H128  1  0.37315277  0.88476159  0.88459554  1
  H  H129  1  0.87176942  0.22191353  0.90028663  1
  H  H130  1  0.88058162  0.54930785  0.87902335  1
  H  H131  1  0.86878308  0.89025932  0.89390201  1
  H  H132  1  0.37163606  0.11225758  0.10956628  1
  H  H133  1  0.37735999  0.44747137  0.11362351  1
  H  H134  1  0.37905140  0.78082830  0.11745207  1
  H  H135  1  0.87511608  0.11564718  0.10895163  1
  H  H136  1  0.87533887  0.44590917  0.11237504  1
  H  H137  1  0.87814859  0.78194791  0.12287347  1
  H  H138  1  0.12672718  0.22060772  0.61888184  1
  H  H139  1  0.12568234  0.55241951  0.61811576  1
  H  H140  1  0.13681997  0.88967117  0.60200633  1
  H  H141  1  0.63523432  0.22470257  0.59090306  1
  H  H142  1  0.63146854  0.55965067  0.58709841  1
  H  H143  1  0.63364725  0.89362583  0.58743039  1
  H  H144  1  0.08565970  0.24972909  0.49831577  1
  H  H145  1  0.44553504  0.58603134  0.50583967  1
  H  H146  1  0.10928129  0.74734136  0.51005374  1
  H  H147  1  0.18204533  0.74823456  -0.00128542  1
  H  H148  1  0.33748371  0.24742467  0.99467566  1
  H  H149  1  0.86652962  0.91644502  0.51262508  1
  H  H150  1  0.81517943  0.43215502  0.49782408  1
  H  H151  1  0.86322958  0.58161308  0.50971481  1
  H  H152  1  0.17763715  0.41358073  -0.00345796  1
  H  H153  1  0.64800232  0.91423757  0.98936484  1
  H  H154  1  0.10009843  0.08351823  0.99448047  1
  H  H155  1  0.30746200  0.58547921  0.49718719  1
  H  H156  1  0.17102159  0.91872447  0.99865788  1
  H  H157  1  0.67554009  0.42031725  0.00425055  1
  H  H158  1  0.05295174  0.90856522  0.50066978  1
  H  H159  1  0.41249669  0.08179501  0.99445717  1
  H  H160  1  0.40489457  0.91801085  0.49242622  1
  H  H161  1  0.57476492  0.24748298  0.00033260  1
  H  H162  1  0.18400204  0.09574528  0.49685424  1
  H  H163  1  0.82956132  0.41750616  0.00128749  1
  H  H164  1  0.80893997  0.91838627  1.00220683  1
  H  H165  1  0.31433694  0.09633799  0.49565873  1
  H  H166  1  0.64569383  0.08546847  0.49270085  1
  H  H167  1  0.04212789  0.08145294  0.49358561  1
  H  H168  1  0.53333386  0.58394363  -0.00905343  1
  H  H169  1  0.29771570  0.74796114  0.50889006  1
  H  H170  1  0.54272273  0.75289512  1.00825836  1
  H  H171  1  0.16919926  0.41784442  0.50175448  1
  H  H172  1  0.34871440  0.75136867  0.00527388  1
  H  H173  1  0.68951612  0.58453208  1.00188306  1
  H  H174  1  0.92732371  0.74910741  1.00027277  1
  H  H175  1  0.38435692  0.41187673  0.98503833  1
  H  H176  1  0.92471364  0.24752580  0.49875329  1
  H  H177  1  0.95560376  0.92199667  -0.00403280  1
  H  H178  1  0.35022233  0.58256027  0.99421211  1
  H  H179  1  0.46144611  0.07990078  0.49295744  1
  H  H180  1  0.32788765  0.41282448  0.50118321  1
  H  H181  1  0.95977304  0.41334064  1.00821174  1
  H  H182  1  0.54568594  0.41516010  1.00899283  1
  H  H183  1  0.70033500  0.75047211  -0.00468737  1
  H  H184  1  0.68523974  0.43224737  0.49839416  1
  H  H185  1  0.53214515  0.41776231  0.49010901  1
  H  H186  1  0.85082038  0.58028803  0.99074798  1
  H  H187  1  0.33420317  0.91565943  0.99594257  1
  H  H188  1  0.65744284  0.75077367  0.49494855  1
  H  H189  1  0.96906107  0.41973966  0.48997658  1
  H  H190  1  0.71531981  0.24794792  0.49257064  1
  H  H191  1  0.54394991  0.24894358  0.50376781  1
  Pb  Pb192  1  0.25626628  0.05029631  0.73773128  1
  Pb  Pb193  1  0.25152366  0.37939842  0.74529240  1
  Pb  Pb194  1  0.25147603  0.71272363  0.74768815  1
  Pb  Pb195  1  0.75109218  0.04579536  0.75568166  1
  Pb  Pb196  1  0.75806392  0.38367607  0.75509675  1
  Pb  Pb197  1  0.75718338  0.71627413  0.74808988  1
  Pb  Pb198  1  0.24440414  0.28604885  0.24433351  1
  Pb  Pb199  1  0.24778573  0.61970161  0.25867495  1
  Pb  Pb200  1  0.24891834  0.95310638  0.25154843  1
  Pb  Pb201  1  0.74809589  0.28584409  0.25530599  1
  Pb  Pb202  1  0.74663060  0.62060462  0.24182605  1
  Pb  Pb203  1  0.74744014  0.95417708  0.24692184  1
  Pb  Pb204  1  0.00139770  0.21285041  0.75213270  1
  Pb  Pb205  1  0.00731144  0.54695128  0.75519781  1
  Pb  Pb206  1  0.00724420  0.88354034  0.75231681  1
  Pb  Pb207  1  0.50688856  0.21618302  0.74238609  1
  Pb  Pb208  1  0.50664745  0.54920504  0.74569900  1
  Pb  Pb209  1  0.50237206  0.87957719  0.74240654  1
  Pb  Pb210  1  -0.00455144  0.11858275  0.25624819  1
  Pb  Pb211  1  -0.00220335  0.45351240  0.24831941  1
  Pb  Pb212  1  -0.00267193  0.78680615  0.24965226  1
  Pb  Pb213  1  0.49699373  0.11994014  0.25307074  1
  Pb  Pb214  1  0.49679643  0.45264615  0.25378728  1
  Pb  Pb215  1  0.49908134  0.78629710  0.25078670  1
  C  C216  1  0.00322886  0.04475607  0.63098798  1
  C  C217  1  -0.00255245  0.38054728  0.62894862  1
  C  C218  1  0.00282218  0.71254965  0.62952020  1
  C  C219  1  0.49476645  0.04400772  0.63169441  1
  C  C220  1  0.50267227  0.37983069  0.62928580  1
  C  C221  1  0.50433522  0.71260296  0.63397909  1
  C  C222  1  -0.00021792  0.28574250  0.12711882  1
  C  C223  1  -0.00248096  0.62055325  0.13340474  1
  C  C224  1  -0.00128123  0.95717262  0.13290944  1
  C  C225  1  0.50147544  0.28649965  0.13300520  1
  C  C226  1  0.49590221  0.62062747  0.12941558  1
  C  C227  1  0.50307779  0.95634844  0.13554558  1
  C  C228  1  -0.00142955  0.04685638  0.86958687  1
  C  C229  1  -0.00120030  0.37666042  0.87037441  1
  C  C230  1  -0.00716623  0.71181400  0.86518611  1
  C  C231  1  0.50041394  0.04603732  0.86637396  1
  C  C232  1  0.50078782  0.37969457  0.86658044  1
  C  C233  1  0.49836227  0.71225042  0.86698721  1
  C  C234  1  -0.00477538  0.28532819  0.36909257  1
  C  C235  1  0.00447977  0.62178159  0.36701456  1
  C  C236  1  0.00225264  0.95317927  0.36833178  1
  C  C237  1  0.49770577  0.28662588  0.36782259  1
  C  C238  1  0.49890347  0.62129334  0.36677398  1
  C  C239  1  0.49701919  0.95264615  0.36933053  1
  C  C240  1  0.25400388  0.21548181  0.63134908  1
  C  C241  1  0.25331377  0.54579038  0.63097081  1
  C  C242  1  0.25888896  0.88022993  0.63141372  1
  C  C243  1  0.75050495  0.21087408  0.63086210  1
  C  C244  1  0.74747022  0.54764019  0.62647942  1
  C  C245  1  0.74900709  0.87940000  0.62704088  1
  C  C246  1  0.24817222  0.12211250  0.13228002  1
  C  C247  1  0.25035939  0.45417474  0.13076994  1
  C  C248  1  0.25294871  0.78679850  0.13319091  1
  C  C249  1  0.74982111  0.12217321  0.13057114  1
  C  C250  1  0.74973407  0.45361716  0.13371332  1
  C  C251  1  0.75044937  0.78662727  0.13511073  1
  C  C252  1  0.24843521  0.21055853  0.87206390  1
  C  C253  1  0.25425471  0.54638235  0.87123169  1
  C  C254  1  0.24761783  0.87933168  0.86601983  1
  C  C255  1  0.75069026  0.21165464  0.86918837  1
  C  C256  1  0.75362774  0.54605190  0.86488422  1
  C  C257  1  0.74740388  0.87922711  0.86461485  1
  C  C258  1  0.24717576  0.12578768  0.36926148  1
  C  C259  1  0.24957419  0.45194583  0.37364558  1
  C  C260  1  0.24791168  0.78736821  0.36867100  1
  C  C261  1  0.75393944  0.11876731  0.37122218  1
  C  C262  1  0.74965495  0.46017950  0.37045547  1
  C  C263  1  0.74662934  0.78855543  0.37262544  1
  C  C264  1  0.77464646  0.09258833  0.46856993  1
  C  C265  1  0.47667637  0.59502495  0.46245812  1
  C  C266  1  0.70224041  0.24085599  0.95838198  1
  C  C267  1  0.77541718  0.90646395  0.96073350  1
  C  C268  1  0.71562207  0.09047473  0.03884298  1
  C  C269  1  0.72398772  0.57300223  0.96072642  1
  C  C270  1  0.51373775  0.74058785  0.96487936  1
  C  C271  1  0.02710642  0.58962686  0.03990397  1
  C  C272  1  0.51710276  0.40517623  0.96485344  1
  C  C273  1  0.80585821  0.57080189  0.95549868  1
  C  C274  1  0.30565650  0.90690190  0.54054165  1
  C  C275  1  0.20343033  0.09553536  0.04048399  1
  C  C276  1  0.28556826  0.09342709  0.03934221  1
  C  C277  1  0.26668392  0.75966989  0.46620210  1
  C  C278  1  0.81263653  0.57268340  0.54058550  1
  C  C279  1  0.21763087  0.42513220  0.03535845  1
  C  C280  1  0.43379802  0.73655268  0.95254176  1
  C  C281  1  0.43634046  0.40317156  0.95319879  1
  C  C282  1  0.22011072  0.75962410  0.03794142  1
  C  C283  1  0.42961426  0.59488003  0.04467156  1
  C  C284  1  0.81571080  0.90689114  0.54291523  1
  C  C285  1  0.97092364  0.07441331  0.96519134  1
  C  C286  1  0.96313507  0.73860148  0.95959390  1
  C  C287  1  0.45574614  0.07235892  0.95722493  1
  C  C288  1  0.96007804  0.26017808  0.03484488  1
  C  C289  1  0.79158842  0.42674938  0.04122254  1
  C  C290  1  0.18612529  0.76247887  0.45549351  1
  C  C291  1  0.69394744  0.09468334  0.45971742  1
  C  C292  1  0.04205596  0.25887034  0.46074230  1
  C  C293  1  0.53561831  0.25863569  0.03975696  1
  C  C294  1  0.73251589  0.57516751  0.52882271  1
  C  C295  1  0.21015797  0.90698062  0.96019298  1
  C  C296  1  0.04056025  0.26055011  0.03488184  1
  C  C297  1  0.29907380  0.42658073  0.03995053  1
  C  C298  1  0.06937264  0.40749166  0.54689047  1
  C  C299  1  0.21608558  0.24029591  0.96717014  1
  C  C300  1  0.69362505  0.90450596  0.95458135  1
  C  C301  1  0.30204416  0.76109636  0.04148614  1
  C  C302  1  0.22557225  0.57615817  0.96695793  1
  C  C303  1  0.73039945  0.76088376  0.03890295  1
  C  C304  1  0.05220904  0.07329203  0.95986805  1
  C  C305  1  0.19826163  0.57677932  0.54284029  1
  C  C306  1  0.43106959  0.40324989  0.54579847  1
  C  C307  1  0.73593937  0.91071098  0.53072575  1
  C  C308  1  0.06357599  0.40455666  0.95569927  1
  C  C309  1  0.77892667  0.75745958  0.46707834  1
  C  C310  1  0.29227502  0.90564201  0.95871396  1
  C  C311  1  0.20188281  0.24130467  0.54200073  1
  N  N312  1  0.43965248  0.26060453  0.45558320  1
  N  N313  1  0.28779991  0.43004444  0.46718114  1
  N  N314  1  0.98163432  0.92789003  0.03884939  1
  N  N315  1  0.48372403  0.07462133  0.53748624  1
  N  N316  1  0.30397122  0.57448997  0.96004067  1
  N  N317  1  0.56019776  0.06960281  0.54742617  1
  N  N318  1  0.79088837  0.41832571  0.45619820  1
  N  N319  1  0.98277854  0.74160183  0.53324424  1
  N  N320  1  0.52725026  0.92604223  0.46479572  1
  N  N321  1  0.29477887  0.23929616  0.96140981  1
  N  N322  1  0.46442001  0.92736019  0.04276510  1
  N  N323  1  0.55120206  0.73957786  0.54282488  1
  N  N324  1  0.05891117  0.93109102  0.04614976  1
  N  N325  1  0.98558760  0.40704997  0.96547708  1
  N  N326  1  0.28956907  0.08298612  0.45408649  1
  N  N327  1  0.79290888  0.09159248  0.03851345  1
  N  N328  1  0.45603957  0.25936058  0.04023143  1
  N  N329  1  0.22810077  0.90897487  0.53536110  1
  N  N330  1  0.94104010  0.07073650  0.54509840  1
  N  N331  1  0.96219616  0.25832469  0.46254606  1
  N  N332  1  0.70008257  0.75929602  0.46167434  1
  N  N333  1  0.02397355  0.92413775  0.46184752  1
  N  N334  1  0.47480547  0.74067085  0.53889691  1
  N  N335  1  0.99240328  0.41162976  0.53341851  1
  N  N336  1  0.80918189  0.76261124  0.04610295  1
  N  N337  1  0.27692512  0.57709330  0.53757000  1
  N  N338  1  0.20755216  0.08268535  0.45478345  1
  N  N339  1  0.01811108  0.07471094  0.53711929  1
  N  N340  1  0.70902232  0.41856206  0.45650806  1
  N  N341  1  0.73885097  0.24166477  0.53677681  1
  N  N342  1  0.05957485  0.73842483  0.54368395  1
  N  N343  1  0.53489762  0.07445370  0.96146565  1
  N  N344  1  0.94973668  0.59127991  0.04207361  1
  N  N345  1  0.20976275  0.41961065  0.46351658  1
  N  N346  1  0.27895819  0.24295673  0.53375444  1
  N  N347  1  0.94655207  0.92634803  0.45607742  1
  N  N348  1  0.81579364  0.23818242  0.54658012  1
  N  N349  1  0.50735340  0.59187480  0.03360771  1
  N  N350  1  0.04237553  0.73765847  0.95701861  1
  N  N351  1  0.51711900  0.25807660  0.46155968  1
  N  N352  1  0.44929521  0.92708412  0.45808360  1
  N  N353  1  0.71204812  0.42507403  0.04198786  1
  N  N354  1  0.02603045  0.59145132  0.46251253  1
  N  N355  1  0.77946771  0.24278508  0.96461913  1
  N  N356  1  0.55544729  0.59442048  0.45570051  1
  N  N357  1  0.54094566  0.92709036  0.04265919  1
  N  N358  1  0.50817291  0.40842411  0.53306548  1
  N  N359  1  0.95060312  0.59451506  0.45527866  1
  N  N360  1  0.05799027  0.05637585  0.58810281  1
  N  N361  1  0.07233640  0.38917834  0.60627486  1
  N  N362  1  0.07286140  0.72110569  0.60214702  1
  N  N363  1  0.56670321  0.05287698  0.60648224  1
  N  N364  1  0.55354210  0.39196980  0.58398228  1
  N  N365  1  0.57082357  0.72201076  0.60169422  1
  N  N366  1  0.43683510  0.27681330  0.09885968  1
  N  N367  1  0.42229403  0.61147638  0.10452207  1
  N  N368  1  0.43970832  0.94553079  0.10006228  1
  N  N369  1  0.93462417  0.27544021  0.09104257  1
  N  N370  1  0.93100987  0.61068930  0.10162338  1
  N  N371  1  0.94332538  0.94655418  0.09042678  1
  N  N372  1  0.43312011  0.05549682  0.89909489  1
  N  N373  1  0.42836291  0.38767054  0.89202510  1
  N  N374  1  0.42488137  0.71976460  0.89340161  1
  N  N375  1  0.93845905  0.05864784  0.91084606  1
  N  N376  1  0.94452588  0.38702726  0.91378641  1
  N  N377  1  0.93116884  0.72328918  0.90351695  1
  N  N378  1  0.06240131  0.27535168  0.40246438  1
  N  N379  1  0.06107085  0.60847512  0.40798571  1
  N  N380  1  0.05964266  0.94027037  0.40859584  1
  N  N381  1  0.55436038  0.27528522  0.40917751  1
  N  N382  1  0.56737253  0.61080817  0.39617215  1
  N  N383  1  0.55653991  0.94177855  0.40922479  1
  N  N384  1  0.31167281  0.22654452  0.59084841  1
  N  N385  1  0.31206559  0.55634727  0.59114662  1
  N  N386  1  0.32665569  0.88990174  0.59905606  1
  N  N387  1  0.82222610  0.22101413  0.60582428  1
  N  N388  1  0.82038425  0.55575920  0.60233362  1
  N  N389  1  0.82243969  0.88738461  0.60361396  1
  N  N390  1  0.18186370  0.11299530  0.09769236  1
  N  N391  1  0.18855653  0.44261475  0.09356069  1
  N  N392  1  0.19099135  0.77551404  0.09535697  1
  N  N393  1  0.68618876  0.10878013  0.09431795  1
  N  N394  1  0.68622967  0.44375082  0.09836491  1
  N  N395  1  0.69295277  0.77538489  0.09312746  1
  N  N396  1  0.18697589  0.22293964  0.91167854  1
  N  N397  1  0.19444901  0.55864996  0.91212238  1
  N  N398  1  0.18388354  0.89061439  0.90224616  1
  N  N399  1  0.68207399  0.22271194  0.90039660  1
  N  N400  1  0.69285762  0.55753586  0.90390379  1
  N  N401  1  0.67788606  0.88775578  0.89476166  1
  N  N402  1  0.31152195  0.11311484  0.40264457  1
  N  N403  1  0.31289362  0.44259305  0.40953857  1
  N  N404  1  0.30419206  0.77529824  0.41077047  1
  N  N405  1  0.81077415  0.10704528  0.41523365  1
  N  N406  1  0.81371770  0.44749207  0.40425730  1
  N  N407  1  0.80792858  0.77538169  0.41195579  1
  N  N408  1  0.42802023  0.27742622  0.39675021  1
  N  N409  1  0.44019886  0.61087669  0.40807341  1
  N  N410  1  0.42973697  0.94301725  0.40026826  1
  N  N411  1  0.93351230  0.27476214  0.40609322  1
  N  N412  1  0.93544291  0.61297224  0.39619622  1
  N  N413  1  0.93327029  0.94430561  0.39814168  1
  N  N414  1  0.06780033  0.05607370  0.89913484  1
  N  N415  1  0.07163821  0.38709198  0.89643129  1
  N  N416  1  0.05889385  0.72085618  0.89803761  1
  N  N417  1  0.56097741  0.05787924  0.90431677  1
  N  N418  1  0.55624850  0.39059170  0.91033089  1
  N  N419  1  0.55321017  0.72481047  0.91011369  1
  N  N420  1  0.06526895  0.27593866  0.09133943  1
  N  N421  1  0.05878982  0.60721325  0.09476144  1
  N  N422  1  0.06878254  0.94722916  0.10510981  1
  N  N423  1  0.56465214  0.27500276  0.09637967  1
  N  N424  1  0.54882735  0.60986119  0.08533523  1
  N  N425  1  0.56628114  0.94475867  0.10008297  1
  N  N426  1  0.44199629  0.05628386  0.58762955  1
  N  N427  1  0.42781763  0.38659885  0.60571430  1
  N  N428  1  0.44451377  0.72418724  0.59522375  1
  N  N429  1  0.93230210  0.05380480  0.60403921  1
  N  N430  1  0.94688437  0.39240566  0.58338390  1
  N  N431  1  0.94758986  0.72549969  0.58680756  1
  N  N432  1  0.18373758  0.11257989  0.40360115  1
  N  N433  1  0.18557784  0.44041225  0.40819665  1
  N  N434  1  0.17541941  0.77895340  0.39609314  1
  N  N435  1  0.68257880  0.11098734  0.39820014  1
  N  N436  1  0.68591650  0.44751540  0.40465721  1
  N  N437  1  0.67952004  0.77883346  0.40360366  1
  N  N438  1  0.31553001  0.22023755  0.90312355  1
  N  N439  1  0.32223148  0.55568705  0.90115834  1
  N  N440  1  0.31399348  0.88859900  0.89988061  1
  N  N441  1  0.80989110  0.22388506  0.90790994  1
  N  N442  1  0.82263759  0.55426390  0.89581033  1
  N  N443  1  0.80750911  0.89071991  0.90433515  1
  N  N444  1  0.31169199  0.10965474  0.09571870  1
  N  N445  1  0.31847422  0.44375159  0.09772655  1
  N  N446  1  0.32065630  0.77767688  0.10104311  1
  N  N447  1  0.81452752  0.11187447  0.09665405  1
  N  N448  1  0.81536390  0.44329478  0.09848818  1
  N  N449  1  0.81969988  0.77848280  0.10615348  1
  N  N450  1  0.18432641  0.22507750  0.60113333  1
  N  N451  1  0.18351288  0.55796599  0.60076340  1
  N  N452  1  0.19899358  0.89190293  0.59332171  1
  N  N453  1  0.69768753  0.22273152  0.58682752  1
  N  N454  1  0.69312659  0.56047757  0.58062587  1
  N  N455  1  0.69580172  0.89407821  0.58145136  1
  Cl  Cl456  1  0.25140769  0.06817958  0.59519468  1
  Cl  Cl457  1  0.25028274  0.39130790  0.61036820  1
  Cl  Cl458  1  0.25909723  0.71778609  0.61271687  1
  Cl  Cl459  1  0.74979681  0.04897934  0.62354645  1
  Cl  Cl460  1  0.74857471  0.40235122  0.59556205  1
  Cl  Cl461  1  0.75736491  0.72469080  0.61042584  1
  Cl  Cl462  1  0.25280924  0.27661084  0.10950947  1
  Cl  Cl463  1  0.24168532  0.60720290  0.12634941  1
  Cl  Cl464  1  0.25486220  0.94757552  0.11659989  1
  Cl  Cl465  1  0.74834657  0.28281841  0.12502922  1
  Cl  Cl466  1  0.73506719  0.60875754  0.10665631  1
  Cl  Cl467  1  0.75670049  0.94517147  0.11017928  1
  Cl  Cl468  1  0.25160901  0.05505328  0.86623392  1
  Cl  Cl469  1  0.24834677  0.37919649  0.87515606  1
  Cl  Cl470  1  0.24213036  0.71523619  0.87912593  1
  Cl  Cl471  1  0.74951825  0.05485202  0.88725298  1
  Cl  Cl472  1  0.75017685  0.39282017  0.89336620  1
  Cl  Cl473  1  0.74135198  0.72485548  0.88335213  1
  Cl  Cl474  1  0.24491497  0.28419941  0.37558669  1
  Cl  Cl475  1  0.25228522  0.60514871  0.39781855  1
  Cl  Cl476  1  0.24353723  0.94484020  0.38360936  1
  Cl  Cl477  1  0.74044692  0.27168168  0.39825760  1
  Cl  Cl478  1  0.75135023  0.61830901  0.37424911  1
  Cl  Cl479  1  0.74430707  0.94299658  0.37968862  1
  Cl  Cl480  1  0.00308070  0.22062697  0.61530221  1
  Cl  Cl481  1  0.00386330  0.54520616  0.62454456  1
  Cl  Cl482  1  0.01537996  0.88751891  0.61284990  1
  Cl  Cl483  1  0.51247760  0.22646637  0.60089409  1
  Cl  Cl484  1  0.49847462  0.55469945  0.61001345  1
  Cl  Cl485  1  0.50978753  0.89162473  0.60838460  1
  Cl  Cl486  1  -0.00221858  0.11690495  0.12475466  1
  Cl  Cl487  1  -0.00177525  0.44136158  0.11135839  1
  Cl  Cl488  1  0.00536194  0.78117698  0.11706153  1
  Cl  Cl489  1  0.49922243  0.11378848  0.12207207  1
  Cl  Cl490  1  0.50434821  0.44879390  0.11957997  1
  Cl  Cl491  1  0.50864485  0.77608698  0.11535754  1
  Cl  Cl492  1  -0.00083817  0.22073025  0.88421063  1
  Cl  Cl493  1  0.00997309  0.54815614  0.88755573  1
  Cl  Cl494  1  -0.00732622  0.89407542  0.88984769  1
  Cl  Cl495  1  0.49833127  0.22122225  0.87496655  1
  Cl  Cl496  1  0.50850229  0.56014746  0.89066899  1
  Cl  Cl497  1  0.49616453  0.88259855  0.86990819  1
  Cl  Cl498  1  0.00131035  0.10720680  0.39650538  1
  Cl  Cl499  1  -0.00293669  0.43814237  0.39168444  1
  Cl  Cl500  1  -0.00881911  0.78405964  0.38098118  1
  Cl  Cl501  1  0.49065449  0.10481081  0.39463347  1
  Cl  Cl502  1  0.50165649  0.44203959  0.39509007  1
  Cl  Cl503  1  0.49432980  0.78082725  0.38163674  1
  Cl  Cl504  1  0.35836992  0.14628753  0.74555161  1
  Cl  Cl505  1  0.36060439  0.47701802  0.75467493  1
  Cl  Cl506  1  0.36075183  0.81242734  0.74990844  1
  Cl  Cl507  1  0.86232145  0.14672203  0.74489457  1
  Cl  Cl508  1  0.85914864  0.47709168  0.74575237  1
  Cl  Cl509  1  0.86011153  0.81225668  0.74385558  1
  Cl  Cl510  1  0.14432929  0.18725522  0.25262994  1
  Cl  Cl511  1  0.13750982  0.51735940  0.25799996  1
  Cl  Cl512  1  0.13601166  0.85280294  0.25214619  1
  Cl  Cl513  1  0.63637328  0.18515437  0.25858268  1
  Cl  Cl514  1  0.64059310  0.51772238  0.25543984  1
  Cl  Cl515  1  0.63972166  0.85121278  0.25001950  1
  Cl  Cl516  1  0.13778273  0.14643275  0.74437699  1
  Cl  Cl517  1  0.14260229  0.48002431  0.74771179  1
  Cl  Cl518  1  0.13923476  0.81230204  0.74767565  1
  Cl  Cl519  1  0.64012718  0.14757991  0.74899515  1
  Cl  Cl520  1  0.64141351  0.48181048  0.74872051  1
  Cl  Cl521  1  0.64014765  0.81411705  0.74584691  1
  Cl  Cl522  1  0.36365080  0.19000393  0.25287399  1
  Cl  Cl523  1  0.35930005  0.51891037  0.25263844  1
  Cl  Cl524  1  0.35893506  0.85216942  0.25006258  1
  Cl  Cl525  1  0.85909071  0.18489760  0.25760896  1
  Cl  Cl526  1  0.86025500  0.52021467  0.25151664  1
  Cl  Cl527  1  0.86125027  0.85443888  0.24802193  1
  Cl  Cl528  1  0.11040905  0.31501192  0.74532823  1
  Cl  Cl529  1  0.11095467  0.64560246  0.74639135  1
  Cl  Cl530  1  0.10952743  0.97928321  0.75068250  1
  Cl  Cl531  1  0.60766251  0.31513215  0.74819137  1
  Cl  Cl532  1  0.60745794  0.64599536  0.75039701  1
  Cl  Cl533  1  0.60984845  0.98166166  0.74987295  1
  Cl  Cl534  1  0.38510022  0.02100040  0.25728625  1
  Cl  Cl535  1  0.39272780  0.35512711  0.25103824  1
  Cl  Cl536  1  0.38467838  0.68620036  0.24280196  1
  Cl  Cl537  1  0.89225954  0.01922543  0.25466295  1
  Cl  Cl538  1  0.88771237  0.35156935  0.25423957  1
  Cl  Cl539  1  0.88562855  0.68645961  0.24376632  1
  Cl  Cl540  1  0.38596513  0.31121108  0.74407225  1
  Cl  Cl541  1  0.38583393  0.64369131  0.75617172  1
  Cl  Cl542  1  0.38834276  0.97928902  0.74487813  1
  Cl  Cl543  1  0.88763295  0.31375794  0.74389313  1
  Cl  Cl544  1  0.89104180  0.64497224  0.74707965  1
  Cl  Cl545  1  0.88911854  0.98012908  0.74769509  1
  Cl  Cl546  1  0.11159787  0.02048286  0.25106840  1
  Cl  Cl547  1  0.10770670  0.35180856  0.25063759  1
  Cl  Cl548  1  0.10987851  0.68638420  0.25559308  1
  Cl  Cl549  1  0.60749027  0.01868720  0.25491522  1
  Cl  Cl550  1  0.61192261  0.35383021  0.25454816  1
  Cl  Cl551  1  0.60636477  0.68323108  0.25292052  1
