# generated using pymatgen
data_H8PbC4(N3Cl2)2
_symmetry_space_group_name_H-M   'P 1'
_cell_length_a   16.62527094
_cell_length_b   22.51547011
_cell_length_c   21.59428020
_cell_angle_alpha   90.00102709
_cell_angle_beta   89.99366618
_cell_angle_gamma   89.99307053
_symmetry_Int_Tables_number   1
_chemical_formula_structural   H8PbC4(N3Cl2)2
_chemical_formula_sum   'H192 Pb24 C96 N144 Cl96'
_cell_volume   8083.29590695
_cell_formula_units_Z   24
loop_
 _symmetry_equiv_pos_site_id
 _symmetry_equiv_pos_as_xyz
  1  'x, y, z'
loop_
 _atom_site_type_symbol
 _atom_site_label
 _atom_site_symmetry_multiplicity
 _atom_site_fract_x
 _atom_site_fract_y
 _atom_site_fract_z
 _atom_site_occupancy
  H  H0  1  0.01931748  0.03103273  0.67740524  1
  H  H1  1  -0.01287372  0.36372806  0.67724280  1
  H  H2  1  -0.00637028  0.69649967  0.68003231  1
  H  H3  1  0.48010294  0.02537199  0.67304172  1
  H  H4  1  0.51406689  0.36415195  0.67527974  1
  H  H5  1  0.50139399  0.69577393  0.67590549  1
  H  H6  1  -0.01114522  0.30190352  0.17990165  1
  H  H7  1  -0.00619803  0.63444332  0.18135517  1
  H  H8  1  -0.00174752  0.97165131  0.17383931  1
  H  H9  1  0.50064896  0.30279696  0.18154092  1
  H  H10  1  0.49805574  0.63759087  0.18032759  1
  H  H11  1  0.50233207  0.97347645  0.18205112  1
  H  H12  1  -0.00697325  0.03143793  0.82116488  1
  H  H13  1  0.00693140  0.36375450  0.81786191  1
  H  H14  1  0.00398026  0.69759178  0.81852325  1
  H  H15  1  0.50030808  0.03036223  0.82266918  1
  H  H16  1  0.49419029  0.36270101  0.82053710  1
  H  H17  1  0.49372973  0.69615344  0.82355392  1
  H  H18  1  -0.00183348  0.30343591  0.32015314  1
  H  H19  1  0.00364080  0.63795353  0.32342004  1
  H  H20  1  -0.00164252  0.96888708  0.32098482  1
  H  H21  1  0.51103625  0.30504276  0.32263332  1
  H  H22  1  0.49084954  0.64043877  0.32350377  1
  H  H23  1  0.50087850  0.96588498  0.32582847  1
  H  H24  1  0.24036865  0.19775739  0.67780197  1
  H  H25  1  0.25981288  0.52829621  0.67639267  1
  H  H26  1  0.25922768  0.86056536  0.67747238  1
  H  H27  1  0.75943067  0.19470588  0.67756754  1
  H  H28  1  0.75305357  0.53162987  0.67759868  1
  H  H29  1  0.73744619  0.86231933  0.67853200  1
  H  H30  1  0.26108121  0.13754495  0.17784426  1
  H  H31  1  0.23601461  0.47070495  0.18306987  1
  H  H32  1  0.23619045  0.79802139  0.18120232  1
  H  H33  1  0.74891203  0.13998572  0.17879912  1
  H  H34  1  0.75614025  0.47041501  0.18130199  1
  H  H35  1  0.76283449  0.80063257  0.17790951  1
  H  H36  1  0.25497933  0.19407489  0.82195992  1
  H  H37  1  0.24507904  0.52863620  0.81638532  1
  H  H38  1  0.26726465  0.86639467  0.82330920  1
  H  H39  1  0.74343500  0.19745892  0.81992829  1
  H  H40  1  0.75471405  0.53128546  0.81971887  1
  H  H41  1  0.73031031  0.86111900  0.82348897  1
  H  H42  1  0.25319089  0.13945954  0.31824339  1
  H  H43  1  0.23496818  0.46752288  0.32808620  1
  H  H44  1  0.24374744  0.80776220  0.32441331  1
  H  H45  1  0.74569047  0.13506403  0.32945492  1
  H  H46  1  0.75406319  0.46952138  0.31960600  1
  H  H47  1  0.74961560  0.80340969  0.32042001  1
  H  H48  1  0.11178495  0.06124971  0.58831792  1
  H  H49  1  0.12460600  0.38256977  0.61817128  1
  H  H50  1  0.12870420  0.71882731  0.61910118  1
  H  H51  1  0.62591740  0.04563826  0.63304132  1
  H  H52  1  0.61756530  0.39376378  0.58904572  1
  H  H53  1  0.62694098  0.72099067  0.60568053  1
  H  H54  1  0.37817313  0.27728224  0.10830344  1
  H  H55  1  0.38330289  0.60971486  0.10387656  1
  H  H56  1  0.37799661  0.94606296  0.11140286  1
  H  H57  1  0.87991223  0.27552805  0.09983317  1
  H  H58  1  0.88878138  0.61124311  0.09724301  1
  H  H59  1  0.87769587  0.94496899  0.10153910  1
  H  H60  1  0.38619075  0.06067864  0.89837298  1
  H  H61  1  0.37461570  0.38748388  0.89447517  1
  H  H62  1  0.37319262  0.72322844  0.89716427  1
  H  H63  1  0.88633021  0.05662360  0.90443171  1
  H  H64  1  0.87157911  0.38319013  0.87540621  1
  H  H65  1  0.86976986  0.71907329  0.88115579  1
  H  H66  1  0.13124218  0.28445587  0.38200423  1
  H  H67  1  0.13179593  0.61073059  0.39016946  1
  H  H68  1  0.12748666  0.94548543  0.38693171  1
  H  H69  1  0.62384073  0.27630639  0.40266006  1
  H  H70  1  0.63216919  0.61906730  0.37456551  1
  H  H71  1  0.62639324  0.94516403  0.39305948  1
  H  H72  1  0.37518765  0.21853651  0.61874346  1
  H  H73  1  0.35982876  0.56304055  0.59012633  1
  H  H74  1  0.37107822  0.88997893  0.59742160  1
  H  H75  1  0.86943427  0.22475287  0.59582220  1
  H  H76  1  0.87039584  0.55419439  0.60182112  1
  H  H77  1  0.86962815  0.88571002  0.61514280  1
  H  H78  1  0.12544531  0.11778203  0.11810757  1
  H  H79  1  0.12816599  0.44273051  0.10130003  1
  H  H80  1  0.13208742  0.77363091  0.09563334  1
  H  H81  1  0.61846034  0.11227740  0.11490255  1
  H  H82  1  0.62862688  0.44654331  0.11175875  1
  H  H83  1  0.62703786  0.78099965  0.11957958  1
  H  H84  1  0.12301176  0.21739830  0.88262498  1
  H  H85  1  0.11545145  0.55277995  0.88503707  1
  H  H86  1  0.12232833  0.88462064  0.86727399  1
  H  H87  1  0.62238792  0.22198795  0.89485408  1
  H  H88  1  0.61550031  0.54928196  0.87174401  1
  H  H89  1  0.63136666  0.89376666  0.91049922  1
  H  H90  1  0.37372334  0.10752000  0.39006813  1
  H  H91  1  0.37513138  0.45043331  0.38142686  1
  H  H92  1  0.37203878  0.78292318  0.39096568  1
  H  H93  1  0.87403723  0.11642346  0.39711794  1
  H  H94  1  0.87004932  0.44637125  0.39507546  1
  H  H95  1  0.86781152  0.77938881  0.39332012  1
  H  H96  1  0.37660950  0.28424502  0.38240898  1
  H  H97  1  0.38730396  0.60880098  0.40819087  1
  H  H98  1  0.37757552  0.94457866  0.39481119  1
  H  H99  1  0.88262496  0.27932552  0.39560361  1
  H  H100  1  0.88383172  0.61134124  0.39767091  1
  H  H101  1  0.87780497  0.94485388  0.39409381  1
  H  H102  1  0.13135230  0.05029372  0.87279501  1
  H  H103  1  0.11940132  0.38704852  0.89736650  1
  H  H104  1  0.11789477  0.72283855  0.89759038  1
  H  H105  1  0.63400088  0.05082170  0.88539756  1
  H  H106  1  0.62387414  0.38766654  0.88516305  1
  H  H107  1  0.62237521  0.72066377  0.88772739  1
  H  H108  1  0.12648126  0.28342659  0.12391846  1
  H  H109  1  0.13402992  0.61741483  0.13019492  1
  H  H110  1  0.12655789  0.94517352  0.10771666  1
  H  H111  1  0.62664119  0.27772750  0.11140473  1
  H  H112  1  0.63164489  0.61551914  0.11753266  1
  H  H113  1  0.62714305  0.94578037  0.11470299  1
  H  H114  1  0.38759584  0.06047999  0.58354930  1
  H  H115  1  0.37329004  0.38265720  0.62359302  1
  H  H116  1  0.37782411  0.72348339  0.60698217  1
  H  H117  1  0.87235853  0.04324698  0.63543530  1
  H  H118  1  0.87814725  0.39255136  0.59429079  1
  H  H119  1  0.88069973  0.72035050  0.60008592  1
  H  H120  1  0.12461125  0.11845365  0.38490192  1
  H  H121  1  0.13032908  0.43735399  0.41135041  1
  H  H122  1  0.12302324  0.77626020  0.39476340  1
  H  H123  1  0.62672193  0.10180788  0.40100917  1
  H  H124  1  0.62119532  0.45019627  0.38193128  1
  H  H125  1  0.61855822  0.78538232  0.38581339  1
  H  H126  1  0.37156007  0.22203433  0.89899852  1
  H  H127  1  0.36407974  0.55533165  0.89207345  1
  H  H128  1  0.36317347  0.89728695  0.91293514  1
  H  H129  1  0.87109626  0.21870075  0.88835603  1
  H  H130  1  0.86100308  0.55603725  0.90236172  1
  H  H131  1  0.87321360  0.88254437  0.86989922  1
  H  H132  1  0.37130164  0.10654442  0.09725590  1
  H  H133  1  0.37422032  0.45005902  0.12583299  1
  H  H134  1  0.37695621  0.78212614  0.12642183  1
  H  H135  1  0.86777772  0.11321991  0.10521323  1
  H  H136  1  0.87680064  0.44432417  0.10665369  1
  H  H137  1  0.87345536  0.77458061  0.09567550  1
  H  H138  1  0.12836235  0.22501227  0.59657092  1
  H  H139  1  0.11733608  0.54709070  0.62629281  1
  H  H140  1  0.12413208  0.88473358  0.61605731  1
  H  H141  1  0.62319129  0.21639847  0.61934435  1
  H  H142  1  0.62259258  0.55166017  0.61594210  1
  H  H143  1  0.62143005  0.88832736  0.60191568  1
  H  H144  1  0.40669727  0.25243647  0.49421488  1
  H  H145  1  0.31158373  0.25098968  1.00030569  1
  H  H146  1  0.46589801  0.58330434  0.50733423  1
  H  H147  1  0.35627816  0.41769686  0.49151318  1
  H  H148  1  0.92637874  0.91465746  -0.00672214  1
  H  H149  1  0.67930335  0.25255636  0.99658481  1
  H  H150  1  0.58413340  0.41388785  0.99234587  1
  H  H151  1  0.42643199  0.41882938  1.00176644  1
  H  H152  1  0.20766461  0.74538457  -0.00661568  1
  H  H153  1  0.11396110  0.07980947  -0.01151664  1
  H  H154  1  0.42959764  0.92822978  0.00394659  1
  H  H155  1  0.67628562  0.08157579  0.50609451  1
  H  H156  1  0.02627077  0.08722978  0.48808826  1
  H  H157  1  0.16623026  0.09107724  0.49694580  1
  H  H158  1  0.89614476  0.41182649  0.98893889  1
  H  H159  1  0.65632537  0.08734497  0.00798488  1
  H  H160  1  0.71443940  0.91668063  1.00804447  1
  H  H161  1  0.94117311  0.25041812  0.50535171  1
  H  H162  1  0.81321563  0.75081378  0.50456414  1
  H  H163  1  0.58693161  0.75020666  0.99907963  1
  H  H164  1  0.27668678  0.91917593  1.00947332  1
  H  H165  1  0.65362452  0.58157669  0.50162313  1
  H  H166  1  0.47654613  0.08220509  0.48831412  1
  H  H167  1  0.05353987  0.74941834  1.00373545  1
  H  H168  1  0.31928496  0.08829981  0.49629552  1
  H  H169  1  0.05713932  0.41356810  1.00490348  1
  H  H170  1  0.81214483  0.41944896  0.50538670  1
  H  H171  1  0.08814241  0.91834630  0.00042368  1
  H  H172  1  0.44605403  0.57924100  -0.00278049  1
  H  H173  1  0.94777967  0.74813441  0.49391962  1
  H  H174  1  0.08826664  0.58438871  0.49616612  1
  H  H175  1  0.11924144  0.58878601  1.01586675  1
  H  H176  1  0.08759920  0.91731190  0.49300818  1
  H  H177  1  0.83745515  0.07971825  0.50171268  1
  H  H178  1  0.15062804  0.24993505  0.99432309  1
  H  H179  1  0.20021431  0.41562348  -0.00336537  1
  H  H180  1  0.27724300  0.58771071  0.49321002  1
  H  H181  1  0.95271772  0.41982334  0.49494524  1
  H  H182  1  0.81299124  0.08124641  -0.00236416  1
  H  H183  1  0.94579715  0.24609118  -0.00644889  1
  H  H184  1  0.63194477  0.57856103  -0.01414070  1
  H  H185  1  0.42552709  0.75008824  1.00056760  1
  H  H186  1  0.79173919  0.58367563  1.00769741  1
  H  H187  1  0.79582767  0.25093468  0.49554021  1
  H  H188  1  0.92897393  0.91442916  0.50244900  1
  H  H189  1  0.30097196  0.08543214  -0.00485316  1
  H  H190  1  0.58185224  0.91575206  0.00420432  1
  H  H191  1  0.95992893  0.58408474  -0.00767679  1
  Pb  Pb192  1  0.25550917  0.05107832  0.73856387  1
  Pb  Pb193  1  0.24767706  0.37908124  0.75463133  1
  Pb  Pb194  1  0.24735321  0.71365132  0.75521959  1
  Pb  Pb195  1  0.74944980  0.04627600  0.75979651  1
  Pb  Pb196  1  0.74604711  0.38150609  0.74008870  1
  Pb  Pb197  1  0.74833803  0.71361418  0.74500591  1
  Pb  Pb198  1  0.25525320  0.28606445  0.24202129  1
  Pb  Pb199  1  0.26115953  0.61805466  0.25740672  1
  Pb  Pb200  1  0.25097036  0.95348442  0.24549765  1
  Pb  Pb201  1  0.75013836  0.28527857  0.25360047  1
  Pb  Pb202  1  0.75604577  0.62094036  0.24881302  1
  Pb  Pb203  1  0.75817205  0.95031788  0.24523902  1
  Pb  Pb204  1  -0.00264789  0.21377780  0.74387646  1
  Pb  Pb205  1  -0.00555381  0.54658628  0.75197383  1
  Pb  Pb206  1  -0.00095824  0.88128532  0.74452966  1
  Pb  Pb207  1  0.50004403  0.21356890  0.75355688  1
  Pb  Pb208  1  0.49349714  0.54778969  0.74383553  1
  Pb  Pb209  1  0.49800212  0.88090751  0.75799096  1
  Pb  Pb210  1  -0.00036878  0.12123214  0.24824127  1
  Pb  Pb211  1  0.00081178  0.45091541  0.25385511  1
  Pb  Pb212  1  0.00735189  0.78270354  0.24563197  1
  Pb  Pb213  1  0.50504031  0.11577511  0.25189797  1
  Pb  Pb214  1  0.50452828  0.45457878  0.24390815  1
  Pb  Pb215  1  0.50282602  0.78796045  0.24698513  1
  C  C216  1  0.00092996  0.04468819  0.63131144  1
  C  C217  1  -0.00375721  0.37890633  0.63005643  1
  C  C218  1  0.00121753  0.71186944  0.63280264  1
  C  C219  1  0.49784493  0.04201823  0.62788931  1
  C  C220  1  0.50189767  0.38018157  0.62897444  1
  C  C221  1  0.50234902  0.71325286  0.62928140  1
  C  C222  1  -0.00177687  0.28731264  0.13259350  1
  C  C223  1  0.00613112  0.62096170  0.13401381  1
  C  C224  1  0.00139124  0.95464421  0.12671861  1
  C  C225  1  0.50182839  0.28677312  0.13417045  1
  C  C226  1  0.50460791  0.62131248  0.13331949  1
  C  C227  1  0.50178898  0.95668058  0.13486244  1
  C  C228  1  0.00463182  0.04584978  0.86814700  1
  C  C229  1  -0.00108453  0.37830081  0.86545204  1
  C  C230  1  -0.00296709  0.71289693  0.86585178  1
  C  C231  1  0.50738500  0.04661397  0.86939222  1
  C  C232  1  0.49794849  0.37900275  0.86785436  1
  C  C233  1  0.49602436  0.71306430  0.87070726  1
  C  C234  1  0.00380105  0.28904846  0.36773992  1
  C  C235  1  0.00698499  0.62075039  0.37025386  1
  C  C236  1  0.00162370  0.95291483  0.36848643  1
  C  C237  1  0.50394913  0.28855157  0.36944736  1
  C  C238  1  0.50311597  0.62421124  0.36988589  1
  C  C239  1  0.50162353  0.95151763  0.37387962  1
  C  C240  1  0.24765368  0.21346943  0.63079278  1
  C  C241  1  0.24586353  0.54485575  0.63045639  1
  C  C242  1  0.25147992  0.87751439  0.63075549  1
  C  C243  1  0.75107645  0.21126923  0.63085311  1
  C  C244  1  0.74790025  0.54585728  0.62984517  1
  C  C245  1  0.74320601  0.87812045  0.63147634  1
  C  C246  1  0.25291369  0.12143710  0.13096412  1
  C  C247  1  0.24656855  0.45507954  0.13619785  1
  C  C248  1  0.24884067  0.78460540  0.13389296  1
  C  C249  1  0.74438021  0.12271942  0.13190852  1
  C  C250  1  0.75381821  0.45446301  0.13387933  1
  C  C251  1  0.75458711  0.78576365  0.13076733  1
  C  C252  1  0.25018004  0.21110638  0.86895405  1
  C  C253  1  0.24131163  0.54461682  0.86378804  1
  C  C254  1  0.25102974  0.88142156  0.86943011  1
  C  C255  1  0.74532172  0.21283518  0.86750364  1
  C  C256  1  0.74316877  0.54523901  0.86700331  1
  C  C257  1  0.74468173  0.87747569  0.86939721  1
  C  C258  1  0.25108533  0.12291537  0.36551776  1
  C  C259  1  0.24734554  0.45197156  0.37462900  1
  C  C260  1  0.24643906  0.78925752  0.37051695  1
  C  C261  1  0.74871296  0.11817708  0.37662604  1
  C  C262  1  0.74862204  0.45499819  0.36719563  1
  C  C263  1  0.74562191  0.78929550  0.36825095  1
  C  C264  1  0.02426837  0.40367291  0.96263803  1
  C  C265  1  0.77772133  0.76263566  0.46406807  1
  C  C266  1  0.00283627  0.07291888  0.53278710  1
  C  C267  1  0.30030087  0.24203719  0.54246707  1
  C  C268  1  0.57359097  0.07066186  0.54864805  1
  C  C269  1  0.97826154  0.25880330  0.03518581  1
  C  C270  1  0.77986329  0.57223150  0.53480146  1
  C  C271  1  0.56837312  0.59421012  0.45347696  1
  C  C272  1  0.02102263  0.73934424  0.96120169  1
  C  C273  1  0.97518482  0.26174232  0.46399800  1
  C  C274  1  0.70080379  0.75888341  0.04252632  1
  C  C275  1  0.05884789  0.26233524  0.04522045  1
  C  C276  1  0.06980386  0.59736189  0.04774770  1
  C  C277  1  0.97860664  0.73873529  0.53727633  1
  C  C278  1  0.21360157  0.75279838  0.46067472  1
  C  C279  1  0.96615269  0.92516160  0.46248019  1
  C  C280  1  0.69661423  0.76542398  0.45954035  1
  C  C281  1  0.71539386  0.90829456  0.53751673  1
  C  C282  1  0.22912136  0.42708186  0.04036228  1
  C  C283  1  0.98482491  0.07293712  0.96522039  1
  C  C284  1  0.05626871  0.26357859  0.45746815  1
  C  C285  1  0.20523897  0.09667113  0.45700009  1
  C  C286  1  0.45307065  0.26127465  0.45826206  1
  C  C287  1  0.54376578  0.92669617  0.04353208  1
  C  C288  1  0.98910968  0.59519890  0.03599029  1
  C  C289  1  0.54314815  0.92579400  0.46547883  1
  C  C290  1  0.94278730  0.40260629  0.95485488  1
  C  C291  1  0.46568928  0.74808262  0.53930596  1
  C  C292  1  0.54293979  0.74104222  0.96174045  1
  C  C293  1  0.77802104  0.09269565  0.03845677  1
  C  C294  1  0.19771521  0.24007264  0.95801763  1
  C  C295  1  0.48150732  0.08020508  0.96260729  1
  C  C296  1  0.69876054  0.57173782  0.53779272  1
  C  C297  1  0.68091719  0.56933554  0.95369222  1
  C  C298  1  0.22928097  0.41960689  0.47090684  1
  C  C299  1  0.81481904  0.90615850  0.95188086  1
  C  C300  1  0.77776989  0.42907244  0.46376925  1
  C  C301  1  0.76171559  0.57180481  0.96460268  1
  C  C302  1  0.46293262  0.92555233  0.46607179  1
  C  C303  1  0.69670340  0.43025759  0.45733593  1
  C  C304  1  0.46326334  0.40775748  0.96176205  1
  C  C305  1  0.92496201  0.06570987  0.55031828  1
  C  C306  1  0.96539486  0.92529380  0.03318223  1
  C  C307  1  0.47858129  0.59175297  0.03910382  1
  C  C308  1  0.23548556  0.75780902  0.03726798  1
  C  C309  1  0.06537273  0.07069914  0.95582005  1
  C  C310  1  0.44128308  0.40648114  0.54345142  1
  C  C311  1  0.17806636  0.90698563  0.95097278  1
  N  N312  1  0.76957558  0.24210603  0.53780016  1
  N  N313  1  0.79291967  0.09696519  0.46863079  1
  N  N314  1  0.49090249  0.59084915  0.46396378  1
  N  N315  1  0.25484621  0.91146692  0.96513711  1
  N  N316  1  0.30670091  0.42490494  0.46013878  1
  N  N317  1  0.71559703  0.08352203  0.46713376  1
  N  N318  1  0.54235251  0.25826964  0.04166092  1
  N  N319  1  0.54283863  0.40884841  0.95736625  1
  N  N320  1  0.30765445  0.42907620  0.04865303  1
  N  N321  1  0.69214231  0.23889616  0.54400197  1
  N  N322  1  0.19561982  0.09571138  0.04340969  1
  N  N323  1  0.05734967  0.73947169  0.54387649  1
  N  N324  1  0.46542768  0.25781520  0.04083217  1
  N  N325  1  0.04505827  0.92524897  0.03652421  1
  N  N326  1  0.27547838  0.90919384  0.53596506  1
  N  N327  1  0.04579692  0.92522602  0.45883456  1
  N  N328  1  0.97047494  0.59211275  0.46390531  1
  N  N329  1  0.79287491  0.90767521  0.54064205  1
  N  N330  1  0.77756971  0.75677356  0.03354732  1
  N  N331  1  0.04848188  0.59181277  0.45978265  1
  N  N332  1  0.46308817  0.74219102  0.96351898  1
  N  N333  1  0.54284646  0.74716873  0.53759605  1
  N  N334  1  0.27730027  0.24190970  0.96197765  1
  N  N335  1  0.73753527  0.90945565  0.96435557  1
  N  N336  1  0.55738399  0.59389095  0.04394734  1
  N  N337  1  0.28458441  0.09158482  0.45728484  1
  N  N338  1  0.97885544  0.40751857  0.53605839  1
  N  N339  1  0.71124248  0.42593020  0.04179221  1
  N  N340  1  0.25474960  0.57918226  0.53759302  1
  N  N341  1  0.94220049  0.73848462  0.95584836  1
  N  N342  1  0.69854421  0.09236427  0.04296231  1
  N  N343  1  0.51724550  0.41115586  0.53152773  1
  N  N344  1  0.31361785  0.76098984  0.04715563  1
  N  N345  1  0.29102202  0.75482699  0.46077101  1
  N  N346  1  0.17832198  0.57279611  0.54784456  1
  N  N347  1  0.78801964  0.42570907  0.03990124  1
  N  N348  1  0.27392895  0.57332117  0.95801868  1
  N  N349  1  0.05604197  0.40415693  0.54289511  1
  N  N350  1  0.22337678  0.24378896  0.53411480  1
  N  N351  1  0.49725202  0.07545700  0.53315770  1
  N  N352  1  0.53177320  0.25802545  0.46522340  1
  N  N353  1  0.27294587  0.09204850  0.03720117  1
  N  N354  1  0.19774200  0.57241052  0.95523322  1
  N  N355  1  0.55887928  0.07644159  0.95933683  1
  N  N356  1  0.19947847  0.90755363  0.54219956  1
  N  N357  1  0.46399713  0.92705470  0.04328987  1
  N  N358  1  0.71392069  0.24001129  0.95969091  1
  N  N359  1  0.79220342  0.23896403  0.95923221  1
  N  N360  1  0.04983192  0.05929111  0.58474126  1
  N  N361  1  0.06636104  0.38659120  0.60144839  1
  N  N362  1  0.06960244  0.72276696  0.60339362  1
  N  N363  1  0.57366337  0.05154726  0.60781342  1
  N  N364  1  0.55520464  0.39421608  0.58609195  1
  N  N365  1  0.56613631  0.72511422  0.59496465  1
  N  N366  1  0.43940799  0.27534362  0.09801951  1
  N  N367  1  0.44473710  0.60859528  0.09371601  1
  N  N368  1  0.43838636  0.94917764  0.09871323  1
  N  N369  1  0.94142841  0.27493051  0.09106388  1
  N  N370  1  0.95083020  0.61002500  0.09014922  1
  N  N371  1  0.93826336  0.94267108  0.08961742  1
  N  N372  1  0.44776326  0.06188037  0.90873490  1
  N  N373  1  0.43525436  0.39034562  0.90584101  1
  N  N374  1  0.43438494  0.72387849  0.90773143  1
  N  N375  1  0.94830639  0.05789423  0.91229512  1
  N  N376  1  0.92867857  0.38716717  0.89436911  1
  N  N377  1  0.92910223  0.72214383  0.89641878  1
  N  N378  1  0.07312154  0.27980064  0.39940376  1
  N  N379  1  0.07221360  0.61002950  0.40340199  1
  N  N380  1  0.06740210  0.94276649  0.40109976  1
  N  N381  1  0.56188257  0.27554771  0.40942110  1
  N  N382  1  0.57640604  0.61356270  0.39484316  1
  N  N383  1  0.56759468  0.94134429  0.40907888  1
  N  N384  1  0.31755119  0.22409156  0.60128180  1
  N  N385  1  0.29733289  0.55917495  0.58621884  1
  N  N386  1  0.30907506  0.89062043  0.59050192  1
  N  N387  1  0.80728312  0.22327518  0.58934903  1
  N  N388  1  0.80952055  0.55682190  0.59007180  1
  N  N389  1  0.81024862  0.88855729  0.60058690  1
  N  N390  1  0.18349783  0.11272215  0.10187252  1
  N  N391  1  0.19012879  0.44256148  0.09374247  1
  N  N392  1  0.19433917  0.77252285  0.08988978  1
  N  N393  1  0.67801099  0.11279049  0.09992625  1
  N  N394  1  0.68917893  0.44320918  0.10005678  1
  N  N395  1  0.68432598  0.77618526  0.10157102  1
  N  N396  1  0.18109054  0.22179751  0.89970617  1
  N  N397  1  0.17595299  0.55485444  0.89712178  1
  N  N398  1  0.17571151  0.88994651  0.89119569  1
  N  N399  1  0.68373443  0.22498388  0.90415965  1
  N  N400  1  0.67088411  0.55306271  0.89315180  1
  N  N401  1  0.69314324  0.88893580  0.91450077  1
  N  N402  1  0.31302599  0.11115422  0.40184395  1
  N  N403  1  0.31833563  0.44488609  0.40068282  1
  N  N404  1  0.31166000  0.77805337  0.40344863  1
  N  N405  1  0.81423642  0.11081727  0.41049518  1
  N  N406  1  0.80925984  0.44444147  0.40626832  1
  N  N407  1  0.80743342  0.77785238  0.40593361  1
  N  N408  1  0.43467400  0.27907155  0.39943734  1
  N  N409  1  0.44957322  0.61234427  0.41333999  1
  N  N410  1  0.43671699  0.94112595  0.41024410  1
  N  N411  1  0.94339141  0.27786618  0.40682609  1
  N  N412  1  0.94517624  0.60913146  0.40763915  1
  N  N413  1  0.93855709  0.94191985  0.40616972  1
  N  N414  1  0.07625193  0.05402230  0.89447231  1
  N  N415  1  0.05792909  0.38855884  0.90647503  1
  N  N416  1  0.05639719  0.72427728  0.90624317  1
  N  N417  1  0.57510408  0.05531403  0.89992315  1
  N  N418  1  0.56400091  0.38968316  0.89996141  1
  N  N419  1  0.56321484  0.72401185  0.90360771  1
  N  N420  1  0.07021455  0.27925274  0.10419232  1
  N  N421  1  0.07872688  0.61302221  0.10861586  1
  N  N422  1  0.06681914  0.94469857  0.09359915  1
  N  N423  1  0.56595779  0.27617408  0.09944985  1
  N  N424  1  0.57237022  0.61206738  0.10273957  1
  N  N425  1  0.56732631  0.94327679  0.10072817  1
  N  N426  1  0.44964230  0.05468858  0.58110690  1
  N  N427  1  0.42918179  0.38834823  0.60316941  1
  N  N428  1  0.43784651  0.72750141  0.59430265  1
  N  N429  1  0.92468073  0.04904119  0.61007830  1
  N  N430  1  0.94046513  0.39180681  0.58843715  1
  N  N431  1  0.94245776  0.72221423  0.59157199  1
  N  N432  1  0.18391263  0.11412963  0.39954331  1
  N  N433  1  0.19200199  0.43650725  0.41827015  1
  N  N434  1  0.18337708  0.77333120  0.40631919  1
  N  N435  1  0.68724055  0.10396176  0.41267342  1
  N  N436  1  0.67949685  0.44561900  0.39900968  1
  N  N437  1  0.67748242  0.78111018  0.40170255  1
  N  N438  1  0.30967295  0.22303018  0.90757959  1
  N  N439  1  0.30228948  0.55602022  0.90149386  1
  N  N440  1  0.30084925  0.89294038  0.91551668  1
  N  N441  1  0.81097142  0.22167196  0.90159164  1
  N  N442  1  0.79920295  0.55663653  0.91017157  1
  N  N443  1  0.81900159  0.88783953  0.89261167  1
  N  N444  1  0.30951798  0.10930252  0.08976961  1
  N  N445  1  0.31656324  0.44638208  0.10846729  1
  N  N446  1  0.31996488  0.77723096  0.10764353  1
  N  N447  1  0.80689106  0.11037449  0.09391777  1
  N  N448  1  0.81555385  0.44370486  0.09668166  1
  N  N449  1  0.81139992  0.77415952  0.08973359  1
  N  N450  1  0.19029299  0.22535334  0.59038200  1
  N  N451  1  0.17329870  0.55341446  0.60646743  1
  N  N452  1  0.18334051  0.88821010  0.60122775  1
  N  N453  1  0.68121914  0.22147291  0.60273434  1
  N  N454  1  0.67999335  0.55510690  0.59849992  1
  N  N455  1  0.68251148  0.89075729  0.59202299  1
  Cl  Cl456  1  0.25830076  0.06457609  0.59970992  1
  Cl  Cl457  1  0.24841144  0.38658290  0.62206161  1
  Cl  Cl458  1  0.25448858  0.71633463  0.62489816  1
  Cl  Cl459  1  0.74833021  0.05397663  0.62679492  1
  Cl  Cl460  1  0.75344105  0.39148405  0.60379750  1
  Cl  Cl461  1  0.75537704  0.72037991  0.61012907  1
  Cl  Cl462  1  0.25655998  0.27398372  0.10493810  1
  Cl  Cl463  1  0.26309779  0.61286832  0.12741887  1
  Cl  Cl464  1  0.25514982  0.94119200  0.10323348  1
  Cl  Cl465  1  0.75037951  0.27459092  0.11837355  1
  Cl  Cl466  1  0.76483144  0.61271726  0.11428467  1
  Cl  Cl467  1  0.75049247  0.94252158  0.10477983  1
  Cl  Cl468  1  0.26608779  0.05980776  0.88409935  1
  Cl  Cl469  1  0.24550400  0.38709869  0.89020727  1
  Cl  Cl470  1  0.24529971  0.72442801  0.89159477  1
  Cl  Cl471  1  0.76345169  0.05465381  0.89536726  1
  Cl  Cl472  1  0.74492524  0.38357871  0.87173225  1
  Cl  Cl473  1  0.74501159  0.72035660  0.87471771  1
  Cl  Cl474  1  0.25400865  0.28710789  0.37140968  1
  Cl  Cl475  1  0.26388152  0.60507919  0.40033040  1
  Cl  Cl476  1  0.24988516  0.94955044  0.37595719  1
  Cl  Cl477  1  0.75490516  0.27306614  0.39206424  1
  Cl  Cl478  1  0.76098754  0.61384403  0.38130531  1
  Cl  Cl479  1  0.75472736  0.94935509  0.37635172  1
  Cl  Cl480  1  -0.00610819  0.22457790  0.60817146  1
  Cl  Cl481  1  -0.00789210  0.55002163  0.61958219  1
  Cl  Cl482  1  -0.00110256  0.88988746  0.61017064  1
  Cl  Cl483  1  0.49853830  0.21218604  0.62211371  1
  Cl  Cl484  1  0.47957169  0.56318402  0.60326626  1
  Cl  Cl485  1  0.49469042  0.88793882  0.62479319  1
  Cl  Cl486  1  -0.00557127  0.11393286  0.11699473  1
  Cl  Cl487  1  0.00299909  0.44204048  0.11842768  1
  Cl  Cl488  1  0.00563021  0.77746769  0.10966374  1
  Cl  Cl489  1  0.49202387  0.10625414  0.11814175  1
  Cl  Cl490  1  0.50562576  0.44522077  0.10795214  1
  Cl  Cl491  1  0.50331315  0.77942308  0.11121302  1
  Cl  Cl492  1  -0.00527409  0.21848106  0.87686723  1
  Cl  Cl493  1  -0.01397869  0.55497457  0.88660353  1
  Cl  Cl494  1  -0.00227643  0.88959880  0.87774044  1
  Cl  Cl495  1  0.49747192  0.21974003  0.88657572  1
  Cl  Cl496  1  0.48389456  0.55538265  0.88036516  1
  Cl  Cl497  1  0.49231595  0.89754309  0.90255007  1
  Cl  Cl498  1  -0.00224367  0.11613045  0.38409546  1
  Cl  Cl499  1  -0.00144182  0.44152733  0.39227291  1
  Cl  Cl500  1  -0.00461604  0.77848647  0.38078932  1
  Cl  Cl501  1  0.49809847  0.10176136  0.39442153  1
  Cl  Cl502  1  0.49793719  0.45609092  0.37210346  1
  Cl  Cl503  1  0.49473104  0.78550611  0.37671270  1
  Cl  Cl504  1  0.35537498  0.14801435  0.74965921  1
  Cl  Cl505  1  0.35387255  0.48319092  0.75012245  1
  Cl  Cl506  1  0.35735621  0.81626738  0.75650694  1
  Cl  Cl507  1  0.85845975  0.14788728  0.74987145  1
  Cl  Cl508  1  0.85172499  0.48519661  0.74969493  1
  Cl  Cl509  1  0.86086070  0.81492738  0.75205319  1
  Cl  Cl510  1  0.13788097  0.18826564  0.24329092  1
  Cl  Cl511  1  0.14427631  0.52193748  0.25833632  1
  Cl  Cl512  1  0.14053543  0.85281223  0.25050465  1
  Cl  Cl513  1  0.63756425  0.18485091  0.25356362  1
  Cl  Cl514  1  0.64068908  0.52198987  0.24800692  1
  Cl  Cl515  1  0.63859405  0.85481034  0.24313757  1
  Cl  Cl516  1  0.13797357  0.14799743  0.75112041  1
  Cl  Cl517  1  0.13336671  0.47905495  0.74787820  1
  Cl  Cl518  1  0.13465363  0.81391694  0.75160234  1
  Cl  Cl519  1  0.63892372  0.14744879  0.74865647  1
  Cl  Cl520  1  0.62916795  0.47975901  0.75296602  1
  Cl  Cl521  1  0.63708796  0.81476788  0.75196875  1
  Cl  Cl522  1  0.35657689  0.18394067  0.24873118  1
  Cl  Cl523  1  0.36294093  0.51838734  0.25142422  1
  Cl  Cl524  1  0.36289058  0.85286646  0.23924563  1
  Cl  Cl525  1  0.85489758  0.18015123  0.25324591  1
  Cl  Cl526  1  0.86087817  0.51544013  0.25130840  1
  Cl  Cl527  1  0.85733252  0.85144198  0.24743800  1
  Cl  Cl528  1  0.10793221  0.31492282  0.74629198  1
  Cl  Cl529  1  0.11029348  0.64505370  0.74570239  1
  Cl  Cl530  1  0.10954525  0.98094480  0.75284856  1
  Cl  Cl531  1  0.60835574  0.31399450  0.74660962  1
  Cl  Cl532  1  0.60945466  0.64585163  0.75072862  1
  Cl  Cl533  1  0.61140287  0.98080630  0.75057564  1
  Cl  Cl534  1  0.38787139  0.01855972  0.25425998  1
  Cl  Cl535  1  0.39114691  0.35470096  0.24520457  1
  Cl  Cl536  1  0.39668085  0.68471267  0.24817122  1
  Cl  Cl537  1  0.89600885  0.01537328  0.24754754  1
  Cl  Cl538  1  0.89527827  0.35082971  0.25260986  1
  Cl  Cl539  1  0.89857103  0.68046180  0.25096490  1
  Cl  Cl540  1  0.38978189  0.31559789  0.74762105  1
  Cl  Cl541  1  0.38991036  0.65258048  0.75362103  1
  Cl  Cl542  1  0.39085511  0.98458884  0.75245526  1
  Cl  Cl543  1  0.88644804  0.31581757  0.74994276  1
  Cl  Cl544  1  0.88994206  0.65137315  0.75179343  1
  Cl  Cl545  1  0.88672317  0.98079095  0.74723630  1
  Cl  Cl546  1  0.11231167  0.02029061  0.24579291  1
  Cl  Cl547  1  0.11741377  0.35335720  0.24513589  1
  Cl  Cl548  1  0.11569839  0.68844966  0.24707471  1
  Cl  Cl549  1  0.60922954  0.02051135  0.24979933  1
  Cl  Cl550  1  0.61196248  0.35224234  0.25413522  1
  Cl  Cl551  1  0.61600609  0.68766462  0.25072668  1
