# generated using pymatgen
data_H8PbC4(N3Cl2)2
_symmetry_space_group_name_H-M   'P 1'
_cell_length_a   16.62246436
_cell_length_b   22.50593628
_cell_length_c   21.58762895
_cell_angle_alpha   90.00038061
_cell_angle_beta   89.98133666
_cell_angle_gamma   89.99766224
_symmetry_Int_Tables_number   1
_chemical_formula_structural   H8PbC4(N3Cl2)2
_chemical_formula_sum   'H192 Pb24 C96 N144 Cl96'
_cell_volume   8076.02057496
_cell_formula_units_Z   24
loop_
 _symmetry_equiv_pos_site_id
 _symmetry_equiv_pos_as_xyz
  1  'x, y, z'
loop_
 _atom_site_type_symbol
 _atom_site_label
 _atom_site_symmetry_multiplicity
 _atom_site_fract_x
 _atom_site_fract_y
 _atom_site_fract_z
 _atom_site_occupancy
  H  H0  1  0.00863201  0.03221212  0.67698064  1
  H  H1  1  0.00257707  0.36391246  0.67988917  1
  H  H2  1  -0.00204375  0.69729676  0.68187545  1
  H  H3  1  0.49349713  0.03193976  0.67993945  1
  H  H4  1  0.49872699  0.36484210  0.68316809  1
  H  H5  1  0.49252835  0.69878578  0.68002905  1
  H  H6  1  0.00509623  0.30456511  0.18158293  1
  H  H7  1  -0.00985764  0.63580369  0.17622909  1
  H  H8  1  0.00449989  0.96773866  0.18077418  1
  H  H9  1  0.48932444  0.30468143  0.17940540  1
  H  H10  1  0.50965632  0.63560868  0.17573698  1
  H  H11  1  0.49004494  0.96792616  0.17753458  1
  H  H12  1  0.01028806  0.03026976  0.82293929  1
  H  H13  1  0.00708737  0.36711845  0.81882982  1
  H  H14  1  0.00623345  0.69779001  0.82301985  1
  H  H15  1  0.49160962  0.03237994  0.82112924  1
  H  H16  1  0.50469642  0.36477331  0.82052760  1
  H  H17  1  0.50637572  0.69625365  0.82057714  1
  H  H18  1  0.00542905  0.30272948  0.32331195  1
  H  H19  1  0.01034157  0.63435563  0.32365617  1
  H  H20  1  0.00963341  0.96746121  0.32001975  1
  H  H21  1  0.49341032  0.30272602  0.31726612  1
  H  H22  1  0.49018480  0.63447256  0.31918199  1
  H  H23  1  0.50236490  0.96815445  0.32066430  1
  H  H24  1  0.24920172  0.19547728  0.68155765  1
  H  H25  1  0.25530038  0.53082221  0.67831931  1
  H  H26  1  0.24228257  0.86367078  0.67860649  1
  H  H27  1  0.74370980  0.19846396  0.67912073  1
  H  H28  1  0.74545168  0.53199733  0.67686967  1
  H  H29  1  0.75517445  0.86483617  0.67965853  1
  H  H30  1  0.24218946  0.13403941  0.17871850  1
  H  H31  1  0.23914916  0.46776266  0.17548772  1
  H  H32  1  0.24784924  0.80166713  0.17807986  1
  H  H33  1  0.75464200  0.13497649  0.17632968  1
  H  H34  1  0.74955770  0.47069798  0.17795188  1
  H  H35  1  0.74335196  0.80233632  0.17479445  1
  H  H36  1  0.24623932  0.19646664  0.81851283  1
  H  H37  1  0.24724740  0.53062880  0.82488166  1
  H  H38  1  0.25172389  0.86218267  0.82227873  1
  H  H39  1  0.76278831  0.19854371  0.81704646  1
  H  H40  1  0.75044485  0.53303858  0.82494019  1
  H  H41  1  0.75403317  0.86404696  0.82385662  1
  H  H42  1  0.24838427  0.13630404  0.32222727  1
  H  H43  1  0.26175697  0.46725704  0.31777652  1
  H  H44  1  0.25203850  0.80317061  0.32171512  1
  H  H45  1  0.75162956  0.13522851  0.32014941  1
  H  H46  1  0.73744555  0.46862076  0.32196481  1
  H  H47  1  0.75780989  0.80134815  0.31802237  1
  H  H48  1  0.11178249  0.06146458  0.59176355  1
  H  H49  1  0.12194160  0.38998627  0.60397922  1
  H  H50  1  0.13064585  0.71851745  0.61678441  1
  H  H51  1  0.61762635  0.05248198  0.61088551  1
  H  H52  1  0.62389223  0.38616775  0.61439744  1
  H  H53  1  0.63092870  0.71629702  0.62491416  1
  H  H54  1  0.37910296  0.27606725  0.09811906  1
  H  H55  1  0.37449496  0.61259318  0.11768668  1
  H  H56  1  0.38651668  0.94026842  0.09186622  1
  H  H57  1  0.87776927  0.27860309  0.11624101  1
  H  H58  1  0.88012604  0.60940700  0.09490338  1
  H  H59  1  0.88003430  0.94400544  0.10853207  1
  H  H60  1  0.37445711  0.05506019  0.89596623  1
  H  H61  1  0.37167527  0.38668726  0.88240391  1
  H  H62  1  0.37127638  0.71890697  0.88291718  1
  H  H63  1  0.86939254  0.04817102  0.87352014  1
  H  H64  1  0.87377323  0.38806770  0.88375815  1
  H  H65  1  0.86849366  0.71542846  0.88012697  1
  H  H66  1  0.11798656  0.27517672  0.40080431  1
  H  H67  1  0.12235446  0.60852432  0.40359034  1
  H  H68  1  0.11473386  0.94026309  0.40620214  1
  H  H69  1  0.62221409  0.28126751  0.38572262  1
  H  H70  1  0.62916593  0.61575008  0.37602715  1
  H  H71  1  0.61665571  0.94429679  0.39724208  1
  H  H72  1  0.37602058  0.21845739  0.61137752  1
  H  H73  1  0.37080379  0.55762745  0.60060743  1
  H  H74  1  0.38122063  0.88483803  0.62591187  1
  H  H75  1  0.88058066  0.21769209  0.62261488  1
  H  H76  1  0.87386672  0.55421448  0.61067106  1
  H  H77  1  0.87842939  0.89000331  0.60747561  1
  H  H78  1  0.13371236  0.10659291  0.09562980  1
  H  H79  1  0.13243223  0.44339340  0.09382514  1
  H  H80  1  0.12896890  0.77715321  0.10274741  1
  H  H81  1  0.62931324  0.10728969  0.10888654  1
  H  H82  1  0.62843117  0.44789555  0.10412314  1
  H  H83  1  0.63353148  0.77388894  0.09533244  1
  H  H84  1  0.12314614  0.22230849  0.89040300  1
  H  H85  1  0.12494802  0.55526932  0.89686786  1
  H  H86  1  0.11850913  0.88545238  0.88211704  1
  H  H87  1  0.62441089  0.21746273  0.87534567  1
  H  H88  1  0.62624137  0.55407049  0.89345076  1
  H  H89  1  0.62081736  0.88732138  0.88523824  1
  H  H90  1  0.38218829  0.11192053  0.38244591  1
  H  H91  1  0.37267975  0.44300109  0.39926835  1
  H  H92  1  0.36593216  0.77766858  0.40108342  1
  H  H93  1  0.88250521  0.11377621  0.38626155  1
  H  H94  1  0.87700432  0.45033950  0.37513068  1
  H  H95  1  0.86484457  0.77605254  0.39981150  1
  H  H96  1  0.37322105  0.27711363  0.39075134  1
  H  H97  1  0.38290458  0.60887729  0.40261224  1
  H  H98  1  0.36899400  0.94961291  0.38160584  1
  H  H99  1  0.87096205  0.28198296  0.38357464  1
  H  H100  1  0.87519988  0.61326856  0.38302057  1
  H  H101  1  0.87049861  0.94943685  0.37523077  1
  H  H102  1  0.11334166  0.05766064  0.90908277  1
  H  H103  1  0.12164016  0.39104771  0.89887621  1
  H  H104  1  0.11472214  0.72544420  0.90583037  1
  H  H105  1  0.62290214  0.05170522  0.88425861  1
  H  H106  1  0.61935707  0.39198438  0.89913150  1
  H  H107  1  0.61873788  0.72235574  0.90194357  1
  H  H108  1  0.12669078  0.28132085  0.10695206  1
  H  H109  1  0.12689769  0.61392311  0.11884820  1
  H  H110  1  0.12850939  0.94445326  0.10744102  1
  H  H111  1  0.62571430  0.28336518  0.12333049  1
  H  H112  1  0.62158702  0.60999260  0.09600612  1
  H  H113  1  0.63119064  0.94941007  0.12624380  1
  H  H114  1  0.36824168  0.05343072  0.60929116  1
  H  H115  1  0.37407308  0.38702326  0.61377303  1
  H  H116  1  0.38428364  0.72477703  0.59604862  1
  H  H117  1  0.86731979  0.05160360  0.62677763  1
  H  H118  1  0.87339190  0.38726130  0.61405892  1
  H  H119  1  0.88216694  0.72125836  0.60483996  1
  H  H120  1  0.13400766  0.11001413  0.40113204  1
  H  H121  1  0.12494105  0.44911490  0.37895729  1
  H  H122  1  0.11795645  0.77825127  0.38109661  1
  H  H123  1  0.63480394  0.10984096  0.39767454  1
  H  H124  1  0.63180102  0.44049549  0.40626969  1
  H  H125  1  0.61821204  0.78569837  0.37323600  1
  H  H126  1  0.37279660  0.22012790  0.88604706  1
  H  H127  1  0.37420089  0.55385998  0.89172311  1
  H  H128  1  0.36629078  0.89117213  0.90000633  1
  H  H129  1  0.87078093  0.22423578  0.89984231  1
  H  H130  1  0.87516607  0.55478064  0.89275301  1
  H  H131  1  0.86802213  0.89145071  0.90038749  1
  H  H132  1  0.38010620  0.11447022  0.12317208  1
  H  H133  1  0.37817973  0.45158030  0.12200782  1
  H  H134  1  0.37782485  0.77906915  0.11109772  1
  H  H135  1  0.87731549  0.11328309  0.10320339  1
  H  H136  1  0.87738493  0.44872734  0.10841696  1
  H  H137  1  0.88007294  0.78103106  0.11716314  1
  H  H138  1  0.12682770  0.22106998  0.61064281  1
  H  H139  1  0.12250714  0.55343135  0.61671266  1
  H  H140  1  0.13546141  0.89314009  0.59480521  1
  H  H141  1  0.63320297  0.22178346  0.59925858  1
  H  H142  1  0.62492934  0.55739687  0.60329432  1
  H  H143  1  0.62888370  0.88700691  0.61147878  1
  H  H144  1  0.41988384  0.41156565  0.50107488  1
  H  H145  1  0.67201015  0.08674850  0.00356121  1
  H  H146  1  0.94406690  0.74881415  0.49727409  1
  H  H147  1  0.44845279  0.25521725  -0.00417820  1
  H  H148  1  0.17669470  0.23847552  0.99805141  1
  H  H149  1  0.40319476  0.58323531  0.00940327  1
  H  H150  1  0.17484224  0.58217269  1.00107549  1
  H  H151  1  0.32848671  0.24787919  0.99799632  1
  H  H152  1  0.84504438  0.08752934  0.49414104  1
  H  H153  1  0.61187999  0.74914608  0.51071246  1
  H  H154  1  0.45631426  0.75581875  0.49774873  1
  H  H155  1  0.40139905  0.41777058  0.99410814  1
  H  H156  1  0.20876469  0.91576231  0.49464607  1
  H  H157  1  0.79908661  0.24948072  1.00499778  1
  H  H158  1  0.65193809  0.91592335  0.99414891  1
  H  H159  1  0.03570313  0.08073053  1.00820521  1
  H  H160  1  0.85502492  0.74978765  0.00842457  1
  H  H161  1  0.36617910  0.91789410  0.51210226  1
  H  H162  1  0.91235767  0.41561255  0.50314650  1
  H  H163  1  0.06595470  0.27841777  -0.00079517  1
  H  H164  1  0.57959508  0.40933984  0.50111032  1
  H  H165  1  0.30076855  0.91773159  1.00297588  1
  H  H166  1  0.83053875  0.42294897  0.00315144  1
  H  H167  1  0.17778689  0.25167145  0.50223087  1
  H  H168  1  0.69598753  0.25009955  0.49265271  1
  H  H169  1  0.20649599  0.07848545  -0.00431205  1
  H  H170  1  0.60214624  0.25152724  0.01048013  1
  H  H171  1  0.30603784  0.58473476  0.49728468  1
  H  H172  1  0.42794545  0.24825733  0.49842532  1
  H  H173  1  0.67754096  0.58517520  0.49986303  1
  H  H174  1  0.03426934  0.08661818  0.49266692  1
  H  H175  1  0.89760057  0.25051513  0.49179365  1
  H  H176  1  0.91847261  0.25298513  0.00352486  1
  H  H177  1  0.03670642  0.91462770  0.50479756  1
  H  H178  1  0.46381703  0.91668715  -0.00777667  1
  H  H179  1  0.90452752  0.58454748  0.49143932  1
  H  H180  1  0.42654255  0.08433792  1.00510590  1
  H  H181  1  0.33414777  0.75027693  0.00578008  1
  H  H182  1  0.45535414  0.58039676  0.50599609  1
  H  H183  1  0.30281324  0.41768788  0.50542254  1
  H  H184  1  0.83109336  0.07921654  0.00151837  1
  H  H185  1  0.79454083  0.74815177  0.50654969  1
  H  H186  1  0.70801838  0.41574532  0.50641743  1
  H  H187  1  0.57270989  0.07995798  0.49826876  1
  H  H188  1  0.20026613  0.08336512  0.50408714  1
  H  H189  1  0.29945302  0.74840273  0.50291872  1
  H  H190  1  0.67182021  0.91666505  0.50064296  1
  H  H191  1  0.82968553  0.91570227  0.50278014  1
  Pb  Pb192  1  0.24549185  0.04883431  0.75139983  1
  Pb  Pb193  1  0.24827804  0.37958305  0.74877989  1
  Pb  Pb194  1  0.24974780  0.71307750  0.74888557  1
  Pb  Pb195  1  0.74796087  0.04537511  0.75169206  1
  Pb  Pb196  1  0.74823207  0.38514748  0.74960114  1
  Pb  Pb197  1  0.74939983  0.71231279  0.75343813  1
  Pb  Pb198  1  0.25007652  0.28696070  0.24727218  1
  Pb  Pb199  1  0.24620706  0.61767598  0.25699083  1
  Pb  Pb200  1  0.25276948  0.94984242  0.24833422  1
  Pb  Pb201  1  0.75147009  0.28745133  0.24954169  1
  Pb  Pb202  1  0.75161632  0.62123729  0.24711742  1
  Pb  Pb203  1  0.74556295  0.95100064  0.25173601  1
  Pb  Pb204  1  -0.00403220  0.21575588  0.75543174  1
  Pb  Pb205  1  0.00069814  0.54669242  0.74874275  1
  Pb  Pb206  1  -0.00166924  0.87864788  0.74433419  1
  Pb  Pb207  1  0.50196201  0.21461005  0.75056797  1
  Pb  Pb208  1  0.49527811  0.54733701  0.74770595  1
  Pb  Pb209  1  0.49920890  0.87990901  0.75766941  1
  Pb  Pb210  1  0.00179500  0.11709456  0.24842795  1
  Pb  Pb211  1  -0.00044862  0.45455213  0.24611904  1
  Pb  Pb212  1  -0.00245744  0.78552535  0.25332361  1
  Pb  Pb213  1  0.50251437  0.12118792  0.25235981  1
  Pb  Pb214  1  0.50198602  0.45391695  0.25715251  1
  Pb  Pb215  1  0.49680214  0.78233042  0.25239523  1
  C  C216  1  -0.00402647  0.04726333  0.63018794  1
  C  C217  1  -0.00064455  0.37992966  0.63261528  1
  C  C218  1  0.00405280  0.71261704  0.63445396  1
  C  C219  1  0.49346274  0.04585399  0.63192280  1
  C  C220  1  0.49886433  0.37923883  0.63516177  1
  C  C221  1  0.50258731  0.71355889  0.63265245  1
  C  C222  1  0.00400759  0.28904316  0.13390299  1
  C  C223  1  -0.00060672  0.62011492  0.12945528  1
  C  C224  1  0.00453420  0.95280285  0.13298101  1
  C  C225  1  0.49785797  0.28913133  0.13214445  1
  C  C226  1  0.50147788  0.62003257  0.12867137  1
  C  C227  1  0.50244771  0.95329581  0.13054520  1
  C  C228  1  -0.00239825  0.04503158  0.86978598  1
  C  C229  1  0.00075725  0.38140997  0.86664335  1
  C  C230  1  -0.00341923  0.71286223  0.87000432  1
  C  C231  1  0.49606833  0.04688540  0.86886087  1
  C  C232  1  0.49865660  0.38092249  0.86754913  1
  C  C233  1  0.49873347  0.71196866  0.86777954  1
  C  C234  1  -0.00237994  0.28661986  0.37026691  1
  C  C235  1  0.00224504  0.61923088  0.37090990  1
  C  C236  1  -0.00156695  0.95312883  0.36724622  1
  C  C237  1  0.49649992  0.28698047  0.36472908  1
  C  C238  1  0.50117465  0.62018462  0.36649323  1
  C  C239  1  0.49567851  0.95401669  0.36826095  1
  C  C240  1  0.25089570  0.21165265  0.63421743  1
  C  C241  1  0.24976922  0.54624231  0.63102087  1
  C  C242  1  0.25281745  0.87946645  0.63162761  1
  C  C243  1  0.75220471  0.21280337  0.63166649  1
  C  C244  1  0.74762802  0.54755555  0.62937009  1
  C  C245  1  0.75465326  0.88056874  0.63199809  1
  C  C246  1  0.25172233  0.11885304  0.13160510  1
  C  C247  1  0.25025151  0.45370847  0.12833509  1
  C  C248  1  0.25199029  0.78605694  0.13069108  1
  C  C249  1  0.75383656  0.11856567  0.12891407  1
  C  C250  1  0.75222519  0.45578348  0.13023205  1
  C  C251  1  0.75276579  0.78623083  0.12803118  1
  C  C252  1  0.24678023  0.21202824  0.86622527  1
  C  C253  1  0.24841779  0.54612354  0.87241022  1
  C  C254  1  0.24579253  0.87829342  0.86928029  1
  C  C255  1  0.75226812  0.21290583  0.86438401  1
  C  C256  1  0.75060189  0.54738922  0.87300692  1
  C  C257  1  0.74698770  0.87995744  0.87089470  1
  C  C258  1  0.25462768  0.12059897  0.36938622  1
  C  C259  1  0.25301614  0.45316379  0.36536851  1
  C  C260  1  0.24542389  0.78727345  0.36880475  1
  C  C261  1  0.75683556  0.12009405  0.36774546  1
  C  C262  1  0.74842898  0.45405400  0.36911377  1
  C  C263  1  0.74699088  0.78763184  0.36547748  1
  C  C264  1  0.44272702  0.93009654  0.45857639  1
  C  C265  1  0.73027405  0.23916737  0.53401503  1
  C  C266  1  0.19125521  0.90901256  0.95751827  1
  C  C267  1  0.52765000  0.58915916  0.03285781  1
  C  C268  1  0.19615865  0.57575422  0.54180898  1
  C  C269  1  0.92996635  0.07452830  0.54579201  1
  C  C270  1  0.21601255  0.24025898  0.54153646  1
  C  C271  1  0.31524579  0.90832553  0.54652846  1
  C  C272  1  0.71169677  0.90643364  0.53931878  1
  C  C273  1  0.46522567  0.07417638  0.96501379  1
  C  C274  1  0.95600591  0.40599671  0.54102970  1
  C  C275  1  0.45138224  0.06982144  0.53800068  1
  C  C276  1  0.79493241  0.57466647  0.53719056  1
  C  C277  1  0.56358704  0.73903374  0.54589107  1
  C  C278  1  0.53299211  0.07027898  0.53695509  1
  C  C279  1  0.71073080  0.57280965  0.96518938  1
  C  C280  1  0.68478223  0.76467365  0.45266667  1
  C  C281  1  0.97887947  0.58941698  0.03456711  1
  C  C282  1  0.95807983  0.26211697  0.04249737  1
  C  C283  1  0.46459439  0.25967261  0.45849706  1
  C  C284  1  0.31118027  0.42954608  0.04171136  1
  C  C285  1  0.44983754  0.40768367  0.95731141  1
  C  C286  1  0.02877724  0.58957976  0.46721864  1
  C  C287  1  0.56795157  0.92788802  0.04531355  1
  C  C288  1  0.52315972  0.92786698  0.46367472  1
  C  C289  1  0.48451902  0.59252655  0.46256794  1
  C  C290  1  0.81100641  0.23724944  0.54358048  1
  C  C291  1  0.29033811  0.23942704  0.95804731  1
  C  C292  1  0.76490288  0.76041311  0.46346210  1
  C  C293  1  0.77628709  0.91164158  0.96588255  1
  C  C294  1  0.27331799  0.42737469  0.46157234  1
  C  C295  1  0.30949753  0.09043963  0.45804849  1
  C  C296  1  0.94122659  0.73831016  0.95786360  1
  C  C297  1  0.93093976  0.06909667  0.95537686  1
  C  C298  1  0.72864839  0.75375568  0.03242823  1
  C  C299  1  0.45846991  0.40258998  0.54064164  1
  C  C300  1  0.97744046  0.73903344  0.53948048  1
  C  C301  1  0.31329290  0.09216470  0.04439086  1
  C  C302  1  0.19024735  0.75519887  0.45651455  1
  C  C303  1  0.54049050  0.40176935  0.54073219  1
  C  C304  1  0.29366684  0.57372599  0.96495451  1
  C  C305  1  0.54678828  0.07318136  0.95944931  1
  C  C306  1  0.81279433  0.42699459  0.45494014  1
  C  C307  1  0.23176245  0.42640314  0.03245263  1
  C  C308  1  0.79105256  0.57308138  0.96495042  1
  C  C309  1  0.02461702  0.25607783  0.46625818  1
  C  C310  1  0.77028080  0.23885896  0.96095280  1
  C  C311  1  0.55622349  0.26117920  0.04524410  1
  N  N312  1  0.44928221  0.59120520  0.04116524  1
  N  N313  1  0.04219619  0.92711899  0.03876065  1
  N  N314  1  0.93467307  0.92970137  0.45342060  1
  N  N315  1  0.95040752  0.59222312  0.45930019  1
  N  N316  1  0.05653119  0.73850611  0.54369212  1
  N  N317  1  0.79187445  0.42986873  0.03952444  1
  N  N318  1  0.79067496  0.09727540  0.03496726  1
  N  N319  1  0.49024157  0.92489246  0.03468175  1
  N  N320  1  0.80190707  0.09531660  0.45782225  1
  N  N321  1  0.05604430  0.59117064  0.04080572  1
  N  N322  1  0.52302711  0.74105063  0.96345870  1
  N  N323  1  0.19485251  0.42860592  0.45438625  1
  N  N324  1  0.44697704  0.73961164  0.95734479  1
  N  N325  1  0.52867079  0.40945352  0.96364004  1
  N  N326  1  0.29421874  0.75960771  0.04088923  1
  N  N327  1  0.71307983  0.08441956  0.04007777  1
  N  N328  1  0.00882815  0.07267842  0.96600728  1
  N  N329  1  0.03833003  0.26401048  0.03904037  1
  N  N330  1  0.72389912  0.09399377  0.46289054  1
  N  N331  1  0.02774538  0.40649503  0.96308378  1
  N  N332  1  0.29544402  0.23909128  0.54139962  1
  N  N333  1  0.79139776  0.90695454  0.53920743  1
  N  N334  1  0.54390975  0.26108617  0.45714898  1
  N  N335  1  0.21617874  0.75897477  0.03637061  1
  N  N336  1  0.69784395  0.90842554  0.95985881  1
  N  N337  1  0.01173704  0.92662048  0.46245428  1
  N  N338  1  0.23083629  0.09074715  0.46338759  1
  N  N339  1  0.23489501  0.08993932  0.03640955  1
  N  N340  1  0.94623018  0.25894574  0.45881091  1
  N  N341  1  0.80668174  0.75762224  0.04085222  1
  N  N342  1  0.26992819  0.90965056  0.96264410  1
  N  N343  1  0.27488342  0.57616382  0.53728756  1
  N  N344  1  0.21428412  0.57430878  0.96528737  1
  N  N345  1  0.73465262  0.42394024  0.46432825  1
  N  N346  1  0.96604693  0.92646130  0.03923974  1
  N  N347  1  0.71379574  0.42987950  0.03620073  1
  N  N348  1  0.95134772  0.40566493  0.95794271  1
  N  N349  1  0.23637070  0.91109504  0.53719717  1
  N  N350  1  0.48483876  0.74107126  0.53718559  1
  N  N351  1  0.03516179  0.40723565  0.53749245  1
  N  N352  1  0.56309426  0.59520714  0.45402433  1
  N  N353  1  0.71562644  0.57544834  0.53594409  1
  N  N354  1  0.26856508  0.75677410  0.46270206  1
  N  N355  1  0.69189174  0.23650976  0.95279862  1
  N  N356  1  0.01779447  0.74247748  0.96726875  1
  N  N357  1  0.21049429  0.24070871  0.95857474  1
  N  N358  1  0.47716826  0.25845819  0.03783074  1
  N  N359  1  0.00774823  0.07754206  0.53488979  1
  N  N360  1  0.04926886  0.05844796  0.58639624  1
  N  N361  1  0.06036538  0.39096720  0.59476780  1
  N  N362  1  0.07126077  0.72210108  0.60290509  1
  N  N363  1  0.55802738  0.05520024  0.59646166  1
  N  N364  1  0.56426082  0.38746118  0.59982283  1
  N  N365  1  0.57468264  0.72170349  0.60517583  1
  N  N366  1  0.44109109  0.27913565  0.09051388  1
  N  N367  1  0.43261760  0.61069337  0.10008525  1
  N  N368  1  0.44903398  0.94261840  0.08681175  1
  N  N369  1  0.93724176  0.27526984  0.10112111  1
  N  N370  1  0.94172630  0.60690539  0.08747699  1
  N  N371  1  0.94110493  0.94228239  0.09747621  1
  N  N372  1  0.43483007  0.05776374  0.90717267  1
  N  N373  1  0.43014052  0.39064688  0.89853939  1
  N  N374  1  0.43067123  0.72218407  0.89769206  1
  N  N375  1  0.92415028  0.05347537  0.89528391  1
  N  N376  1  0.93349446  0.38970237  0.89825751  1
  N  N377  1  0.92553049  0.72071862  0.89846631  1
  N  N378  1  0.05685551  0.27321873  0.41127551  1
  N  N379  1  0.06123903  0.60634203  0.41249431  1
  N  N380  1  0.05205845  0.94166569  0.41076531  1
  N  N381  1  0.56180066  0.27773925  0.39846143  1
  N  N382  1  0.57135653  0.61218410  0.39399503  1
  N  N383  1  0.55562780  0.94235797  0.40858605  1
  N  N384  1  0.31529076  0.22132332  0.59950339  1
  N  N385  1  0.30917614  0.55647656  0.59161498  1
  N  N386  1  0.32504368  0.89024202  0.60569144  1
  N  N387  1  0.82364560  0.22183227  0.60301415  1
  N  N388  1  0.81467474  0.55779816  0.59527096  1
  N  N389  1  0.81774423  0.89031512  0.59610289  1
  N  N390  1  0.19597230  0.10697484  0.08985814  1
  N  N391  1  0.19396474  0.44103056  0.08513991  1
  N  N392  1  0.19028871  0.77526888  0.09280325  1
  N  N393  1  0.68941535  0.10684660  0.09506107  1
  N  N394  1  0.68956394  0.44539400  0.09325120  1
  N  N395  1  0.69472743  0.77164063  0.08631303  1
  N  N396  1  0.18381632  0.22017411  0.90264697  1
  N  N397  1  0.18597682  0.55636099  0.90843717  1
  N  N398  1  0.17604045  0.89023795  0.89971820  1
  N  N399  1  0.68234140  0.22052297  0.89246793  1
  N  N400  1  0.68522207  0.55739199  0.90903225  1
  N  N401  1  0.67914811  0.88783244  0.90145930  1
  N  N402  1  0.32439256  0.10817627  0.39956742  1
  N  N403  1  0.31097196  0.44211811  0.40716922  1
  N  N404  1  0.30380087  0.77812799  0.40926804  1
  N  N405  1  0.82312492  0.11163983  0.40031713  1
  N  N406  1  0.82117736  0.44450484  0.39561108  1
  N  N407  1  0.80286595  0.77504039  0.40772784  1
  N  N408  1  0.43392437  0.27525859  0.40211535  1
  N  N409  1  0.44514082  0.60797687  0.40936262  1
  N  N410  1  0.42629455  0.94561520  0.39947274  1
  N  N411  1  0.92932032  0.27717819  0.39966458  1
  N  N412  1  0.93354559  0.61098580  0.40019047  1
  N  N413  1  0.92707019  0.94544708  0.39390060  1
  N  N414  1  0.05069354  0.05622262  0.91365724  1
  N  N415  1  0.05959575  0.39203284  0.90658387  1
  N  N416  1  0.05241062  0.72602641  0.91124794  1
  N  N417  1  0.56465885  0.05671263  0.90128325  1
  N  N418  1  0.55755544  0.39272619  0.90699758  1
  N  N419  1  0.55643743  0.72358549  0.90841527  1
  N  N420  1  0.06578467  0.28484719  0.09574419  1
  N  N421  1  0.06871706  0.61066158  0.10150115  1
  N  N422  1  0.06776569  0.94356228  0.09682753  1
  N  N423  1  0.56902920  0.27854586  0.10421541  1
  N  N424  1  0.56032496  0.60713892  0.08698941  1
  N  N425  1  0.57582881  0.94443981  0.10505944  1
  N  N426  1  0.42790570  0.05527124  0.59558108  1
  N  N427  1  0.43389266  0.38877220  0.59971083  1
  N  N428  1  0.44710098  0.72602161  0.59078180  1
  N  N429  1  0.92251511  0.05693926  0.60524583  1
  N  N430  1  0.93265568  0.38957290  0.59936732  1
  N  N431  1  0.94360858  0.72375201  0.59494182  1
  N  N432  1  0.19586452  0.11101089  0.40949761  1
  N  N433  1  0.18395117  0.44459281  0.39469157  1
  N  N434  1  0.17553009  0.77391103  0.39843534  1
  N  N435  1  0.69646659  0.10893317  0.40667812  1
  N  N436  1  0.69390635  0.44325555  0.41218356  1
  N  N437  1  0.67410637  0.78091259  0.39336770  1
  N  N438  1  0.31294503  0.22331652  0.90044203  1
  N  N439  1  0.31478170  0.55697767  0.90707490  1
  N  N440  1  0.30468970  0.88913952  0.90885886  1
  N  N441  1  0.80885166  0.22446244  0.90706212  1
  N  N442  1  0.81615593  0.55800338  0.90858133  1
  N  N443  1  0.80707765  0.89401256  0.91099750  1
  N  N444  1  0.32375532  0.10957067  0.10351417  1
  N  N445  1  0.32249248  0.44592886  0.10111748  1
  N  N446  1  0.31774356  0.77590615  0.09791079  1
  N  N447  1  0.81673220  0.10885654  0.09268642  1
  N  N448  1  0.81690685  0.44639910  0.09600395  1
  N  N449  1  0.82203557  0.77814618  0.09962488  1
  N  N450  1  0.18731554  0.22386165  0.59822528  1
  N  N451  1  0.18046339  0.55777084  0.59995626  1
  N  N452  1  0.19789053  0.89041453  0.58877376  1
  N  N453  1  0.69458228  0.22358131  0.59032308  1
  N  N454  1  0.68590037  0.55830781  0.59266842  1
  N  N455  1  0.68872750  0.89051108  0.59703612  1
  Cl  Cl456  1  0.23392531  0.05979678  0.60736955  1
  Cl  Cl457  1  0.24858137  0.39039166  0.61382793  1
  Cl  Cl458  1  0.26321212  0.72284044  0.60532575  1
  Cl  Cl459  1  0.74234571  0.05146195  0.62120970  1
  Cl  Cl460  1  0.74686173  0.39335046  0.61150380  1
  Cl  Cl461  1  0.76005196  0.71800584  0.61885412  1
  Cl  Cl462  1  0.25178121  0.27075509  0.10403245  1
  Cl  Cl463  1  0.25093728  0.61085327  0.12139257  1
  Cl  Cl464  1  0.26309829  0.94160372  0.10479068  1
  Cl  Cl465  1  0.75520880  0.27826816  0.11475080  1
  Cl  Cl466  1  0.75043072  0.61551513  0.11511288  1
  Cl  Cl467  1  0.75696620  0.94583879  0.11708551  1
  Cl  Cl468  1  0.23648047  0.05629866  0.89662885  1
  Cl  Cl469  1  0.24424184  0.38575476  0.88114723  1
  Cl  Cl470  1  0.24529459  0.72031217  0.88202567  1
  Cl  Cl471  1  0.74555496  0.05166955  0.88817526  1
  Cl  Cl472  1  0.74924708  0.38984952  0.88285329  1
  Cl  Cl473  1  0.74187156  0.72251292  0.88852147  1
  Cl  Cl474  1  0.24468693  0.27681689  0.37956451  1
  Cl  Cl475  1  0.25695214  0.61026517  0.39618517  1
  Cl  Cl476  1  0.23403862  0.94154388  0.39269997  1
  Cl  Cl477  1  0.74653186  0.28321862  0.38307507  1
  Cl  Cl478  1  0.75287808  0.61067082  0.38341904  1
  Cl  Cl479  1  0.74238374  0.94473153  0.38738461  1
  Cl  Cl480  1  0.00476509  0.21689166  0.62284680  1
  Cl  Cl481  1  -0.00376524  0.55616967  0.61396244  1
  Cl  Cl482  1  0.01052706  0.89493021  0.60084996  1
  Cl  Cl483  1  0.50222082  0.21940448  0.61871588  1
  Cl  Cl484  1  0.49558960  0.55784806  0.61102831  1
  Cl  Cl485  1  0.50672103  0.88267307  0.62717795  1
  Cl  Cl486  1  0.00701013  0.10967927  0.10374108  1
  Cl  Cl487  1  0.00145368  0.44800315  0.11489088  1
  Cl  Cl488  1  0.00498040  0.77793594  0.12264715  1
  Cl  Cl489  1  0.50725735  0.11279650  0.11837656  1
  Cl  Cl490  1  0.50733737  0.45109030  0.12530257  1
  Cl  Cl491  1  0.50312545  0.78301835  0.12091464  1
  Cl  Cl492  1  -0.00150139  0.22547635  0.89571768  1
  Cl  Cl493  1  0.00299575  0.55492438  0.88022857  1
  Cl  Cl494  1  -0.00878558  0.88513947  0.87331570  1
  Cl  Cl495  1  0.49429033  0.22519685  0.88915629  1
  Cl  Cl496  1  0.49695642  0.55593665  0.88046154  1
  Cl  Cl497  1  0.48943932  0.89522759  0.89703778  1
  Cl  Cl498  1  0.01054380  0.10986093  0.39469184  1
  Cl  Cl499  1  0.00081605  0.45101241  0.37861799  1
  Cl  Cl500  1  -0.01029576  0.77831439  0.38919245  1
  Cl  Cl501  1  0.51122572  0.11033010  0.38499969  1
  Cl  Cl502  1  0.50307561  0.44193465  0.39310232  1
  Cl  Cl503  1  0.48587944  0.77657800  0.39348482  1
  Cl  Cl504  1  0.35693710  0.14293842  0.75022776  1
  Cl  Cl505  1  0.36028028  0.48025123  0.75058304  1
  Cl  Cl506  1  0.36352769  0.81246624  0.74812128  1
  Cl  Cl507  1  0.86108026  0.14490723  0.74712913  1
  Cl  Cl508  1  0.85952358  0.47832349  0.74910805  1
  Cl  Cl509  1  0.85727545  0.81552524  0.74787754  1
  Cl  Cl510  1  0.13923346  0.18592266  0.24664365  1
  Cl  Cl511  1  0.14207317  0.52209524  0.25277949  1
  Cl  Cl512  1  0.14249517  0.85588908  0.25082576  1
  Cl  Cl513  1  0.64347960  0.18500354  0.24933024  1
  Cl  Cl514  1  0.64035952  0.52051080  0.25361046  1
  Cl  Cl515  1  0.64142083  0.85519554  0.24919761  1
  Cl  Cl516  1  0.13990219  0.14411767  0.75461948  1
  Cl  Cl517  1  0.13740690  0.48005307  0.74617290  1
  Cl  Cl518  1  0.14013019  0.81517191  0.74612256  1
  Cl  Cl519  1  0.63621770  0.14599842  0.75699618  1
  Cl  Cl520  1  0.64035628  0.47758312  0.74944507  1
  Cl  Cl521  1  0.63757743  0.81325772  0.75242913  1
  Cl  Cl522  1  0.36247469  0.18637960  0.24760331  1
  Cl  Cl523  1  0.36315839  0.51987469  0.24650928  1
  Cl  Cl524  1  0.35706507  0.85668821  0.25192801  1
  Cl  Cl525  1  0.86410492  0.18700770  0.24956078  1
  Cl  Cl526  1  0.86146025  0.51959063  0.25398214  1
  Cl  Cl527  1  0.86244147  0.85326197  0.24943429  1
  Cl  Cl528  1  0.11085307  0.31089087  0.75100489  1
  Cl  Cl529  1  0.11331247  0.64699357  0.74444748  1
  Cl  Cl530  1  0.10785489  0.98082129  0.74833441  1
  Cl  Cl531  1  0.60661740  0.31107041  0.75396271  1
  Cl  Cl532  1  0.61231740  0.64607350  0.74333812  1
  Cl  Cl533  1  0.60996613  0.98008586  0.75668244  1
  Cl  Cl534  1  0.38841935  0.02089005  0.25063692  1
  Cl  Cl535  1  0.38981208  0.35309190  0.24822353  1
  Cl  Cl536  1  0.39365511  0.68798694  0.24589966  1
  Cl  Cl537  1  0.89111431  0.02369062  0.25554884  1
  Cl  Cl538  1  0.89022432  0.35351218  0.25324520  1
  Cl  Cl539  1  0.89048169  0.68646902  0.25339802  1
  Cl  Cl540  1  0.38437447  0.31173615  0.75137727  1
  Cl  Cl541  1  0.38826694  0.64617442  0.74957392  1
  Cl  Cl542  1  0.38572991  0.97883680  0.74891812  1
  Cl  Cl543  1  0.88954756  0.30949399  0.74963038  1
  Cl  Cl544  1  0.88924093  0.64737352  0.75306666  1
  Cl  Cl545  1  0.88548193  0.97948742  0.74558561  1
  Cl  Cl546  1  0.10833823  0.02196730  0.25080430  1
  Cl  Cl547  1  0.11144275  0.35339521  0.25119490  1
  Cl  Cl548  1  0.11300950  0.68670874  0.25107724  1
  Cl  Cl549  1  0.61313754  0.01993855  0.24449363  1
  Cl  Cl550  1  0.61182520  0.35185530  0.24928828  1
  Cl  Cl551  1  0.61212111  0.68966406  0.25675351  1
