# generated using pymatgen
data_H8PbC4(N3Cl2)2
_symmetry_space_group_name_H-M   'P 1'
_cell_length_a   16.62791680
_cell_length_b   22.51239856
_cell_length_c   21.59398548
_cell_angle_alpha   89.99983134
_cell_angle_beta   89.98605725
_cell_angle_gamma   90.00289942
_symmetry_Int_Tables_number   1
_chemical_formula_structural   H8PbC4(N3Cl2)2
_chemical_formula_sum   'H192 Pb24 C96 N144 Cl96'
_cell_volume   8083.36897733
_cell_formula_units_Z   24
loop_
 _symmetry_equiv_pos_site_id
 _symmetry_equiv_pos_as_xyz
  1  'x, y, z'
loop_
 _atom_site_type_symbol
 _atom_site_label
 _atom_site_symmetry_multiplicity
 _atom_site_fract_x
 _atom_site_fract_y
 _atom_site_fract_z
 _atom_site_occupancy
  H  H0  1  0.00264771  0.03290326  0.68040202  1
  H  H1  1  -0.00693285  0.36121443  0.67812151  1
  H  H2  1  -0.00511246  0.69967843  0.67857896  1
  H  H3  1  0.49912639  0.02983420  0.67767958  1
  H  H4  1  0.50123031  0.36181616  0.67696672  1
  H  H5  1  0.49961332  0.69496072  0.67893238  1
  H  H6  1  -0.00050891  0.30821248  0.17653329  1
  H  H7  1  -0.00152129  0.63525030  0.18030372  1
  H  H8  1  -0.00858119  0.97051216  0.17849843  1
  H  H9  1  0.50588628  0.30217789  0.18283363  1
  H  H10  1  0.51005553  0.64001119  0.17475730  1
  H  H11  1  0.49933516  0.96565881  0.18240706  1
  H  H12  1  -0.00327454  0.03116558  0.81716510  1
  H  H13  1  0.00270571  0.36294155  0.82259359  1
  H  H14  1  0.00707761  0.69389259  0.81981907  1
  H  H15  1  0.49610340  0.03176943  0.81755125  1
  H  H16  1  0.50016174  0.36535039  0.82565089  1
  H  H17  1  0.49624448  0.69774171  0.81975038  1
  H  H18  1  0.00443271  0.30307555  0.32200457  1
  H  H19  1  0.00803634  0.63606175  0.32309218  1
  H  H20  1  -0.01351391  0.96765011  0.31736280  1
  H  H21  1  0.48714379  0.30045905  0.32398568  1
  H  H22  1  0.48879398  0.63576959  0.32281488  1
  H  H23  1  0.51479376  0.97134290  0.32161451  1
  H  H24  1  0.25939344  0.19700602  0.67877458  1
  H  H25  1  0.24867496  0.53031765  0.67565307  1
  H  H26  1  0.24951043  0.86201776  0.67433091  1
  H  H27  1  0.74569767  0.19569321  0.67797205  1
  H  H28  1  0.75279928  0.53013700  0.67961982  1
  H  H29  1  0.75200840  0.86525444  0.68372644  1
  H  H30  1  0.25066662  0.13419706  0.18493113  1
  H  H31  1  0.25390978  0.47265423  0.17539095  1
  H  H32  1  0.24513626  0.80094691  0.18250731  1
  H  H33  1  0.74933977  0.13199698  0.18224158  1
  H  H34  1  0.75139678  0.46941163  0.17835178  1
  H  H35  1  0.74605341  0.80477604  0.18083101  1
  H  H36  1  0.25326638  0.19810571  0.81939211  1
  H  H37  1  0.25395312  0.52647218  0.82383621  1
  H  H38  1  0.25423502  0.86629042  0.81938434  1
  H  H39  1  0.74104319  0.20858925  0.81887270  1
  H  H40  1  0.74234099  0.52754998  0.82232948  1
  H  H41  1  0.74587091  0.85961644  0.82444591  1
  H  H42  1  0.25071522  0.13674092  0.32088758  1
  H  H43  1  0.24371727  0.46985253  0.32282306  1
  H  H44  1  0.25426427  0.80296140  0.32325801  1
  H  H45  1  0.75484080  0.13965432  0.32320939  1
  H  H46  1  0.74249027  0.47241093  0.32035230  1
  H  H47  1  0.75153231  0.80145005  0.31830300  1
  H  H48  1  0.11694490  0.05490222  0.60321813  1
  H  H49  1  0.11577223  0.38736764  0.60667509  1
  H  H50  1  0.13467695  0.71685836  0.62271993  1
  H  H51  1  0.62197218  0.05717888  0.60784817  1
  H  H52  1  0.61327890  0.38921590  0.59648672  1
  H  H53  1  0.63137560  0.71805172  0.61563303  1
  H  H54  1  0.37025207  0.28564142  0.12440320  1
  H  H55  1  0.36786650  0.61654823  0.12638722  1
  H  H56  1  0.38443939  0.94243039  0.10428392  1
  H  H57  1  0.87412932  0.28157812  0.10802606  1
  H  H58  1  0.87009656  0.61147701  0.11397934  1
  H  H59  1  0.88478278  0.93933309  0.09464594  1
  H  H60  1  0.37660064  0.05974631  0.89002660  1
  H  H61  1  0.37479759  0.38739794  0.89248385  1
  H  H62  1  0.37444665  0.72275347  0.89449788  1
  H  H63  1  0.87532747  0.05546288  0.88892712  1
  H  H64  1  0.87493560  0.38683628  0.89009846  1
  H  H65  1  0.87208154  0.71684539  0.87679854  1
  H  H66  1  0.11234246  0.27595644  0.40549060  1
  H  H67  1  0.10822073  0.60489877  0.40970738  1
  H  H68  1  0.12428822  0.94916803  0.37188033  1
  H  H69  1  0.62015703  0.28220107  0.38256711  1
  H  H70  1  0.61431039  0.61335309  0.38901260  1
  H  H71  1  0.61804677  0.94459375  0.40656586  1
  H  H72  1  0.38260908  0.21816374  0.60648980  1
  H  H73  1  0.38554312  0.55338500  0.62010127  1
  H  H74  1  0.37561231  0.88721360  0.60657024  1
  H  H75  1  0.88239694  0.21516201  0.62008791  1
  H  H76  1  0.88233642  0.55420606  0.61301546  1
  H  H77  1  0.87496669  0.88752664  0.61306129  1
  H  H78  1  0.12593851  0.11820081  0.11425292  1
  H  H79  1  0.12683580  0.44595041  0.10835620  1
  H  H80  1  0.13214348  0.77554821  0.10276205  1
  H  H81  1  0.62580793  0.11249305  0.10998177  1
  H  H82  1  0.62662241  0.44567113  0.10617821  1
  H  H83  1  0.62833085  0.77834184  0.10407657  1
  H  H84  1  0.12755890  0.22235972  0.88785375  1
  H  H85  1  0.13379783  0.55420137  0.89694325  1
  H  H86  1  0.11649994  0.88470464  0.87400014  1
  H  H87  1  0.63271703  0.22472801  0.90363636  1
  H  H88  1  0.63793100  0.55738048  0.90712359  1
  H  H89  1  0.61265337  0.88656648  0.88255468  1
  H  H90  1  0.38281630  0.11896788  0.38480976  1
  H  H91  1  0.38081291  0.44910939  0.38104643  1
  H  H92  1  0.36465436  0.77427479  0.40423805  1
  H  H93  1  0.87812286  0.11193727  0.39345701  1
  H  H94  1  0.87705386  0.44850365  0.38102747  1
  H  H95  1  0.86332062  0.77638789  0.39710921  1
  H  H96  1  0.37328200  0.27716376  0.40101389  1
  H  H97  1  0.36547636  0.61332508  0.39456763  1
  H  H98  1  0.37341601  0.95186499  0.37471679  1
  H  H99  1  0.86700856  0.28021453  0.37845811  1
  H  H100  1  0.86503082  0.61586697  0.37046108  1
  H  H101  1  0.87782681  0.94662694  0.40018294  1
  H  H102  1  0.12440063  0.05416067  0.88595688  1
  H  H103  1  0.12401345  0.38975598  0.89420401  1
  H  H104  1  0.11951367  0.72286505  0.89975917  1
  H  H105  1  0.62370683  0.04789352  0.88773641  1
  H  H106  1  0.62354642  0.38762831  0.89393232  1
  H  H107  1  0.62291368  0.71962797  0.89032498  1
  H  H108  1  0.12193237  0.28110641  0.10482645  1
  H  H109  1  0.11851833  0.60903844  0.10589791  1
  H  H110  1  0.13001964  0.95019892  0.12237510  1
  H  H111  1  0.61787061  0.28071830  0.10241087  1
  H  H112  1  0.61003346  0.60703516  0.08798688  1
  H  H113  1  0.63284209  0.94631393  0.11778773  1
  H  H114  1  0.37306155  0.05473731  0.60855505  1
  H  H115  1  0.36632285  0.38212186  0.61751856  1
  H  H116  1  0.38309856  0.72106881  0.60163947  1
  H  H117  1  0.86834954  0.05325335  0.62011844  1
  H  H118  1  0.86754891  0.38719890  0.60800364  1
  H  H119  1  0.88791163  0.72468479  0.59569459  1
  H  H120  1  0.13379094  0.11231460  0.39474830  1
  H  H121  1  0.13283284  0.44260605  0.40285017  1
  H  H122  1  0.11776559  0.78166521  0.38060236  1
  H  H123  1  0.62900809  0.11630724  0.39250903  1
  H  H124  1  0.62900201  0.44407826  0.39818612  1
  H  H125  1  0.61575268  0.78227579  0.37573871  1
  H  H126  1  0.37618480  0.22263671  0.89207747  1
  H  H127  1  0.38195995  0.55233077  0.89154227  1
  H  H128  1  0.36269571  0.88965089  0.90134000  1
  H  H129  1  0.87865701  0.21987080  0.87832567  1
  H  H130  1  0.88266994  0.54759632  0.87397980  1
  H  H131  1  0.85988262  0.88968697  0.90166871  1
  H  H132  1  0.37484151  0.11176703  0.11556090  1
  H  H133  1  0.37583861  0.44447666  0.10443441  1
  H  H134  1  0.38010162  0.78141550  0.12003244  1
  H  H135  1  0.87407831  0.11110343  0.11142200  1
  H  H136  1  0.87569144  0.44412358  0.10626915  1
  H  H137  1  0.87650209  0.77927214  0.11390955  1
  H  H138  1  0.13315841  0.21827275  0.61234829  1
  H  H139  1  0.13909202  0.55897961  0.59448789  1
  H  H140  1  0.12689676  0.88929120  0.60474054  1
  H  H141  1  0.63405772  0.22118236  0.59972428  1
  H  H142  1  0.63473138  0.55526421  0.60392762  1
  H  H143  1  0.62535111  0.88645622  0.61658456  1
  H  H144  1  0.82681934  0.91372828  0.50109619  1
  H  H145  1  0.05641578  0.08335937  0.49370139  1
  H  H146  1  0.33055415  0.91784798  0.50128609  1
  H  H147  1  0.69511955  0.24958370  0.49277057  1
  H  H148  1  0.71475898  0.58277758  1.00623319  1
  H  H149  1  0.52748825  0.57973546  -0.00809293  1
  H  H150  1  0.32943256  0.08300303  0.00454268  1
  H  H151  1  0.39441996  0.26075255  0.01024937  1
  H  H152  1  0.10654429  0.92410411  0.48648206  1
  H  H153  1  0.17426003  0.24732473  0.49954975  1
  H  H154  1  0.70963396  0.26460836  0.99704710  1
  H  H155  1  0.19005572  0.08452764  0.50570537  1
  H  H156  1  0.82043401  0.11363487  0.00388089  1
  H  H157  1  0.79988386  0.75021334  0.50522124  1
  H  H158  1  0.79393083  0.91595251  1.00487851  1
  H  H159  1  0.06811363  0.25453834  0.00040623  1
  H  H160  1  0.67959532  0.07907130  0.00905752  1
  H  H161  1  0.84299987  0.58039801  0.50553046  1
  H  H162  1  0.07599912  0.05623214  0.99552455  1
  H  H163  1  0.88995116  0.24990268  0.48809613  1
  H  H164  1  0.66697692  0.91382390  0.50401815  1
  H  H165  1  0.95844864  0.75373265  0.49106004  1
  H  H166  1  0.89799087  0.74871928  0.98884307  1
  H  H167  1  0.91619104  0.41378672  0.50359231  1
  H  H168  1  0.92598063  0.07020895  1.00210328  1
  H  H169  1  0.96183625  0.91604762  -0.00567811  1
  H  H170  1  0.55542394  0.25758534  -0.00572963  1
  H  H171  1  0.02767805  0.58014684  0.50783528  1
  H  H172  1  0.44785398  0.91378463  -0.00274833  1
  H  H173  1  0.69326419  0.41103772  0.50235624  1
  H  H174  1  0.85201653  0.24827155  0.98583350  1
  H  H175  1  0.19902240  0.40950978  0.50721086  1
  H  H176  1  0.94600232  0.92480610  0.50786123  1
  H  H177  1  0.54062971  0.91641091  0.50927230  1
  H  H178  1  0.56131687  0.03321627  0.99317842  1
  H  H179  1  0.20993070  0.58671697  0.49358763  1
  H  H180  1  0.33786796  0.58055444  0.99634768  1
  H  H181  1  0.17259456  0.10738828  -0.00106875  1
  H  H182  1  0.90975788  0.58190125  0.00383475  1
  H  H183  1  0.29522540  0.91393987  1.00861438  1
  H  H184  1  0.57232384  0.58250517  0.50137047  1
  H  H185  1  0.35653818  0.41714649  0.48877760  1
  H  H186  1  0.44738155  0.11141897  0.97801005  1
  H  H187  1  0.63757078  0.75349326  0.48901033  1
  H  H188  1  0.05187308  0.74235902  1.00293114  1
  H  H189  1  0.13551894  0.90936534  -0.01146690  1
  H  H190  1  0.11437405  0.74665190  0.51272289  1
  H  H191  1  0.19809405  0.74938739  -0.00329126  1
  Pb  Pb192  1  0.25475548  0.04846594  0.75067128  1
  Pb  Pb193  1  0.25022955  0.37922098  0.74801339  1
  Pb  Pb194  1  0.25225542  0.71358443  0.75515444  1
  Pb  Pb195  1  0.74889071  0.04622670  0.75961497  1
  Pb  Pb196  1  0.75139761  0.37997313  0.74576105  1
  Pb  Pb197  1  0.75141041  0.71210295  0.74591656  1
  Pb  Pb198  1  0.24256005  0.28396127  0.25582385  1
  Pb  Pb199  1  0.24644442  0.61975207  0.25855792  1
  Pb  Pb200  1  0.25134772  0.95299348  0.24943058  1
  Pb  Pb201  1  0.74909260  0.28792117  0.23948750  1
  Pb  Pb202  1  0.74091075  0.61682317  0.24094438  1
  Pb  Pb203  1  0.74647508  0.95067279  0.25316676  1
  Pb  Pb204  1  0.00257725  0.21314649  0.75358603  1
  Pb  Pb205  1  0.00512778  0.54618678  0.74489327  1
  Pb  Pb206  1  -0.00034804  0.88150899  0.75184897  1
  Pb  Pb207  1  0.50541201  0.21541789  0.75467890  1
  Pb  Pb208  1  0.50359259  0.54539733  0.75476811  1
  Pb  Pb209  1  0.49812861  0.87846698  0.75215893  1
  Pb  Pb210  1  -0.00343341  0.11718424  0.24771448  1
  Pb  Pb211  1  -0.00026686  0.45441562  0.25377170  1
  Pb  Pb212  1  -0.00369315  0.78300269  0.24731046  1
  Pb  Pb213  1  0.50096719  0.12073810  0.24214018  1
  Pb  Pb214  1  0.49503092  0.44952511  0.24960973  1
  Pb  Pb215  1  0.49484658  0.78612248  0.25291184  1
  C  C216  1  -0.00384122  0.04695605  0.63267934  1
  C  C217  1  -0.00823496  0.37812459  0.63108984  1
  C  C218  1  0.00663491  0.71425782  0.63134589  1
  C  C219  1  0.49783132  0.04685778  0.63090231  1
  C  C220  1  0.49375701  0.37713771  0.62979679  1
  C  C221  1  0.50456238  0.71138221  0.63204087  1
  C  C222  1  -0.00129041  0.29054516  0.12980228  1
  C  C223  1  -0.00445379  0.61931326  0.13300990  1
  C  C224  1  0.00189434  0.95414506  0.13196297  1
  C  C225  1  0.49769103  0.28909331  0.13480105  1
  C  C226  1  0.49609975  0.62267802  0.12911892  1
  C  C227  1  0.50604847  0.95177445  0.13459505  1
  C  C228  1  -0.00033628  0.04616100  0.86493454  1
  C  C229  1  0.00033204  0.37984438  0.86937796  1
  C  C230  1  -0.00006843  0.71044754  0.86682377  1
  C  C231  1  0.49924632  0.04603891  0.86545938  1
  C  C232  1  0.49940748  0.38084666  0.87330461  1
  C  C233  1  0.49771853  0.71333636  0.86725386  1
  C  C234  1  -0.00582274  0.28708769  0.36871767  1
  C  C235  1  -0.00606413  0.62022478  0.36937579  1
  C  C236  1  -0.00333263  0.95432117  0.36513433  1
  C  C237  1  0.49384529  0.28664896  0.37165082  1
  C  C238  1  0.48983667  0.62104552  0.37054320  1
  C  C239  1  0.50171713  0.95609381  0.36825332  1
  C  C240  1  0.25782734  0.21122338  0.63090470  1
  C  C241  1  0.25770657  0.54635291  0.62884858  1
  C  C242  1  0.25111733  0.87871477  0.62727337  1
  C  C243  1  0.75375235  0.21072679  0.63069744  1
  C  C244  1  0.75726573  0.54583911  0.63223413  1
  C  C245  1  0.75073076  0.88010520  0.63583506  1
  C  C246  1  0.25035048  0.12150922  0.13637584  1
  C  C247  1  0.25199580  0.45491371  0.12894330  1
  C  C248  1  0.25264289  0.78634082  0.13499636  1
  C  C249  1  0.74983437  0.11860155  0.13379303  1
  C  C250  1  0.75127275  0.45351765  0.13089262  1
  C  C251  1  0.75057714  0.78814066  0.13375238  1
  C  C252  1  0.25263202  0.21433165  0.86643242  1
  C  C253  1  0.25715655  0.54355993  0.87070078  1
  C  C254  1  0.24389604  0.87960467  0.86711318  1
  C  C255  1  0.75107052  0.21912685  0.86737801  1
  C  C256  1  0.75411923  0.54296625  0.86903162  1
  C  C257  1  0.73962992  0.87689195  0.87096638  1
  C  C258  1  0.25550756  0.12244107  0.36860191  1
  C  C259  1  0.25311618  0.45409589  0.36994786  1
  C  C260  1  0.24557919  0.78667408  0.36992989  1
  C  C261  1  0.75392092  0.12276798  0.37004339  1
  C  C262  1  0.74978592  0.45540135  0.36704089  1
  C  C263  1  0.74310709  0.78698945  0.36586342  1
  C  C264  1  0.68615675  0.76280335  0.45509074  1
  C  C265  1  0.54678753  0.26197791  0.46056458  1
  C  C266  1  0.52267336  0.26675318  0.03682000  1
  C  C267  1  0.46618576  0.26005367  0.46659742  1
  C  C268  1  0.92551798  0.59301222  0.45251327  1
  C  C269  1  0.28621385  0.42094469  0.03805983  1
  C  C270  1  0.44939204  0.59450640  0.46456805  1
  C  C271  1  0.51435470  0.92780387  0.46464390  1
  C  C272  1  0.73021518  0.23836415  0.53379858  1
  C  C273  1  0.94347397  0.73940997  0.95393445  1
  C  C274  1  0.05704352  0.93248122  0.45372462  1
  C  C275  1  0.45782118  0.40973045  0.96406098  1
  C  C276  1  0.53139900  0.59375781  0.46394065  1
  C  C277  1  0.31763449  0.57758151  0.54228328  1
  C  C278  1  0.29125258  0.09850282  0.04193497  1
  C  C279  1  0.21114736  0.91018806  0.53462521  1
  C  C280  1  0.18376006  0.90104725  0.95557079  1
  C  C281  1  0.44178099  0.40366614  0.54101515  1
  C  C282  1  0.29687663  0.23623742  0.53668817  1
  C  C283  1  0.81116295  0.23564991  0.54219654  1
  C  C284  1  0.22977124  0.75993761  0.03944139  1
  C  C285  1  0.02276978  0.07301433  0.53555534  1
  C  C286  1  0.96142004  0.06794219  0.95977405  1
  C  C287  1  0.68472100  0.90969584  0.95829626  1
  C  C288  1  0.21530844  0.23696936  0.53719550  1
  C  C289  1  0.22961601  0.42287961  0.46484818  1
  C  C290  1  0.48030609  0.92709208  0.03884800  1
  C  C291  1  0.98710645  0.74187749  0.53472458  1
  C  C292  1  0.81895259  0.57116131  0.95362789  1
  C  C293  1  0.53858348  0.40983741  0.96466858  1
  C  C294  1  0.55150758  0.73937842  0.54210583  1
  C  C295  1  0.70731005  0.90418068  0.54236417  1
  C  C296  1  0.03391558  0.41264749  0.96076791  1
  C  C297  1  0.78913816  0.90439132  0.54107400  1
  C  C298  1  0.44118255  0.26842413  0.04460124  1
  C  C299  1  0.76769557  0.76100466  0.46284481  1
  C  C300  1  0.78960049  0.09162612  0.46185563  1
  C  C301  1  0.30606847  0.09867571  0.45937167  1
  C  C302  1  0.95304910  0.59221127  0.04150788  1
  C  C303  1  0.22507412  0.09565323  0.46474687  1
  C  C304  1  0.94189121  0.07193899  0.54319406  1
  C  C305  1  0.53348907  0.07892253  0.53956108  1
  C  C306  1  0.97610428  0.93196411  0.46388013  1
  C  C307  1  0.21230032  0.24368160  0.95833685  1
  C  C308  1  0.19213962  0.75954149  0.45786138  1
  C  C309  1  0.72595425  0.42420060  0.46083669  1
  C  C310  1  0.20961755  0.10500462  0.04032065  1
  C  C311  1  0.26470484  0.90329494  0.96541208  1
  N  N312  1  0.04161510  0.06827173  0.95821064  1
  N  N313  1  0.23899277  0.57865490  0.53506379  1
  N  N314  1  0.20882513  0.42150144  0.03780113  1
  N  N315  1  0.03251886  0.40641990  0.53819648  1
  N  N316  1  0.29810744  0.57325099  0.95997288  1
  N  N317  1  0.51877219  0.40678472  0.53311971  1
  N  N318  1  0.45628761  0.07853242  0.53863525  1
  N  N319  1  0.80877607  0.23048871  0.95662214  1
  N  N320  1  0.53883813  0.74022761  0.96005570  1
  N  N321  1  0.98626567  0.92356832  0.03814653  1
  N  N322  1  0.74113141  0.57426970  0.96370823  1
  N  N323  1  0.95424520  0.40647307  0.54047429  1
  N  N324  1  0.28999144  0.24380848  0.96064104  1
  N  N325  1  0.01631009  0.25792644  0.46464622  1
  N  N326  1  0.46254937  0.74078347  0.96138069  1
  N  N327  1  0.79066921  0.09573765  0.04109126  1
  N  N328  1  0.95641536  0.41190165  0.96072626  1
  N  N329  1  0.71960966  0.75859507  0.03936560  1
  N  N330  1  0.00298094  0.58937876  0.46456131  1
  N  N331  1  0.93908776  0.25925437  0.45448360  1
  N  N332  1  0.02271338  0.74144433  0.96095042  1
  N  N333  1  0.47446434  0.74096675  0.53622039  1
  N  N334  1  0.79571452  0.75955498  0.04249060  1
  N  N335  1  0.30857871  0.76168461  0.04507364  1
  N  N336  1  0.71239650  0.09296415  0.46290288  1
  N  N337  1  0.80502044  0.42540705  0.45546876  1
  N  N338  1  0.50513226  0.58814983  0.03633014  1
  N  N339  1  0.80062103  0.57257882  0.54232995  1
  N  N340  1  0.03260183  0.25945895  0.03908653  1
  N  N341  1  0.30853225  0.42529167  0.45625759  1
  N  N342  1  0.06548736  0.73950444  0.54520967  1
  N  N343  1  0.22006028  0.57394217  0.96358327  1
  N  N344  1  0.72249900  0.57312290  0.53792116  1
  N  N345  1  0.76336694  0.90942548  0.96393531  1
  N  N346  1  0.42869607  0.59174595  0.04756343  1
  N  N347  1  0.43648915  0.92995960  0.45390035  1
  N  N348  1  0.55919686  0.93233064  0.04216381  1
  N  N349  1  0.78900730  0.42521504  0.03770502  1
  N  N350  1  0.54496504  0.06358350  0.95959292  1
  N  N351  1  0.71285488  0.42561918  0.03773534  1
  N  N352  1  0.03215154  0.59175842  0.03815799  1
  N  N353  1  0.46137616  0.07032048  0.95997975  1
  N  N354  1  0.71045751  0.10593626  0.03898366  1
  N  N355  1  0.95412554  0.26126453  0.03854075  1
  N  N356  1  0.06299252  0.92727915  0.04667938  1
  N  N357  1  0.26902146  0.75633387  0.46643679  1
  N  N358  1  0.29030669  0.90871285  0.53631905  1
  N  N359  1  0.72958085  0.23276881  0.96610380  1
  N  N360  1  0.05587678  0.05719027  0.59270483  1
  N  N361  1  0.05504390  0.38980373  0.59533007  1
  N  N362  1  0.07712215  0.72276208  0.60470191  1
  N  N363  1  0.56191912  0.05968147  0.59493831  1
  N  N364  1  0.55115884  0.38933589  0.58960114  1
  N  N365  1  0.57282179  0.72202113  0.60030922  1
  N  N366  1  0.42732607  0.28187693  0.10550094  1
  N  N367  1  0.42369953  0.61140071  0.10606089  1
  N  N368  1  0.44603997  0.94033347  0.09472941  1
  N  N369  1  0.93408265  0.27819409  0.09604101  1
  N  N370  1  0.92914356  0.60894030  0.09964334  1
  N  N371  1  0.94726307  0.94260613  0.08892017  1
  N  N372  1  0.43785661  0.06331283  0.89985045  1
  N  N373  1  0.43361457  0.39214798  0.90826374  1
  N  N374  1  0.43552692  0.72414280  0.90397545  1
  N  N375  1  0.93553346  0.05707562  0.90176730  1
  N  N376  1  0.93532664  0.39135845  0.90247407  1
  N  N377  1  0.92942247  0.72227733  0.89507353  1
  N  N378  1  0.05005532  0.27491765  0.41098605  1
  N  N379  1  0.04577892  0.60843522  0.41392498  1
  N  N380  1  0.06803655  0.94620249  0.39222561  1
  N  N381  1  0.56347677  0.27811373  0.40257764  1
  N  N382  1  0.55518856  0.61042460  0.40460414  1
  N  N383  1  0.55593135  0.94347332  0.41241403  1
  N  N384  1  0.32237200  0.22104081  0.59335629  1
  N  N385  1  0.32909077  0.55838072  0.60083520  1
  N  N386  1  0.31549086  0.88826952  0.59311165  1
  N  N387  1  0.82480586  0.21935307  0.60136414  1
  N  N388  1  0.82293103  0.55539885  0.59929246  1
  N  N389  1  0.81501298  0.88960278  0.59955136  1
  N  N390  1  0.18534722  0.11834913  0.09972103  1
  N  N391  1  0.18726231  0.44321778  0.09563570  1
  N  N392  1  0.19378356  0.77481801  0.09423350  1
  N  N393  1  0.68633461  0.10723487  0.09878532  1
  N  N394  1  0.68776366  0.44284363  0.09546201  1
  N  N395  1  0.69014647  0.77609586  0.09563764  1
  N  N396  1  0.18739340  0.22581172  0.90145279  1
  N  N397  1  0.19497695  0.55622425  0.90740366  1
  N  N398  1  0.17224380  0.88651342  0.89464580  1
  N  N399  1  0.69478837  0.22914555  0.90935880  1
  N  N400  1  0.70017049  0.55423053  0.91234658  1
  N  N401  1  0.66991737  0.89054350  0.90049476  1
  N  N402  1  0.32419604  0.11446951  0.40137739  1
  N  N403  1  0.32244829  0.44508054  0.39812104  1
  N  N404  1  0.30213521  0.77355885  0.41048865  1
  N  N405  1  0.81799660  0.10938503  0.40573448  1
  N  N406  1  0.81805170  0.44468363  0.39643300  1
  N  N407  1  0.80194701  0.77613815  0.40693807  1
  N  N408  1  0.43387098  0.27493871  0.41223245  1
  N  N409  1  0.42513124  0.61078772  0.40763063  1
  N  N410  1  0.43049368  0.94758211  0.39379199  1
  N  N411  1  0.92473971  0.27733946  0.39646809  1
  N  N412  1  0.91967333  0.61100609  0.39310809  1
  N  N413  1  0.93952094  0.94531689  0.40814117  1
  N  N414  1  0.06455939  0.05086531  0.89983217  1
  N  N415  1  0.06364701  0.39318070  0.90594549  1
  N  N416  1  0.05744103  0.72019920  0.90791077  1
  N  N417  1  0.56384996  0.04535802  0.90092109  1
  N  N418  1  0.56436569  0.39235600  0.90920715  1
  N  N419  1  0.56214861  0.72363903  0.90169876  1
  N  N420  1  0.06092242  0.27941483  0.09358901  1
  N  N421  1  0.05692890  0.60850489  0.09555599  1
  N  N422  1  0.07261123  0.94416676  0.10538953  1
  N  N423  1  0.55651535  0.27945685  0.09349073  1
  N  N424  1  0.54752567  0.60954081  0.08451183  1
  N  N425  1  0.57363070  0.94560278  0.10277595  1
  N  N426  1  0.43363064  0.05834811  0.59692542  1
  N  N427  1  0.42389517  0.38623571  0.60003828  1
  N  N428  1  0.44498611  0.72304281  0.59356574  1
  N  N429  1  0.92622438  0.05640266  0.60182105  1
  N  N430  1  0.92797989  0.38837325  0.59616266  1
  N  N431  1  0.94999418  0.72628067  0.58815661  1
  N  N432  1  0.19431671  0.11063494  0.40677992  1
  N  N433  1  0.19466992  0.44061073  0.41130076  1
  N  N434  1  0.17498821  0.77751873  0.39880898  1
  N  N435  1  0.68971760  0.11269585  0.40452749  1
  N  N436  1  0.69074598  0.44227928  0.40709959  1
  N  N437  1  0.67275651  0.77883517  0.39460432  1
  N  N438  1  0.31527433  0.22548111  0.90222005  1
  N  N439  1  0.32217215  0.55363457  0.90423789  1
  N  N440  1  0.30085511  0.88988865  0.90985906  1
  N  N441  1  0.82108150  0.22324708  0.89606979  1
  N  N442  1  0.82717670  0.55298308  0.89466086  1
  N  N443  1  0.79818487  0.88687799  0.91097874  1
  N  N444  1  0.31526324  0.10941005  0.10167094  1
  N  N445  1  0.31556116  0.44087764  0.09289719  1
  N  N446  1  0.32096439  0.77793383  0.10461221  1
  N  N447  1  0.81406766  0.11490435  0.09794881  1
  N  N448  1  0.81450587  0.44263375  0.09531201  1
  N  N449  1  0.81641430  0.77771420  0.10112392  1
  N  N450  1  0.19221855  0.22126446  0.59693324  1
  N  N451  1  0.20113193  0.55707563  0.58738897  1
  N  N452  1  0.18670619  0.89202678  0.59117810  1
  N  N453  1  0.69550731  0.22264779  0.59030780  1
  N  N454  1  0.69615543  0.55704602  0.59408600  1
  N  N455  1  0.68463980  0.88925452  0.60161940  1
  Cl  Cl456  1  0.24421341  0.05149540  0.61742087  1
  Cl  Cl457  1  0.23923838  0.38841697  0.61144525  1
  Cl  Cl458  1  0.25959848  0.71598016  0.62334864  1
  Cl  Cl459  1  0.74417266  0.05527096  0.63078222  1
  Cl  Cl460  1  0.74103399  0.39050241  0.60938738  1
  Cl  Cl461  1  0.76366680  0.72089655  0.61090109  1
  Cl  Cl462  1  0.24192143  0.28371712  0.12393863  1
  Cl  Cl463  1  0.24061633  0.61089511  0.12634821  1
  Cl  Cl464  1  0.26073560  0.94749687  0.11588225  1
  Cl  Cl465  1  0.74603188  0.27644676  0.10174614  1
  Cl  Cl466  1  0.73240140  0.60522726  0.10082862  1
  Cl  Cl467  1  0.76601841  0.94045390  0.10614017  1
  Cl  Cl468  1  0.25234424  0.05919637  0.88668186  1
  Cl  Cl469  1  0.24793150  0.38527040  0.87652606  1
  Cl  Cl470  1  0.24344172  0.72406150  0.89110122  1
  Cl  Cl471  1  0.74866725  0.05958169  0.89935729  1
  Cl  Cl472  1  0.75035748  0.37994323  0.87699186  1
  Cl  Cl473  1  0.74554366  0.71251564  0.87707437  1
  Cl  Cl474  1  0.23875424  0.27804470  0.39162566  1
  Cl  Cl475  1  0.23117560  0.60566108  0.39773950  1
  Cl  Cl476  1  0.24965905  0.94508561  0.38172556  1
  Cl  Cl477  1  0.74557901  0.27772489  0.37087102  1
  Cl  Cl478  1  0.74041214  0.61304100  0.37176188  1
  Cl  Cl479  1  0.74784587  0.94574153  0.38735159  1
  Cl  Cl480  1  0.00638797  0.21700841  0.62397714  1
  Cl  Cl481  1  0.01370924  0.55990543  0.60146259  1
  Cl  Cl482  1  0.00126519  0.88686763  0.61950652  1
  Cl  Cl483  1  0.50848445  0.21807423  0.62320695  1
  Cl  Cl484  1  0.51314010  0.55308057  0.62298995  1
  Cl  Cl485  1  0.49961565  0.88945234  0.61751975  1
  Cl  Cl486  1  -0.00227286  0.10436303  0.10831826  1
  Cl  Cl487  1  -0.00049041  0.44385257  0.12197354  1
  Cl  Cl488  1  0.00618830  0.77325899  0.10648844  1
  Cl  Cl489  1  0.50260717  0.10784780  0.10611306  1
  Cl  Cl490  1  0.50281886  0.44870920  0.11657697  1
  Cl  Cl491  1  0.50644192  0.78188351  0.12123885  1
  Cl  Cl492  1  0.00506507  0.22212033  0.89002632  1
  Cl  Cl493  1  0.01138417  0.55339538  0.87582375  1
  Cl  Cl494  1  -0.02057778  0.89650691  0.89725959  1
  Cl  Cl495  1  0.50759766  0.21690699  0.89309750  1
  Cl  Cl496  1  0.51357468  0.55898712  0.89786208  1
  Cl  Cl497  1  0.48353521  0.89302314  0.88644572  1
  Cl  Cl498  1  0.00514757  0.11238530  0.38006455  1
  Cl  Cl499  1  0.00571893  0.44708977  0.38879055  1
  Cl  Cl500  1  -0.01146376  0.77449370  0.38252948  1
  Cl  Cl501  1  0.50703197  0.11989433  0.37268697  1
  Cl  Cl502  1  0.50538586  0.44783027  0.38106877  1
  Cl  Cl503  1  0.48632747  0.77853015  0.38351046  1
  Cl  Cl504  1  0.35625165  0.14648181  0.75242659  1
  Cl  Cl505  1  0.36500985  0.47922732  0.74556914  1
  Cl  Cl506  1  0.35262967  0.82045504  0.75017299  1
  Cl  Cl507  1  0.86519113  0.14443332  0.75790127  1
  Cl  Cl508  1  0.86601842  0.47982524  0.74723205  1
  Cl  Cl509  1  0.86287773  0.81257671  0.75542930  1
  Cl  Cl510  1  0.14131670  0.18555166  0.24719074  1
  Cl  Cl511  1  0.14302221  0.51473903  0.25145708  1
  Cl  Cl512  1  0.13596299  0.85461187  0.25430393  1
  Cl  Cl513  1  0.64206771  0.18412901  0.24195684  1
  Cl  Cl514  1  0.64361474  0.51866761  0.24638577  1
  Cl  Cl515  1  0.64338743  0.85565965  0.25123922  1
  Cl  Cl516  1  0.13726367  0.14540571  0.75267060  1
  Cl  Cl517  1  0.14503822  0.48362927  0.74543167  1
  Cl  Cl518  1  0.13364636  0.81149898  0.75273022  1
  Cl  Cl519  1  0.64281137  0.15006721  0.75897025  1
  Cl  Cl520  1  0.64552029  0.48414497  0.75079187  1
  Cl  Cl521  1  0.64263199  0.81541695  0.74882261  1
  Cl  Cl522  1  0.36261483  0.18759547  0.24573773  1
  Cl  Cl523  1  0.36380787  0.52220651  0.25596730  1
  Cl  Cl524  1  0.35760690  0.85094231  0.24914668  1
  Cl  Cl525  1  0.86201115  0.18673708  0.24276092  1
  Cl  Cl526  1  0.86265519  0.52270743  0.25389091  1
  Cl  Cl527  1  0.86436952  0.85409456  0.24901412  1
  Cl  Cl528  1  0.10790082  0.31663353  0.74698021  1
  Cl  Cl529  1  0.11411044  0.64826530  0.74290435  1
  Cl  Cl530  1  0.10796130  0.97767013  0.76037084  1
  Cl  Cl531  1  0.60790956  0.31597952  0.75273673  1
  Cl  Cl532  1  0.61040316  0.64898121  0.74618866  1
  Cl  Cl533  1  0.61038848  0.97991061  0.75682842  1
  Cl  Cl534  1  0.38953542  0.02018836  0.25637306  1
  Cl  Cl535  1  0.39059161  0.35505825  0.25181362  1
  Cl  Cl536  1  0.38465467  0.68710404  0.24240649  1
  Cl  Cl537  1  0.89555875  0.01914680  0.24462112  1
  Cl  Cl538  1  0.88679290  0.35373176  0.25383529  1
  Cl  Cl539  1  0.88725568  0.68845850  0.24961529  1
  Cl  Cl540  1  0.38753683  0.31256952  0.75155478  1
  Cl  Cl541  1  0.39095652  0.64611657  0.75435338  1
  Cl  Cl542  1  0.39335537  0.98373439  0.74731334  1
  Cl  Cl543  1  0.88724652  0.31106100  0.75119033  1
  Cl  Cl544  1  0.89364549  0.64737174  0.74801437  1
  Cl  Cl545  1  0.88634384  0.98041804  0.74662322  1
  Cl  Cl546  1  0.11643507  0.02146805  0.24380317  1
  Cl  Cl547  1  0.10569574  0.35009982  0.25469560  1
  Cl  Cl548  1  0.10619075  0.68238929  0.25093721  1
  Cl  Cl549  1  0.61363401  0.01933724  0.23898908  1
  Cl  Cl550  1  0.60904538  0.34988566  0.25263706  1
  Cl  Cl551  1  0.60698939  0.68560893  0.25208327  1
