# generated using pymatgen
data_H8PbC4(N3Cl2)2
_symmetry_space_group_name_H-M   'P 1'
_cell_length_a   16.62435822
_cell_length_b   22.51194829
_cell_length_c   21.59219733
_cell_angle_alpha   89.99784039
_cell_angle_beta   89.98486997
_cell_angle_gamma   89.99988655
_symmetry_Int_Tables_number   1
_chemical_formula_structural   H8PbC4(N3Cl2)2
_chemical_formula_sum   'H192 Pb24 C96 N144 Cl96'
_cell_volume   8080.80814967
_cell_formula_units_Z   24
loop_
 _symmetry_equiv_pos_site_id
 _symmetry_equiv_pos_as_xyz
  1  'x, y, z'
loop_
 _atom_site_type_symbol
 _atom_site_label
 _atom_site_symmetry_multiplicity
 _atom_site_fract_x
 _atom_site_fract_y
 _atom_site_fract_z
 _atom_site_occupancy
  H  H0  1  -0.00673941  0.03293431  0.67926264  1
  H  H1  1  -0.00201714  0.36589831  0.67963915  1
  H  H2  1  -0.00939050  0.69762033  0.68171031  1
  H  H3  1  0.50343844  0.02708279  0.67558988  1
  H  H4  1  0.50103199  0.36501251  0.67795328  1
  H  H5  1  0.51016415  0.69739104  0.67645765  1
  H  H6  1  -0.00363966  0.30272342  0.18121494  1
  H  H7  1  0.00480749  0.63848286  0.17346677  1
  H  H8  1  -0.00103813  0.96831906  0.18255798  1
  H  H9  1  0.50652851  0.30300969  0.17511325  1
  H  H10  1  0.50149906  0.63559071  0.18009049  1
  H  H11  1  0.49099380  0.97132978  0.17664629  1
  H  H12  1  0.01071098  0.02657683  0.82228616  1
  H  H13  1  -0.01859509  0.36180840  0.82189261  1
  H  H14  1  -0.00831442  0.69716448  0.81911522  1
  H  H15  1  0.50300617  0.03046663  0.81747447  1
  H  H16  1  0.51296642  0.36052661  0.82262780  1
  H  H17  1  0.49915588  0.69533667  0.82337485  1
  H  H18  1  -0.00200823  0.30187162  0.31985060  1
  H  H19  1  -0.00058821  0.63526281  0.32042691  1
  H  H20  1  0.01098124  0.96875333  0.32072709  1
  H  H21  1  0.50200639  0.30236068  0.32028709  1
  H  H22  1  0.49169390  0.63702670  0.32518652  1
  H  H23  1  0.48751628  0.96921952  0.32040429  1
  H  H24  1  0.24337874  0.19672399  0.68027279  1
  H  H25  1  0.24581164  0.53062914  0.67776309  1
  H  H26  1  0.24622751  0.86223727  0.67692533  1
  H  H27  1  0.74908230  0.19872393  0.68093913  1
  H  H28  1  0.75731856  0.53085924  0.67846129  1
  H  H29  1  0.74807240  0.86438691  0.67633111  1
  H  H30  1  0.24266047  0.13939866  0.18035284  1
  H  H31  1  0.25135642  0.47030022  0.18015059  1
  H  H32  1  0.25619741  0.80099814  0.17896505  1
  H  H33  1  0.75533454  0.13799410  0.18015271  1
  H  H34  1  0.74818863  0.47400898  0.18222266  1
  H  H35  1  0.74637178  0.80452780  0.17593014  1
  H  H36  1  0.24323319  0.19910371  0.82040886  1
  H  H37  1  0.26474693  0.52879044  0.82375013  1
  H  H38  1  0.25389343  0.86098978  0.82014647  1
  H  H39  1  0.75059526  0.19658063  0.81859399  1
  H  H40  1  0.73836398  0.53443144  0.82195902  1
  H  H41  1  0.75811269  0.86394123  0.82589589  1
  H  H42  1  0.23647352  0.13407403  0.32259442  1
  H  H43  1  0.23944306  0.47096234  0.32333483  1
  H  H44  1  0.24006297  0.80018382  0.32368544  1
  H  H45  1  0.76071866  0.13770113  0.32230239  1
  H  H46  1  0.76569992  0.46899211  0.32188250  1
  H  H47  1  0.76242313  0.80158164  0.32282520  1
  H  H48  1  0.13056450  0.04953291  0.61928676  1
  H  H49  1  0.11293090  0.38863472  0.60295964  1
  H  H50  1  0.12921907  0.71571699  0.62810824  1
  H  H51  1  0.62676265  0.05474066  0.60505386  1
  H  H52  1  0.62000991  0.39016690  0.60471575  1
  H  H53  1  0.62224237  0.72539383  0.59741762  1
  H  H54  1  0.36999102  0.28192817  0.11781279  1
  H  H55  1  0.38346284  0.61437163  0.10582397  1
  H  H56  1  0.38642662  0.93890313  0.09334007  1
  H  H57  1  0.87260273  0.27994668  0.11259621  1
  H  H58  1  0.87845168  0.61472406  0.10581673  1
  H  H59  1  0.88013036  0.94373519  0.10566896  1
  H  H60  1  0.37362157  0.05577075  0.88547600  1
  H  H61  1  0.37355561  0.38288310  0.87593953  1
  H  H62  1  0.37692586  0.72122095  0.89484624  1
  H  H63  1  0.87109262  0.04854329  0.87541981  1
  H  H64  1  0.87997775  0.39237241  0.90896591  1
  H  H65  1  0.87486517  0.72366781  0.89716892  1
  H  H66  1  0.11575841  0.27915731  0.39380610  1
  H  H67  1  0.13467068  0.61519226  0.37971002  1
  H  H68  1  0.11615850  0.94164774  0.40433798  1
  H  H69  1  0.61582528  0.27867623  0.39884534  1
  H  H70  1  0.62998247  0.61861174  0.38231282  1
  H  H71  1  0.61953819  0.94627966  0.38500161  1
  H  H72  1  0.38132827  0.21626858  0.62206377  1
  H  H73  1  0.36271038  0.55893180  0.60140354  1
  H  H74  1  0.38149658  0.88389827  0.61791742  1
  H  H75  1  0.88281163  0.22100488  0.61767682  1
  H  H76  1  0.86424716  0.55442730  0.59622143  1
  H  H77  1  0.87980234  0.88726605  0.61444471  1
  H  H78  1  0.13164868  0.11017858  0.09973774  1
  H  H79  1  0.12553767  0.44451721  0.11200232  1
  H  H80  1  0.12668715  0.78056782  0.11593018  1
  H  H81  1  0.62822707  0.11547705  0.11063472  1
  H  H82  1  0.62567327  0.44779382  0.10961386  1
  H  H83  1  0.62628385  0.77827024  0.10258634  1
  H  H84  1  0.13430703  0.22431028  0.90093191  1
  H  H85  1  0.12259831  0.54550438  0.87483352  1
  H  H86  1  0.11742508  0.88354979  0.87685518  1
  H  H87  1  0.62979785  0.21980956  0.88973801  1
  H  H88  1  0.63087082  0.56144511  0.90644260  1
  H  H89  1  0.62134099  0.88013958  0.88045216  1
  H  H90  1  0.36900911  0.11495053  0.38231316  1
  H  H91  1  0.38092109  0.45056338  0.37230028  1
  H  H92  1  0.37386617  0.78233463  0.38289724  1
  H  H93  1  0.86436380  0.10943203  0.40910387  1
  H  H94  1  0.87965183  0.44281988  0.40048153  1
  H  H95  1  0.86739953  0.77288083  0.40737155  1
  H  H96  1  0.36736067  0.28039958  0.38134879  1
  H  H97  1  0.38463433  0.60545860  0.40616765  1
  H  H98  1  0.37197664  0.94242866  0.39961048  1
  H  H99  1  0.86676532  0.28308823  0.38456117  1
  H  H100  1  0.88758066  0.61017772  0.40180789  1
  H  H101  1  0.87042933  0.94832304  0.37417895  1
  H  H102  1  0.11504163  0.05884397  0.90704539  1
  H  H103  1  0.12305469  0.38246040  0.87371770  1
  H  H104  1  0.12295670  0.71885050  0.88525752  1
  H  H105  1  0.62159690  0.05493595  0.89414593  1
  H  H106  1  0.61810111  0.39188053  0.90755269  1
  H  H107  1  0.62600776  0.72034252  0.89198454  1
  H  H108  1  0.12168701  0.27993518  0.11286724  1
  H  H109  1  0.12725203  0.61238291  0.10291407  1
  H  H110  1  0.12837836  0.94366397  0.11451827  1
  H  H111  1  0.61653883  0.27424040  0.09619481  1
  H  H112  1  0.63259572  0.61601457  0.11541173  1
  H  H113  1  0.63189280  0.95032519  0.12424574  1
  H  H114  1  0.37807037  0.05209412  0.60826649  1
  H  H115  1  0.37109594  0.38981998  0.61257890  1
  H  H116  1  0.37461342  0.71977409  0.61782348  1
  H  H117  1  0.88414963  0.05962854  0.59570569  1
  H  H118  1  0.86430305  0.38370168  0.61758125  1
  H  H119  1  0.88292215  0.72200017  0.59905366  1
  H  H120  1  0.12130969  0.11079266  0.40102578  1
  H  H121  1  0.13736088  0.44032113  0.40862251  1
  H  H122  1  0.12693182  0.77592562  0.40152689  1
  H  H123  1  0.62072015  0.11636912  0.37479791  1
  H  H124  1  0.63181918  0.44833512  0.38383902  1
  H  H125  1  0.62225883  0.78262359  0.37537917  1
  H  H126  1  0.38145841  0.21653602  0.87616105  1
  H  H127  1  0.36553363  0.56171116  0.90853856  1
  H  H128  1  0.36510941  0.88827844  0.90155941  1
  H  H129  1  0.87947024  0.21859204  0.88514957  1
  H  H130  1  0.87594846  0.55262647  0.87757808  1
  H  H131  1  0.86665429  0.88955211  0.90669342  1
  H  H132  1  0.37919139  0.11853908  0.12316673  1
  H  H133  1  0.37445684  0.44475338  0.10745665  1
  H  H134  1  0.37573434  0.77710668  0.10453985  1
  H  H135  1  0.87736229  0.11208221  0.10757794  1
  H  H136  1  0.87494774  0.44727394  0.11599117  1
  H  H137  1  0.87524791  0.78110032  0.10948782  1
  H  H138  1  0.13461821  0.22214382  0.59817095  1
  H  H139  1  0.11459297  0.55273759  0.61253256  1
  H  H140  1  0.13398566  0.89012510  0.59743161  1
  H  H141  1  0.63447142  0.22263332  0.60250109  1
  H  H142  1  0.61774635  0.54917240  0.62456507  1
  H  H143  1  0.63137496  0.89116690  0.60023461  1
  H  H144  1  0.79513885  0.58175585  0.48992742  1
  H  H145  1  0.13667216  0.58205162  0.98090702  1
  H  H146  1  0.14244018  0.91335683  0.98933131  1
  H  H147  1  0.55323144  0.24866451  0.50604885  1
  H  H148  1  0.17178479  0.41301773  0.00345051  1
  H  H149  1  0.20531342  0.24847219  0.49305860  1
  H  H150  1  0.04362188  0.91393709  0.50840098  1
  H  H151  1  0.39903815  0.75026857  0.51008248  1
  H  H152  1  0.05413855  0.41502804  0.49300965  1
  H  H153  1  0.19951808  0.08883254  -0.00265606  1
  H  H154  1  0.60950213  0.58192511  0.48958200  1
  H  H155  1  0.69173428  0.91957738  0.49719555  1
  H  H156  1  0.96193888  0.41596576  1.00649756  1
  H  H157  1  0.28428007  0.57650520  1.00777182  1
  H  H158  1  0.46421881  0.91461125  -0.00733233  1
  H  H159  1  0.64044883  0.91180407  -0.00408606  1
  H  H160  1  0.19949288  0.25374370  1.00678355  1
  H  H161  1  0.39865652  0.25012362  0.48852529  1
  H  H162  1  0.43822695  0.58881156  -0.00566405  1
  H  H163  1  0.34123153  0.08290940  0.49596421  1
  H  H164  1  0.92048771  0.58604910  -0.00004144  1
  H  H165  1  0.16171330  0.75024084  0.00266958  1
  H  H166  1  0.56111231  0.75515886  0.49211757  1
  H  H167  1  0.95787048  0.08915118  0.49675633  1
  H  H168  1  0.79097622  0.74591121  0.50626227  1
  H  H169  1  0.35391208  0.08656104  0.01129361  1
  H  H170  1  0.11337634  0.74504408  0.51462443  1
  H  H171  1  0.20226006  0.91569430  0.49484036  1
  H  H172  1  0.03607629  0.08401568  1.00533960  1
  H  H173  1  0.91540615  0.24877959  0.00150646  1
  H  H174  1  0.45826424  0.58951309  0.50741372  1
  H  H175  1  0.29713458  0.90865391  1.00380023  1
  H  H176  1  0.39381345  0.25011954  0.00831435  1
  H  H177  1  0.82478950  0.08147820  0.00058595  1
  H  H178  1  0.53837978  0.41782731  1.00547082  1
  H  H179  1  0.56727282  0.42030608  0.49598214  1
  H  H180  1  0.67913354  0.24720928  1.00110865  1
  H  H181  1  0.21563505  0.41633596  0.50760844  1
  H  H182  1  0.06059537  0.25040450  0.50461448  1
  H  H183  1  0.78433926  0.08364995  0.50682676  1
  H  H184  1  0.57746603  0.08405926  0.50127966  1
  H  H185  1  0.67998274  0.43060673  0.00263428  1
  H  H186  1  0.40717732  0.41581779  0.50473854  1
  H  H187  1  0.83178003  0.41572689  0.00548669  1
  H  H188  1  0.69913542  0.25302207  0.49622440  1
  H  H189  1  0.95200003  0.74669552  0.49271963  1
  H  H190  1  0.14957565  0.58324213  0.50670907  1
  H  H191  1  0.88837200  0.92223754  0.48448149  1
  Pb  Pb192  1  0.25034389  0.04653751  0.75778798  1
  Pb  Pb193  1  0.24773283  0.37957251  0.74133016  1
  Pb  Pb194  1  0.25082694  0.71393371  0.75491793  1
  Pb  Pb195  1  0.75013064  0.04585828  0.74322833  1
  Pb  Pb196  1  0.74731081  0.38102722  0.76061919  1
  Pb  Pb197  1  0.74821532  0.71398249  0.74331415  1
  Pb  Pb198  1  0.24757616  0.28648241  0.25312848  1
  Pb  Pb199  1  0.24752064  0.61693291  0.24778674  1
  Pb  Pb200  1  0.24587912  0.94933072  0.25143380  1
  Pb  Pb201  1  0.74289794  0.28457823  0.24963365  1
  Pb  Pb202  1  0.75228382  0.62109260  0.25288605  1
  Pb  Pb203  1  0.74467567  0.95059653  0.25433512  1
  Pb  Pb204  1  0.00164517  0.21356932  0.75010269  1
  Pb  Pb205  1  -0.00158680  0.54659130  0.74775934  1
  Pb  Pb206  1  -0.00083883  0.87989456  0.74637215  1
  Pb  Pb207  1  0.50224949  0.21345072  0.74638345  1
  Pb  Pb208  1  0.49688314  0.54725172  0.75462556  1
  Pb  Pb209  1  0.49983399  0.87987475  0.75564716  1
  Pb  Pb210  1  -0.00633457  0.11673615  0.25217150  1
  Pb  Pb211  1  -0.00392603  0.45081112  0.25266963  1
  Pb  Pb212  1  -0.00350774  0.78420751  0.25679561  1
  Pb  Pb213  1  0.49569397  0.11788231  0.25169052  1
  Pb  Pb214  1  0.50107691  0.45355889  0.24486336  1
  Pb  Pb215  1  0.49643038  0.78324786  0.24764455  1
  C  C216  1  0.00236272  0.04783616  0.63197023  1
  C  C217  1  -0.00802119  0.37909521  0.63164390  1
  C  C218  1  0.00138644  0.71164548  0.63427085  1
  C  C219  1  0.50332190  0.04430437  0.62874969  1
  C  C220  1  0.49667083  0.38100647  0.63047732  1
  C  C221  1  0.50185057  0.71397658  0.62954764  1
  C  C222  1  -0.00351036  0.28743052  0.13366560  1
  C  C223  1  0.00312481  0.62197132  0.12632013  1
  C  C224  1  0.00267487  0.95333577  0.13486077  1
  C  C225  1  0.49707679  0.28719176  0.12827746  1
  C  C226  1  0.50556133  0.62167568  0.13220848  1
  C  C227  1  0.50272072  0.95532159  0.13015461  1
  C  C228  1  -0.00065182  0.04347598  0.86854750  1
  C  C229  1  -0.00580769  0.37742599  0.86844409  1
  C  C230  1  -0.00344823  0.71270404  0.86651754  1
  C  C231  1  0.49898886  0.04621228  0.86493517  1
  C  C232  1  0.50208856  0.37740820  0.86888832  1
  C  C233  1  0.50094371  0.71199152  0.87031368  1
  C  C234  1  -0.00623627  0.28776793  0.36769278  1
  C  C235  1  0.00707254  0.62014656  0.36763672  1
  C  C236  1  -0.00175244  0.95388967  0.36767752  1
  C  C237  1  0.49437749  0.28705335  0.36771542  1
  C  C238  1  0.50237571  0.62046123  0.37187952  1
  C  C239  1  0.49292964  0.95372520  0.36782982  1
  C  C240  1  0.25360276  0.21175081  0.63310427  1
  C  C241  1  0.24059315  0.54701551  0.63065645  1
  C  C242  1  0.25369352  0.87735961  0.62969591  1
  C  C243  1  0.75576783  0.21401465  0.63357958  1
  C  C244  1  0.74644423  0.54467360  0.63102182  1
  C  C245  1  0.75275233  0.88085626  0.62920757  1
  C  C246  1  0.25099747  0.12352442  0.13315717  1
  C  C247  1  0.25063744  0.45368377  0.13305698  1
  C  C248  1  0.25221472  0.78599481  0.13144823  1
  C  C249  1  0.75365871  0.12193028  0.13285590  1
  C  C250  1  0.74900901  0.45771514  0.13480197  1
  C  C251  1  0.74944441  0.78844047  0.12887016  1
  C  C252  1  0.25276972  0.21300511  0.86794379  1
  C  C253  1  0.25073805  0.54474822  0.87011429  1
  C  C254  1  0.24550057  0.87651380  0.86745092  1
  C  C255  1  0.75286503  0.21161429  0.86619420  1
  C  C256  1  0.74814151  0.54885645  0.86914942  1
  C  C257  1  0.74778952  0.87799902  0.87319621  1
  C  C258  1  0.24297136  0.11965471  0.37020051  1
  C  C259  1  0.25240334  0.45503475  0.36971894  1
  C  C260  1  0.24726162  0.78626132  0.37137611  1
  C  C261  1  0.74898643  0.12177496  0.36879671  1
  C  C262  1  0.75872995  0.45394819  0.36913013  1
  C  C263  1  0.75084580  0.78681180  0.36971591  1
  C  C264  1  0.20510658  0.75964960  0.03917295  1
  C  C265  1  0.55495636  0.59763454  0.04094822  1
  C  C266  1  0.52180210  0.25961263  0.46337378  1
  C  C267  1  0.22073166  0.75944741  0.46706288  1
  C  C268  1  0.01986109  0.40396874  0.53441848  1
  C  C269  1  0.45945596  0.07491925  0.53673525  1
  C  C270  1  0.80540962  0.57476531  0.95657150  1
  C  C271  1  0.23261513  0.24099872  0.96529926  1
  C  C272  1  0.06294077  0.73571086  0.54683996  1
  C  C273  1  0.31326803  0.23711005  0.95552343  1
  C  C274  1  0.04243732  0.59387416  0.03229023  1
  C  C275  1  0.46602895  0.74335260  0.96220878  1
  C  C276  1  0.98182286  0.73691366  0.53634487  1
  C  C277  1  0.76440051  0.57015424  0.53281225  1
  C  C278  1  0.78713248  0.09324047  0.03986225  1
  C  C279  1  0.95717241  0.25967526  0.03970259  1
  C  C280  1  0.71760823  0.75825424  0.03611883  1
  C  C281  1  0.80477449  0.90911855  0.53944524  1
  C  C282  1  0.02508378  0.26135843  0.46382414  1
  C  C283  1  0.23489384  0.23779884  0.53673485  1
  C  C284  1  0.30167000  0.76204614  0.46099882  1
  C  C285  1  0.53075018  0.40914405  0.53626580  1
  C  C286  1  0.29479089  0.09286906  0.46100226  1
  C  C287  1  0.05968532  0.59457638  0.45665743  1
  C  C288  1  0.03884818  0.26004420  0.04106867  1
  C  C289  1  0.79296066  0.42782894  0.04400535  1
  C  C290  1  0.18839205  0.90413973  0.95471178  1
  C  C291  1  0.68395829  0.56698380  0.54362643  1
  C  C292  1  0.68627421  0.75956033  0.45525921  1
  C  C293  1  0.94392299  0.26325030  0.45867168  1
  C  C294  1  0.79919076  0.23711967  0.95807297  1
  C  C295  1  0.30812400  0.09531895  0.04612554  1
  C  C296  1  0.28673723  0.75834140  0.03693921  1
  C  C297  1  0.52104004  0.25415890  0.03299124  1
  C  C298  1  0.71765553  0.23767579  0.96151058  1
  C  C299  1  0.56675865  0.92546793  0.04604664  1
  C  C300  1  0.31042979  0.90623659  0.54141619  1
  C  C301  1  0.52688046  0.74410640  0.53422304  1
  C  C302  1  0.93877635  0.40145434  0.54102734  1
  C  C303  1  0.01575247  0.92565124  0.46436148  1
  C  C304  1  0.31924195  0.42799290  0.45379188  1
  C  C305  1  0.73090170  0.24153095  0.53864425  1
  C  C306  1  0.76989530  0.90550222  0.96959454  1
  C  C307  1  0.21349230  0.09209182  0.46569935  1
  C  C308  1  0.68918928  0.90281022  0.96207888  1
  C  C309  1  0.78393815  0.42427758  0.46369809  1
  C  C310  1  0.21173520  0.42478540  0.04141570  1
  C  C311  1  0.47376711  0.59745181  0.03562243  1
  N  N312  1  0.45105075  0.40881030  0.54028221  1
  N  N313  1  0.44295115  0.25837650  0.04137185  1
  N  N314  1  0.01204738  0.07609929  0.96182981  1
  N  N315  1  0.19478508  0.57485893  0.54184018  1
  N  N316  1  0.98415081  0.40828760  0.96258295  1
  N  N317  1  0.23194754  0.90775254  0.53572071  1
  N  N318  1  0.93753804  0.92842294  0.45302506  1
  N  N319  1  0.04376905  0.73988629  0.95761662  1
  N  N320  1  0.53104969  0.07452239  0.95958711  1
  N  N321  1  0.06151575  0.07044375  0.54381051  1
  N  N322  1  0.43828442  0.40675766  0.95290374  1
  N  N323  1  0.96299724  0.59382336  0.03467174  1
  N  N324  1  0.26745074  0.90598594  0.96205149  1
  N  N325  1  0.44769070  0.74247746  0.54221063  1
  N  N326  1  0.29094342  0.42543326  0.03926822  1
  N  N327  1  0.22903356  0.09237200  0.03912838  1
  N  N328  1  0.80990109  0.24098480  0.54380041  1
  N  N329  1  0.06080340  0.40432737  0.95196706  1
  N  N330  1  0.93502823  0.07198022  0.95276033  1
  N  N331  1  0.04703242  0.92782236  0.04261889  1
  N  N332  1  0.54139882  0.92531519  0.45813331  1
  N  N333  1  0.70800037  0.09416756  0.04048609  1
  N  N334  1  0.31331789  0.23595923  0.54485952  1
  N  N335  1  0.97091490  0.92724874  0.03968988  1
  N  N336  1  0.76432315  0.75638292  0.46459145  1
  N  N337  1  0.76078163  0.09108151  0.46285393  1
  N  N338  1  0.54322422  0.74309336  0.96262300  1
  N  N339  1  0.98269490  0.59201057  0.46503435  1
  N  N340  1  0.70664171  0.42603871  0.45974436  1
  N  N341  1  0.48906994  0.92207182  0.03613965  1
  N  N342  1  0.27283018  0.57685945  0.53647932  1
  N  N343  1  0.96774429  0.74125856  0.96164857  1
  N  N344  1  0.68389877  0.09394084  0.45290590  1
  N  N345  1  0.45497474  0.07454442  0.95664500  1
  N  N346  1  0.26266707  0.58042309  0.96315925  1
  N  N347  1  0.71324705  0.42896104  0.04252091  1
  N  N348  1  0.24152183  0.42453482  0.46492476  1
  N  N349  1  0.79486826  0.75924980  0.03696197  1
  N  N350  1  0.72890387  0.57686394  0.96722166  1
  N  N351  1  0.98420254  0.07387655  0.53716954  1
  N  N352  1  0.48345011  0.58454046  0.46407352  1
  N  N353  1  0.53871916  0.07536442  0.53724187  1
  N  N354  1  0.56065592  0.59802986  0.45840392  1
  N  N355  1  0.44283792  0.25992009  0.45595807  1
  N  N356  1  0.72578403  0.91059332  0.53562143  1
  N  N357  1  0.18609177  0.56622399  0.95423625  1
  N  N358  1  0.51525270  0.41024921  0.96176916  1
  N  N359  1  0.46521090  0.92393555  0.46268114  1
  N  N360  1  0.07233666  0.05413668  0.60274966  1
  N  N361  1  0.05211448  0.38955996  0.59206489  1
  N  N362  1  0.07312367  0.72019225  0.60778591  1
  N  N363  1  0.56638542  0.05562445  0.59366774  1
  N  N364  1  0.55924397  0.39255641  0.59243818  1
  N  N365  1  0.56081500  0.72664204  0.58862390  1
  N  N366  1  0.42773465  0.27902799  0.09989155  1
  N  N367  1  0.44386733  0.61237835  0.09378143  1
  N  N368  1  0.44844019  0.94364186  0.08712446  1
  N  N369  1  0.93203760  0.27675685  0.09865429  1
  N  N370  1  0.93866643  0.61153484  0.09267571  1
  N  N371  1  0.94184282  0.94299412  0.09663050  1
  N  N372  1  0.43362869  0.05741763  0.89783293  1
  N  N373  1  0.43063231  0.38809550  0.89438838  1
  N  N374  1  0.43713386  0.72480322  0.90662831  1
  N  N375  1  0.92789196  0.05350257  0.89404278  1
  N  N376  1  0.94186157  0.38922679  0.91299379  1
  N  N377  1  0.93676014  0.72436126  0.90535342  1
  N  N378  1  0.05521801  0.27675209  0.40577287  1
  N  N379  1  0.07702228  0.61125185  0.39732880  1
  N  N380  1  0.05393738  0.94116607  0.41134251  1
  N  N381  1  0.55419586  0.27646733  0.40863100  1
  N  N382  1  0.57267325  0.61063622  0.39874209  1
  N  N383  1  0.55984839  0.94360314  0.39928452  1
  N  N384  1  0.32338227  0.21981877  0.60510941  1
  N  N385  1  0.30087165  0.55985721  0.59216034  1
  N  N386  1  0.32414760  0.88823911  0.59989466  1
  N  N387  1  0.82355816  0.22423127  0.60299080  1
  N  N388  1  0.80245971  0.55611321  0.58855953  1
  N  N389  1  0.82183066  0.89153283  0.59765810  1
  N  N390  1  0.19389642  0.11301550  0.09190543  1
  N  N391  1  0.18536953  0.44193562  0.09868134  1
  N  N392  1  0.18501709  0.77666587  0.09917495  1
  N  N393  1  0.68894380  0.11182115  0.09865601  1
  N  N394  1  0.68647881  0.45093737  0.09765602  1
  N  N395  1  0.68677126  0.77560659  0.09142293  1
  N  N396  1  0.19590810  0.22533756  0.90945545  1
  N  N397  1  0.17857322  0.55364403  0.89404203  1
  N  N398  1  0.17475141  0.88763437  0.89557015  1
  N  N399  1  0.69000687  0.22185533  0.90302619  1
  N  N400  1  0.69289545  0.56030279  0.91151692  1
  N  N401  1  0.67683138  0.88567377  0.90076431  1
  N  N402  1  0.31160780  0.11008354  0.40027981  1
  N  N403  1  0.32614080  0.44549862  0.39433745  1
  N  N404  1  0.31673441  0.77799776  0.40187126  1
  N  N405  1  0.80181733  0.11057452  0.41296527  1
  N  N406  1  0.81851327  0.44109040  0.40942448  1
  N  N407  1  0.80514415  0.77490851  0.41267655  1
  N  N408  1  0.42618693  0.27648109  0.39702361  1
  N  N409  1  0.44646713  0.60835346  0.41380718  1
  N  N410  1  0.43370216  0.94171462  0.40700470  1
  N  N411  1  0.92532631  0.27886698  0.40066298  1
  N  N412  1  0.94985588  0.60828431  0.40812495  1
  N  N413  1  0.92718505  0.94685053  0.39385660  1
  N  N414  1  0.05275988  0.05660339  0.91172109  1
  N  N415  1  0.06633674  0.38702033  0.89302976  1
  N  N416  1  0.06311614  0.72233100  0.89866577  1
  N  N417  1  0.55993462  0.05674086  0.90312815  1
  N  N418  1  0.55592648  0.38998569  0.91203731  1
  N  N419  1  0.56539805  0.72319309  0.90409201  1
  N  N420  1  0.06213241  0.27657583  0.09782861  1
  N  N421  1  0.06726445  0.61032395  0.08953647  1
  N  N422  1  0.06839480  0.94433254  0.10148096  1
  N  N423  1  0.55502407  0.27246647  0.08666259  1
  N  N424  1  0.57377795  0.61208314  0.09923434  1
  N  N425  1  0.57563724  0.94472781  0.10459471  1
  N  N426  1  0.43749960  0.05645665  0.59365448  1
  N  N427  1  0.43057074  0.39038256  0.59806820  1
  N  N428  1  0.43320667  0.72366397  0.60075646  1
  N  N429  1  0.94643420  0.06154667  0.59075496  1
  N  N430  1  0.92245302  0.38682806  0.59978992  1
  N  N431  1  0.94473256  0.72194873  0.59119615  1
  N  N432  1  0.18222554  0.10816239  0.41099577  1
  N  N433  1  0.19956059  0.44341636  0.41364752  1
  N  N434  1  0.18787405  0.77421918  0.41197911  1
  N  N435  1  0.67734666  0.11090835  0.39368830  1
  N  N436  1  0.69093458  0.44494201  0.39945217  1
  N  N437  1  0.67803251  0.77767164  0.39616933  1
  N  N438  1  0.32479979  0.22055256  0.89625450  1
  N  N439  1  0.30346646  0.55712057  0.91438256  1
  N  N440  1  0.30242751  0.88575988  0.90910802  1
  N  N441  1  0.82009112  0.22169790  0.90030844  1
  N  N442  1  0.81945203  0.55775630  0.89694402  1
  N  N443  1  0.80522348  0.89071879  0.91614963  1
  N  N444  1  0.32181906  0.11282701  0.10495574  1
  N  N445  1  0.31349142  0.44325575  0.09685878  1
  N  N446  1  0.31492668  0.77410626  0.09270648  1
  N  N447  1  0.81686394  0.11013226  0.09629857  1
  N  N448  1  0.81525939  0.44404927  0.10159901  1
  N  N449  1  0.81502423  0.77850795  0.09582364  1
  N  N450  1  0.19681533  0.22339406  0.59062799  1
  N  N451  1  0.17418935  0.55644019  0.59864507  1
  N  N452  1  0.19569192  0.88772622  0.58916712  1
  N  N453  1  0.69605104  0.22501289  0.59332410  1
  N  N454  1  0.67361744  0.55193889  0.60361755  1
  N  N455  1  0.69303008  0.89235047  0.59093930  1
  Cl  Cl456  1  0.25535190  0.04707569  0.62541424  1
  Cl  Cl457  1  0.24103133  0.39386270  0.60311053  1
  Cl  Cl458  1  0.25450116  0.71839244  0.62399165  1
  Cl  Cl459  1  0.76074780  0.05745863  0.60019445  1
  Cl  Cl460  1  0.74057659  0.38634145  0.62938832  1
  Cl  Cl461  1  0.75533839  0.72770221  0.60427971  1
  Cl  Cl462  1  0.24546650  0.27845828  0.12127873  1
  Cl  Cl463  1  0.25463211  0.60567205  0.10844836  1
  Cl  Cl464  1  0.26180477  0.93726977  0.10725175  1
  Cl  Cl465  1  0.74062430  0.28051321  0.11627051  1
  Cl  Cl466  1  0.75693624  0.61675581  0.12255570  1
  Cl  Cl467  1  0.75829672  0.94643004  0.12314978  1
  Cl  Cl468  1  0.23894292  0.05994553  0.89842935  1
  Cl  Cl469  1  0.24843288  0.38497949  0.87221030  1
  Cl  Cl470  1  0.25026033  0.71921104  0.88878829  1
  Cl  Cl471  1  0.74402219  0.05320818  0.87512483  1
  Cl  Cl472  1  0.74588444  0.39635721  0.90292014  1
  Cl  Cl473  1  0.75230788  0.72044060  0.87564916  1
  Cl  Cl474  1  0.24159630  0.28034966  0.38887495  1
  Cl  Cl475  1  0.26131432  0.60829135  0.38032846  1
  Cl  Cl476  1  0.24124586  0.94119043  0.39276836  1
  Cl  Cl477  1  0.73807974  0.27983701  0.38561048  1
  Cl  Cl478  1  0.76045028  0.61610556  0.38843882  1
  Cl  Cl479  1  0.74306521  0.94295951  0.39289998  1
  Cl  Cl480  1  0.01198998  0.22087925  0.61497827  1
  Cl  Cl481  1  -0.00829896  0.55049577  0.61741319  1
  Cl  Cl482  1  0.00917877  0.89197578  0.60965637  1
  Cl  Cl483  1  0.51040439  0.22076618  0.61002977  1
  Cl  Cl484  1  0.48554992  0.56010418  0.61234922  1
  Cl  Cl485  1  0.50968998  0.88495999  0.62416295  1
  Cl  Cl486  1  0.00931124  0.10720636  0.10752299  1
  Cl  Cl487  1  -0.00276991  0.44393779  0.11012849  1
  Cl  Cl488  1  -0.00128376  0.77918335  0.12657172  1
  Cl  Cl489  1  0.50455269  0.12014433  0.12145376  1
  Cl  Cl490  1  0.50395618  0.43981202  0.10577032  1
  Cl  Cl491  1  0.49987516  0.78215882  0.11720866  1
  Cl  Cl492  1  0.00592549  0.22035351  0.88320775  1
  Cl  Cl493  1  -0.00057800  0.55173332  0.88459482  1
  Cl  Cl494  1  -0.01091099  0.88797540  0.87682156  1
  Cl  Cl495  1  0.50626430  0.22295032  0.87791586  1
  Cl  Cl496  1  0.49178070  0.56042815  0.88892983  1
  Cl  Cl497  1  0.48268207  0.89374800  0.89723975  1
  Cl  Cl498  1  -0.01351309  0.10967392  0.39657822  1
  Cl  Cl499  1  0.01181771  0.44239404  0.38705872  1
  Cl  Cl500  1  -0.00676077  0.77724634  0.39278075  1
  Cl  Cl501  1  0.49645686  0.11515308  0.38692378  1
  Cl  Cl502  1  0.50727582  0.44648257  0.37907223  1
  Cl  Cl503  1  0.49909235  0.77512551  0.38327949  1
  Cl  Cl504  1  0.36412938  0.14639476  0.75100442  1
  Cl  Cl505  1  0.35869752  0.48097277  0.74490327  1
  Cl  Cl506  1  0.36044588  0.81529302  0.74775803  1
  Cl  Cl507  1  0.86184668  0.14671994  0.74816322  1
  Cl  Cl508  1  0.86099342  0.48024421  0.75544553  1
  Cl  Cl509  1  0.85851342  0.81616989  0.74075650  1
  Cl  Cl510  1  0.14280300  0.18490990  0.25119539  1
  Cl  Cl511  1  0.14585814  0.51960739  0.24977851  1
  Cl  Cl512  1  0.14346011  0.85597807  0.24963719  1
  Cl  Cl513  1  0.64343372  0.18652086  0.25482083  1
  Cl  Cl514  1  0.63867787  0.52093024  0.25426887  1
  Cl  Cl515  1  0.64062300  0.85612268  0.25585348  1
  Cl  Cl516  1  0.14266169  0.14911775  0.74934796  1
  Cl  Cl517  1  0.13827565  0.48047776  0.75703330  1
  Cl  Cl518  1  0.13998279  0.81450719  0.75095057  1
  Cl  Cl519  1  0.64145890  0.14829357  0.74449237  1
  Cl  Cl520  1  0.63823180  0.48350549  0.74950279  1
  Cl  Cl521  1  0.63841601  0.81494536  0.75657411  1
  Cl  Cl522  1  0.36329252  0.18813511  0.25439405  1
  Cl  Cl523  1  0.36590271  0.52011585  0.25314802  1
  Cl  Cl524  1  0.36132212  0.85160920  0.25431162  1
  Cl  Cl525  1  0.86374765  0.18797000  0.25095293  1
  Cl  Cl526  1  0.86080104  0.51800634  0.24828714  1
  Cl  Cl527  1  0.86115004  0.85257129  0.25556228  1
  Cl  Cl528  1  0.10891006  0.31651162  0.75262971  1
  Cl  Cl529  1  0.11608255  0.64402150  0.74973100  1
  Cl  Cl530  1  0.11149459  0.98102793  0.74928974  1
  Cl  Cl531  1  0.60776200  0.31718987  0.74960393  1
  Cl  Cl532  1  0.60937292  0.64746292  0.74368430  1
  Cl  Cl533  1  0.60921824  0.98204591  0.74685091  1
  Cl  Cl534  1  0.39350930  0.02039809  0.24555421  1
  Cl  Cl535  1  0.38502067  0.35540086  0.25351773  1
  Cl  Cl536  1  0.39671805  0.68558939  0.24976032  1
  Cl  Cl537  1  0.89152338  0.02277778  0.25763761  1
  Cl  Cl538  1  0.89206050  0.35483044  0.25271466  1
  Cl  Cl539  1  0.89583640  0.68364675  0.25212483  1
  Cl  Cl540  1  0.38758242  0.31291539  0.74608220  1
  Cl  Cl541  1  0.38797190  0.64851753  0.74743584  1
  Cl  Cl542  1  0.38828624  0.98064784  0.75123593  1
  Cl  Cl543  1  0.88540244  0.31253241  0.74870808  1
  Cl  Cl544  1  0.89297598  0.64800196  0.74996326  1
  Cl  Cl545  1  0.89035400  0.98261992  0.74699242  1
  Cl  Cl546  1  0.11255082  0.01967567  0.25197016  1
  Cl  Cl547  1  0.11056654  0.35209023  0.24377570  1
  Cl  Cl548  1  0.11512347  0.68657503  0.25015513  1
  Cl  Cl549  1  0.61596457  0.02206558  0.25209590  1
  Cl  Cl550  1  0.60511964  0.34928531  0.24739685  1
  Cl  Cl551  1  0.61485384  0.68732165  0.25670433  1
