# generated using pymatgen
data_H8PbC4(N3Cl2)2
_symmetry_space_group_name_H-M   'P 1'
_cell_length_a   16.62714834
_cell_length_b   22.50926822
_cell_length_c   21.59246356
_cell_angle_alpha   90.00016329
_cell_angle_beta   90.00342851
_cell_angle_gamma   89.99833006
_symmetry_Int_Tables_number   1
_chemical_formula_structural   H8PbC4(N3Cl2)2
_chemical_formula_sum   'H192 Pb24 C96 N144 Cl96'
_cell_volume   8081.30209823
_cell_formula_units_Z   24
loop_
 _symmetry_equiv_pos_site_id
 _symmetry_equiv_pos_as_xyz
  1  'x, y, z'
loop_
 _atom_site_type_symbol
 _atom_site_label
 _atom_site_symmetry_multiplicity
 _atom_site_fract_x
 _atom_site_fract_y
 _atom_site_fract_z
 _atom_site_occupancy
  H  H0  1  0.00060950  0.03067363  0.67964268  1
  H  H1  1  0.00684669  0.36569669  0.67815750  1
  H  H2  1  0.00140053  0.69579841  0.67963048  1
  H  H3  1  0.49583411  0.02775796  0.67799456  1
  H  H4  1  0.49758398  0.36550583  0.67909988  1
  H  H5  1  0.49238058  0.69834249  0.67845746  1
  H  H6  1  0.00656852  0.29951434  0.17690907  1
  H  H7  1  -0.00243732  0.63620807  0.17853202  1
  H  H8  1  -0.00131767  0.96717506  0.18019473  1
  H  H9  1  0.48759689  0.30382385  0.18171705  1
  H  H10  1  0.49725058  0.63564992  0.17798306  1
  H  H11  1  0.51096806  0.96776514  0.17916100  1
  H  H12  1  0.01464200  0.02744218  0.82264349  1
  H  H13  1  -0.00502052  0.36588225  0.81563624  1
  H  H14  1  -0.01193992  0.69759895  0.81944307  1
  H  H15  1  0.49010275  0.02962276  0.81974939  1
  H  H16  1  0.50790217  0.36538980  0.82284453  1
  H  H17  1  0.50762553  0.69733465  0.82278264  1
  H  H18  1  0.01091569  0.30196472  0.32009158  1
  H  H19  1  -0.00416178  0.63868075  0.32193901  1
  H  H20  1  -0.01296650  0.96734901  0.32527539  1
  H  H21  1  0.49243418  0.30547155  0.31897020  1
  H  H22  1  0.50105215  0.63580800  0.32170255  1
  H  H23  1  0.50581287  0.96826208  0.31923813  1
  H  H24  1  0.25896742  0.19461255  0.68160936  1
  H  H25  1  0.24715485  0.53147958  0.67881947  1
  H  H26  1  0.25874603  0.86270347  0.68093060  1
  H  H27  1  0.74145279  0.19471412  0.67842496  1
  H  H28  1  0.75277991  0.53072465  0.68100052  1
  H  H29  1  0.75751177  0.86454879  0.67861409  1
  H  H30  1  0.25446499  0.13615946  0.18200836  1
  H  H31  1  0.24135095  0.47006531  0.17641400  1
  H  H32  1  0.24373659  0.80245621  0.17976649  1
  H  H33  1  0.74904731  0.13509675  0.17807688  1
  H  H34  1  0.76128434  0.46959200  0.18176156  1
  H  H35  1  0.75402549  0.80334710  0.18027132  1
  H  H36  1  0.25898919  0.19948040  0.81594359  1
  H  H37  1  0.25498942  0.53159651  0.82150822  1
  H  H38  1  0.24882371  0.86363928  0.81913477  1
  H  H39  1  0.74338745  0.19790697  0.82389819  1
  H  H40  1  0.75052802  0.53072836  0.81909507  1
  H  H41  1  0.74998386  0.86546438  0.82504537  1
  H  H42  1  0.26183357  0.13237117  0.31902259  1
  H  H43  1  0.24611060  0.47065006  0.32042355  1
  H  H44  1  0.24481550  0.80486219  0.31900274  1
  H  H45  1  0.74756143  0.13508783  0.31994300  1
  H  H46  1  0.74764401  0.46924314  0.32187102  1
  H  H47  1  0.75442119  0.80411897  0.32294761  1
  H  H48  1  0.12523490  0.05298192  0.61147712  1
  H  H49  1  0.10949918  0.39210936  0.59433049  1
  H  H50  1  0.12681334  0.71918478  0.60864490  1
  H  H51  1  0.62952718  0.05197313  0.61902334  1
  H  H52  1  0.61398835  0.39056476  0.60296003  1
  H  H53  1  0.63113873  0.71698226  0.62404410  1
  H  H54  1  0.37100345  0.28068962  0.10517822  1
  H  H55  1  0.38351686  0.61153686  0.10164011  1
  H  H56  1  0.37660177  0.94757964  0.11728519  1
  H  H57  1  0.86642764  0.28165910  0.12574827  1
  H  H58  1  0.88630281  0.60943158  0.09758801  1
  H  H59  1  0.87439622  0.94481024  0.10700910  1
  H  H60  1  0.37750545  0.05532348  0.90002390  1
  H  H61  1  0.37190630  0.38651627  0.88174042  1
  H  H62  1  0.37402891  0.71698907  0.88416944  1
  H  H63  1  0.87434785  0.04658922  0.87592250  1
  H  H64  1  0.87169383  0.38685404  0.88642123  1
  H  H65  1  0.88021995  0.72638703  0.90332951  1
  H  H66  1  0.11864687  0.27491353  0.40460027  1
  H  H67  1  0.12945807  0.61456871  0.38280398  1
  H  H68  1  0.12717916  0.95154175  0.37575559  1
  H  H69  1  0.61995589  0.27913932  0.38361725  1
  H  H70  1  0.62689863  0.61270468  0.39173262  1
  H  H71  1  0.63091530  0.94588698  0.38975858  1
  H  H72  1  0.37926192  0.22138398  0.60746818  1
  H  H73  1  0.37149778  0.55550626  0.60898728  1
  H  H74  1  0.37172662  0.89046647  0.59985660  1
  H  H75  1  0.87665449  0.21748555  0.61900312  1
  H  H76  1  0.86846833  0.55717072  0.60384072  1
  H  H77  1  0.87014667  0.89111255  0.59947356  1
  H  H78  1  0.12732047  0.11349013  0.11442176  1
  H  H79  1  0.13344864  0.44122172  0.09434444  1
  H  H80  1  0.12630636  0.77867533  0.10433531  1
  H  H81  1  0.62867211  0.10961835  0.10459141  1
  H  H82  1  0.62487601  0.45116147  0.12066916  1
  H  H83  1  0.62086299  0.78249250  0.11627032  1
  H  H84  1  0.12833562  0.21878932  0.87898233  1
  H  H85  1  0.11751299  0.55108721  0.87727955  1
  H  H86  1  0.12656391  0.88746295  0.89292591  1
  H  H87  1  0.63593501  0.22483824  0.90613296  1
  H  H88  1  0.61930903  0.55076545  0.88221899  1
  H  H89  1  0.62549277  0.88583743  0.89341520  1
  H  H90  1  0.36830861  0.10627632  0.40458489  1
  H  H91  1  0.38205423  0.44980517  0.38011447  1
  H  H92  1  0.37094783  0.77909313  0.38813736  1
  H  H93  1  0.87279989  0.11131186  0.39179527  1
  H  H94  1  0.88169025  0.44715029  0.38308188  1
  H  H95  1  0.86969673  0.77919840  0.40002862  1
  H  H96  1  0.37115334  0.27935067  0.39285013  1
  H  H97  1  0.37811267  0.61204869  0.39292273  1
  H  H98  1  0.38144656  0.94587667  0.39136444  1
  H  H99  1  0.87362138  0.28260206  0.37796317  1
  H  H100  1  0.88209030  0.61099406  0.40181243  1
  H  H101  1  0.88275453  0.94213979  0.40990558  1
  H  H102  1  0.11764965  0.05768765  0.90847049  1
  H  H103  1  0.12150344  0.38742978  0.88336458  1
  H  H104  1  0.12570572  0.71587164  0.87711039  1
  H  H105  1  0.62556879  0.04967919  0.88143668  1
  H  H106  1  0.61858206  0.39318467  0.90326788  1
  H  H107  1  0.62141116  0.72403043  0.90279470  1
  H  H108  1  0.11137352  0.27577610  0.09372391  1
  H  H109  1  0.13275932  0.61430741  0.11828738  1
  H  H110  1  0.12351538  0.94527649  0.10723803  1
  H  H111  1  0.61995331  0.27944601  0.11920353  1
  H  H112  1  0.63071132  0.61697993  0.11814771  1
  H  H113  1  0.62440804  0.94324064  0.09996713  1
  H  H114  1  0.38181896  0.05595598  0.59979264  1
  H  H115  1  0.36574948  0.38889614  0.61536427  1
  H  H116  1  0.38454173  0.72183587  0.59635248  1
  H  H117  1  0.87618985  0.05020490  0.60896969  1
  H  H118  1  0.86492026  0.38114039  0.62795806  1
  H  H119  1  0.87797761  0.72320843  0.61122713  1
  H  H120  1  0.12345214  0.11566612  0.37580923  1
  H  H121  1  0.13421566  0.44583476  0.39993094  1
  H  H122  1  0.12176410  0.78041077  0.39052585  1
  H  H123  1  0.62424330  0.11066330  0.39331324  1
  H  H124  1  0.63318122  0.44515845  0.40049449  1
  H  H125  1  0.62119320  0.78004452  0.38453055  1
  H  H126  1  0.37727462  0.22150579  0.89076781  1
  H  H127  1  0.36516304  0.55650757  0.90137737  1
  H  H128  1  0.37607701  0.88543321  0.88739303  1
  H  H129  1  0.88229789  0.21753209  0.87930364  1
  H  H130  1  0.86823611  0.55535139  0.89326750  1
  H  H131  1  0.87457828  0.88708435  0.89300803  1
  H  H132  1  0.37709787  0.11018917  0.11016678  1
  H  H133  1  0.37907394  0.45342132  0.11912619  1
  H  H134  1  0.37500326  0.78184595  0.11754601  1
  H  H135  1  0.87669746  0.11031524  0.10938073  1
  H  H136  1  0.87246504  0.44345804  0.10093697  1
  H  H137  1  0.86933123  0.77955346  0.10163435  1
  H  H138  1  0.13018061  0.21975285  0.61739924  1
  H  H139  1  0.12254675  0.55471551  0.60727441  1
  H  H140  1  0.12400046  0.88435117  0.61810688  1
  H  H141  1  0.63081300  0.22362491  0.59683378  1
  H  H142  1  0.61952475  0.55217088  0.61629971  1
  H  H143  1  0.62248566  0.88559834  0.61753759  1
  H  H144  1  0.30032931  0.58667190  1.00745567  1
  H  H145  1  0.07875833  0.40831688  0.99744055  1
  H  H146  1  0.08153841  0.08111872  0.49918448  1
  H  H147  1  0.17034610  0.08666693  0.00246746  1
  H  H148  1  0.32461121  0.08563896  0.00409976  1
  H  H149  1  0.11296171  0.92075696  0.49115536  1
  H  H150  1  0.70390168  0.24571527  0.49532846  1
  H  H151  1  0.45108243  0.75038701  0.49107179  1
  H  H152  1  0.33166090  0.91409405  0.99707449  1
  H  H153  1  0.58292709  0.25994743  0.00984485  1
  H  H154  1  0.43114656  0.27254834  0.50083586  1
  H  H155  1  0.64918775  0.75074352  0.49240941  1
  H  H156  1  0.58335702  0.91773164  0.49853872  1
  H  H157  1  0.03758548  0.07950353  1.00740723  1
  H  H158  1  0.20740530  0.43031952  -0.00771009  1
  H  H159  1  0.91910722  0.41150758  0.99871849  1
  H  H160  1  0.80306223  0.41921427  -0.00551620  1
  H  H161  1  0.69514325  0.41617366  0.50740266  1
  H  H162  1  0.19883011  0.42067698  0.50775089  1
  H  H163  1  0.80608051  0.58544842  0.49725939  1
  H  H164  1  0.86658816  0.24853066  0.99241123  1
  H  H165  1  0.29085338  0.07753253  0.50261665  1
  H  H166  1  0.95557598  0.75179986  1.00261742  1
  H  H167  1  0.32227443  0.24001610  1.00295951  1
  H  H168  1  0.03805229  0.24908685  -0.01249839  1
  H  H169  1  0.85493555  0.41697123  0.49362207  1
  H  H170  1  0.35459336  0.41953414  0.01258794  1
  H  H171  1  0.43176815  0.26267488  -0.00624939  1
  H  H172  1  0.16324044  0.24548713  0.99327413  1
  H  H173  1  0.10638306  0.58619758  0.00950517  1
  H  H174  1  0.31918270  0.23012226  0.49982465  1
  H  H175  1  0.57975719  0.25028229  0.49559343  1
  H  H176  1  0.83024998  0.08021114  0.00498660  1
  H  H177  1  0.81091978  0.74978133  0.50714410  1
  H  H178  1  0.81446586  0.58433919  1.00210350  1
  H  H179  1  0.17964085  0.75065280  -0.00371546  1
  H  H180  1  0.64740066  0.58171164  0.99332605  1
  H  H181  1  0.95270639  0.58457758  0.50368639  1
  H  H182  1  0.04259332  0.24941240  0.50423790  1
  H  H183  1  0.44883746  0.08183418  0.49668005  1
  H  H184  1  0.44625846  0.07999926  1.00679008  1
  H  H185  1  0.35390159  0.42454226  0.48818615  1
  H  H186  1  0.80594803  0.75526153  -0.00561554  1
  H  H187  1  0.03496009  0.41895905  0.48937768  1
  H  H188  1  0.17320169  0.74870010  0.49800427  1
  H  H189  1  0.34487685  0.75047787  0.00562083  1
  H  H190  1  0.70730685  0.25010060  1.01206749  1
  H  H191  1  0.16894975  0.24826597  0.50549941  1
  Pb  Pb192  1  0.25050260  0.04695478  0.75385292  1
  Pb  Pb193  1  0.24390011  0.38251855  0.74800823  1
  Pb  Pb194  1  0.24941677  0.71176189  0.74364716  1
  Pb  Pb195  1  0.74949533  0.04437086  0.75114912  1
  Pb  Pb196  1  0.74199887  0.38110103  0.75238658  1
  Pb  Pb197  1  0.74590429  0.71635846  0.75576307  1
  Pb  Pb198  1  0.24472522  0.28394576  0.24904734  1
  Pb  Pb199  1  0.25214038  0.62064203  0.24989712  1
  Pb  Pb200  1  0.24649298  0.95107572  0.24666847  1
  Pb  Pb201  1  0.74521912  0.28627264  0.25366193  1
  Pb  Pb202  1  0.75266576  0.62044455  0.25136278  1
  Pb  Pb203  1  0.75228861  0.95272615  0.25402190  1
  Pb  Pb204  1  -0.00166196  0.21206491  0.74370506  1
  Pb  Pb205  1  -0.00650397  0.54880277  0.74323932  1
  Pb  Pb206  1  -0.00030553  0.87970146  0.74778748  1
  Pb  Pb207  1  0.50190380  0.21441122  0.75330778  1
  Pb  Pb208  1  0.49545626  0.54762584  0.75113042  1
  Pb  Pb209  1  0.49677656  0.87932724  0.74652907  1
  Pb  Pb210  1  -0.00476978  0.11870844  0.24597821  1
  Pb  Pb211  1  0.00090861  0.45284549  0.24422522  1
  Pb  Pb212  1  -0.00365564  0.78513631  0.24500799  1
  Pb  Pb213  1  0.49606002  0.11509319  0.25287365  1
  Pb  Pb214  1  0.50154505  0.45581127  0.25405349  1
  Pb  Pb215  1  0.50058071  0.78723860  0.25117724  1
  C  C216  1  0.00125106  0.04492124  0.63176413  1
  C  C217  1  -0.00648126  0.37966560  0.63109611  1
  C  C218  1  0.00236670  0.71232850  0.63273551  1
  C  C219  1  0.50220465  0.04429030  0.63119242  1
  C  C220  1  0.49196020  0.38104964  0.63199757  1
  C  C221  1  0.50248278  0.71240151  0.63106017  1
  C  C222  1  -0.00546120  0.28553375  0.12954717  1
  C  C223  1  0.00596995  0.62044290  0.13148736  1
  C  C224  1  -0.00108550  0.95251099  0.13233900  1
  C  C225  1  0.49348450  0.28825177  0.13425650  1
  C  C226  1  0.50414156  0.62135961  0.13050297  1
  C  C227  1  0.50356360  0.95309733  0.13185320  1
  C  C228  1  0.00271253  0.04306332  0.86933044  1
  C  C229  1  -0.00384580  0.37991173  0.86375662  1
  C  C230  1  -0.00237697  0.71215260  0.86676409  1
  C  C231  1  0.49775334  0.04498690  0.86701354  1
  C  C232  1  0.49903779  0.38055521  0.86984501  1
  C  C233  1  0.50139383  0.71195579  0.87025257  1
  C  C234  1  0.00130178  0.28763991  0.36749226  1
  C  C235  1  0.00200562  0.62238574  0.36892315  1
  C  C236  1  0.00007770  0.95343776  0.37225861  1
  C  C237  1  0.49373302  0.28904393  0.36632411  1
  C  C238  1  0.50231142  0.62030948  0.36903069  1
  C  C239  1  0.50609550  0.95327481  0.36695223  1
  C  C240  1  0.25681838  0.21101453  0.63430263  1
  C  C241  1  0.24672018  0.54685007  0.63142552  1
  C  C242  1  0.25152587  0.87836315  0.63376810  1
  C  C243  1  0.74934460  0.21070151  0.63144401  1
  C  C244  1  0.74677917  0.54646306  0.63372335  1
  C  C245  1  0.74964375  0.87991732  0.63161577  1
  C  C246  1  0.25336057  0.12060463  0.13429346  1
  C  C247  1  0.25138689  0.45491739  0.12912012  1
  C  C248  1  0.24850950  0.78736181  0.13208278  1
  C  C249  1  0.75198146  0.11885646  0.13084120  1
  C  C250  1  0.75277726  0.45466502  0.13441999  1
  C  C251  1  0.74796444  0.78866270  0.13265673  1
  C  C252  1  0.25472590  0.21365270  0.86390489  1
  C  C253  1  0.24613360  0.54651735  0.86874738  1
  C  C254  1  0.25045029  0.87953826  0.86651752  1
  C  C255  1  0.75462770  0.21338260  0.87093231  1
  C  C256  1  0.74586177  0.54606461  0.86668178  1
  C  C257  1  0.75002685  0.88005017  0.87305463  1
  C  C258  1  0.25155778  0.11826675  0.36642801  1
  C  C259  1  0.25475662  0.45504117  0.36765708  1
  C  C260  1  0.24596751  0.78839756  0.36613706  1
  C  C261  1  0.74803951  0.11967958  0.36752126  1
  C  C262  1  0.75486276  0.45370090  0.36934433  1
  C  C263  1  0.74788947  0.78785153  0.37016667  1
  C  C264  1  0.52069277  0.41103947  0.53789937  1
  C  C265  1  0.18659767  0.57198945  0.95630727  1
  C  C266  1  0.29070972  0.90512930  0.95873427  1
  C  C267  1  0.29889302  0.76107062  0.04093470  1
  C  C268  1  0.46247986  0.26478677  0.03813072  1
  C  C269  1  0.47725027  0.59407646  0.03570490  1
  C  C270  1  0.45101471  0.73795261  0.95993108  1
  C  C271  1  0.00955901  0.25971795  0.03151970  1
  C  C272  1  0.55734236  0.07662794  0.54373978  1
  C  C273  1  0.77341104  0.42831541  0.03844367  1
  C  C274  1  0.46660956  0.59155152  0.46149727  1
  C  C275  1  0.20563878  0.23583419  0.95626012  1
  C  C276  1  0.95993091  0.06992578  0.53822902  1
  C  C277  1  0.77323173  0.76377752  0.03710650  1
  C  C278  1  0.77364672  0.91048479  0.53714123  1
  C  C279  1  0.00640688  0.40699934  0.53307114  1
  C  C280  1  0.06334393  0.92928256  0.45912044  1
  C  C281  1  0.98298560  0.92668158  0.46960516  1
  C  C282  1  0.72753813  0.42641885  0.46488860  1
  C  C283  1  0.96459749  0.74389839  0.54131616  1
  C  C284  1  0.56388153  0.73646454  0.54407242  1
  C  C285  1  0.28431174  0.57604394  0.53955046  1
  C  C286  1  0.48354624  0.73908755  0.53318326  1
  C  C287  1  0.71000974  0.90680787  0.96454851  1
  C  C288  1  0.52093453  0.41101537  0.96489994  1
  C  C289  1  0.73549157  0.24064002  0.96759755  1
  C  C290  1  0.03903985  0.40147783  0.95805230  1
  C  C291  1  0.54361536  0.92784832  0.45993872  1
  C  C292  1  0.79014662  0.90739973  0.96434501  1
  C  C293  1  0.21686277  0.76080691  0.03626250  1
  C  C294  1  0.28734225  0.23492738  0.96076560  1
  C  C295  1  0.47607515  0.07133510  0.96285181  1
  C  C296  1  0.92623553  0.40297339  0.54565358  1
  C  C297  1  0.77743981  0.57327572  0.96219636  1
  C  C298  1  0.26746339  0.57464055  0.96572562  1
  C  C299  1  0.22949842  0.42916241  0.46414733  1
  C  C300  1  0.04144495  0.07098533  0.53744908  1
  C  C301  1  0.20931026  0.09485369  0.04205958  1
  C  C302  1  0.95712919  0.40247790  0.95885200  1
  C  C303  1  0.92894526  0.26192829  0.04306825  1
  C  C304  1  0.21115661  0.75979254  0.45873732  1
  C  C305  1  0.69549383  0.57174489  0.95789511  1
  C  C306  1  0.77646215  0.75985574  0.46544461  1
  C  C307  1  0.77289291  0.57414752  0.53910810  1
  C  C308  1  0.52843123  0.92410367  0.03703016  1
  C  C309  1  0.55727465  0.59587376  0.04126505  1
  C  C310  1  0.20954419  0.23901972  0.54385463  1
  C  C311  1  0.53996024  0.26063961  0.45707605  1
  N  N312  1  0.45986212  0.26156232  0.46036233  1
  N  N313  1  0.05791489  0.59472466  0.04382976  1
  N  N314  1  0.72995664  0.24050163  0.53807744  1
  N  N315  1  0.80738583  0.23872035  0.54434435  1
  N  N316  1  0.98040389  0.59275231  0.03555586  1
  N  N317  1  0.44400766  0.40711661  0.95950444  1
  N  N318  1  0.18910540  0.09740733  0.45372885  1
  N  N319  1  0.30920026  0.43585132  0.04161686  1
  N  N320  1  0.71094923  0.09348664  0.46164740  1
  N  N321  1  0.94038362  0.26260231  0.45443507  1
  N  N322  1  0.30835607  0.42865090  0.45543432  1
  N  N323  1  0.04234271  0.74257491  0.53930230  1
  N  N324  1  0.78710292  0.09344127  0.46115931  1
  N  N325  1  0.69440864  0.76336220  0.04222453  1
  N  N326  1  0.01448399  0.07406691  0.96331985  1
  N  N327  1  0.96108169  0.92711158  0.03830435  1
  N  N328  1  0.20040180  0.90706197  0.54505776  1
  N  N329  1  0.80688793  0.42683832  0.45817853  1
  N  N330  1  0.28957267  0.23918876  0.54039790  1
  N  N331  1  0.52791773  0.74047095  0.96704602  1
  N  N332  1  0.29039494  0.75897093  0.45826753  1
  N  N333  1  0.27599655  0.90885549  0.53878074  1
  N  N334  1  0.23183649  0.42307460  0.03538306  1
  N  N335  1  0.44323965  0.40973950  0.54085948  1
  N  N336  1  0.05720845  0.59237898  0.45616132  1
  N  N337  1  0.79173040  0.09120944  0.04057125  1
  N  N338  1  0.28879168  0.09279853  0.04183655  1
  N  N339  1  0.05870191  0.73578426  0.95395029  1
  N  N340  1  0.69646478  0.90818179  0.54160484  1
  N  N341  1  0.21144475  0.90644279  0.96095551  1
  N  N342  1  0.81412638  0.23918791  0.95754925  1
  N  N343  1  0.46435396  0.92762082  0.46103386  1
  N  N344  1  0.45106285  0.92550462  0.04123546  1
  N  N345  1  0.26626203  0.09486231  0.46246184  1
  N  N346  1  0.69398992  0.57260622  0.54327780  1
  N  N347  1  0.93745913  0.06981819  0.95374460  1
  N  N348  1  0.69486106  0.42960573  0.04553332  1
  N  N349  1  0.98150501  0.73995881  0.96116500  1
  N  N350  1  0.71373360  0.09073568  0.03741557  1
  N  N351  1  0.54379631  0.59163833  0.46237809  1
  N  N352  1  0.54150323  0.26149700  0.04481158  1
  N  N353  1  0.20699849  0.57500870  0.53738778  1
  N  N354  1  0.97960990  0.59086582  0.46120983  1
  N  N355  1  0.55465791  0.07114118  0.95606020  1
  N  N356  1  0.01747201  0.26042957  0.46213394  1
  N  N357  1  0.03730291  0.92727668  0.03838092  1
  N  N358  1  0.69721340  0.75972505  0.45876012  1
  N  N359  1  0.47878052  0.07603055  0.53787780  1
  N  N360  1  0.06601746  0.05543800  0.59698313  1
  N  N361  1  0.04744096  0.39219521  0.58739260  1
  N  N362  1  0.06591586  0.72263715  0.59768840  1
  N  N363  1  0.57197036  0.05767495  0.60163859  1
  N  N364  1  0.55273068  0.39329566  0.59258909  1
  N  N365  1  0.57483057  0.72066602  0.60352361  1
  N  N366  1  0.43200156  0.27920991  0.09416230  1
  N  N367  1  0.44435190  0.60953304  0.09012181  1
  N  N368  1  0.43561646  0.94370131  0.10190155  1
  N  N369  1  0.92124293  0.27754955  0.10342896  1
  N  N370  1  0.94859497  0.60832534  0.09038115  1
  N  N371  1  0.93563189  0.94266299  0.09641210  1
  N  N372  1  0.43916988  0.05619974  0.90822567  1
  N  N373  1  0.43010452  0.38797086  0.89900819  1
  N  N374  1  0.43213894  0.72085461  0.90120967  1
  N  N375  1  0.93103664  0.05259100  0.89458582  1
  N  N376  1  0.93165886  0.38905678  0.89987512  1
  N  N377  1  0.94244509  0.72427500  0.90902493  1
  N  N378  1  0.05654774  0.27696154  0.41020613  1
  N  N379  1  0.07060603  0.61040487  0.39809711  1
  N  N380  1  0.07238856  0.94587414  0.39764295  1
  N  N381  1  0.56064658  0.27536395  0.39875803  1
  N  N382  1  0.56647451  0.60980020  0.40346488  1
  N  N383  1  0.57084891  0.94334090  0.40245816  1
  N  N384  1  0.31834342  0.21775761  0.59621110  1
  N  N385  1  0.31153127  0.55885561  0.59598124  1
  N  N386  1  0.30934467  0.89078947  0.59348312  1
  N  N387  1  0.81881376  0.22165888  0.60309257  1
  N  N388  1  0.80702134  0.55838216  0.59436005  1
  N  N389  1  0.80860746  0.89310585  0.59081208  1
  N  N390  1  0.18687377  0.11126194  0.09970088  1
  N  N391  1  0.19526261  0.44501773  0.08672819  1
  N  N392  1  0.18695584  0.77693931  0.09335986  1
  N  N393  1  0.68941256  0.10776855  0.09393962  1
  N  N394  1  0.68380867  0.44612051  0.10507853  1
  N  N395  1  0.68045531  0.77907761  0.10161608  1
  N  N396  1  0.18674897  0.22275408  0.89582769  1
  N  N397  1  0.17437185  0.55531776  0.89711067  1
  N  N398  1  0.18805860  0.89053805  0.90304476  1
  N  N399  1  0.69795922  0.22500944  0.91414525  1
  N  N400  1  0.67780394  0.55507235  0.89830060  1
  N  N401  1  0.68457008  0.89026851  0.90882035  1
  N  N402  1  0.30583058  0.10565479  0.40907526  1
  N  N403  1  0.32355131  0.44529255  0.39629393  1
  N  N404  1  0.31025376  0.77679006  0.40027214  1
  N  N405  1  0.81173779  0.10951455  0.40290980  1
  N  N406  1  0.82291992  0.44369045  0.39913939  1
  N  N407  1  0.80834170  0.77684270  0.41029213  1
  N  N408  1  0.43191922  0.28335403  0.40431153  1
  N  N409  1  0.43821481  0.60878917  0.40537068  1
  N  N410  1  0.44270639  0.94323904  0.40270395  1
  N  N411  1  0.93084776  0.27884217  0.39521511  1
  N  N412  1  0.94413012  0.61149794  0.40940009  1
  N  N413  1  0.94488985  0.94123015  0.41723875  1
  N  N414  1  0.05567781  0.05515859  0.91313233  1
  N  N415  1  0.06207064  0.38759793  0.89859682  1
  N  N416  1  0.06806908  0.71946320  0.89487292  1
  N  N417  1  0.56636112  0.05445803  0.89663557  1
  N  N418  1  0.55700875  0.39452687  0.91126785  1
  N  N419  1  0.55966725  0.72340818  0.90997484  1
  N  N420  1  0.04957730  0.27455580  0.08620925  1
  N  N421  1  0.07439376  0.61176926  0.10186457  1
  N  N422  1  0.06237595  0.94260922  0.09670748  1
  N  N423  1  0.56053762  0.27822900  0.10347876  1
  N  N424  1  0.57374039  0.61250996  0.09969520  1
  N  N425  1  0.56301683  0.94091846  0.09106314  1
  N  N426  1  0.44371373  0.05431807  0.59105866  1
  N  N427  1  0.42508518  0.39093255  0.60078058  1
  N  N428  1  0.44625314  0.72383083  0.58880122  1
  N  N429  1  0.93599687  0.05432860  0.59503835  1
  N  N430  1  0.91943715  0.38662771  0.60562545  1
  N  N431  1  0.93785789  0.72581348  0.59759009  1
  N  N432  1  0.18059816  0.11274532  0.39430010  1
  N  N433  1  0.19578133  0.44418338  0.40931665  1
  N  N434  1  0.18222804  0.77753669  0.40249105  1
  N  N435  1  0.68507634  0.10964797  0.40366194  1
  N  N436  1  0.69490101  0.44268028  0.40993624  1
  N  N437  1  0.68033233  0.77705386  0.40018102  1
  N  N438  1  0.31687402  0.22163230  0.90273951  1
  N  N439  1  0.30344944  0.55848072  0.90995799  1
  N  N440  1  0.31614943  0.88937854  0.90090460  1
  N  N441  1  0.82489017  0.22275756  0.89763017  1
  N  N442  1  0.80744437  0.55735756  0.90495576  1
  N  N443  1  0.81555014  0.89118123  0.90853575  1
  N  N444  1  0.31607237  0.11041694  0.09818293  1
  N  N445  1  0.32152702  0.44569018  0.10191656  1
  N  N446  1  0.31663060  0.77742986  0.10083109  1
  N  N447  1  0.81663451  0.10849589  0.09696257  1
  N  N448  1  0.81093087  0.44287767  0.09291373  1
  N  N449  1  0.80781016  0.77861409  0.09237565  1
  N  N450  1  0.18943149  0.22391241  0.60217203  1
  N  N451  1  0.18324827  0.55656626  0.59602928  1
  N  N452  1  0.18352490  0.88856218  0.60383165  1
  N  N453  1  0.69268292  0.22153944  0.58994588  1
  N  N454  1  0.67945345  0.55565617  0.60224921  1
  N  N455  1  0.68139916  0.88886989  0.60185300  1
  Cl  Cl456  1  0.26058788  0.05995638  0.61023934  1
  Cl  Cl457  1  0.23607539  0.39008699  0.61187517  1
  Cl  Cl458  1  0.25300249  0.71869408  0.61136346  1
  Cl  Cl459  1  0.75351752  0.04719650  0.62356579  1
  Cl  Cl460  1  0.73489957  0.38645712  0.61666902  1
  Cl  Cl461  1  0.75719764  0.72248843  0.62046885  1
  Cl  Cl462  1  0.24285979  0.27859955  0.11397629  1
  Cl  Cl463  1  0.25696707  0.60931138  0.11515359  1
  Cl  Cl464  1  0.24822937  0.94881902  0.11320599  1
  Cl  Cl465  1  0.74031172  0.27727034  0.11858822  1
  Cl  Cl466  1  0.76533197  0.61250953  0.11803681  1
  Cl  Cl467  1  0.75050116  0.94717292  0.12033177  1
  Cl  Cl468  1  0.24843738  0.06010347  0.89529598  1
  Cl  Cl469  1  0.24495789  0.39610045  0.88626841  1
  Cl  Cl470  1  0.25037929  0.71944058  0.87666404  1
  Cl  Cl471  1  0.75030630  0.05197042  0.88503002  1
  Cl  Cl472  1  0.74515218  0.38737908  0.88624060  1
  Cl  Cl473  1  0.75628607  0.72668625  0.89051567  1
  Cl  Cl474  1  0.24518386  0.27181966  0.39678399  1
  Cl  Cl475  1  0.25403240  0.61299187  0.37949526  1
  Cl  Cl476  1  0.25900009  0.95165632  0.37658873  1
  Cl  Cl477  1  0.74261369  0.27843563  0.38965744  1
  Cl  Cl478  1  0.75979405  0.61189319  0.38801604  1
  Cl  Cl479  1  0.76077913  0.94179586  0.38697246  1
  Cl  Cl480  1  0.00753628  0.22277601  0.60687095  1
  Cl  Cl481  1  -0.00823285  0.55897028  0.60551346  1
  Cl  Cl482  1  -0.00482863  0.88772706  0.61289836  1
  Cl  Cl483  1  0.50480480  0.22752000  0.60571041  1
  Cl  Cl484  1  0.49523764  0.55112534  0.61962690  1
  Cl  Cl485  1  0.49435248  0.89109519  0.61331737  1
  Cl  Cl486  1  0.00368258  0.10719311  0.10702445  1
  Cl  Cl487  1  0.00657091  0.44109464  0.10849374  1
  Cl  Cl488  1  -0.00632226  0.77323987  0.10633016  1
  Cl  Cl489  1  0.50032739  0.11283339  0.11711505  1
  Cl  Cl490  1  0.50031768  0.45162553  0.12164560  1
  Cl  Cl491  1  0.49824067  0.78447855  0.12412302  1
  Cl  Cl492  1  0.00561138  0.21608072  0.87634762  1
  Cl  Cl493  1  -0.00801864  0.55237346  0.87401487  1
  Cl  Cl494  1  0.00295883  0.88237113  0.87881522  1
  Cl  Cl495  1  0.50936262  0.22705746  0.88932140  1
  Cl  Cl496  1  0.49093938  0.55042487  0.88213000  1
  Cl  Cl497  1  0.49941619  0.88249876  0.87708317  1
  Cl  Cl498  1  -0.00445285  0.11369018  0.37845599  1
  Cl  Cl499  1  0.00971993  0.44592438  0.38021420  1
  Cl  Cl500  1  -0.00589730  0.78067349  0.37674854  1
  Cl  Cl501  1  0.49082324  0.10837127  0.39710527  1
  Cl  Cl502  1  0.50911491  0.44653061  0.38716839  1
  Cl  Cl503  1  0.49670405  0.77781256  0.38554490  1
  Cl  Cl504  1  0.36254706  0.14746632  0.75060523  1
  Cl  Cl505  1  0.36238363  0.47727916  0.74671339  1
  Cl  Cl506  1  0.35715399  0.81510275  0.74798411  1
  Cl  Cl507  1  0.86137920  0.14598549  0.75270284  1
  Cl  Cl508  1  0.86002958  0.47814556  0.74815432  1
  Cl  Cl509  1  0.86190662  0.81410800  0.75155002  1
  Cl  Cl510  1  0.14235624  0.18822543  0.25291923  1
  Cl  Cl511  1  0.14188455  0.51814177  0.24821683  1
  Cl  Cl512  1  0.14452017  0.85454250  0.24894382  1
  Cl  Cl513  1  0.64202132  0.18731819  0.25038255  1
  Cl  Cl514  1  0.64341242  0.51837388  0.24824872  1
  Cl  Cl515  1  0.63745960  0.85393778  0.25324292  1
  Cl  Cl516  1  0.14002271  0.14795653  0.74733770  1
  Cl  Cl517  1  0.14058151  0.47841951  0.75353489  1
  Cl  Cl518  1  0.13575619  0.81095711  0.74673479  1
  Cl  Cl519  1  0.64084847  0.14819206  0.75145307  1
  Cl  Cl520  1  0.63863817  0.47895900  0.74918470  1
  Cl  Cl521  1  0.64073446  0.81221818  0.74536518  1
  Cl  Cl522  1  0.36140823  0.18649149  0.25082485  1
  Cl  Cl523  1  0.36057862  0.51809685  0.24944891  1
  Cl  Cl524  1  0.36452455  0.85479129  0.24837123  1
  Cl  Cl525  1  0.86206036  0.18830639  0.24477965  1
  Cl  Cl526  1  0.86250829  0.51810673  0.25510613  1
  Cl  Cl527  1  0.85738852  0.84893114  0.24920329  1
  Cl  Cl528  1  0.10957591  0.31306134  0.75060374  1
  Cl  Cl529  1  0.11303867  0.64424202  0.75411335  1
  Cl  Cl530  1  0.11490492  0.97945571  0.74763024  1
  Cl  Cl531  1  0.60552758  0.31492392  0.74932458  1
  Cl  Cl532  1  0.61407331  0.64458971  0.74689885  1
  Cl  Cl533  1  0.60866598  0.98063849  0.74946062  1
  Cl  Cl534  1  0.39073603  0.02344632  0.24480085  1
  Cl  Cl535  1  0.39083997  0.35500549  0.25218300  1
  Cl  Cl536  1  0.39031146  0.68668582  0.24850640  1
  Cl  Cl537  1  0.89338671  0.01891295  0.25047806  1
  Cl  Cl538  1  0.88653221  0.35333244  0.24997552  1
  Cl  Cl539  1  0.89477096  0.68414176  0.24853552  1
  Cl  Cl540  1  0.38461604  0.31066201  0.75206844  1
  Cl  Cl541  1  0.39175307  0.64834044  0.75070009  1
  Cl  Cl542  1  0.38776412  0.98152311  0.75057975  1
  Cl  Cl543  1  0.88820844  0.31110388  0.74468710  1
  Cl  Cl544  1  0.89223664  0.64517222  0.74776987  1
  Cl  Cl545  1  0.89166058  0.98248783  0.75472473  1
  Cl  Cl546  1  0.11429578  0.02239165  0.25361069  1
  Cl  Cl547  1  0.10879653  0.34966542  0.24870749  1
  Cl  Cl548  1  0.11276914  0.68624679  0.24772961  1
  Cl  Cl549  1  0.60819626  0.02077834  0.25100397  1
  Cl  Cl550  1  0.61000285  0.35309861  0.24770089  1
  Cl  Cl551  1  0.61375352  0.68684013  0.25089587  1
