# generated using pymatgen
data_H8PbC4(N3Cl2)2
_symmetry_space_group_name_H-M   'P 1'
_cell_length_a   16.63064290
_cell_length_b   22.51490156
_cell_length_c   21.59675807
_cell_angle_alpha   89.99992073
_cell_angle_beta   90.00531450
_cell_angle_gamma   89.99651528
_symmetry_Int_Tables_number   1
_chemical_formula_structural   H8PbC4(N3Cl2)2
_chemical_formula_sum   'H192 Pb24 C96 N144 Cl96'
_cell_volume   8086.63146973
_cell_formula_units_Z   24
loop_
 _symmetry_equiv_pos_site_id
 _symmetry_equiv_pos_as_xyz
  1  'x, y, z'
loop_
 _atom_site_type_symbol
 _atom_site_label
 _atom_site_symmetry_multiplicity
 _atom_site_fract_x
 _atom_site_fract_y
 _atom_site_fract_z
 _atom_site_occupancy
  H  H0  1  -0.00988404  0.03423063  0.68406168  1
  H  H1  1  0.01532262  0.36491446  0.67561532  1
  H  H2  1  0.00300871  0.69828903  0.67780836  1
  H  H3  1  0.51165263  0.03015263  0.68123418  1
  H  H4  1  0.49411466  0.36058666  0.67912879  1
  H  H5  1  0.49848203  0.69570319  0.68001465  1
  H  H6  1  0.00174661  0.31368531  0.17351036  1
  H  H7  1  -0.00613676  0.63900599  0.17772328  1
  H  H8  1  0.01303894  0.96928948  0.17945168  1
  H  H9  1  0.49651479  0.30393397  0.17760466  1
  H  H10  1  0.50913898  0.63666826  0.17958721  1
  H  H11  1  0.48558465  0.96967340  0.18119882  1
  H  H12  1  0.00130216  0.02767511  0.81740352  1
  H  H13  1  0.00770698  0.36485996  0.82077437  1
  H  H14  1  -0.00223273  0.69585599  0.82059754  1
  H  H15  1  0.50043363  0.02827665  0.81966548  1
  H  H16  1  0.49567017  0.35968570  0.82407850  1
  H  H17  1  0.50359450  0.69746783  0.82234606  1
  H  H18  1  0.00566060  0.30322993  0.32205991  1
  H  H19  1  -0.00100500  0.63691276  0.31572427  1
  H  H20  1  -0.01242446  0.96675271  0.32053516  1
  H  H21  1  0.49527320  0.30525979  0.32210337  1
  H  H22  1  0.50727318  0.63590678  0.32168523  1
  H  H23  1  0.50639896  0.97007155  0.32267632  1
  H  H24  1  0.24274699  0.19636688  0.67744133  1
  H  H25  1  0.23507047  0.53123088  0.67995808  1
  H  H26  1  0.23869479  0.86003560  0.67610956  1
  H  H27  1  0.74752893  0.20012490  0.67798393  1
  H  H28  1  0.76823129  0.52781364  0.67894211  1
  H  H29  1  0.74956742  0.86496831  0.68215843  1
  H  H30  1  0.24390824  0.14041117  0.18094343  1
  H  H31  1  0.25767108  0.46917248  0.17998987  1
  H  H32  1  0.24401499  0.79863742  0.17225354  1
  H  H33  1  0.75088601  0.13751692  0.18079726  1
  H  H34  1  0.74109876  0.47222985  0.17590680  1
  H  H35  1  0.74182554  0.80845017  0.17759185  1
  H  H36  1  0.23892485  0.20028396  0.81942826  1
  H  H37  1  0.24987573  0.52925776  0.82331499  1
  H  H38  1  0.25480616  0.86052843  0.81866432  1
  H  H39  1  0.76307089  0.19797446  0.82030382  1
  H  H40  1  0.75051139  0.53040495  0.82822403  1
  H  H41  1  0.74417492  0.86280597  0.82219186  1
  H  H42  1  0.23737304  0.13444806  0.31833876  1
  H  H43  1  0.24463749  0.47146584  0.31917967  1
  H  H44  1  0.25219826  0.80640282  0.32337643  1
  H  H45  1  0.76069533  0.13876928  0.31895638  1
  H  H46  1  0.74059037  0.46844404  0.31806888  1
  H  H47  1  0.74317460  0.79984132  0.32159671  1
  H  H48  1  0.12146289  0.05205987  0.62094200  1
  H  H49  1  0.11967844  0.39225284  0.59183957  1
  H  H50  1  0.11364465  0.72432124  0.59549169  1
  H  H51  1  0.61954907  0.05592231  0.59806536  1
  H  H52  1  0.61871649  0.38561113  0.60840312  1
  H  H53  1  0.61508177  0.72269771  0.60453292  1
  H  H54  1  0.38084637  0.27564803  0.10025696  1
  H  H55  1  0.37487159  0.61635495  0.11569100  1
  H  H56  1  0.37822820  0.94241684  0.09753237  1
  H  H57  1  0.87884867  0.27941982  0.10678557  1
  H  H58  1  0.87447147  0.61083777  0.10312226  1
  H  H59  1  0.87319769  0.95218318  0.12846235  1
  H  H60  1  0.37552923  0.05495446  0.88923845  1
  H  H61  1  0.38309310  0.38829310  0.90412323  1
  H  H62  1  0.36490094  0.71499338  0.87583478  1
  H  H63  1  0.87505646  0.05354684  0.88647143  1
  H  H64  1  0.88256481  0.39004737  0.89088229  1
  H  H65  1  0.87350517  0.71796848  0.88920124  1
  H  H66  1  0.11290218  0.27768151  0.40556153  1
  H  H67  1  0.12411424  0.61800165  0.38513645  1
  H  H68  1  0.12946036  0.94771901  0.37092723  1
  H  H69  1  0.61704041  0.27879933  0.39449810  1
  H  H70  1  0.61969117  0.60955918  0.39944969  1
  H  H71  1  0.62513105  0.94479611  0.39853815  1
  H  H72  1  0.38213677  0.21636531  0.62283816  1
  H  H73  1  0.37542886  0.54844991  0.62988080  1
  H  H74  1  0.36789386  0.88600834  0.61169664  1
  H  H75  1  0.88402781  0.22218553  0.62060424  1
  H  H76  1  0.87126781  0.55651853  0.59246118  1
  H  H77  1  0.86624265  0.88826355  0.60724401  1
  H  H78  1  0.12466061  0.11215557  0.10792441  1
  H  H79  1  0.11987677  0.45102304  0.12546909  1
  H  H80  1  0.13797277  0.77377375  0.08895117  1
  H  H81  1  0.62692676  0.11362791  0.10873493  1
  H  H82  1  0.62348672  0.44493809  0.09990927  1
  H  H83  1  0.63447985  0.77613427  0.09596701  1
  H  H84  1  0.12806303  0.22328801  0.89934906  1
  H  H85  1  0.12497954  0.55583884  0.89071673  1
  H  H86  1  0.12754519  0.88263981  0.88595828  1
  H  H87  1  0.62294389  0.21511177  0.87105503  1
  H  H88  1  0.62661328  0.55279997  0.89665209  1
  H  H89  1  0.63134817  0.89131787  0.90176116  1
  H  H90  1  0.37597340  0.11362571  0.37505890  1
  H  H91  1  0.37719786  0.44769254  0.38376255  1
  H  H92  1  0.37874229  0.77840872  0.39075954  1
  H  H93  1  0.87667390  0.11337820  0.39529173  1
  H  H94  1  0.87429143  0.44749611  0.38185094  1
  H  H95  1  0.88283723  0.78231551  0.37719402  1
  H  H96  1  0.36863485  0.27854430  0.39109198  1
  H  H97  1  0.37139500  0.61759103  0.38096968  1
  H  H98  1  0.37735175  0.94382737  0.38836134  1
  H  H99  1  0.86634622  0.28303257  0.37700223  1
  H  H100  1  0.87462055  0.61275938  0.38429388  1
  H  H101  1  0.88722778  0.94075985  0.41001851  1
  H  H102  1  0.12349053  0.05437047  0.89096921  1
  H  H103  1  0.13147881  0.38926628  0.89098378  1
  H  H104  1  0.12253689  0.71928019  0.88946318  1
  H  H105  1  0.62472786  0.05364246  0.89005102  1
  H  H106  1  0.62946480  0.38715356  0.88335947  1
  H  H107  1  0.61183183  0.72184329  0.90445798  1
  H  H108  1  0.12737749  0.27948644  0.10967619  1
  H  H109  1  0.12330103  0.61658704  0.11137023  1
  H  H110  1  0.11812007  0.94245251  0.09602041  1
  H  H111  1  0.62849213  0.28175655  0.11534602  1
  H  H112  1  0.62203003  0.60955776  0.09921449  1
  H  H113  1  0.62459479  0.94932423  0.12531009  1
  H  H114  1  0.37324496  0.05113571  0.62463477  1
  H  H115  1  0.36933765  0.38713841  0.61024042  1
  H  H116  1  0.36630676  0.71862388  0.61465600  1
  H  H117  1  0.87236445  0.05412814  0.60807795  1
  H  H118  1  0.87560207  0.38244943  0.62591167  1
  H  H119  1  0.86686354  0.71936895  0.62052477  1
  H  H120  1  0.12985894  0.11098673  0.40216866  1
  H  H121  1  0.12928886  0.44406003  0.39821517  1
  H  H122  1  0.12986362  0.77892033  0.39360501  1
  H  H123  1  0.62777297  0.11471018  0.38148911  1
  H  H124  1  0.62703960  0.44292415  0.39911828  1
  H  H125  1  0.63614405  0.77615119  0.40506074  1
  H  H126  1  0.37539289  0.21737794  0.87714614  1
  H  H127  1  0.37430327  0.55461259  0.89350014  1
  H  H128  1  0.37714657  0.88770171  0.89073893  1
  H  H129  1  0.86804845  0.22539242  0.90404793  1
  H  H130  1  0.87553579  0.55497516  0.89439173  1
  H  H131  1  0.87858544  0.88453978  0.88180338  1
  H  H132  1  0.37373043  0.11637663  0.11441759  1
  H  H133  1  0.36627983  0.44179781  0.09946265  1
  H  H134  1  0.38291753  0.78114704  0.12067082  1
  H  H135  1  0.87606122  0.11175718  0.11176814  1
  H  H136  1  0.87128230  0.44804558  0.11019354  1
  H  H137  1  0.87920923  0.78320303  0.12214999  1
  H  H138  1  0.13844367  0.22887251  0.59388362  1
  H  H139  1  0.13120027  0.55512644  0.59499393  1
  H  H140  1  0.11995215  0.88723445  0.59997232  1
  H  H141  1  0.63705534  0.22497290  0.59547757  1
  H  H142  1  0.62754406  0.54954948  0.62653465  1
  H  H143  1  0.61761050  0.88508259  0.61899514  1
  H  H144  1  0.55840790  0.57905211  0.50645091  1
  H  H145  1  0.66536177  0.09859636  0.49147923  1
  H  H146  1  0.88925882  0.41485374  0.51092272  1
  H  H147  1  0.20502971  0.57979128  0.48991318  1
  H  H148  1  0.54226795  0.74821827  1.01086355  1
  H  H149  1  0.06823064  0.26476830  0.00230410  1
  H  H150  1  0.54543930  0.08015773  0.49289208  1
  H  H151  1  0.04605701  0.91692348  -0.00934761  1
  H  H152  1  0.32395083  0.90366555  0.99788522  1
  H  H153  1  0.36484044  0.57842308  0.51471246  1
  H  H154  1  0.81017569  0.91737168  0.49753158  1
  H  H155  1  0.17856511  0.91531130  0.49883763  1
  H  H156  1  0.45279942  0.91560260  -0.00593923  1
  H  H157  1  0.07929950  0.59317596  0.49816196  1
  H  H158  1  0.91721672  0.74844486  1.00032816  1
  H  H159  1  0.04217888  0.25186074  0.51048620  1
  H  H160  1  0.79568190  0.24929201  1.00924842  1
  H  H161  1  0.93917390  0.25944279  0.00125642  1
  H  H162  1  0.42489010  0.08951101  0.99594985  1
  H  H163  1  0.55395963  0.75127756  0.49703353  1
  H  H164  1  0.18123204  0.08218018  0.00044540  1
  H  H165  1  0.82772231  0.08030220  0.00335537  1
  H  H166  1  0.97015340  0.91269714  0.50571008  1
  H  H167  1  0.45396270  0.41385113  1.00563696  1
  H  H168  1  0.20420715  0.08449238  0.50684352  1
  H  H169  1  0.41520375  0.25051538  0.49548934  1
  H  H170  1  0.70691750  0.75043923  0.51059834  1
  H  H171  1  0.13706618  0.42207568  0.01176600  1
  H  H172  1  0.91993958  0.58539736  0.49619534  1
  H  H173  1  0.19347243  0.24627043  1.00869607  1
  H  H174  1  0.08319181  0.58616169  0.00179294  1
  H  H175  1  0.82717579  0.42385587  0.00282238  1
  H  H176  1  0.29916437  0.41372348  -0.00656676  1
  H  H177  1  0.63569506  0.24422049  0.98622473  1
  H  H178  1  0.08710814  0.07479133  0.50583542  1
  H  H179  1  0.17121799  0.90587086  0.99933410  1
  H  H180  1  0.78977994  0.57899782  0.49400776  1
  H  H181  1  0.81632088  0.09088560  0.50545171  1
  H  H182  1  0.88607740  0.25567770  0.48770533  1
  H  H183  1  0.88645424  0.92304587  0.01307802  1
  H  H184  1  0.70948009  0.74817363  -0.00330491  1
  H  H185  1  0.41745453  0.42065614  0.50278771  1
  H  H186  1  0.32574959  0.58709284  0.99645663  1
  H  H187  1  0.37443309  0.74782913  0.99953982  1
  H  H188  1  0.42179671  0.91759015  0.49496700  1
  H  H189  1  0.86258138  0.75442308  0.48777856  1
  H  H190  1  0.92782653  0.07163099  0.49627466  1
  H  H191  1  0.21575229  0.25337655  0.49437520  1
  Pb  Pb192  1  0.24849135  0.04837115  0.75350120  1
  Pb  Pb193  1  0.25379954  0.38242558  0.75023462  1
  Pb  Pb194  1  0.24586295  0.71143862  0.74260945  1
  Pb  Pb195  1  0.74888265  0.04683405  0.74355021  1
  Pb  Pb196  1  0.74469828  0.38122998  0.75238966  1
  Pb  Pb197  1  0.74665015  0.71392204  0.75588288  1
  Pb  Pb198  1  0.24978688  0.28606200  0.25370890  1
  Pb  Pb199  1  0.24993384  0.62139338  0.24473860  1
  Pb  Pb200  1  0.25739434  0.95014369  0.23983202  1
  Pb  Pb201  1  0.74951404  0.28710120  0.24816207  1
  Pb  Pb202  1  0.74860059  0.61743377  0.25272760  1
  Pb  Pb203  1  0.75162566  0.95341224  0.26194241  1
  Pb  Pb204  1  -0.00212956  0.21950805  0.75531080  1
  Pb  Pb205  1  -0.00197033  0.54634028  0.74202801  1
  Pb  Pb206  1  0.00023677  0.87843333  0.74217529  1
  Pb  Pb207  1  0.50262599  0.21198982  0.74069129  1
  Pb  Pb208  1  0.50002141  0.54695101  0.75508645  1
  Pb  Pb209  1  0.49664587  0.87966135  0.75297918  1
  Pb  Pb210  1  0.00328299  0.11710254  0.25598139  1
  Pb  Pb211  1  0.00131311  0.45269642  0.25488222  1
  Pb  Pb212  1  0.00353335  0.78731248  0.24439247  1
  Pb  Pb213  1  0.50271323  0.12018557  0.24824964  1
  Pb  Pb214  1  0.49785614  0.45227339  0.24606720  1
  Pb  Pb215  1  0.50667493  0.78547471  0.25396960  1
  C  C216  1  -0.00511435  0.04715495  0.63578208  1
  C  C217  1  0.00242879  0.38015467  0.62906322  1
  C  C218  1  -0.00540482  0.71361013  0.63076464  1
  C  C219  1  0.50131330  0.04512824  0.63418827  1
  C  C220  1  0.49400882  0.37744638  0.63213988  1
  C  C221  1  0.49299662  0.71182515  0.63288041  1
  C  C222  1  0.00274639  0.29251636  0.12828871  1
  C  C223  1  -0.00276535  0.62234356  0.13064482  1
  C  C224  1  0.00091091  0.95494558  0.13227338  1
  C  C225  1  0.50166875  0.28771851  0.13067469  1
  C  C226  1  0.50197778  0.62135128  0.13221158  1
  C  C227  1  0.49620580  0.95427587  0.13429144  1
  C  C228  1  0.00006959  0.04502153  0.86428588  1
  C  C229  1  0.00699111  0.38102344  0.86783035  1
  C  C230  1  -0.00262550  0.71141751  0.86803685  1
  C  C231  1  0.50007965  0.04532684  0.86658398  1
  C  C232  1  0.50252363  0.37718400  0.87055484  1
  C  C233  1  0.49335503  0.71166287  0.86970947  1
  C  C234  1  -0.00576625  0.28826945  0.36918651  1
  C  C235  1  -0.00083273  0.62240177  0.36372029  1
  C  C236  1  0.00108102  0.95233451  0.36734656  1
  C  C237  1  0.49310230  0.28827575  0.36903272  1
  C  C238  1  0.49985440  0.62113016  0.36909685  1
  C  C239  1  0.50271740  0.95348662  0.36974031  1
  C  C240  1  0.25437311  0.21247326  0.63090528  1
  C  C241  1  0.24781270  0.54500726  0.63270942  1
  C  C242  1  0.24169922  0.87694302  0.62917063  1
  C  C243  1  0.75630996  0.21506563  0.63087066  1
  C  C244  1  0.75607748  0.54370116  0.63242742  1
  C  C245  1  0.74471170  0.87967023  0.63459702  1
  C  C246  1  0.24764965  0.12309094  0.13414014  1
  C  C247  1  0.24740437  0.45444298  0.13272332  1
  C  C248  1  0.25559920  0.78451846  0.12510132  1
  C  C249  1  0.75119901  0.12106105  0.13362840  1
  C  C250  1  0.74566035  0.45666665  0.12855413  1
  C  C251  1  0.75173158  0.79061426  0.13154409  1
  C  C252  1  0.24730021  0.21331813  0.86729539  1
  C  C253  1  0.25016288  0.54638828  0.87018934  1
  C  C254  1  0.25366092  0.87607754  0.86639961  1
  C  C255  1  0.75078552  0.21221645  0.86744541  1
  C  C256  1  0.75091212  0.54638937  0.87576625  1
  C  C257  1  0.75107547  0.87879574  0.86911182  1
  C  C258  1  0.24804606  0.12014460  0.36557353  1
  C  C259  1  0.25040132  0.45523880  0.36633627  1
  C  C260  1  0.25391715  0.78835797  0.36968286  1
  C  C261  1  0.75432945  0.12327186  0.36640392  1
  C  C262  1  0.74718678  0.45389185  0.36569993  1
  C  C263  1  0.75477942  0.78571384  0.36899264  1
  C  C264  1  0.93910768  0.40637323  0.54271487  1
  C  C265  1  0.54984205  0.25921663  0.04121269  1
  C  C266  1  0.21911694  0.75470302  0.46037588  1
  C  C267  1  0.01766400  0.92837817  0.03440982  1
  C  C268  1  0.51792994  0.07143816  0.53771974  1
  C  C269  1  0.73539180  0.76049364  0.46636163  1
  C  C270  1  0.94102579  0.74008066  0.54266200  1
  C  C271  1  0.23151276  0.09376611  0.46206670  1
  C  C272  1  0.30545803  0.23569461  0.95605864  1
  C  C273  1  0.95865594  0.59714945  0.45759221  1
  C  C274  1  0.78503105  0.09720125  0.46178490  1
  C  C275  1  0.46366092  0.07643626  0.95779760  1
  C  C276  1  0.52037080  0.74023207  0.53876432  1
  C  C277  1  0.71162509  0.57492627  0.96690015  1
  C  C278  1  0.04057604  0.59997898  0.45821051  1
  C  C279  1  0.22486732  0.23734446  0.96551138  1
  C  C280  1  0.31310605  0.56878431  0.54678300  1
  C  C281  1  0.51247348  0.73790448  0.96720896  1
  C  C282  1  0.79176745  0.57567802  0.96615161  1
  C  C283  1  0.95757948  0.73876303  0.96207020  1
  C  C284  1  0.76713893  0.23851722  0.96538550  1
  C  C285  1  0.93689319  0.93161979  0.04555749  1
  C  C286  1  0.69380070  0.90459158  0.54409546  1
  C  C287  1  0.01951141  0.40954369  0.53239812  1
  C  C288  1  0.23265351  0.57030992  0.53442963  1
  C  C289  1  0.04448501  0.06703878  0.54308502  1
  C  C290  1  0.31768112  0.75917770  0.03857204  1
  C  C291  1  0.48054908  0.92626614  0.03833399  1
  C  C292  1  0.44355809  0.59518235  0.45749280  1
  C  C293  1  0.18699261  0.43014336  0.04478294  1
  C  C294  1  0.26830555  0.42628367  0.03589499  1
  C  C295  1  0.03896909  0.73952219  0.96040584  1
  C  C296  1  0.23730604  0.75662095  0.02877681  1
  C  C297  1  0.80226422  0.90765043  0.95731847  1
  C  C298  1  0.52424518  0.59173092  0.46561394  1
  C  C299  1  0.96275601  0.06651490  0.53844850  1
  C  C300  1  0.43163363  0.73608980  0.95659482  1
  C  C301  1  0.20719048  0.57776695  0.96216580  1
  C  C302  1  0.68632344  0.23567072  0.95391628  1
  C  C303  1  0.77494301  0.90629089  0.53839604  1
  C  C304  1  0.04489224  0.40961948  0.96054506  1
  C  C305  1  0.78860104  0.09216799  0.04178653  1
  C  C306  1  0.21702777  0.09354710  0.04093652  1
  C  C307  1  0.45680925  0.40825177  0.54095709  1
  C  C308  1  0.20942282  0.90084658  0.95878037  1
  C  C309  1  0.80962983  0.24110360  0.54256625  1
  C  C310  1  0.04036064  0.59533249  0.03947722  1
  C  C311  1  0.01354360  0.26176657  0.46622498  1
  N  N312  1  0.01778302  0.74190502  0.53347349  1
  N  N313  1  0.29148313  0.90682732  0.53956839  1
  N  N314  1  0.29898631  0.42780394  0.45700265  1
  N  N315  1  0.30968460  0.09359272  0.45256618  1
  N  N316  1  0.28631583  0.57701514  0.96156674  1
  N  N317  1  0.04573585  0.24895493  0.04371043  1
  N  N318  1  0.48085838  0.40888833  0.96297923  1
  N  N319  1  0.21302701  0.90752771  0.53757203  1
  N  N320  1  0.79757406  0.42818048  0.45581698  1
  N  N321  1  0.47272512  0.25738929  0.03478906  1
  N  N322  1  0.76755751  0.57443189  0.53842206  1
  N  N323  1  0.93520480  0.26289973  0.45528089  1
  N  N324  1  0.54286226  0.07564161  0.95880147  1
  N  N325  1  0.03538559  0.07448134  0.95781455  1
  N  N326  1  0.29634141  0.09439556  0.04314007  1
  N  N327  1  0.95861973  0.07412407  0.95643351  1
  N  N328  1  0.29645237  0.75424056  0.46061569  1
  N  N329  1  0.28901475  0.90392907  0.95889288  1
  N  N330  1  0.78857000  0.42882234  0.03938031  1
  N  N331  1  0.73279961  0.24210876  0.53330217  1
  N  N332  1  0.46082630  0.92493434  0.45904836  1
  N  N333  1  0.81224310  0.75767356  0.04756919  1
  N  N334  1  0.52714147  0.59296089  0.03645749  1
  N  N335  1  0.53224063  0.25877404  0.46161022  1
  N  N336  1  0.24052361  0.24529352  0.53775946  1
  N  N337  1  0.22290442  0.42641611  0.46157719  1
  N  N338  1  0.71080774  0.42797362  0.03459560  1
  N  N339  1  0.81372639  0.76241352  0.45565716  1
  N  N340  1  0.72185071  0.42651986  0.46169806  1
  N  N341  1  0.31771421  0.24027213  0.54607990  1
  N  N342  1  0.69060514  0.57167648  0.54867044  1
  N  N343  1  0.96326607  0.24778455  0.04369121  1
  N  N344  1  0.53612770  0.40785905  0.53967957  1
  N  N345  1  0.45099395  0.59502207  0.04201193  1
  N  N346  1  0.43964980  0.07104935  0.54700662  1
  N  N347  1  0.99260113  0.92544210  0.46284608  1
  N  N348  1  0.44144541  0.73928252  0.54246926  1
  N  N349  1  0.55865908  0.92738427  0.04767264  1
  N  N350  1  0.45406188  0.25877208  0.45889298  1
  N  N351  1  0.70576080  0.09696145  0.45583190  1
  N  N352  1  0.73495010  0.75485518  0.03988597  1
  N  N353  1  0.53878633  0.92565847  0.46395495  1
  N  N354  1  0.96707796  0.41000562  0.96174936  1
  N  N355  1  0.70934907  0.09275096  0.04037351  1
  N  N356  1  0.72541162  0.90983207  0.96529625  1
  N  N357  1  0.96127077  0.59260847  0.03634908  1
  N  N358  1  0.06906317  0.92787086  0.45116578  1
  N  N359  1  0.55843086  0.40877547  0.95709247  1
  N  N360  1  0.06305015  0.05524960  0.60384807  1
  N  N361  1  0.05769796  0.39369642  0.58434479  1
  N  N362  1  0.05105833  0.72490463  0.58958374  1
  N  N363  1  0.55759235  0.05592475  0.59100443  1
  N  N364  1  0.55760745  0.38845506  0.59687228  1
  N  N365  1  0.55382473  0.72380070  0.59402135  1
  N  N366  1  0.44248110  0.27579012  0.09193706  1
  N  N367  1  0.43436350  0.61242388  0.10144305  1
  N  N368  1  0.44031808  0.94220720  0.09122938  1
  N  N369  1  0.93952553  0.27850925  0.09413808  1
  N  N370  1  0.93601608  0.60966425  0.09354708  1
  N  N371  1  0.92840037  0.94786173  0.10649684  1
  N  N372  1  0.43572044  0.05804266  0.90143190  1
  N  N373  1  0.44511632  0.38726078  0.91166853  1
  N  N374  1  0.42112683  0.72028983  0.89639485  1
  N  N375  1  0.93570941  0.05616086  0.89852452  1
  N  N376  1  0.94361583  0.39197690  0.90262262  1
  N  N377  1  0.93271915  0.72124755  0.90320218  1
  N  N378  1  0.05072293  0.27706470  0.41265481  1
  N  N379  1  0.06443008  0.61531552  0.39962685  1
  N  N380  1  0.07370010  0.94442453  0.39176041  1
  N  N381  1  0.55601702  0.27648380  0.40522339  1
  N  N382  1  0.55842439  0.60834414  0.40900917  1
  N  N383  1  0.56426968  0.94218928  0.40746835  1
  N  N384  1  0.32547904  0.22186168  0.60482496  1
  N  N385  1  0.32055489  0.55323760  0.60782238  1
  N  N386  1  0.30829492  0.88905614  0.59743126  1
  N  N387  1  0.82688306  0.22476207  0.60209636  1
  N  N388  1  0.80896554  0.55480906  0.58820950  1
  N  N389  1  0.80567195  0.89070181  0.59607352  1
  N  N390  1  0.18566780  0.11047818  0.09659781  1
  N  N391  1  0.17604779  0.44740573  0.10521345  1
  N  N392  1  0.19991269  0.77216645  0.08127030  1
  N  N393  1  0.68783738  0.11070069  0.09792804  1
  N  N394  1  0.68451125  0.44415765  0.09077483  1
  N  N395  1  0.69674967  0.77780000  0.08945531  1
  N  N396  1  0.18920861  0.22333640  0.90874236  1
  N  N397  1  0.18464122  0.55904439  0.90545469  1
  N  N398  1  0.18714731  0.88559359  0.90087202  1
  N  N399  1  0.67812941  0.21955885  0.89298112  1
  N  N400  1  0.68572315  0.55738902  0.91165637  1
  N  N401  1  0.69329215  0.89133704  0.90885423  1
  N  N402  1  0.31821305  0.11004928  0.39269808  1
  N  N403  1  0.31733679  0.44547191  0.39786277  1
  N  N404  1  0.31843703  0.77553613  0.40285633  1
  N  N405  1  0.81554408  0.11159045  0.40587559  1
  N  N406  1  0.81493689  0.44466789  0.39642796  1
  N  N407  1  0.82525837  0.77748366  0.39567035  1
  N  N408  1  0.42870657  0.27759393  0.40316480  1
  N  N409  1  0.42902705  0.61271750  0.39915107  1
  N  N410  1  0.43723986  0.94304775  0.40261231  1
  N  N411  1  0.92377736  0.27936544  0.39572028  1
  N  N412  1  0.93423709  0.61120450  0.39853507  1
  N  N413  1  0.94972434  0.94058447  0.41238966  1
  N  N414  1  0.06214193  0.05681687  0.90066738  1
  N  N415  1  0.07160569  0.39230715  0.90367851  1
  N  N416  1  0.06267123  0.72316596  0.90375949  1
  N  N417  1  0.56396247  0.05638203  0.90163675  1
  N  N418  1  0.57119807  0.39059923  0.89891173  1
  N  N419  1  0.54981583  0.72254813  0.91211975  1
  N  N420  1  0.06738633  0.27936176  0.09544005  1
  N  N421  1  0.06391772  0.61281273  0.09732624  1
  N  N422  1  0.05639879  0.94294241  0.08885262  1
  N  N423  1  0.57026094  0.27726041  0.09928269  1
  N  N424  1  0.56004805  0.60911719  0.09201380  1
  N  N425  1  0.56665432  0.94485904  0.10730559  1
  N  N426  1  0.43111378  0.05467852  0.60684191  1
  N  N427  1  0.42943034  0.39006047  0.59747767  1
  N  N428  1  0.42607665  0.72152990  0.60104610  1
  N  N429  1  0.93301970  0.05452964  0.59654064  1
  N  N430  1  0.93016645  0.38835532  0.60391102  1
  N  N431  1  0.92401800  0.72331942  0.60205268  1
  N  N432  1  0.19182949  0.10967354  0.40895575  1
  N  N433  1  0.19131799  0.44335650  0.40569736  1
  N  N434  1  0.19005978  0.77500290  0.40567447  1
  N  N435  1  0.68697156  0.11628202  0.39785103  1
  N  N436  1  0.68891985  0.44290171  0.40606023  1
  N  N437  1  0.69822758  0.77482823  0.41257874  1
  N  N438  1  0.31840686  0.22141268  0.89684537  1
  N  N439  1  0.31349159  0.55736038  0.90511430  1
  N  N440  1  0.31627238  0.88527310  0.90283146  1
  N  N441  1  0.80611621  0.22382206  0.91111130  1
  N  N442  1  0.81673492  0.55862066  0.91052492  1
  N  N443  1  0.82080527  0.88902398  0.89909209  1
  N  N444  1  0.31347315  0.11273554  0.10137323  1
  N  N445  1  0.30459332  0.44159558  0.09098433  1
  N  N446  1  0.32774078  0.77638261  0.09918382  1
  N  N447  1  0.81591826  0.10933314  0.09869874  1
  N  N448  1  0.81151518  0.44838207  0.09548011  1
  N  N449  1  0.82189361  0.77786945  0.10535897  1
  N  N450  1  0.20055311  0.22546256  0.58792299  1
  N  N451  1  0.19305400  0.55553043  0.58832976  1
  N  N452  1  0.18134258  0.88803084  0.59105416  1
  N  N453  1  0.69969225  0.22563547  0.58952099  1
  N  N454  1  0.68443202  0.55489409  0.60778280  1
  N  N455  1  0.67594672  0.88879795  0.60216231  1
  Cl  Cl456  1  0.24510413  0.05406669  0.61930407  1
  Cl  Cl457  1  0.24172174  0.38569759  0.61902321  1
  Cl  Cl458  1  0.23667458  0.72332682  0.61117469  1
  Cl  Cl459  1  0.74509441  0.05988806  0.60668214  1
  Cl  Cl460  1  0.74162788  0.38324026  0.62504179  1
  Cl  Cl461  1  0.73881179  0.72282291  0.61838300  1
  Cl  Cl462  1  0.25113862  0.27511637  0.11979972  1
  Cl  Cl463  1  0.25067327  0.61271214  0.10933894  1
  Cl  Cl464  1  0.25062133  0.93840041  0.10182137  1
  Cl  Cl465  1  0.75769687  0.28029126  0.11307974  1
  Cl  Cl466  1  0.74747354  0.61200388  0.11955581  1
  Cl  Cl467  1  0.74797578  0.94960953  0.13485578  1
  Cl  Cl468  1  0.24706589  0.05235084  0.88744376  1
  Cl  Cl469  1  0.26116310  0.38970341  0.88638718  1
  Cl  Cl470  1  0.24118156  0.71371967  0.87471103  1
  Cl  Cl471  1  0.75201241  0.05354136  0.87622395  1
  Cl  Cl472  1  0.75889231  0.39069076  0.88743448  1
  Cl  Cl473  1  0.73670144  0.72554196  0.89350541  1
  Cl  Cl474  1  0.23785916  0.27402465  0.39669616  1
  Cl  Cl475  1  0.24654875  0.61519267  0.37647997  1
  Cl  Cl476  1  0.25543657  0.94133989  0.37474897  1
  Cl  Cl477  1  0.74060148  0.27923216  0.37861848  1
  Cl  Cl478  1  0.74914221  0.60915050  0.39206347  1
  Cl  Cl479  1  0.76059142  0.94523262  0.39814561  1
  Cl  Cl480  1  0.01650983  0.22891096  0.61563933  1
  Cl  Cl481  1  -0.00147908  0.55785846  0.60571888  1
  Cl  Cl482  1  -0.00581259  0.88991358  0.60170457  1
  Cl  Cl483  1  0.51259194  0.22209215  0.60728269  1
  Cl  Cl484  1  0.50376106  0.55138186  0.62374238  1
  Cl  Cl485  1  0.49091278  0.88707037  0.61970479  1
  Cl  Cl486  1  0.00110310  0.11303183  0.12475508  1
  Cl  Cl487  1  -0.00799500  0.44170382  0.12393156  1
  Cl  Cl488  1  0.01208348  0.77838542  0.11157914  1
  Cl  Cl489  1  0.49897110  0.11474890  0.11735096  1
  Cl  Cl490  1  0.49238072  0.43904833  0.10801347  1
  Cl  Cl491  1  0.51656942  0.77691889  0.11916782  1
  Cl  Cl492  1  -0.00454702  0.23435952  0.89857860  1
  Cl  Cl493  1  0.00322002  0.55394474  0.87420363  1
  Cl  Cl494  1  0.00519371  0.88515518  0.87470613  1
  Cl  Cl495  1  0.49782805  0.21575487  0.86750530  1
  Cl  Cl496  1  0.49724532  0.55129130  0.88515492  1
  Cl  Cl497  1  0.50102853  0.89234051  0.88835334  1
  Cl  Cl498  1  0.00312613  0.11182466  0.39210298  1
  Cl  Cl499  1  0.00499451  0.44343059  0.38868034  1
  Cl  Cl500  1  0.00640164  0.78490618  0.37619255  1
  Cl  Cl501  1  0.50629886  0.10938964  0.38377631  1
  Cl  Cl502  1  0.50129865  0.44364333  0.37915691  1
  Cl  Cl503  1  0.51163340  0.77695605  0.38838498  1
  Cl  Cl504  1  0.36439094  0.14605618  0.74530304  1
  Cl  Cl505  1  0.36202048  0.47969804  0.74570542  1
  Cl  Cl506  1  0.35878919  0.81178547  0.74924276  1
  Cl  Cl507  1  0.86508027  0.14592366  0.74469118  1
  Cl  Cl508  1  0.86136187  0.47887189  0.75162594  1
  Cl  Cl509  1  0.85924782  0.81462536  0.75021077  1
  Cl  Cl510  1  0.13917070  0.18547291  0.24985136  1
  Cl  Cl511  1  0.13804709  0.52014799  0.24463595  1
  Cl  Cl512  1  0.13916223  0.85422617  0.24871044  1
  Cl  Cl513  1  0.64277630  0.18322342  0.24842246  1
  Cl  Cl514  1  0.64650851  0.51716598  0.24821762  1
  Cl  Cl515  1  0.64566134  0.84930233  0.25506178  1
  Cl  Cl516  1  0.14166096  0.14901482  0.75031415  1
  Cl  Cl517  1  0.14178437  0.48348812  0.75357615  1
  Cl  Cl518  1  0.14003609  0.81519973  0.75199238  1
  Cl  Cl519  1  0.64330009  0.14947985  0.75034915  1
  Cl  Cl520  1  0.64046860  0.48204541  0.75178067  1
  Cl  Cl521  1  0.63870504  0.81698250  0.74863867  1
  Cl  Cl522  1  0.36291587  0.18636200  0.25775487  1
  Cl  Cl523  1  0.36044159  0.51947773  0.24920320  1
  Cl  Cl524  1  0.35953035  0.85338885  0.24237920  1
  Cl  Cl525  1  0.86326679  0.18787830  0.25368611  1
  Cl  Cl526  1  0.86892305  0.52279781  0.25607191  1
  Cl  Cl527  1  0.86615411  0.85428465  0.25039405  1
  Cl  Cl528  1  0.10711088  0.31530407  0.75299805  1
  Cl  Cl529  1  0.10377657  0.65055876  0.74686177  1
  Cl  Cl530  1  0.11415770  0.97812705  0.74380046  1
  Cl  Cl531  1  0.60798467  0.31541771  0.75684637  1
  Cl  Cl532  1  0.60623604  0.65008026  0.75006657  1
  Cl  Cl533  1  0.60910504  0.98105321  0.74969390  1
  Cl  Cl534  1  0.38968692  0.02012115  0.25365123  1
  Cl  Cl535  1  0.38756276  0.35260830  0.25088487  1
  Cl  Cl536  1  0.38848899  0.68790419  0.24946141  1
  Cl  Cl537  1  0.88893848  0.01926960  0.25053518  1
  Cl  Cl538  1  0.88797339  0.35334144  0.25577931  1
  Cl  Cl539  1  0.89142540  0.68876230  0.25101215  1
  Cl  Cl540  1  0.38777433  0.31124175  0.74601599  1
  Cl  Cl541  1  0.38525932  0.64572010  0.74871778  1
  Cl  Cl542  1  0.38496762  0.98000290  0.74796359  1
  Cl  Cl543  1  0.89020973  0.31051494  0.74452630  1
  Cl  Cl544  1  0.88411948  0.64680539  0.74501471  1
  Cl  Cl545  1  0.89194722  0.98064485  0.74860628  1
  Cl  Cl546  1  0.10932857  0.01864988  0.25364473  1
  Cl  Cl547  1  0.10915733  0.34978513  0.24788311  1
  Cl  Cl548  1  0.11121892  0.68518951  0.24818580  1
  Cl  Cl549  1  0.60936280  0.01640084  0.25380743  1
  Cl  Cl550  1  0.60773530  0.34994095  0.24495959  1
  Cl  Cl551  1  0.60954199  0.68215458  0.25285071  1
