# generated using pymatgen
data_H8PbC4(N3Cl2)2
_symmetry_space_group_name_H-M   'P 1'
_cell_length_a   16.62203864
_cell_length_b   22.50145852
_cell_length_c   21.58829399
_cell_angle_alpha   89.99936162
_cell_angle_beta   89.99819606
_cell_angle_gamma   90.00131258
_symmetry_Int_Tables_number   1
_chemical_formula_structural   H8PbC4(N3Cl2)2
_chemical_formula_sum   'H192 Pb24 C96 N144 Cl96'
_cell_volume   8074.45614736
_cell_formula_units_Z   24
loop_
 _symmetry_equiv_pos_site_id
 _symmetry_equiv_pos_as_xyz
  1  'x, y, z'
loop_
 _atom_site_type_symbol
 _atom_site_label
 _atom_site_symmetry_multiplicity
 _atom_site_fract_x
 _atom_site_fract_y
 _atom_site_fract_z
 _atom_site_occupancy
  H  H0  1  0.00464842  0.03336653  0.68227289  1
  H  H1  1  -0.00335338  0.36480015  0.67926075  1
  H  H2  1  -0.00983918  0.69997105  0.67849240  1
  H  H3  1  0.49593945  0.03114841  0.67901359  1
  H  H4  1  0.50958948  0.36700513  0.67813495  1
  H  H5  1  0.50727127  0.70082106  0.68148105  1
  H  H6  1  -0.00064605  0.30093438  0.18046408  1
  H  H7  1  -0.00949446  0.63340217  0.17953681  1
  H  H8  1  0.00515785  0.96926980  0.17951278  1
  H  H9  1  0.50324116  0.30113152  0.18002242  1
  H  H10  1  0.51066627  0.63503593  0.17914637  1
  H  H11  1  0.50283082  0.96734969  0.18265197  1
  H  H12  1  -0.00062021  0.03156755  0.82049701  1
  H  H13  1  0.00391927  0.36486127  0.82064234  1
  H  H14  1  0.00119537  0.69892469  0.81803297  1
  H  H15  1  0.49746364  0.03248034  0.81976217  1
  H  H16  1  0.50300565  0.36596630  0.81747388  1
  H  H17  1  0.49798927  0.69851337  0.81833407  1
  H  H18  1  -0.00150275  0.30076818  0.31839714  1
  H  H19  1  0.00261991  0.63378301  0.31925487  1
  H  H20  1  -0.00450317  0.96835735  0.32004127  1
  H  H21  1  0.50175799  0.29974739  0.31956776  1
  H  H22  1  0.49881506  0.63465067  0.32205436  1
  H  H23  1  0.49994850  0.96887462  0.31837105  1
  H  H24  1  0.25445485  0.19922978  0.67829187  1
  H  H25  1  0.24532686  0.53189711  0.68029023  1
  H  H26  1  0.24526037  0.86501702  0.68031913  1
  H  H27  1  0.74567823  0.19834898  0.67874607  1
  H  H28  1  0.74880321  0.53136478  0.67896128  1
  H  H29  1  0.75404269  0.86631857  0.67939626  1
  H  H30  1  0.25315086  0.13413460  0.18095423  1
  H  H31  1  0.25247585  0.46763704  0.17953317  1
  H  H32  1  0.24281596  0.80069946  0.18045136  1
  H  H33  1  0.74859766  0.13485255  0.18122568  1
  H  H34  1  0.74566909  0.46621926  0.18040485  1
  H  H35  1  0.75100561  0.80150527  0.18032015  1
  H  H36  1  0.24344057  0.20001373  0.82137516  1
  H  H37  1  0.25224344  0.53114554  0.82202935  1
  H  H38  1  0.24840307  0.86510547  0.81735766  1
  H  H39  1  0.76020185  0.19767332  0.81719201  1
  H  H40  1  0.74964035  0.53319746  0.81741640  1
  H  H41  1  0.74772099  0.86540681  0.82009096  1
  H  H42  1  0.24673796  0.13495709  0.32105435  1
  H  H43  1  0.24351186  0.46673740  0.32030607  1
  H  H44  1  0.25423981  0.80120374  0.32212356  1
  H  H45  1  0.75824111  0.13474326  0.31905847  1
  H  H46  1  0.75375470  0.46857117  0.32103307  1
  H  H47  1  0.74720697  0.80059733  0.31664292  1
  H  H48  1  0.12129733  0.05547899  0.60447426  1
  H  H49  1  0.12969642  0.38499525  0.61728402  1
  H  H50  1  0.12935288  0.71903495  0.62530309  1
  H  H51  1  0.62429538  0.05308617  0.61053783  1
  H  H52  1  0.62316940  0.39002413  0.60043934  1
  H  H53  1  0.62019341  0.72134053  0.60304934  1
  H  H54  1  0.37279170  0.28112314  0.11436284  1
  H  H55  1  0.37255852  0.61466749  0.12387546  1
  H  H56  1  0.37125944  0.94641105  0.11618390  1
  H  H57  1  0.87979924  0.27918543  0.10793138  1
  H  H58  1  0.88625846  0.61034399  0.09509179  1
  H  H59  1  0.87012973  0.94763957  0.12023919  1
  H  H60  1  0.37964339  0.05665755  0.89623795  1
  H  H61  1  0.37022289  0.38590850  0.88338544  1
  H  H62  1  0.37549450  0.71991820  0.88954822  1
  H  H63  1  0.88084794  0.05555734  0.89705079  1
  H  H64  1  0.87182168  0.38596333  0.88414407  1
  H  H65  1  0.87411150  0.71977511  0.88691284  1
  H  H66  1  0.12103320  0.27900186  0.39318437  1
  H  H67  1  0.11663599  0.60956670  0.39752871  1
  H  H68  1  0.12911890  0.94750804  0.38287424  1
  H  H69  1  0.61866408  0.27950884  0.39532659  1
  H  H70  1  0.62061230  0.61053757  0.39463991  1
  H  H71  1  0.62866532  0.94576915  0.38724189  1
  H  H72  1  0.37532891  0.22261021  0.60481809  1
  H  H73  1  0.38161997  0.55139453  0.62041381  1
  H  H74  1  0.37172036  0.88433711  0.61342483  1
  H  H75  1  0.87883370  0.21637141  0.61646300  1
  H  H76  1  0.87762371  0.55371387  0.61206219  1
  H  H77  1  0.86709560  0.89271991  0.60018292  1
  H  H78  1  0.11975855  0.11705417  0.12002027  1
  H  H79  1  0.12584705  0.44553718  0.11038087  1
  H  H80  1  0.12657337  0.77650562  0.10328279  1
  H  H81  1  0.62445801  0.11126311  0.10810229  1
  H  H82  1  0.63161321  0.44403903  0.09986091  1
  H  H83  1  0.62478362  0.78018746  0.11309574  1
  H  H84  1  0.13032239  0.22407004  0.90237643  1
  H  H85  1  0.12184920  0.55208993  0.88739948  1
  H  H86  1  0.13071387  0.88848264  0.89351175  1
  H  H87  1  0.62527317  0.21765352  0.87940358  1
  H  H88  1  0.62598923  0.55515285  0.89048044  1
  H  H89  1  0.63175121  0.88861606  0.89709469  1
  H  H90  1  0.37792921  0.11512378  0.38528812  1
  H  H91  1  0.37320864  0.44715261  0.38369904  1
  H  H92  1  0.36994419  0.77686398  0.40098745  1
  H  H93  1  0.87342972  0.10957778  0.39902860  1
  H  H94  1  0.86803657  0.44276597  0.40105373  1
  H  H95  1  0.87368673  0.77974907  0.38388694  1
  H  H96  1  0.36980931  0.28212249  0.38383061  1
  H  H97  1  0.37172763  0.61336570  0.38975527  1
  H  H98  1  0.38052439  0.94591591  0.39480412  1
  H  H99  1  0.87253265  0.27762896  0.39001092  1
  H  H100  1  0.86781035  0.61373863  0.38089966  1
  H  H101  1  0.88173786  0.94324126  0.40063350  1
  H  H102  1  0.12935885  0.05462472  0.88494316  1
  H  H103  1  0.12005325  0.38781789  0.89939541  1
  H  H104  1  0.12353899  0.72112640  0.89293690  1
  H  H105  1  0.62854921  0.05280651  0.88418797  1
  H  H106  1  0.61939865  0.38931702  0.89481270  1
  H  H107  1  0.62491473  0.71976903  0.88522675  1
  H  H108  1  0.12892661  0.28239286  0.11442137  1
  H  H109  1  0.13112619  0.61680330  0.12803432  1
  H  H110  1  0.11637975  0.94189421  0.09799774  1
  H  H111  1  0.62199497  0.27714863  0.10534088  1
  H  H112  1  0.61922771  0.60974217  0.09527885  1
  H  H113  1  0.62005058  0.94359452  0.10630645  1
  H  H114  1  0.37585007  0.05535435  0.60405072  1
  H  H115  1  0.37585133  0.38304800  0.61764380  1
  H  H116  1  0.37230124  0.71821573  0.62131015  1
  H  H117  1  0.87225297  0.05274218  0.61685503  1
  H  H118  1  0.88126017  0.39041967  0.60097049  1
  H  H119  1  0.88401472  0.72587057  0.59404535  1
  H  H120  1  0.12901899  0.11003909  0.39772618  1
  H  H121  1  0.12448366  0.44405867  0.39577119  1
  H  H122  1  0.12233792  0.78057973  0.38732646  1
  H  H123  1  0.62588318  0.11408279  0.38390112  1
  H  H124  1  0.62032575  0.44764574  0.38379959  1
  H  H125  1  0.62400008  0.77928429  0.38746410  1
  H  H126  1  0.37747738  0.21915397  0.88192740  1
  H  H127  1  0.37055423  0.55554891  0.89744424  1
  H  H128  1  0.37956500  0.88679047  0.88405570  1
  H  H129  1  0.87323821  0.22092435  0.89729166  1
  H  H130  1  0.87599414  0.55319367  0.88587471  1
  H  H131  1  0.88062245  0.88712383  0.88359700  1
  H  H132  1  0.36844596  0.11135626  0.10372793  1
  H  H133  1  0.37492770  0.44472185  0.10697944  1
  H  H134  1  0.37513855  0.78003620  0.11596548  1
  H  H135  1  0.87323065  0.11309710  0.10865054  1
  H  H136  1  0.88031641  0.44764530  0.12005111  1
  H  H137  1  0.87379538  0.77893497  0.11038677  1
  H  H138  1  0.12621315  0.22146961  0.61114133  1
  H  H139  1  0.13371405  0.55517787  0.59988850  1
  H  H140  1  0.12264393  0.88865432  0.60863385  1
  H  H141  1  0.63139250  0.22554028  0.60119041  1
  H  H142  1  0.62907809  0.55478377  0.60505092  1
  H  H143  1  0.61966422  0.88233946  0.61731861  1
  H  H144  1  0.57841835  0.08222671  0.50542594  1
  H  H145  1  0.15815386  0.75385465  0.49470769  1
  H  H146  1  0.84582808  0.25271384  0.51262813  1
  H  H147  1  0.55982651  0.91752856  -0.00192797  1
  H  H148  1  0.79881423  0.90848517  0.49646011  1
  H  H149  1  0.05896191  0.08091992  0.49632768  1
  H  H150  1  0.84628952  0.91335411  0.99105716  1
  H  H151  1  0.33055528  0.91409524  0.50062671  1
  H  H152  1  0.42056793  0.74978213  0.99893475  1
  H  H153  1  0.56824708  0.24803708  -0.00301054  1
  H  H154  1  0.95843480  0.58336408  -0.01001290  1
  H  H155  1  0.91855876  0.74724869  0.99717699  1
  H  H156  1  0.80670866  0.24581017  1.00431734  1
  H  H157  1  0.35511431  0.57937277  0.51238786  1
  H  H158  1  0.56860196  0.58184377  0.49896558  1
  H  H159  1  0.95891142  0.75018227  0.49343803  1
  H  H160  1  0.05569030  0.58173961  0.50502749  1
  H  H161  1  0.54524136  0.58546398  -0.00556733  1
  H  H162  1  0.69058120  0.91438462  1.00622097  1
  H  H163  1  0.67229661  0.75596258  0.50027048  1
  H  H164  1  0.69634055  0.41292202  -0.00101483  1
  H  H165  1  0.30923828  0.08507922  -0.00548572  1
  H  H166  1  0.19810167  0.58073459  0.49267612  1
  H  H167  1  0.34120261  0.41542458  0.49662569  1
  H  H168  1  0.56192864  0.25588270  0.50697096  1
  H  H169  1  0.17056421  0.25172434  0.50520481  1
  H  H170  1  0.04540445  0.91788587  -0.00334449  1
  H  H171  1  0.19115064  0.08191780  0.50146640  1
  H  H172  1  0.58699722  0.74926776  0.99638538  1
  H  H173  1  0.44152689  0.08159041  1.00116710  1
  H  H174  1  0.19035298  0.91475378  1.00180067  1
  H  H175  1  0.89982705  0.58634348  0.48863989  1
  H  H176  1  0.67951270  0.58849263  0.99368508  1
  H  H177  1  0.31802830  0.58427086  1.00510052  1
  H  H178  1  0.65153473  0.92029873  0.51365722  1
  H  H179  1  0.93266991  0.25057824  -0.00368718  1
  H  H180  1  0.95021081  0.92066644  0.50308573  1
  H  H181  1  0.83184756  0.75357775  0.49696134  1
  H  H182  1  0.79984550  0.41905256  0.50338741  1
  H  H183  1  0.55742310  0.41601831  1.00260339  1
  H  H184  1  0.94620569  0.41495003  0.49709475  1
  H  H185  1  0.83209260  0.58089273  0.99792914  1
  H  H186  1  0.85331302  0.41848245  0.00670310  1
  H  H187  1  0.55784883  0.74558168  0.49262967  1
  H  H188  1  0.15403384  0.58215259  0.99489088  1
  H  H189  1  0.14641260  0.08928926  0.00619856  1
  H  H190  1  0.40838309  0.25344030  0.00741505  1
  H  H191  1  0.69801115  0.23641029  0.49701796  1
  Pb  Pb192  1  0.25487550  0.04813068  0.74677071  1
  Pb  Pb193  1  0.24922548  0.37775988  0.75234944  1
  Pb  Pb194  1  0.25115146  0.71575218  0.75293989  1
  Pb  Pb195  1  0.74662970  0.04755158  0.75095824  1
  Pb  Pb196  1  0.75570755  0.38217045  0.74925574  1
  Pb  Pb197  1  0.75114978  0.71182191  0.74290773  1
  Pb  Pb198  1  0.24777074  0.28788948  0.25425764  1
  Pb  Pb199  1  0.25313339  0.61788364  0.25534238  1
  Pb  Pb200  1  0.24747663  0.95442629  0.24763893  1
  Pb  Pb201  1  0.74864290  0.28413555  0.25251019  1
  Pb  Pb202  1  0.74418444  0.61924389  0.24132779  1
  Pb  Pb203  1  0.75044580  0.95242386  0.25234003  1
  Pb  Pb204  1  0.00065849  0.21115976  0.75460528  1
  Pb  Pb205  1  0.00602902  0.54756834  0.74463027  1
  Pb  Pb206  1  -0.00304861  0.88328688  0.74828986  1
  Pb  Pb207  1  0.50175652  0.21614280  0.74863714  1
  Pb  Pb208  1  0.49997241  0.54548877  0.75231784  1
  Pb  Pb209  1  0.50300472  0.87940582  0.75318126  1
  Pb  Pb210  1  -0.00037509  0.12087663  0.25558316  1
  Pb  Pb211  1  -0.00302652  0.45372905  0.25698096  1
  Pb  Pb212  1  0.00132110  0.78380758  0.25078798  1
  Pb  Pb213  1  0.49687694  0.11926924  0.24592428  1
  Pb  Pb214  1  0.50029372  0.45116734  0.24428927  1
  Pb  Pb215  1  0.49732609  0.78790283  0.25061907  1
  C  C216  1  -0.00073894  0.04732915  0.63438097  1
  C  C217  1  0.00225451  0.37927649  0.63169283  1
  C  C218  1  0.00096096  0.71418635  0.63113377  1
  C  C219  1  0.49895424  0.04654533  0.63150014  1
  C  C220  1  0.50278757  0.38034895  0.63023908  1
  C  C221  1  0.50009493  0.71352416  0.63344519  1
  C  C222  1  0.00241491  0.28718369  0.13249766  1
  C  C223  1  0.00254640  0.62003588  0.13212939  1
  C  C224  1  -0.00253995  0.95387885  0.13222454  1
  C  C225  1  0.49895380  0.28620130  0.13219024  1
  C  C226  1  0.50113007  0.62069222  0.13175982  1
  C  C227  1  0.49766923  0.95297901  0.13491460  1
  C  C228  1  0.00297745  0.04709922  0.86780087  1
  C  C229  1  -0.00137497  0.37937054  0.86820378  1
  C  C230  1  -0.00017288  0.71365272  0.86583879  1
  C  C231  1  0.50156113  0.04689041  0.86743013  1
  C  C232  1  0.49725896  0.38029629  0.86524369  1
  C  C233  1  0.49951885  0.71336736  0.86621104  1
  C  C234  1  -0.00273251  0.28638267  0.36638220  1
  C  C235  1  -0.00494327  0.61892595  0.36686675  1
  C  C236  1  0.00177687  0.95358768  0.36762709  1
  C  C237  1  0.49690958  0.28720061  0.36784523  1
  C  C238  1  0.49738690  0.61973036  0.36981091  1
  C  C239  1  0.50331886  0.95403526  0.36610257  1
  C  C240  1  0.25168466  0.21425998  0.63069633  1
  C  C241  1  0.25426695  0.54662353  0.63275655  1
  C  C242  1  0.24709232  0.87966944  0.63260759  1
  C  C243  1  0.75210874  0.21315067  0.63107669  1
  C  C244  1  0.75218792  0.54657971  0.63163568  1
  C  C245  1  0.74682301  0.88031082  0.63144263  1
  C  C246  1  0.24681908  0.12039893  0.13295099  1
  C  C247  1  0.25099143  0.45263353  0.13205151  1
  C  C248  1  0.24848939  0.78605219  0.13296991  1
  C  C249  1  0.74860592  0.12005551  0.13340862  1
  C  C250  1  0.75232646  0.45200870  0.13246698  1
  C  C251  1  0.74990684  0.78671829  0.13264005  1
  C  C252  1  0.25029699  0.21433191  0.86890966  1
  C  C253  1  0.24782730  0.54638792  0.86976035  1
  C  C254  1  0.25318503  0.87966976  0.86507946  1
  C  C255  1  0.75264031  0.21226237  0.86476198  1
  C  C256  1  0.75001101  0.54780142  0.86544202  1
  C  C257  1  0.75408136  0.87985180  0.86795686  1
  C  C258  1  0.25090653  0.12044256  0.36869986  1
  C  C259  1  0.24760708  0.45236679  0.36807271  1
  C  C260  1  0.24838151  0.78656116  0.36983017  1
  C  C261  1  0.75267844  0.11985046  0.36667111  1
  C  C262  1  0.74781758  0.45335476  0.36850764  1
  C  C263  1  0.74835067  0.78617082  0.36463430  1
  C  C264  1  0.28950196  0.24207970  0.53614432  1
  C  C265  1  0.20803161  0.90617873  0.53882729  1
  C  C266  1  0.52697500  0.26436919  0.46525170  1
  C  C267  1  0.44486261  0.73560779  0.54375766  1
  C  C268  1  0.52582911  0.92811337  0.03975573  1
  C  C269  1  0.02606333  0.07155003  0.53886061  1
  C  C270  1  0.72375153  0.90514138  0.96381201  1
  C  C271  1  0.54337810  0.73921818  0.95936601  1
  C  C272  1  0.70668327  0.76037884  0.04034233  1
  C  C273  1  0.44937875  0.40340412  0.54039457  1
  C  C274  1  0.06787720  0.59687605  0.04641202  1
  C  C275  1  0.46107944  0.73933727  0.96076304  1
  C  C276  1  0.22065626  0.75775298  0.03854938  1
  C  C277  1  0.70975379  0.76324978  0.45974151  1
  C  C278  1  0.79367043  0.57090262  0.95856896  1
  C  C279  1  0.22935811  0.57183929  0.53604012  1
  C  C280  1  0.52430734  0.40571530  0.96040551  1
  C  C281  1  0.22443935  0.90503629  0.95996316  1
  C  C282  1  0.02306699  0.59291587  0.46283476  1
  C  C283  1  0.28960059  0.90486569  0.53865767  1
  C  C284  1  0.27524494  0.09549612  0.03623287  1
  C  C285  1  0.19329141  0.09752013  0.04190157  1
  C  C286  1  0.80716823  0.42847345  0.04271690  1
  C  C287  1  0.06461679  0.74052970  0.54490026  1
  C  C288  1  0.71946391  0.57489775  0.53766429  1
  C  C289  1  0.55277820  0.07384593  0.95839300  1
  C  C290  1  0.53007647  0.40567443  0.53439886  1
  C  C291  1  0.95078021  0.40581054  0.95876790  1
  C  C292  1  0.78856433  0.75982290  0.03937969  1
  C  C293  1  0.29525714  0.42611778  0.46047408  1
  C  C294  1  0.95956135  0.73823140  0.95845595  1
  C  C295  1  0.53202979  0.25943715  0.03723527  1
  C  C296  1  0.28022717  0.57366314  0.96470494  1
  C  C297  1  0.52545913  0.73670973  0.53543309  1
  C  C298  1  0.98799190  0.59427353  0.03352788  1
  C  C299  1  0.45130741  0.59302768  0.46248468  1
  C  C300  1  0.21354185  0.42576519  0.46308171  1
  C  C301  1  0.43937100  0.59330562  0.04490026  1
  C  C302  1  0.44561440  0.26558601  0.45950589  1
  C  C303  1  0.30237569  0.09329804  0.45947988  1
  C  C304  1  0.05616805  0.40701157  0.54198524  1
  C  C305  1  0.77559546  0.23740726  0.96081962  1
  C  C306  1  0.96888419  0.26146426  0.03667764  1
  C  C307  1  0.04837883  0.07544705  0.95829697  1
  C  C308  1  0.79177897  0.76294618  0.45838483  1
  C  C309  1  0.05008626  0.26311425  0.04083103  1
  C  C310  1  0.30175802  0.24014812  0.95851510  1
  C  C311  1  0.28568828  0.42477035  0.03910593  1
  N  N312  1  0.77207786  0.91341239  0.53916679  1
  N  N313  1  0.03880612  0.73931528  0.96072513  1
  N  N314  1  0.70358392  0.09473394  0.45784496  1
  N  N315  1  0.78709983  0.09386080  0.03964123  1
  N  N316  1  0.05659933  0.92771575  0.45669294  1
  N  N317  1  0.69329371  0.42713697  0.45751929  1
  N  N318  1  0.54694766  0.92916284  0.45909832  1
  N  N319  1  0.30354581  0.90530882  0.95665961  1
  N  N320  1  0.44520450  0.40487926  0.95649281  1
  N  N321  1  0.97103944  0.07600341  0.96351399  1
  N  N322  1  0.95684723  0.26242707  0.46046678  1
  N  N323  1  0.45242256  0.26125107  0.04140553  1
  N  N324  1  0.94697369  0.07103885  0.54295156  1
  N  N325  1  0.30829188  0.57110328  0.54448221  1
  N  N326  1  0.72767948  0.42852518  0.03659375  1
  N  N327  1  0.72512331  0.24576905  0.53865294  1
  N  N328  1  0.20841875  0.42537525  0.03869332  1
  N  N329  1  0.47023216  0.92822587  0.46125349  1
  N  N330  1  0.29807517  0.75867023  0.04137798  1
  N  N331  1  0.79738979  0.57448919  0.53892454  1
  N  N332  1  0.94393122  0.59511638  0.45618677  1
  N  N333  1  0.69410865  0.90130445  0.54239848  1
  N  N334  1  0.98642313  0.74243179  0.53525870  1
  N  N335  1  0.20067390  0.57245937  0.96035088  1
  N  N336  1  0.80300229  0.90473751  0.95775901  1
  N  N337  1  0.27977484  0.76091441  0.46541312  1
  N  N338  1  0.53067615  0.59229509  0.46317272  1
  N  N339  1  0.71404254  0.57002142  0.95950315  1
  N  N340  1  0.03387894  0.26211777  0.46120660  1
  N  N341  1  0.22470228  0.24141767  0.96628661  1
  N  N342  1  0.53954577  0.07262895  0.54099261  1
  N  N343  1  0.97744522  0.40764247  0.53740875  1
  N  N344  1  0.02800249  0.40710775  0.96472232  1
  N  N345  1  0.69669728  0.23759305  0.95453863  1
  N  N346  1  0.46144452  0.07380550  0.53750134  1
  N  N347  1  0.77091303  0.42572210  0.46206030  1
  N  N348  1  0.93980708  0.92761842  0.04439249  1
  N  N349  1  0.44677994  0.92938493  0.04296946  1
  N  N350  1  0.78013940  0.09298990  0.46257870  1
  N  N351  1  0.80366333  0.23363568  0.54152560  1
  N  N352  1  0.21057949  0.24137553  0.53941745  1
  N  N353  1  0.20184854  0.76225955  0.45956730  1
  N  N354  1  0.71087787  0.09320285  0.03968031  1
  N  N355  1  0.01753086  0.92436142  0.03863124  1
  N  N356  1  0.51769813  0.59240621  0.03637046  1
  N  N357  1  0.97898749  0.92658006  0.46155949  1
  N  N358  1  0.47392575  0.07412156  0.96159235  1
  N  N359  1  0.22358037  0.09211082  0.46257097  1
  N  N360  1  0.05991914  0.05715478  0.59464447  1
  N  N361  1  0.07159606  0.38997133  0.60048135  1
  N  N362  1  0.07346167  0.72396005  0.60454029  1
  N  N363  1  0.56398408  0.05656037  0.59789914  1
  N  N364  1  0.56249822  0.39165754  0.58946356  1
  N  N365  1  0.55936827  0.72273121  0.59269365  1
  N  N366  1  0.43267033  0.27777993  0.09979269  1
  N  N367  1  0.42930007  0.60995633  0.10422682  1
  N  N368  1  0.43093680  0.94453746  0.10242378  1
  N  N369  1  0.93994670  0.27669254  0.09514772  1
  N  N370  1  0.94788144  0.60918560  0.08838413  1
  N  N371  1  0.92809663  0.94412992  0.10340742  1
  N  N372  1  0.44112808  0.05646570  0.90597236  1
  N  N373  1  0.43022451  0.38928609  0.89713370  1
  N  N374  1  0.43545621  0.72333046  0.90254521  1
  N  N375  1  0.94261064  0.05816209  0.90570690  1
  N  N376  1  0.93026055  0.38927204  0.89997436  1
  N  N377  1  0.93409307  0.72299010  0.90047237  1
  N  N378  1  0.05973207  0.27723818  0.40333457  1
  N  N379  1  0.05522973  0.60765221  0.40733428  1
  N  N380  1  0.07029058  0.94313414  0.39772769  1
  N  N381  1  0.55799433  0.27796838  0.40689221  1
  N  N382  1  0.55958346  0.60935365  0.40610476  1
  N  N383  1  0.56863999  0.94475492  0.39980559  1
  N  N384  1  0.31529638  0.22536993  0.59263592  1
  N  N385  1  0.32317881  0.55555206  0.60390835  1
  N  N386  1  0.31267198  0.88838397  0.59824603  1
  N  N387  1  0.82021557  0.22321014  0.60129490  1
  N  N388  1  0.81775299  0.55690469  0.59889609  1
  N  N389  1  0.80526840  0.88991825  0.59093231  1
  N  N390  1  0.17758308  0.11277641  0.10231075  1
  N  N391  1  0.18644008  0.44281342  0.09783781  1
  N  N392  1  0.18761983  0.77407504  0.09339562  1
  N  N393  1  0.68538935  0.10927846  0.09773837  1
  N  N394  1  0.69388406  0.44097397  0.09250346  1
  N  N395  1  0.68405448  0.77658731  0.09765673  1
  N  N396  1  0.19240007  0.22501840  0.90927060  1
  N  N397  1  0.18147595  0.55544067  0.90197748  1
  N  N398  1  0.19186252  0.88981296  0.90407037  1
  N  N399  1  0.68439165  0.22190804  0.89469734  1
  N  N400  1  0.68720419  0.55859239  0.90115482  1
  N  N401  1  0.69313424  0.88994613  0.90798123  1
  N  N402  1  0.31951920  0.11066946  0.40140356  1
  N  N403  1  0.31480332  0.44279084  0.40019556  1
  N  N404  1  0.30832177  0.77585011  0.40945392  1
  N  N405  1  0.81172297  0.10850046  0.40622407  1
  N  N406  1  0.80609058  0.44312562  0.40880274  1
  N  N407  1  0.81440747  0.77711726  0.39889048  1
  N  N408  1  0.42813705  0.27919599  0.40061103  1
  N  N409  1  0.43078464  0.60979478  0.40449312  1
  N  N410  1  0.44212578  0.94373950  0.40401665  1
  N  N411  1  0.93321365  0.27696081  0.40153487  1
  N  N412  1  0.92687478  0.61090292  0.39708931  1
  N  N413  1  0.94371348  0.94397226  0.40829322  1
  N  N414  1  0.07059736  0.05798641  0.90032391  1
  N  N415  1  0.05802221  0.38996469  0.90724821  1
  N  N416  1  0.06206475  0.72399122  0.90267099  1
  N  N417  1  0.57008343  0.05735594  0.90002365  1
  N  N418  1  0.55794254  0.39082882  0.90477978  1
  N  N419  1  0.56560166  0.72317315  0.90015798  1
  N  N420  1  0.06999400  0.27843883  0.09860072  1
  N  N421  1  0.07582494  0.61227312  0.10621616  1
  N  N422  1  0.05410546  0.94284879  0.09086855  1
  N  N423  1  0.56118377  0.27479561  0.09373903  1
  N  N424  1  0.55686025  0.61149232  0.08912115  1
  N  N425  1  0.55877883  0.94251163  0.09580981  1
  N  N426  1  0.43677256  0.05746033  0.59424483  1
  N  N427  1  0.43325333  0.38818324  0.59919102  1
  N  N428  1  0.42994460  0.72178308  0.60280497  1
  N  N429  1  0.93203110  0.05630274  0.60259891  1
  N  N430  1  0.94300680  0.38893328  0.59203786  1
  N  N431  1  0.94628519  0.72408052  0.58798970  1
  N  N432  1  0.19060261  0.10967514  0.40700020  1
  N  N433  1  0.18496683  0.44160393  0.40727768  1
  N  N434  1  0.18162908  0.77803455  0.40173216  1
  N  N435  1  0.68554693  0.11099096  0.39830519  1
  N  N436  1  0.67937972  0.44306043  0.39874570  1
  N  N437  1  0.68393024  0.77734827  0.40108785  1
  N  N438  1  0.31970836  0.22362014  0.89921039  1
  N  N439  1  0.30970415  0.55772067  0.90831568  1
  N  N440  1  0.31969893  0.88940074  0.89749662  1
  N  N441  1  0.81154384  0.22268395  0.90590363  1
  N  N442  1  0.81633950  0.55596883  0.90061011  1
  N  N443  1  0.82147370  0.88845405  0.89901516  1
  N  N444  1  0.30726590  0.10978084  0.09330897  1
  N  N445  1  0.31491154  0.44142639  0.09521851  1
  N  N446  1  0.31548667  0.77655544  0.10173296  1
  N  N447  1  0.81209422  0.11047663  0.09769651  1
  N  N448  1  0.82230262  0.44393941  0.10211291  1
  N  N449  1  0.81403113  0.77570134  0.09615194  1
  N  N450  1  0.18630024  0.22412924  0.59759377  1
  N  N451  1  0.19533870  0.55714969  0.59098730  1
  N  N452  1  0.18252539  0.89108529  0.59551791  1
  N  N453  1  0.69291696  0.22249061  0.59121513  1
  N  N454  1  0.68976484  0.55793363  0.59352698  1
  N  N455  1  0.67827538  0.88963875  0.60196866  1
  Cl  Cl456  1  0.24673894  0.05759841  0.60698407  1
  Cl  Cl457  1  0.25172358  0.38250375  0.61965807  1
  Cl  Cl458  1  0.24985520  0.71731116  0.61977236  1
  Cl  Cl459  1  0.74662082  0.04943244  0.61845205  1
  Cl  Cl460  1  0.75892594  0.39061729  0.60890148  1
  Cl  Cl461  1  0.75611975  0.72429086  0.60734810  1
  Cl  Cl462  1  0.25275095  0.28319565  0.12397820  1
  Cl  Cl463  1  0.25351973  0.61438778  0.12267485  1
  Cl  Cl464  1  0.23822927  0.94322843  0.11333601  1
  Cl  Cl465  1  0.74971972  0.28196156  0.11885406  1
  Cl  Cl466  1  0.74444694  0.60813960  0.10061314  1
  Cl  Cl467  1  0.74347316  0.94143402  0.11660235  1
  Cl  Cl468  1  0.25663109  0.05537470  0.88076084  1
  Cl  Cl469  1  0.24476629  0.38597503  0.88299824  1
  Cl  Cl470  1  0.24779442  0.71642014  0.88313741  1
  Cl  Cl471  1  0.75517097  0.04827520  0.88172337  1
  Cl  Cl472  1  0.74300353  0.39160490  0.89161484  1
  Cl  Cl473  1  0.75043142  0.71594111  0.87485511  1
  Cl  Cl474  1  0.24255758  0.27660857  0.39055418  1
  Cl  Cl475  1  0.24316171  0.61087222  0.39105105  1
  Cl  Cl476  1  0.25696147  0.94987632  0.38233940  1
  Cl  Cl477  1  0.74740707  0.27439913  0.39386194  1
  Cl  Cl478  1  0.74364783  0.61314511  0.37495012  1
  Cl  Cl479  1  0.75840254  0.93906704  0.39489838  1
  Cl  Cl480  1  0.00271743  0.21878209  0.62150192  1
  Cl  Cl481  1  0.00679529  0.55409477  0.60796340  1
  Cl  Cl482  1  -0.01143091  0.88963939  0.60821280  1
  Cl  Cl483  1  0.50790092  0.22263461  0.61519315  1
  Cl  Cl484  1  0.50682188  0.55394546  0.61547045  1
  Cl  Cl485  1  0.49852124  0.88205613  0.62207793  1
  Cl  Cl486  1  -0.00488063  0.11660680  0.12468024  1
  Cl  Cl487  1  0.00332523  0.44907312  0.12684232  1
  Cl  Cl488  1  0.00040963  0.78110496  0.11931408  1
  Cl  Cl489  1  0.49482513  0.11085673  0.10768165  1
  Cl  Cl490  1  0.50808561  0.44718753  0.10842473  1
  Cl  Cl491  1  0.49998549  0.77880496  0.11776300  1
  Cl  Cl492  1  0.00082036  0.22164876  0.88848879  1
  Cl  Cl493  1  -0.00146175  0.55215015  0.87809137  1
  Cl  Cl494  1  0.00724606  0.89233157  0.88997298  1
  Cl  Cl495  1  0.50075320  0.21764317  0.88471886  1
  Cl  Cl496  1  0.50243809  0.55785808  0.89258518  1
  Cl  Cl497  1  0.50890616  0.89022134  0.88721303  1
  Cl  Cl498  1  0.00468714  0.10969196  0.39130965  1
  Cl  Cl499  1  -0.00922521  0.44334784  0.39676210  1
  Cl  Cl500  1  -0.00175139  0.77591457  0.39215937  1
  Cl  Cl501  1  0.50261354  0.11473796  0.37919016  1
  Cl  Cl502  1  0.49822635  0.45311768  0.37519297  1
  Cl  Cl503  1  0.49561508  0.77714005  0.38414930  1
  Cl  Cl504  1  0.36117509  0.14324912  0.74953170  1
  Cl  Cl505  1  0.36312521  0.47787730  0.74935761  1
  Cl  Cl506  1  0.36185089  0.80961463  0.75143761  1
  Cl  Cl507  1  0.86231947  0.14529217  0.74395160  1
  Cl  Cl508  1  0.85816934  0.47665028  0.74884500  1
  Cl  Cl509  1  0.86298491  0.81275386  0.75199731  1
  Cl  Cl510  1  0.13715476  0.18840177  0.24786597  1
  Cl  Cl511  1  0.13738374  0.52284400  0.25133299  1
  Cl  Cl512  1  0.13682747  0.85513197  0.25605370  1
  Cl  Cl513  1  0.63786306  0.19117651  0.25082807  1
  Cl  Cl514  1  0.64127573  0.52201230  0.24920215  1
  Cl  Cl515  1  0.63764656  0.85495309  0.25206712  1
  Cl  Cl516  1  0.13831313  0.14496906  0.74870026  1
  Cl  Cl517  1  0.14079256  0.48013174  0.74897308  1
  Cl  Cl518  1  0.13916189  0.80862363  0.74615112  1
  Cl  Cl519  1  0.63903570  0.14397828  0.75254199  1
  Cl  Cl520  1  0.63601223  0.47835345  0.75192073  1
  Cl  Cl521  1  0.63883845  0.81215236  0.74746989  1
  Cl  Cl522  1  0.36312688  0.18923290  0.25305520  1
  Cl  Cl523  1  0.36091714  0.52437120  0.25053627  1
  Cl  Cl524  1  0.36141486  0.85502066  0.24760468  1
  Cl  Cl525  1  0.86028337  0.19018446  0.25206227  1
  Cl  Cl526  1  0.86295430  0.52250007  0.24889737  1
  Cl  Cl527  1  0.86226457  0.85545950  0.25036595  1
  Cl  Cl528  1  0.11160604  0.31216253  0.74697520  1
  Cl  Cl529  1  0.11119024  0.64290260  0.74667185  1
  Cl  Cl530  1  0.11106162  0.97610542  0.75034813  1
  Cl  Cl531  1  0.61042896  0.30950553  0.75028936  1
  Cl  Cl532  1  0.61299586  0.64520784  0.75209877  1
  Cl  Cl533  1  0.61296945  0.97752837  0.74930241  1
  Cl  Cl534  1  0.38839158  0.02320939  0.24594864  1
  Cl  Cl535  1  0.38925722  0.35560192  0.25099289  1
  Cl  Cl536  1  0.38668912  0.68784085  0.24883616  1
  Cl  Cl537  1  0.88673951  0.02035770  0.24821075  1
  Cl  Cl538  1  0.88823813  0.35693710  0.25135751  1
  Cl  Cl539  1  0.89038583  0.68909413  0.25414247  1
  Cl  Cl540  1  0.38922477  0.31079515  0.75036155  1
  Cl  Cl541  1  0.38687387  0.64387170  0.74613260  1
  Cl  Cl542  1  0.38835064  0.97832811  0.74925981  1
  Cl  Cl543  1  0.88585651  0.31144316  0.75104821  1
  Cl  Cl544  1  0.88832606  0.64471583  0.74801738  1
  Cl  Cl545  1  0.89012551  0.97510948  0.74833914  1
  Cl  Cl546  1  0.11144482  0.02105562  0.25241555  1
  Cl  Cl547  1  0.11320629  0.35622151  0.25126662  1
  Cl  Cl548  1  0.10968191  0.68971697  0.24994959  1
  Cl  Cl549  1  0.61423952  0.02219926  0.25241603  1
  Cl  Cl550  1  0.61090025  0.35702249  0.24942089  1
  Cl  Cl551  1  0.61055238  0.68779832  0.25112846  1
