# generated using pymatgen
data_H8PbC4(N3Cl2)2
_symmetry_space_group_name_H-M   'P 1'
_cell_length_a   16.62661657
_cell_length_b   22.51880967
_cell_length_c   21.59474988
_cell_angle_alpha   89.99887632
_cell_angle_beta   90.01222112
_cell_angle_gamma   89.99104153
_symmetry_Int_Tables_number   1
_chemical_formula_structural   H8PbC4(N3Cl2)2
_chemical_formula_sum   'H192 Pb24 C96 N144 Cl96'
_cell_volume   8085.32486952
_cell_formula_units_Z   24
loop_
 _symmetry_equiv_pos_site_id
 _symmetry_equiv_pos_as_xyz
  1  'x, y, z'
loop_
 _atom_site_type_symbol
 _atom_site_label
 _atom_site_symmetry_multiplicity
 _atom_site_fract_x
 _atom_site_fract_y
 _atom_site_fract_z
 _atom_site_occupancy
  H  H0  1  0.00493626  0.02983527  0.67840030  1
  H  H1  1  0.00205231  0.36328341  0.67719316  1
  H  H2  1  -0.01190894  0.69483196  0.67501204  1
  H  H3  1  0.48801287  0.02659098  0.67386421  1
  H  H4  1  0.50256015  0.36091252  0.67719168  1
  H  H5  1  0.50406108  0.69491675  0.68166074  1
  H  H6  1  -0.00893591  0.30522744  0.17573992  1
  H  H7  1  0.01588380  0.63993538  0.17522947  1
  H  H8  1  -0.00860032  0.97142474  0.17321688  1
  H  H9  1  0.50019699  0.30847920  0.17435624  1
  H  H10  1  0.48549633  0.63235987  0.18065974  1
  H  H11  1  0.50872327  0.97248003  0.17745087  1
  H  H12  1  -0.00164179  0.02845903  0.82421718  1
  H  H13  1  0.00109337  0.36242637  0.82042660  1
  H  H14  1  0.00539346  0.69716508  0.81957106  1
  H  H15  1  0.51060515  0.03112755  0.81721841  1
  H  H16  1  0.50359579  0.35875443  0.82199481  1
  H  H17  1  0.48823595  0.69573217  0.82053170  1
  H  H18  1  -0.01087388  0.30016363  0.31821517  1
  H  H19  1  -0.00391352  0.63460806  0.31990489  1
  H  H20  1  0.00172368  0.96980443  0.31860615  1
  H  H21  1  0.50877978  0.30206223  0.32108312  1
  H  H22  1  0.49138580  0.64032195  0.32187130  1
  H  H23  1  0.49264178  0.96945127  0.33033534  1
  H  H24  1  0.25946290  0.19624605  0.67647583  1
  H  H25  1  0.25694721  0.53302043  0.68075369  1
  H  H26  1  0.23881027  0.86029110  0.67541109  1
  H  H27  1  0.75996866  0.19542721  0.68231257  1
  H  H28  1  0.74419130  0.53080383  0.68076403  1
  H  H29  1  0.75263955  0.86594841  0.67657060  1
  H  H30  1  0.23890528  0.13661710  0.17693355  1
  H  H31  1  0.24525250  0.46739059  0.17896423  1
  H  H32  1  0.25387842  0.80220518  0.18347113  1
  H  H33  1  0.74200822  0.14244427  0.17527231  1
  H  H34  1  0.74364108  0.47271330  0.17866584  1
  H  H35  1  0.74745474  0.80291822  0.17398087  1
  H  H36  1  0.25456454  0.19359267  0.82530771  1
  H  H37  1  0.24774603  0.52923459  0.81945112  1
  H  H38  1  0.26120870  0.86712145  0.82272070  1
  H  H39  1  0.74351886  0.19740074  0.82246367  1
  H  H40  1  0.74909470  0.52384974  0.82542215  1
  H  H41  1  0.73286581  0.86046593  0.82536622  1
  H  H42  1  0.25852776  0.13774904  0.32117590  1
  H  H43  1  0.24711750  0.46764952  0.31832409  1
  H  H44  1  0.24756932  0.80754466  0.32606098  1
  H  H45  1  0.74659095  0.13708037  0.32439023  1
  H  H46  1  0.74363866  0.47119871  0.32342201  1
  H  H47  1  0.75641256  0.80635041  0.32009120  1
  H  H48  1  0.13200031  0.05366644  0.60954276  1
  H  H49  1  0.11362747  0.38927660  0.59676244  1
  H  H50  1  0.13304579  0.71542462  0.63080778  1
  H  H51  1  0.62775680  0.04933573  0.62113387  1
  H  H52  1  0.61187070  0.39325355  0.59730939  1
  H  H53  1  0.62908400  0.72148621  0.61144906  1
  H  H54  1  0.38145775  0.27616440  0.10238495  1
  H  H55  1  0.37758001  0.60838356  0.09640345  1
  H  H56  1  0.36698386  0.95292150  0.12765322  1
  H  H57  1  0.88504746  0.27727288  0.09158656  1
  H  H58  1  0.87509589  0.61844426  0.12422928  1
  H  H59  1  0.87274831  0.94253413  0.10075467  1
  H  H60  1  0.37158772  0.05035916  0.87490090  1
  H  H61  1  0.36767990  0.38224571  0.88261637  1
  H  H62  1  0.38660576  0.72402862  0.90609051  1
  H  H63  1  0.86975299  0.05697223  0.89007296  1
  H  H64  1  0.86778636  0.38279688  0.87899141  1
  H  H65  1  0.87814969  0.71890994  0.88669395  1
  H  H66  1  0.13113423  0.28454534  0.36931759  1
  H  H67  1  0.13265483  0.61635135  0.37803329  1
  H  H68  1  0.13436695  0.94595563  0.38308250  1
  H  H69  1  0.63042344  0.27595693  0.39328938  1
  H  H70  1  0.63115873  0.61832017  0.37343816  1
  H  H71  1  0.63219097  0.95226314  0.38032226  1
  H  H72  1  0.37090403  0.22069066  0.59694229  1
  H  H73  1  0.36249279  0.55898711  0.59755508  1
  H  H74  1  0.37000619  0.88627773  0.61299516  1
  H  H75  1  0.86707675  0.22184886  0.59914908  1
  H  H76  1  0.86493491  0.55674232  0.60720099  1
  H  H77  1  0.86012665  0.89178743  0.59510207  1
  H  H78  1  0.12917887  0.10890385  0.09735739  1
  H  H79  1  0.13616425  0.44233946  0.09793930  1
  H  H80  1  0.11799712  0.78513377  0.12521165  1
  H  H81  1  0.64040848  0.10953003  0.08974580  1
  H  H82  1  0.63121155  0.44205844  0.10102610  1
  H  H83  1  0.62017829  0.77836867  0.10790618  1
  H  H84  1  0.11743269  0.21740708  0.88293553  1
  H  H85  1  0.12846821  0.55508399  0.89327997  1
  H  H86  1  0.12530691  0.88398979  0.88094889  1
  H  H87  1  0.62084053  0.22390158  0.89604540  1
  H  H88  1  0.62644081  0.55418816  0.89419720  1
  H  H89  1  0.64016216  0.89765880  0.91381176  1
  H  H90  1  0.36743370  0.10765110  0.40341174  1
  H  H91  1  0.38462596  0.44707655  0.37588872  1
  H  H92  1  0.36701155  0.77965594  0.39781398  1
  H  H93  1  0.86705640  0.11021872  0.39642665  1
  H  H94  1  0.88441633  0.45135809  0.37609170  1
  H  H95  1  0.86478292  0.77365384  0.40158689  1
  H  H96  1  0.38115583  0.27826761  0.38937364  1
  H  H97  1  0.38568077  0.61030217  0.40536906  1
  H  H98  1  0.38811193  0.94080024  0.41325573  1
  H  H99  1  0.88586527  0.27470185  0.40269136  1
  H  H100  1  0.88473544  0.61113662  0.39925390  1
  H  H101  1  0.88547321  0.94515642  0.39501102  1
  H  H102  1  0.11794768  0.05585004  0.89817899  1
  H  H103  1  0.11521876  0.38811041  0.89760477  1
  H  H104  1  0.12659822  0.72277888  0.89327392  1
  H  H105  1  0.61813252  0.06000851  0.89953263  1
  H  H106  1  0.61478161  0.39188990  0.90226288  1
  H  H107  1  0.63079496  0.71581077  0.87038146  1
  H  H108  1  0.13054416  0.28472607  0.12215894  1
  H  H109  1  0.11982108  0.60507267  0.09226000  1
  H  H110  1  0.12075599  0.94824459  0.10850427  1
  H  H111  1  0.63034468  0.28238388  0.11041833  1
  H  H112  1  0.62431658  0.61453377  0.12283627  1
  H  H113  1  0.61070033  0.93883321  0.09264307  1
  H  H114  1  0.38283145  0.05678226  0.59054519  1
  H  H115  1  0.36592879  0.37877340  0.61803433  1
  H  H116  1  0.38044735  0.72450422  0.61294756  1
  H  H117  1  0.88198317  0.05528740  0.60786100  1
  H  H118  1  0.86700803  0.38383333  0.61715377  1
  H  H119  1  0.89162053  0.72698740  0.58661767  1
  H  H120  1  0.12147490  0.11698971  0.38125400  1
  H  H121  1  0.13850194  0.44146067  0.40057149  1
  H  H122  1  0.11888210  0.77929792  0.39032659  1
  H  H123  1  0.61826542  0.10953593  0.38961516  1
  H  H124  1  0.64125342  0.44012410  0.40960485  1
  H  H125  1  0.61849388  0.78589041  0.37503124  1
  H  H126  1  0.36348678  0.22477402  0.90703194  1
  H  H127  1  0.37623515  0.54851523  0.88662079  1
  H  H128  1  0.37234031  0.89130124  0.90191279  1
  H  H129  1  0.86948081  0.22304110  0.89230784  1
  H  H130  1  0.87500913  0.55227918  0.89348386  1
  H  H131  1  0.87974007  0.87610202  0.87000672  1
  H  H132  1  0.37470235  0.11945019  0.12191249  1
  H  H133  1  0.38320396  0.44787630  0.12461853  1
  H  H134  1  0.36576835  0.77945377  0.10371851  1
  H  H135  1  0.88309873  0.11768703  0.12609141  1
  H  H136  1  0.87867945  0.45029604  0.11875629  1
  H  H137  1  0.86920124  0.77590209  0.10283401  1
  H  H138  1  0.12460092  0.21496606  0.62054948  1
  H  H139  1  0.11735472  0.54957032  0.62904637  1
  H  H140  1  0.12150093  0.89075721  0.60101865  1
  H  H141  1  0.62067607  0.21512915  0.62590949  1
  H  H142  1  0.61592907  0.55404564  0.61384825  1
  H  H143  1  0.61308675  0.88473859  0.62368891  1
  H  H144  1  0.32465030  0.55052949  0.99508180  1
  H  H145  1  0.72178199  0.08503518  -0.00792889  1
  H  H146  1  0.45123661  0.58321621  -0.00787251  1
  H  H147  1  0.14585738  0.24802001  0.50533996  1
  H  H148  1  0.89513268  0.41275745  -0.00686431  1
  H  H149  1  0.14217684  0.75742532  0.01192759  1
  H  H150  1  0.61518905  0.58663326  0.48659693  1
  H  H151  1  0.08359255  0.91764303  0.00251373  1
  H  H152  1  0.62198410  0.91840359  0.49950257  1
  H  H153  1  0.46317997  0.75383359  1.00786102  1
  H  H154  1  0.87448637  0.91274754  0.97681876  1
  H  H155  1  0.12985669  0.57990595  0.51325892  1
  H  H156  1  0.53147198  0.91422192  -0.00578566  1
  H  H157  1  0.89761022  0.41858883  0.51095694  1
  H  H158  1  0.15714481  0.74979540  0.49811154  1
  H  H159  1  0.72871865  0.91556008  1.00917170  1
  H  H160  1  0.54088898  0.41072515  0.49487896  1
  H  H161  1  0.92994687  0.08561761  0.49854320  1
  H  H162  1  0.42949852  0.75856690  0.50570485  1
  H  H163  1  0.19177784  0.60165301  0.98601765  1
  H  H164  1  0.97600721  0.75018823  0.48963790  1
  H  H165  1  0.57724593  0.24368265  0.50017710  1
  H  H166  1  0.04156018  0.57567951  -0.00543841  1
  H  H167  1  0.91312462  0.08575473  0.99537142  1
  H  H168  1  0.81738646  0.74386061  -0.00068196  1
  H  H169  1  0.04374236  0.40771131  0.49407564  1
  H  H170  1  0.39384449  0.41625712  0.51282038  1
  H  H171  1  0.94880138  0.58180390  0.50682599  1
  H  H172  1  0.20862973  0.41450883  0.50497630  1
  H  H173  1  0.94763081  0.91404185  0.50198233  1
  H  H174  1  0.08839369  0.08252253  0.50498385  1
  H  H175  1  0.54648257  0.09125816  1.00199426  1
  H  H176  1  0.61735796  0.74090564  0.98136365  1
  H  H177  1  0.35320867  0.08686859  1.00701901  1
  H  H178  1  0.79448665  0.25079286  0.49597822  1
  H  H179  1  0.29147671  0.58687094  0.49297352  1
  H  H180  1  0.65962742  0.08131689  0.49566416  1
  H  H181  1  0.96057334  0.24694786  0.50742535  1
  H  H182  1  0.20338585  0.41201205  -0.00774056  1
  H  H183  1  0.30289072  0.75408163  -0.00424643  1
  H  H184  1  0.79451881  0.75051184  0.50245719  1
  H  H185  1  0.78985486  0.92239132  0.48968139  1
  H  H186  1  0.31288057  0.91978473  1.00880398  1
  H  H187  1  0.64053188  0.75303341  0.48709961  1
  H  H188  1  0.46000926  0.58709247  0.50543407  1
  H  H189  1  0.36365356  0.41717406  1.01239527  1
  H  H190  1  0.14419811  0.24780031  0.99136532  1
  H  H191  1  0.72106505  0.41757266  0.50847403  1
  Pb  Pb192  1  0.24892284  0.04835165  0.74719984  1
  Pb  Pb193  1  0.24441311  0.38101871  0.74678540  1
  Pb  Pb194  1  0.24989589  0.71519099  0.75737971  1
  Pb  Pb195  1  0.74738922  0.04802203  0.75215125  1
  Pb  Pb196  1  0.74216861  0.38117709  0.74944438  1
  Pb  Pb197  1  0.75622223  0.71757523  0.74057847  1
  Pb  Pb198  1  0.25879500  0.28503038  0.24721047  1
  Pb  Pb199  1  0.25970860  0.61610477  0.24364446  1
  Pb  Pb200  1  0.25417812  0.95292803  0.25595933  1
  Pb  Pb201  1  0.76009880  0.28279686  0.25277142  1
  Pb  Pb202  1  0.75567820  0.62020330  0.25421637  1
  Pb  Pb203  1  0.75260493  0.95275955  0.24367954  1
  Pb  Pb204  1  -0.00564187  0.21516094  0.74623813  1
  Pb  Pb205  1  -0.00420335  0.54736326  0.75696250  1
  Pb  Pb206  1  0.00211235  0.88323194  0.74204765  1
  Pb  Pb207  1  0.49374503  0.21383948  0.75378509  1
  Pb  Pb208  1  0.49801718  0.54897442  0.74600251  1
  Pb  Pb209  1  0.49840426  0.88142339  0.76452627  1
  Pb  Pb210  1  0.00736275  0.11734119  0.25227098  1
  Pb  Pb211  1  0.00857992  0.45220924  0.25186733  1
  Pb  Pb212  1  0.00080525  0.78568142  0.25515219  1
  Pb  Pb213  1  0.50525006  0.11760771  0.24686805  1
  Pb  Pb214  1  0.51332283  0.44936465  0.25628709  1
  Pb  Pb215  1  0.50112448  0.78700032  0.24703898  1
  C  C216  1  0.00667658  0.04562426  0.63079050  1
  C  C217  1  -0.00615122  0.37859345  0.62980099  1
  C  C218  1  0.00418870  0.71076909  0.62920538  1
  C  C219  1  0.49996668  0.04348713  0.62796434  1
  C  C220  1  0.49316405  0.37715644  0.63035886  1
  C  C221  1  0.50478791  0.71245947  0.63485184  1
  C  C222  1  0.00222118  0.28948171  0.12919239  1
  C  C223  1  0.00381919  0.62245976  0.12946897  1
  C  C224  1  -0.00469568  0.95453046  0.12627655  1
  C  C225  1  0.50421434  0.28953918  0.12852295  1
  C  C226  1  0.49588608  0.61841772  0.13322810  1
  C  C227  1  0.49574589  0.95633527  0.13127886  1
  C  C228  1  -0.00528725  0.04601739  0.87088186  1
  C  C229  1  -0.00614481  0.37742988  0.86770747  1
  C  C230  1  0.00374233  0.71256316  0.86689039  1
  C  C231  1  0.49974138  0.04654304  0.86417526  1
  C  C232  1  0.49540612  0.37581867  0.86857287  1
  C  C233  1  0.50284459  0.71099867  0.86702435  1
  C  C234  1  0.00197754  0.28642236  0.36531262  1
  C  C235  1  0.00425170  0.62049978  0.36754580  1
  C  C236  1  0.00748764  0.95376150  0.36578008  1
  C  C237  1  0.50679011  0.28554078  0.36822937  1
  C  C238  1  0.50277834  0.62392470  0.36846780  1
  C  C239  1  0.50503909  0.95406797  0.37698544  1
  C  C240  1  0.25073111  0.21087039  0.62916820  1
  C  C241  1  0.24488485  0.54705368  0.63346316  1
  C  C242  1  0.24353075  0.87865050  0.62933223  1
  C  C243  1  0.74880904  0.21083129  0.63542855  1
  C  C244  1  0.74175271  0.54725971  0.63383272  1
  C  C245  1  0.74195995  0.88063305  0.62940284  1
  C  C246  1  0.24859243  0.12155661  0.12988725  1
  C  C247  1  0.25519825  0.45281389  0.13164973  1
  C  C248  1  0.24550199  0.78832964  0.13572080  1
  C  C249  1  0.75505006  0.12461594  0.12967759  1
  C  C250  1  0.75147261  0.45589274  0.13218682  1
  C  C251  1  0.74603430  0.78544938  0.12716807  1
  C  C252  1  0.24474596  0.21051828  0.87170485  1
  C  C253  1  0.25099737  0.54423613  0.86724985  1
  C  C254  1  0.25318548  0.88096042  0.87036755  1
  C  C255  1  0.74455518  0.21387743  0.86965213  1
  C  C256  1  0.75049200  0.54310805  0.87124474  1
  C  C257  1  0.75124949  0.87719661  0.87052849  1
  C  C258  1  0.24909128  0.12239471  0.36830267  1
  C  C259  1  0.25743483  0.45343958  0.36568862  1
  C  C260  1  0.24387107  0.78989684  0.37261656  1
  C  C261  1  0.74346490  0.12006591  0.37121972  1
  C  C262  1  0.75646065  0.45575345  0.37002690  1
  C  C263  1  0.74678857  0.79001537  0.36696280  1
  C  C264  1  0.47929340  0.59261751  0.03659115  1
  C  C265  1  0.98851656  0.25906694  0.46357565  1
  C  C266  1  0.21526417  0.91357664  0.53765011  1
  C  C267  1  0.06820610  0.26279729  0.45043246  1
  C  C268  1  0.27544614  0.23968076  0.53359497  1
  C  C269  1  0.56861504  0.92807151  0.46311437  1
  C  C270  1  0.22510843  0.09184363  0.03433675  1
  C  C271  1  0.47399293  0.25308815  0.03793760  1
  C  C272  1  0.48928889  0.74053707  0.96367456  1
  C  C273  1  0.06237088  0.59541825  0.45609743  1
  C  C274  1  0.19607462  0.90560543  0.95895185  1
  C  C275  1  0.72789067  0.42221889  0.03888515  1
  C  C276  1  0.18123696  0.57105270  0.54675912  1
  C  C277  1  0.27051965  0.76400086  0.03825405  1
  C  C278  1  0.67966751  0.90627561  0.54305940  1
  C  C279  1  0.53985814  0.25549556  0.46075124  1
  C  C280  1  0.98150439  0.59311251  0.46480408  1
  C  C281  1  0.76544793  0.23934611  0.53968627  1
  C  C282  1  0.56568296  0.59479637  0.45290973  1
  C  C283  1  0.78051476  0.08867087  0.46480964  1
  C  C284  1  0.69946390  0.57510746  0.54245836  1
  C  C285  1  0.26209699  0.57457375  0.53613441  1
  C  C286  1  0.96025326  0.92535066  0.03165608  1
  C  C287  1  0.30598829  0.09542149  0.04107935  1
  C  C288  1  0.70032835  0.75480890  0.03614048  1
  C  C289  1  0.96117838  0.74037681  0.95862475  1
  C  C290  1  0.51730574  0.07737219  0.95908977  1
  C  C291  1  0.76035805  0.90955575  0.53263067  1
  C  C292  1  0.18904475  0.76589914  0.04599953  1
  C  C293  1  0.19450407  0.23806917  0.54007163  1
  C  C294  1  0.98058631  0.92502680  0.45992838  1
  C  C295  1  0.27696046  0.90841853  0.96762624  1
  C  C296  1  0.94109645  0.40360784  0.95816314  1
  C  C297  1  0.31497933  0.42654479  0.04466661  1
  C  C298  1  0.27970924  0.75742007  0.46590924  1
  C  C299  1  0.23850066  0.42741562  0.46205010  1
  C  C300  1  0.71480013  0.57901622  0.96112413  1
  C  C301  1  0.96818158  0.07419234  0.53783062  1
  C  C302  1  0.68716900  0.76134354  0.45275816  1
  C  C303  1  0.48809417  0.92446660  0.47305377  1
  C  C304  1  0.06007735  0.26204691  0.04301616  1
  C  C305  1  0.02221326  0.40554328  0.96309947  1
  C  C306  1  0.42850805  0.92702688  0.04772617  1
  C  C307  1  0.48444701  0.07555657  0.53282882  1
  C  C308  1  0.93859419  0.58979186  0.04647413  1
  C  C309  1  0.46837056  0.74465033  0.54375814  1
  C  C310  1  0.23381024  0.42426163  0.03490337  1
  C  C311  1  0.07562765  0.73775858  0.54754614  1
  N  N312  1  0.77683816  0.57684917  0.53890116  1
  N  N313  1  0.03890907  0.74210840  0.96152423  1
  N  N314  1  0.82103300  0.43125378  0.45489851  1
  N  N315  1  0.31689973  0.43120598  0.45455600  1
  N  N316  1  0.79203059  0.57908731  0.96197944  1
  N  N317  1  0.95301898  0.07743994  0.95933914  1
  N  N318  1  0.44286503  0.40554633  0.95597287  1
  N  N319  1  0.26839774  0.24219325  0.96654218  1
  N  N320  1  0.55750651  0.59340353  0.04569922  1
  N  N321  1  0.98371725  0.25880764  0.03205382  1
  N  N322  1  0.19124899  0.23909239  0.95757404  1
  N  N323  1  0.51829187  0.40910208  0.96262014  1
  N  N324  1  0.82146942  0.09433085  0.04732869  1
  N  N325  1  0.94016330  0.40020441  0.54148707  1
  N  N326  1  0.29751300  0.57037453  0.95766574  1
  N  N327  1  0.68708271  0.23763288  0.54854957  1
  N  N328  1  0.82237147  0.89871278  0.95135934  1
  N  N329  1  0.01621190  0.58634229  0.03663498  1
  N  N330  1  0.74755268  0.91549676  0.96278835  1
  N  N331  1  0.21556354  0.56672639  0.96149489  1
  N  N332  1  0.80493013  0.42521897  0.04378751  1
  N  N333  1  0.56110011  0.07281781  0.54172848  1
  N  N334  1  0.01794373  0.41123065  0.53732322  1
  N  N335  1  0.20082439  0.75823432  0.46215733  1
  N  N336  1  0.74464112  0.09113205  0.03652340  1
  N  N337  1  0.29237117  0.91168186  0.53994278  1
  N  N338  1  0.43777382  0.39889109  0.54262359  1
  N  N339  1  0.50624917  0.92304168  0.03729671  1
  N  N340  1  0.19420208  0.09658060  0.45717606  1
  N  N341  1  0.54758020  0.74320140  0.54273977  1
  N  N342  1  0.55140945  0.25486737  0.03925865  1
  N  N343  1  0.46062789  0.25605322  0.45981835  1
  N  N344  1  0.99878252  0.74182943  0.53384509  1
  N  N345  1  0.03933904  0.92691229  0.03563037  1
  N  N346  1  0.03096347  0.07661322  0.96376824  1
  N  N347  1  0.77951448  0.75403407  0.03531119  1
  N  N348  1  0.78494736  0.24334910  0.96180717  1
  N  N349  1  0.56699279  0.73654293  0.95073057  1
  N  N350  1  0.70160326  0.08947266  0.46121609  1
  N  N351  1  0.70879175  0.24355192  0.96287424  1
  N  N352  1  0.04780280  0.07331482  0.53969166  1
  N  N353  1  0.76588241  0.75692331  0.46048386  1
  N  N354  1  0.74459538  0.42535443  0.46430008  1
  N  N355  1  0.26978202  0.09314143  0.46436235  1
  N  N356  1  0.05964303  0.92504520  0.45567814  1
  N  N357  1  0.48699625  0.59147950  0.46264529  1
  N  N358  1  0.43905331  0.07380628  0.95086637  1
  N  N359  1  0.51481590  0.41252109  0.53849783  1
  N  N360  1  0.07136259  0.05519038  0.59671302  1
  N  N361  1  0.05163306  0.38744418  0.58849099  1
  N  N362  1  0.07924286  0.71996526  0.60724525  1
  N  N363  1  0.57072301  0.05258454  0.60213275  1
  N  N364  1  0.55010666  0.38917656  0.58922122  1
  N  N365  1  0.56881523  0.72325085  0.60021491  1
  N  N366  1  0.44225431  0.27352125  0.09170598  1
  N  N367  1  0.43956008  0.60790276  0.08996003  1
  N  N368  1  0.42205089  0.94651184  0.10647020  1
  N  N369  1  0.94757417  0.27659730  0.08697854  1
  N  N370  1  0.93074480  0.61135542  0.10415553  1
  N  N371  1  0.93274738  0.94159092  0.08830578  1
  N  N372  1  0.42962566  0.05491946  0.89177022  1
  N  N373  1  0.42680250  0.38474473  0.89817336  1
  N  N374  1  0.44895920  0.72519077  0.91158949  1
  N  N375  1  0.92938941  0.05749451  0.90360247  1
  N  N376  1  0.92481679  0.38624979  0.89771077  1
  N  N377  1  0.93763150  0.72258107  0.90137194  1
  N  N378  1  0.07599587  0.27897015  0.39098197  1
  N  N379  1  0.07581767  0.61168588  0.39704892  1
  N  N380  1  0.07459999  0.94300528  0.39698702  1
  N  N381  1  0.56988087  0.27326158  0.40472842  1
  N  N382  1  0.57519457  0.61296850  0.39379326  1
  N  N383  1  0.57761182  0.94616303  0.40227174  1
  N  N384  1  0.30942868  0.22326322  0.58713003  1
  N  N385  1  0.30048418  0.55941331  0.59041879  1
  N  N386  1  0.31028783  0.88972451  0.59822091  1
  N  N387  1  0.80472175  0.22332444  0.59263080  1
  N  N388  1  0.80331111  0.55932556  0.59744092  1
  N  N389  1  0.79830398  0.89325665  0.58739546  1
  N  N390  1  0.19072848  0.10764845  0.08777591  1
  N  N391  1  0.19779529  0.44078482  0.08949493  1
  N  N392  1  0.17514478  0.78078331  0.10662087  1
  N  N393  1  0.70299286  0.11190593  0.08540508  1
  N  N394  1  0.69272413  0.44087119  0.09200528  1
  N  N395  1  0.67928744  0.77384429  0.09314037  1
  N  N396  1  0.17558807  0.21925063  0.90026831  1
  N  N397  1  0.18978334  0.56067009  0.90233380  1
  N  N398  1  0.18250279  0.88912240  0.90003602  1
  N  N399  1  0.68204918  0.22510553  0.90589371  1
  N  N400  1  0.68638404  0.55781799  0.90646752  1
  N  N401  1  0.70253327  0.89239148  0.91657008  1
  N  N402  1  0.30532991  0.10911531  0.40964956  1
  N  N403  1  0.32726399  0.44698484  0.39406286  1
  N  N404  1  0.30656523  0.77662608  0.41039962  1
  N  N405  1  0.80668705  0.10742762  0.40890356  1
  N  N406  1  0.82828485  0.44745808  0.39538467  1
  N  N407  1  0.80272020  0.77778742  0.40866832  1
  N  N408  1  0.44182624  0.27456833  0.40194102  1
  N  N409  1  0.44824090  0.61277090  0.41157850  1
  N  N410  1  0.44999847  0.94006082  0.42092476  1
  N  N411  1  0.94805318  0.27410727  0.40912618  1
  N  N412  1  0.94632503  0.60897936  0.40833563  1
  N  N413  1  0.94692711  0.94222303  0.40507006  1
  N  N414  1  0.05651232  0.05799678  0.90818657  1
  N  N415  1  0.05407727  0.38992668  0.90855677  1
  N  N416  1  0.06556314  0.72470450  0.90316666  1
  N  N417  1  0.55599976  0.06042652  0.90631676  1
  N  N418  1  0.55246055  0.39062120  0.90863769  1
  N  N419  1  0.57490453  0.71690596  0.89179116  1
  N  N420  1  0.07408478  0.28014891  0.10251082  1
  N  N421  1  0.05776536  0.60844450  0.08684321  1
  N  N422  1  0.06105851  0.94560086  0.09367454  1
  N  N423  1  0.57040198  0.27797822  0.09685353  1
  N  N424  1  0.56598213  0.60937833  0.10575609  1
  N  N425  1  0.54863970  0.94357532  0.08762826  1
  N  N426  1  0.44484576  0.05800922  0.58459536  1
  N  N427  1  0.42353053  0.38661685  0.60230932  1
  N  N428  1  0.44078598  0.72560483  0.59972238  1
  N  N429  1  0.94236792  0.05720754  0.59456501  1
  N  N430  1  0.92495442  0.39002548  0.60149833  1
  N  N431  1  0.95402363  0.72236809  0.58341356  1
  N  N432  1  0.17995369  0.11508507  0.39762295  1
  N  N433  1  0.20066723  0.44155099  0.40808476  1
  N  N434  1  0.17812580  0.77874619  0.40471824  1
  N  N435  1  0.67801108  0.10958406  0.40395121  1
  N  N436  1  0.70365823  0.44369779  0.41412395  1
  N  N437  1  0.67508836  0.78043434  0.39426456  1
  N  N438  1  0.30141077  0.22467506  0.91296660  1
  N  N439  1  0.31657342  0.54691606  0.90172168  1
  N  N440  1  0.31150405  0.89260757  0.91098260  1
  N  N441  1  0.80876314  0.22520064  0.90405087  1
  N  N442  1  0.81459456  0.55632836  0.90462232  1
  N  N443  1  0.82526580  0.88401533  0.89150333  1
  N  N444  1  0.31924302  0.11367225  0.10173107  1
  N  N445  1  0.32667916  0.44418328  0.10465972  1
  N  N446  1  0.30442197  0.77774418  0.09462016  1
  N  N447  1  0.82707810  0.11307754  0.10609044  1
  N  N448  1  0.81998351  0.44633894  0.10292610  1
  N  N449  1  0.80819477  0.77338696  0.09152372  1
  N  N450  1  0.18063965  0.22021721  0.60089576  1
  N  N451  1  0.17248632  0.55419091  0.60745304  1
  N  N452  1  0.18221454  0.89367616  0.59132045  1
  N  N453  1  0.67853632  0.22009846  0.60838866  1
  N  N454  1  0.67521749  0.55778085  0.59993117  1
  N  N455  1  0.66937155  0.88883662  0.60268041  1
  Cl  Cl456  1  0.25644376  0.05404240  0.61505668  1
  Cl  Cl457  1  0.23587862  0.38788106  0.60991349  1
  Cl  Cl458  1  0.25825939  0.72685797  0.62496558  1
  Cl  Cl459  1  0.75806309  0.05644801  0.62082362  1
  Cl  Cl460  1  0.73423924  0.39630252  0.60174746  1
  Cl  Cl461  1  0.76789050  0.72982927  0.60068556  1
  Cl  Cl462  1  0.25721828  0.27925098  0.11662273  1
  Cl  Cl463  1  0.24774957  0.60443356  0.10107025  1
  Cl  Cl464  1  0.24164556  0.94876278  0.12204537  1
  Cl  Cl465  1  0.75882041  0.28155918  0.12132915  1
  Cl  Cl466  1  0.74854313  0.61953072  0.12400566  1
  Cl  Cl467  1  0.73628260  0.93464191  0.10148737  1
  Cl  Cl468  1  0.24007833  0.05480969  0.88099846  1
  Cl  Cl469  1  0.23884699  0.38812030  0.88068105  1
  Cl  Cl470  1  0.25928304  0.71855255  0.89300419  1
  Cl  Cl471  1  0.74152260  0.06007909  0.89642034  1
  Cl  Cl472  1  0.73388212  0.39391210  0.88018707  1
  Cl  Cl473  1  0.75686972  0.72349054  0.87922270  1
  Cl  Cl474  1  0.25877379  0.28199846  0.37878543  1
  Cl  Cl475  1  0.26625662  0.61428001  0.37951383  1
  Cl  Cl476  1  0.26329997  0.94175251  0.38644427  1
  Cl  Cl477  1  0.75998649  0.27733722  0.39047030  1
  Cl  Cl478  1  0.75944011  0.61478753  0.38516872  1
  Cl  Cl479  1  0.76520020  0.94997562  0.37636263  1
  Cl  Cl480  1  -0.01097225  0.22077059  0.61114328  1
  Cl  Cl481  1  -0.01372302  0.55045746  0.62399534  1
  Cl  Cl482  1  -0.01239080  0.88836686  0.60753251  1
  Cl  Cl483  1  0.49262524  0.21764582  0.62035944  1
  Cl  Cl484  1  0.48773537  0.55913848  0.60501736  1
  Cl  Cl485  1  0.49015031  0.88402776  0.63469818  1
  Cl  Cl486  1  0.00889278  0.11197592  0.12019450  1
  Cl  Cl487  1  0.01186424  0.44925300  0.12078597  1
  Cl  Cl488  1  -0.01018060  0.78449677  0.12384903  1
  Cl  Cl489  1  0.52088845  0.10670023  0.11118934  1
  Cl  Cl490  1  0.51111410  0.44472081  0.12759417  1
  Cl  Cl491  1  0.49332873  0.78029101  0.11063702  1
  Cl  Cl492  1  -0.00614593  0.22166459  0.87707236  1
  Cl  Cl493  1  0.00754953  0.55569783  0.89602988  1
  Cl  Cl494  1  0.00263107  0.88449438  0.87747306  1
  Cl  Cl495  1  0.49081270  0.22452963  0.88774440  1
  Cl  Cl496  1  0.49817213  0.55655540  0.88069568  1
  Cl  Cl497  1  0.51705696  0.89337694  0.90261072  1
  Cl  Cl498  1  -0.00724885  0.10934182  0.38784982  1
  Cl  Cl499  1  0.01604518  0.43783778  0.39326937  1
  Cl  Cl500  1  -0.01256396  0.77118630  0.39770575  1
  Cl  Cl501  1  0.49184957  0.10568270  0.38129587  1
  Cl  Cl502  1  0.52082814  0.43720275  0.39869585  1
  Cl  Cl503  1  0.48956850  0.77936967  0.37933401  1
  Cl  Cl504  1  0.35153750  0.15029459  0.75492612  1
  Cl  Cl505  1  0.35644242  0.48211175  0.75079224  1
  Cl  Cl506  1  0.35927054  0.81656989  0.75571024  1
  Cl  Cl507  1  0.85829078  0.14714129  0.75655743  1
  Cl  Cl508  1  0.85631255  0.48082201  0.75299369  1
  Cl  Cl509  1  0.85229552  0.81597448  0.75107010  1
  Cl  Cl510  1  0.14278454  0.18651932  0.25265049  1
  Cl  Cl511  1  0.14549891  0.51831987  0.25430171  1
  Cl  Cl512  1  0.13614511  0.85492747  0.25526049  1
  Cl  Cl513  1  0.64119369  0.18585621  0.25455508  1
  Cl  Cl514  1  0.64678024  0.51884870  0.25393349  1
  Cl  Cl515  1  0.64065115  0.85217248  0.24974296  1
  Cl  Cl516  1  0.13050775  0.14625295  0.74103478  1
  Cl  Cl517  1  0.13469659  0.48306616  0.74810103  1
  Cl  Cl518  1  0.13664378  0.81447558  0.75456737  1
  Cl  Cl519  1  0.63511897  0.14790965  0.74666873  1
  Cl  Cl520  1  0.63427288  0.48321422  0.74325829  1
  Cl  Cl521  1  0.63473842  0.81222099  0.75231096  1
  Cl  Cl522  1  0.36647310  0.18336172  0.24018600  1
  Cl  Cl523  1  0.36700023  0.52160122  0.24667659  1
  Cl  Cl524  1  0.35740156  0.84897970  0.24810088  1
  Cl  Cl525  1  0.85762488  0.18396945  0.25125077  1
  Cl  Cl526  1  0.86934869  0.51911410  0.25393557  1
  Cl  Cl527  1  0.86001013  0.84992098  0.25014031  1
  Cl  Cl528  1  0.10313997  0.31715142  0.74912113  1
  Cl  Cl529  1  0.11467496  0.64421495  0.74422650  1
  Cl  Cl530  1  0.10005789  0.98110519  0.75138957  1
  Cl  Cl531  1  0.60373265  0.31597911  0.74572571  1
  Cl  Cl532  1  0.60881855  0.64745183  0.74956274  1
  Cl  Cl533  1  0.61192966  0.97956025  0.74534425  1
  Cl  Cl534  1  0.39358012  0.01592213  0.24386829  1
  Cl  Cl535  1  0.38928200  0.35739082  0.25511311  1
  Cl  Cl536  1  0.39341816  0.68426551  0.24731808  1
  Cl  Cl537  1  0.88957266  0.02007784  0.23865059  1
  Cl  Cl538  1  0.89584343  0.35263054  0.25006896  1
  Cl  Cl539  1  0.89423192  0.68356288  0.24801646  1
  Cl  Cl540  1  0.38358537  0.31643518  0.74890707  1
  Cl  Cl541  1  0.38679308  0.64901677  0.75307305  1
  Cl  Cl542  1  0.38852371  0.98350323  0.75910056  1
  Cl  Cl543  1  0.88055786  0.31565876  0.74424473  1
  Cl  Cl544  1  0.89392845  0.65335234  0.75112397  1
  Cl  Cl545  1  0.88266423  0.97945901  0.75537033  1
  Cl  Cl546  1  0.10803339  0.01904342  0.25546853  1
  Cl  Cl547  1  0.12133520  0.35217675  0.25113558  1
  Cl  Cl548  1  0.11331486  0.68700053  0.25218499  1
  Cl  Cl549  1  0.61540547  0.01630155  0.26009397  1
  Cl  Cl550  1  0.60948861  0.35070178  0.25186380  1
  Cl  Cl551  1  0.61564472  0.68721234  0.25260489  1
