# generated using pymatgen
data_H8PbC4(N3Cl2)2
_symmetry_space_group_name_H-M   'P 1'
_cell_length_a   16.62449021
_cell_length_b   22.51568484
_cell_length_c   21.59454405
_cell_angle_alpha   89.99941062
_cell_angle_beta   90.00846165
_cell_angle_gamma   89.99673877
_symmetry_Int_Tables_number   1
_chemical_formula_structural   H8PbC4(N3Cl2)2
_chemical_formula_sum   'H192 Pb24 C96 N144 Cl96'
_cell_volume   8083.09216672
_cell_formula_units_Z   24
loop_
 _symmetry_equiv_pos_site_id
 _symmetry_equiv_pos_as_xyz
  1  'x, y, z'
loop_
 _atom_site_type_symbol
 _atom_site_label
 _atom_site_symmetry_multiplicity
 _atom_site_fract_x
 _atom_site_fract_y
 _atom_site_fract_z
 _atom_site_occupancy
  H  H0  1  0.00415823  0.02469523  0.67771923  1
  H  H1  1  0.01883543  0.36318649  0.67408978  1
  H  H2  1  0.00429885  0.69738783  0.67766276  1
  H  H3  1  0.49749486  0.02689907  0.67964528  1
  H  H4  1  0.48028001  0.36417741  0.67915841  1
  H  H5  1  0.49004584  0.69558044  0.67869717  1
  H  H6  1  0.01203989  0.29994157  0.17688963  1
  H  H7  1  -0.01436364  0.63746510  0.18117071  1
  H  H8  1  -0.00656424  0.97075081  0.17990055  1
  H  H9  1  0.48203049  0.30232300  0.17863888  1
  H  H10  1  0.50093533  0.63655551  0.17784153  1
  H  H11  1  0.51340479  0.97232344  0.17743661  1
  H  H12  1  -0.00492038  0.02747907  0.82082130  1
  H  H13  1  -0.01038436  0.36707019  0.81906391  1
  H  H14  1  -0.00524238  0.69712286  0.81835281  1
  H  H15  1  0.49941150  0.02749933  0.82380964  1
  H  H16  1  0.51285436  0.36147702  0.82318367  1
  H  H17  1  0.49735206  0.69693977  0.82113140  1
  H  H18  1  -0.00449893  0.29913691  0.32912990  1
  H  H19  1  -0.00109023  0.63794531  0.31932945  1
  H  H20  1  -0.00021780  0.97124272  0.32429185  1
  H  H21  1  0.49994895  0.30264966  0.31792054  1
  H  H22  1  0.51046529  0.63973415  0.32090266  1
  H  H23  1  0.50172603  0.97042458  0.32219286  1
  H  H24  1  0.25432206  0.19958844  0.67763197  1
  H  H25  1  0.24457988  0.53446480  0.67656577  1
  H  H26  1  0.23954692  0.86248714  0.67399248  1
  H  H27  1  0.75096489  0.19506547  0.68008619  1
  H  H28  1  0.75701949  0.52597713  0.67873553  1
  H  H29  1  0.76084732  0.86457213  0.67508986  1
  H  H30  1  0.25404155  0.13681987  0.17934388  1
  H  H31  1  0.25279597  0.47162416  0.17820412  1
  H  H32  1  0.24448330  0.80608063  0.18164458  1
  H  H33  1  0.75917938  0.13617134  0.17544388  1
  H  H34  1  0.75088661  0.46849301  0.18131104  1
  H  H35  1  0.75406559  0.80291302  0.18075469  1
  H  H36  1  0.26255525  0.19620342  0.81874472  1
  H  H37  1  0.24965195  0.52775321  0.82341470  1
  H  H38  1  0.23926586  0.86394080  0.82309698  1
  H  H39  1  0.73537024  0.20009817  0.82389851  1
  H  H40  1  0.75349632  0.53185023  0.81875787  1
  H  H41  1  0.75652236  0.86047868  0.82399015  1
  H  H42  1  0.25447484  0.13819806  0.31941751  1
  H  H43  1  0.25261691  0.47125290  0.31738264  1
  H  H44  1  0.25160774  0.80783181  0.32418988  1
  H  H45  1  0.75197130  0.13737651  0.31855372  1
  H  H46  1  0.74641608  0.47192737  0.32817924  1
  H  H47  1  0.74122565  0.80347549  0.32245369  1
  H  H48  1  0.12785395  0.05268318  0.60668814  1
  H  H49  1  0.11170243  0.39283462  0.58225806  1
  H  H50  1  0.11270773  0.72509388  0.59448063  1
  H  H51  1  0.62644687  0.05192489  0.61345664  1
  H  H52  1  0.62380737  0.38313618  0.62989266  1
  H  H53  1  0.61936424  0.72031867  0.61209347  1
  H  H54  1  0.37777205  0.27338199  0.09267252  1
  H  H55  1  0.38096458  0.61009789  0.10303826  1
  H  H56  1  0.37821736  0.95113625  0.11731966  1
  H  H57  1  0.87218461  0.28357138  0.12334089  1
  H  H58  1  0.88167201  0.61001297  0.09630090  1
  H  H59  1  0.88165992  0.94155532  0.10044757  1
  H  H60  1  0.38363071  0.05569153  0.90104142  1
  H  H61  1  0.37297102  0.38596946  0.87304869  1
  H  H62  1  0.37760575  0.72125424  0.89405615  1
  H  H63  1  0.88480040  0.05807510  0.90149882  1
  H  H64  1  0.88017706  0.38736286  0.90076168  1
  H  H65  1  0.87931544  0.72164332  0.89399277  1
  H  H66  1  0.13427837  0.28360203  0.38086901  1
  H  H67  1  0.11799781  0.61348379  0.39289359  1
  H  H68  1  0.12523272  0.94413278  0.39327654  1
  H  H69  1  0.63285378  0.28236862  0.37922703  1
  H  H70  1  0.62144365  0.61128962  0.40031946  1
  H  H71  1  0.62830662  0.94471156  0.38878478  1
  H  H72  1  0.36181670  0.22252759  0.59556789  1
  H  H73  1  0.38163208  0.55154055  0.62225259  1
  H  H74  1  0.37468199  0.88524139  0.61514341  1
  H  H75  1  0.86777583  0.22284543  0.60443473  1
  H  H76  1  0.88595306  0.55224063  0.61445429  1
  H  H77  1  0.86884236  0.89267428  0.59384153  1
  H  H78  1  0.12111805  0.11395752  0.11648239  1
  H  H79  1  0.12712325  0.44574749  0.10815504  1
  H  H80  1  0.12093073  0.78152942  0.11069143  1
  H  H81  1  0.61555033  0.11700618  0.12845824  1
  H  H82  1  0.62848799  0.44355424  0.11009934  1
  H  H83  1  0.62138895  0.78156427  0.11514649  1
  H  H84  1  0.12382455  0.21726152  0.87494168  1
  H  H85  1  0.12030268  0.55045407  0.88582138  1
  H  H86  1  0.12127530  0.88902625  0.89842815  1
  H  H87  1  0.62939335  0.22723897  0.90783095  1
  H  H88  1  0.61643263  0.55081239  0.87750283  1
  H  H89  1  0.62154234  0.88650825  0.88063488  1
  H  H90  1  0.37291172  0.11062475  0.39349266  1
  H  H91  1  0.37664542  0.44656676  0.38782419  1
  H  H92  1  0.37946434  0.78020200  0.38988729  1
  H  H93  1  0.87358100  0.11422386  0.38995467  1
  H  H94  1  0.87561629  0.44766364  0.39365602  1
  H  H95  1  0.88149281  0.78602316  0.37578930  1
  H  H96  1  0.38403782  0.27878233  0.39333102  1
  H  H97  1  0.37410199  0.61754842  0.37965637  1
  H  H98  1  0.37957892  0.94490042  0.39486922  1
  H  H99  1  0.88930329  0.27175174  0.41150640  1
  H  H100  1  0.86865627  0.61533252  0.38238310  1
  H  H101  1  0.87651734  0.94328909  0.39338799  1
  H  H102  1  0.13187461  0.04788662  0.87729950  1
  H  H103  1  0.12727751  0.38464915  0.87547162  1
  H  H104  1  0.12821422  0.71760373  0.87976731  1
  H  H105  1  0.63128112  0.05222622  0.88730712  1
  H  H106  1  0.61767795  0.39133130  0.90775790  1
  H  H107  1  0.62711689  0.72069226  0.88693375  1
  H  H108  1  0.11833882  0.27544260  0.09390759  1
  H  H109  1  0.12672546  0.61733101  0.12749379  1
  H  H110  1  0.12961622  0.94998086  0.11960179  1
  H  H111  1  0.62217940  0.28242042  0.12473526  1
  H  H112  1  0.62899829  0.61192153  0.11127294  1
  H  H113  1  0.62567694  0.94030590  0.09986120  1
  H  H114  1  0.37789421  0.05332586  0.60661181  1
  H  H115  1  0.38088273  0.39390762  0.59184870  1
  H  H116  1  0.37135803  0.72319385  0.60218100  1
  H  H117  1  0.87943032  0.05185311  0.60873530  1
  H  H118  1  0.87237640  0.37939188  0.63166270  1
  H  H119  1  0.86699938  0.71937398  0.61981093  1
  H  H120  1  0.12408584  0.11421778  0.38491093  1
  H  H121  1  0.12876542  0.44975321  0.38869784  1
  H  H122  1  0.13088712  0.77875167  0.39750962  1
  H  H123  1  0.62428754  0.11428251  0.38449555  1
  H  H124  1  0.62811777  0.44147404  0.40097743  1
  H  H125  1  0.63503459  0.77597708  0.40379565  1
  H  H126  1  0.37008958  0.22398703  0.90182520  1
  H  H127  1  0.36885986  0.55389364  0.89700058  1
  H  H128  1  0.36984826  0.88470632  0.88494590  1
  H  H129  1  0.87539499  0.21807252  0.87846885  1
  H  H130  1  0.86405355  0.55854732  0.89827346  1
  H  H131  1  0.86882354  0.88889969  0.90356208  1
  H  H132  1  0.36878443  0.10897307  0.10246759  1
  H  H133  1  0.37530020  0.44619232  0.10451177  1
  H  H134  1  0.36984309  0.78127465  0.11088182  1
  H  H135  1  0.85854994  0.10442962  0.08856896  1
  H  H136  1  0.87654081  0.44718699  0.11203879  1
  H  H137  1  0.86912768  0.77647136  0.10203723  1
  H  H138  1  0.11519319  0.21650844  0.62370606  1
  H  H139  1  0.13565697  0.55852837  0.59529239  1
  H  H140  1  0.12747616  0.89261706  0.59639607  1
  H  H141  1  0.61943477  0.21835280  0.61642708  1
  H  H142  1  0.63736047  0.55649894  0.60558692  1
  H  H143  1  0.62283972  0.88499393  0.61920888  1
  H  H144  1  0.59532487  0.08030559  0.99537365  1
  H  H145  1  0.07565081  0.08219353  0.50375336  1
  H  H146  1  0.43001376  0.75385341  1.00216369  1
  H  H147  1  0.44196177  0.24758832  0.50208535  1
  H  H148  1  0.64603207  0.91338932  0.51003892  1
  H  H149  1  0.79930306  0.91662550  1.00535699  1
  H  H150  1  0.45742918  0.24842928  -0.00561867  1
  H  H151  1  0.82608780  0.08561105  0.49972699  1
  H  H152  1  0.85877812  0.24829719  0.98874959  1
  H  H153  1  0.02392325  0.41423083  0.48717522  1
  H  H154  1  0.89098736  0.75009868  0.51032301  1
  H  H155  1  0.83874597  0.41225005  0.49848718  1
  H  H156  1  0.31667704  0.08045385  0.50025260  1
  H  H157  1  0.68325151  0.41943722  0.50494424  1
  H  H158  1  0.31975945  0.40093283  0.48303923  1
  H  H159  1  0.90077570  0.58839846  0.49532891  1
  H  H160  1  0.10772600  0.08057491  0.98924400  1
  H  H161  1  0.82239661  0.44202623  0.00443291  1
  H  H162  1  0.06513420  0.58539863  0.50215840  1
  H  H163  1  0.46175543  0.42209827  0.49224112  1
  H  H164  1  0.05026882  0.24899863  -0.01113390  1
  H  H165  1  0.54003394  0.41927924  1.00605201  1
  H  H166  1  0.94682701  0.41047797  1.00933363  1
  H  H167  1  0.70472115  0.74626266  0.50927087  1
  H  H168  1  0.19074819  0.74694017  0.49958816  1
  H  H169  1  0.93692547  0.75287880  1.00216557  1
  H  H170  1  0.79785287  0.58952506  1.00412772  1
  H  H171  1  0.15499926  0.58216290  -0.00151505  1
  H  H172  1  0.29159763  0.24914322  0.48856244  1
  H  H173  1  0.12313109  0.24777784  0.50086018  1
  H  H174  1  0.29704100  0.25343286  1.00447266  1
  H  H175  1  0.95040741  0.90880944  -0.00332115  1
  H  H176  1  0.77592701  0.07943313  -0.00928241  1
  H  H177  1  0.34368334  0.91622926  0.50806180  1
  H  H178  1  0.64334351  0.58053570  0.98493569  1
  H  H179  1  0.18319367  0.44387070  0.49535940  1
  H  H180  1  0.95793659  0.58227030  -0.00614426  1
  H  H181  1  0.33725952  0.91717243  0.99757290  1
  H  H182  1  0.60274539  0.25191980  0.49109422  1
  H  H183  1  0.16707833  0.75092081  0.00289299  1
  H  H184  1  0.55356219  0.58391092  0.50604890  1
  H  H185  1  0.70116341  0.25421995  1.01169683  1
  H  H186  1  0.43898686  0.57843284  0.00114620  1
  H  H187  1  0.68718206  0.39562028  0.01654484  1
  H  H188  1  0.66175323  0.08647698  0.49574245  1
  H  H189  1  0.36132149  0.58294293  0.50770509  1
  H  H190  1  0.95325983  0.08207918  1.00307744  1
  H  H191  1  0.58753381  0.75270949  0.99162651  1
  Pb  Pb192  1  0.25082140  0.04654803  0.74929125  1
  Pb  Pb193  1  0.24618711  0.38083235  0.72964972  1
  Pb  Pb194  1  0.25325005  0.71571122  0.74236887  1
  Pb  Pb195  1  0.75072389  0.04716784  0.75183735  1
  Pb  Pb196  1  0.74975647  0.38168081  0.76196761  1
  Pb  Pb197  1  0.74778854  0.71377506  0.75206403  1
  Pb  Pb198  1  0.25005440  0.28735598  0.24311255  1
  Pb  Pb199  1  0.25192325  0.61952334  0.25028832  1
  Pb  Pb200  1  0.25451950  0.95337078  0.25671496  1
  Pb  Pb201  1  0.75374053  0.28399414  0.25416962  1
  Pb  Pb202  1  0.75049615  0.61966536  0.24626947  1
  Pb  Pb203  1  0.75094378  0.95226973  0.24483605  1
  Pb  Pb204  1  -0.00238020  0.21380796  0.74744076  1
  Pb  Pb205  1  0.00366098  0.54942982  0.74859095  1
  Pb  Pb206  1  -0.00119352  0.87982706  0.75011540  1
  Pb  Pb207  1  0.49406293  0.21632605  0.75217508  1
  Pb  Pb208  1  0.49823429  0.54586987  0.75262570  1
  Pb  Pb209  1  0.49926703  0.88055585  0.74977359  1
  Pb  Pb210  1  0.00268651  0.11683142  0.24306786  1
  Pb  Pb211  1  0.00043134  0.45264958  0.25263878  1
  Pb  Pb212  1  0.00267468  0.78677128  0.24722899  1
  Pb  Pb213  1  0.49708455  0.11967901  0.25141659  1
  Pb  Pb214  1  0.50299111  0.45332195  0.24899931  1
  Pb  Pb215  1  0.50059403  0.78652325  0.24902730  1
  C  C216  1  0.00422057  0.04259725  0.63109624  1
  C  C217  1  0.00116535  0.37755499  0.62802595  1
  C  C218  1  -0.00584679  0.71353223  0.63093670  1
  C  C219  1  0.50097507  0.04377412  0.63295926  1
  C  C220  1  0.49532124  0.37967399  0.63298355  1
  C  C221  1  0.49335416  0.71207997  0.63157492  1
  C  C222  1  0.00105378  0.28606343  0.12953280  1
  C  C223  1  -0.00158220  0.62183919  0.13461222  1
  C  C224  1  0.00175257  0.95459069  0.13297745  1
  C  C225  1  0.49366713  0.28701140  0.13190223  1
  C  C226  1  0.50350603  0.61980771  0.13074603  1
  C  C227  1  0.50552485  0.95505642  0.13114804  1
  C  C228  1  0.00371970  0.04347954  0.86791444  1
  C  C229  1  -0.00113744  0.37983882  0.86689217  1
  C  C230  1  0.00046247  0.71215744  0.86581322  1
  C  C231  1  0.50544864  0.04454291  0.87054924  1
  C  C232  1  0.50141012  0.37831168  0.86928719  1
  C  C233  1  0.50120034  0.71304072  0.86854088  1
  C  C234  1  0.00703236  0.28428488  0.37607464  1
  C  C235  1  -0.00507797  0.62230256  0.36686312  1
  C  C236  1  0.00076974  0.95373999  0.37086255  1
  C  C237  1  0.50597775  0.28742697  0.36547588  1
  C  C238  1  0.50180600  0.62352883  0.36771777  1
  C  C239  1  0.50299704  0.95400671  0.36918090  1
  C  C240  1  0.24372838  0.21325486  0.63018764  1
  C  C241  1  0.25497913  0.54830311  0.62923516  1
  C  C242  1  0.24773223  0.87894871  0.62727114  1
  C  C243  1  0.74573540  0.21173293  0.63333625  1
  C  C244  1  0.75995061  0.54423322  0.63255432  1
  C  C245  1  0.75026887  0.87974353  0.62815080  1
  C  C246  1  0.24744694  0.12049339  0.13260222  1
  C  C247  1  0.25180081  0.45534316  0.13093345  1
  C  C248  1  0.24530358  0.79011169  0.13427329  1
  C  C249  1  0.74445600  0.12044987  0.12929726  1
  C  C250  1  0.75199199  0.45317166  0.13358623  1
  C  C251  1  0.74801947  0.78759751  0.13324050  1
  C  C252  1  0.25194123  0.21192635  0.86549477  1
  C  C253  1  0.24565397  0.54402480  0.87047963  1
  C  C254  1  0.24413932  0.87934600  0.87048160  1
  C  C255  1  0.74742819  0.21506629  0.87098609  1
  C  C256  1  0.74379535  0.54641717  0.86620814  1
  C  C257  1  0.74919964  0.87725823  0.87063445  1
  C  C258  1  0.25018540  0.12144761  0.36644305  1
  C  C259  1  0.25278547  0.45620677  0.36530859  1
  C  C260  1  0.25353621  0.78983076  0.37065000  1
  C  C261  1  0.74981806  0.12225870  0.36634368  1
  C  C262  1  0.75021685  0.45389615  0.37485475  1
  C  C263  1  0.75245041  0.78843906  0.36941446  1
  C  C264  1  0.55790938  0.26147349  0.45577410  1
  C  C265  1  0.46833812  0.07551312  0.54031905  1
  C  C266  1  0.48718169  0.40920543  0.53678227  1
  C  C267  1  0.27426868  0.08875732  0.03898792  1
  C  C268  1  0.98074300  0.92253901  0.03905086  1
  C  C269  1  0.18162828  0.23639756  0.54315725  1
  C  C270  1  0.54446113  0.92529881  0.46090497  1
  C  C271  1  0.06162802  0.07194854  0.95444002  1
  C  C272  1  0.05829240  0.40183936  0.95520035  1
  C  C273  1  0.98502921  0.59333943  0.03846518  1
  C  C274  1  0.80432602  0.57582535  0.54273412  1
  C  C275  1  0.98855400  0.25402002  0.47171235  1
  C  C276  1  0.28001178  0.57334622  0.96430256  1
  C  C277  1  0.06909788  0.25817636  0.46259639  1
  C  C278  1  0.05344442  0.73860947  0.95520566  1
  C  C279  1  0.46614038  0.74200992  0.96214581  1
  C  C280  1  0.28024522  0.09195185  0.45989966  1
  C  C281  1  0.97792659  0.40268953  0.96574523  1
  C  C282  1  0.72960465  0.24297623  0.96781273  1
  C  C283  1  0.43683052  0.41122738  0.95259441  1
  C  C284  1  0.22071068  0.91278722  0.53275344  1
  C  C285  1  0.52318344  0.59441562  0.46273652  1
  C  C286  1  0.67521077  0.09259063  0.04678205  1
  C  C287  1  0.92616029  0.39965327  0.54643204  1
  C  C288  1  0.69204789  0.91083412  0.95688645  1
  C  C289  1  0.26844433  0.24162190  0.96073647  1
  C  C290  1  0.02824806  0.59603645  0.46216009  1
  C  C291  1  0.76770296  0.57632721  0.96156022  1
  C  C292  1  0.94602169  0.59716782  0.45870472  1
  C  C293  1  0.96430936  0.92112683  0.46187022  1
  C  C294  1  0.81540761  0.76406646  0.45579046  1
  C  C295  1  0.21153098  0.90798615  0.96480793  1
  C  C296  1  0.52902700  0.92056382  0.03815344  1
  C  C297  1  0.93806516  0.26256059  0.04287515  1
  C  C298  1  0.31329399  0.57367295  0.54074460  1
  C  C299  1  0.19861491  0.57213066  0.96218315  1
  C  C300  1  0.29289745  0.90700040  0.96196388  1
  C  C301  1  0.47612697  0.25965261  0.46108750  1
  C  C302  1  0.23261122  0.57599054  0.53272207  1
  C  C303  1  0.26224447  0.23852057  0.53224415  1
  C  C304  1  0.97220477  0.74072197  0.96165471  1
  C  C305  1  0.77446906  0.24451193  0.54052325  1
  C  C306  1  0.73514160  0.75937748  0.46669561  1
  C  C307  1  0.77220737  0.91015980  0.53142379  1
  C  C308  1  0.70481817  0.09631948  0.45904638  1
  C  C309  1  0.01826898  0.25965464  0.03134277  1
  C  C310  1  0.20853624  0.76209363  0.04165030  1
  C  C311  1  0.78697897  0.09623926  0.46102584  1
  N  N312  1  0.21164883  0.42681554  0.03825020  1
  N  N313  1  0.71798880  0.41851941  0.46522430  1
  N  N314  1  0.45189640  0.92444196  0.04220822  1
  N  N315  1  0.05946406  0.92530057  0.04542646  1
  N  N316  1  0.72683359  0.57738805  0.53848835  1
  N  N317  1  0.69421587  0.90593335  0.54096999  1
  N  N318  1  0.28785148  0.76176062  0.04105852  1
  N  N319  1  0.21181974  0.42857503  0.45638908  1
  N  N320  1  0.51446752  0.41121879  0.96339065  1
  N  N321  1  0.54608410  0.07527284  0.54150137  1
  N  N322  1  0.77589321  0.75990925  0.03770621  1
  N  N323  1  0.44461586  0.59493321  0.45517317  1
  N  N324  1  0.46198533  0.74332134  0.53782123  1
  N  N325  1  0.29919799  0.90876252  0.53991081  1
  N  N326  1  0.79592543  0.42977871  0.46551208  1
  N  N327  1  0.69943076  0.76202379  0.04206342  1
  N  N328  1  0.80796055  0.23987892  0.95695132  1
  N  N329  1  0.00245309  0.40474014  0.53129434  1
  N  N330  1  0.55197656  0.07316386  0.95882522  1
  N  N331  1  0.19698161  0.09103966  0.04242436  1
  N  N332  1  0.54573288  0.74213939  0.95824444  1
  N  N333  1  0.04169230  0.92112846  0.46305660  1
  N  N334  1  0.46635406  0.92495331  0.46388379  1
  N  N335  1  0.19004715  0.24028453  0.95173982  1
  N  N336  1  0.29287492  0.43446557  0.45841249  1
  N  N337  1  0.03897051  0.07443200  0.54113789  1
  N  N338  1  0.98274815  0.07614451  0.96139233  1
  N  N339  1  0.69714287  0.24259025  0.54316866  1
  N  N340  1  0.06278327  0.59463900  0.04946246  1
  N  N341  1  0.22316854  0.75568469  0.46035218  1
  N  N342  1  0.96055846  0.07366381  0.54008584  1
  N  N343  1  0.28768347  0.42693471  0.03719558  1
  N  N344  1  0.68888610  0.57311586  0.95321114  1
  N  N345  1  0.93975249  0.74083379  0.54467512  1
  N  N346  1  0.79487154  0.42485409  0.04302004  1
  N  N347  1  0.30110274  0.75624845  0.45930276  1
  N  N348  1  0.48109380  0.25655075  0.03796068  1
  N  N349  1  0.56463633  0.40577238  0.54914183  1
  N  N350  1  0.75240341  0.08845030  0.03445343  1
  N  N351  1  0.77045516  0.90993310  0.96383854  1
  N  N352  1  0.01675120  0.74245567  0.53500264  1
  N  N353  1  0.20088610  0.09274487  0.45747417  1
  N  N354  1  0.55120785  0.59173325  0.04006340  1
  N  N355  1  0.55810052  0.26036490  0.04720333  1
  N  N356  1  0.53814205  0.74218729  0.54080646  1
  N  N357  1  0.71311944  0.43016002  0.04035578  1
  N  N358  1  0.47285855  0.59149818  0.03850643  1
  N  N359  1  0.47422773  0.07473778  0.96454044  1
  N  N360  1  0.06697566  0.05430990  0.59555616  1
  N  N361  1  0.04949463  0.38927830  0.58114288  1
  N  N362  1  0.05025516  0.72563079  0.58879150  1
  N  N363  1  0.56639648  0.05540650  0.60052966  1
  N  N364  1  0.56768004  0.38731665  0.60905745  1
  N  N365  1  0.55909467  0.72301916  0.59889764  1
  N  N366  1  0.44019144  0.27549156  0.08810092  1
  N  N367  1  0.44250001  0.60797110  0.09349074  1
  N  N368  1  0.43714201  0.94638715  0.10154137  1
  N  N369  1  0.92818389  0.27824598  0.10261062  1
  N  N370  1  0.94396044  0.60970984  0.09051473  1
  N  N371  1  0.94359810  0.94042729  0.09241500  1
  N  N372  1  0.44557599  0.05736909  0.90939615  1
  N  N373  1  0.42852864  0.39146410  0.89423427  1
  N  N374  1  0.43817804  0.72387838  0.90647374  1
  N  N375  1  0.94694005  0.05561499  0.90894604  1
  N  N376  1  0.94145605  0.38895679  0.90913606  1
  N  N377  1  0.94024670  0.72401173  0.90474122  1
  N  N378  1  0.07921457  0.27689569  0.40225732  1
  N  N379  1  0.05720235  0.61154901  0.40475583  1
  N  N380  1  0.06466821  0.94176199  0.40498538  1
  N  N381  1  0.57494359  0.27847249  0.39625898  1
  N  N382  1  0.55968065  0.61125399  0.40912598  1
  N  N383  1  0.56874893  0.94249585  0.40335658  1
  N  N384  1  0.30003548  0.22383103  0.58751022  1
  N  N385  1  0.32585873  0.55636465  0.60172510  1
  N  N386  1  0.31638896  0.88692538  0.59785664  1
  N  N387  1  0.80655699  0.22593841  0.59476592  1
  N  N388  1  0.82700040  0.55615318  0.59980808  1
  N  N389  1  0.80723248  0.89378413  0.58537046  1
  N  N390  1  0.17995721  0.11101787  0.10186614  1
  N  N391  1  0.18764754  0.44430336  0.09630905  1
  N  N392  1  0.18114997  0.77912372  0.09852456  1
  N  N393  1  0.67005779  0.11114835  0.10609982  1
  N  N394  1  0.68921810  0.43735958  0.09987173  1
  N  N395  1  0.68114322  0.77917804  0.10126731  1
  N  N396  1  0.18175435  0.22178158  0.89251855  1
  N  N397  1  0.17839516  0.55403854  0.90257429  1
  N  N398  1  0.18197946  0.89151401  0.90980925  1
  N  N399  1  0.69138583  0.22773829  0.91453973  1
  N  N400  1  0.67448582  0.55379056  0.89485287  1
  N  N401  1  0.67884289  0.89144092  0.89887056  1
  N  N402  1  0.31182053  0.10912205  0.40441920  1
  N  N403  1  0.31612262  0.44079498  0.39862728  1
  N  N404  1  0.31955535  0.77625833  0.40267203  1
  N  N405  1  0.81345206  0.11225905  0.40302362  1
  N  N406  1  0.81622034  0.44273658  0.40693113  1
  N  N407  1  0.82543064  0.78109128  0.39645352  1
  N  N408  1  0.44512053  0.27587886  0.40444017  1
  N  N409  1  0.43265193  0.61327011  0.39594171  1
  N  N410  1  0.44085055  0.94338611  0.40546029  1
  N  N411  1  0.95122835  0.27005765  0.41932348  1
  N  N412  1  0.92715263  0.61319587  0.39900489  1
  N  N413  1  0.93633402  0.94066372  0.40638182  1
  N  N414  1  0.07490327  0.05323747  0.89601558  1
  N  N415  1  0.07048322  0.38836134  0.89568454  1
  N  N416  1  0.07004107  0.72163707  0.89714290  1
  N  N417  1  0.57229663  0.05435244  0.90199705  1
  N  N418  1  0.55545888  0.38915213  0.91282312  1
  N  N419  1  0.56709639  0.72435934  0.90057147  1
  N  N420  1  0.05667396  0.27453292  0.08679318  1
  N  N421  1  0.06957198  0.61236002  0.10923239  1
  N  N422  1  0.07068122  0.94503505  0.10379300  1
  N  N423  1  0.56512069  0.27711172  0.10626277  1
  N  N424  1  0.56945426  0.60917433  0.09779226  1
  N  N425  1  0.56443463  0.93880095  0.09145232  1
  N  N426  1  0.43848026  0.05667307  0.59543329  1
  N  N427  1  0.44300712  0.39340330  0.58781381  1
  N  N428  1  0.43261813  0.72438006  0.59388571  1
  N  N429  1  0.93984998  0.05507735  0.59678661  1
  N  N430  1  0.92522114  0.38400441  0.60679516  1
  N  N431  1  0.92493223  0.72348442  0.60284686  1
  N  N432  1  0.18409629  0.11137490  0.39886270  1
  N  N433  1  0.18897397  0.45224470  0.40170528  1
  N  N434  1  0.19232900  0.77800263  0.40766560  1
  N  N435  1  0.68334243  0.11227699  0.39986905  1
  N  N436  1  0.68896799  0.44188976  0.41206383  1
  N  N437  1  0.69682839  0.77494425  0.41156089  1
  N  N438  1  0.30796460  0.22448495  0.90826481  1
  N  N439  1  0.30809177  0.55660216  0.90888189  1
  N  N440  1  0.31179854  0.88905473  0.90197935  1
  N  N441  1  0.81819151  0.22276977  0.89742468  1
  N  N442  1  0.80216453  0.55963146  0.90762794  1
  N  N443  1  0.80678382  0.88725225  0.91160839  1
  N  N444  1  0.30742633  0.10669593  0.09297383  1
  N  N445  1  0.31424816  0.44460746  0.09455961  1
  N  N446  1  0.30904701  0.77934318  0.09919761  1
  N  N447  1  0.79597909  0.10836442  0.08452489  1
  N  N448  1  0.81646784  0.44904684  0.09797684  1
  N  N449  1  0.80708438  0.77545037  0.09404200  1
  N  N450  1  0.17145728  0.22117589  0.60346110  1
  N  N451  1  0.19737574  0.56070876  0.58606435  1
  N  N452  1  0.18858369  0.89442919  0.58670579  1
  N  N453  1  0.67884656  0.22193921  0.60209817  1
  N  N454  1  0.69905133  0.55724947  0.59582853  1
  N  N455  1  0.68029304  0.88652274  0.60042691  1
  Cl  Cl456  1  0.25188078  0.05212016  0.61332697  1
  Cl  Cl457  1  0.24434649  0.39547936  0.59295091  1
  Cl  Cl458  1  0.23571976  0.72580515  0.60502296  1
  Cl  Cl459  1  0.75449542  0.05115595  0.61893602  1
  Cl  Cl460  1  0.74808932  0.39019937  0.62776092  1
  Cl  Cl461  1  0.74275499  0.72125978  0.61696224  1
  Cl  Cl462  1  0.25450482  0.27326973  0.10753350  1
  Cl  Cl463  1  0.25951037  0.61260715  0.11706629  1
  Cl  Cl464  1  0.25418707  0.95132893  0.12514864  1
  Cl  Cl465  1  0.74603167  0.28411383  0.11752317  1
  Cl  Cl466  1  0.75673878  0.60738923  0.10830906  1
  Cl  Cl467  1  0.75738172  0.94181716  0.10459436  1
  Cl  Cl468  1  0.26157837  0.05345841  0.88146047  1
  Cl  Cl469  1  0.24987471  0.38108150  0.85987455  1
  Cl  Cl470  1  0.25382481  0.71933848  0.87390528  1
  Cl  Cl471  1  0.76150313  0.05764767  0.89783523  1
  Cl  Cl472  1  0.74499016  0.39181763  0.90196984  1
  Cl  Cl473  1  0.75154192  0.71883346  0.88293029  1
  Cl  Cl474  1  0.26341093  0.28551307  0.37756301  1
  Cl  Cl475  1  0.24311653  0.61238203  0.38293373  1
  Cl  Cl476  1  0.25465551  0.94207258  0.39251245  1
  Cl  Cl477  1  0.76571404  0.28039590  0.38498699  1
  Cl  Cl478  1  0.74151060  0.60923008  0.37598409  1
  Cl  Cl479  1  0.75092468  0.94176711  0.37743407  1
  Cl  Cl480  1  -0.01140988  0.21887541  0.61575030  1
  Cl  Cl481  1  0.01442140  0.55177246  0.61413762  1
  Cl  Cl482  1  -0.00242592  0.89001034  0.61810481  1
  Cl  Cl483  1  0.48676068  0.22051586  0.61822296  1
  Cl  Cl484  1  0.51432606  0.55527114  0.61936226  1
  Cl  Cl485  1  0.49887229  0.89215938  0.61802986  1
  Cl  Cl486  1  -0.01856741  0.10401887  0.10159364  1
  Cl  Cl487  1  -0.00046343  0.44349643  0.11892962  1
  Cl  Cl488  1  -0.00759974  0.77813002  0.11251246  1
  Cl  Cl489  1  0.49064871  0.11359729  0.11759399  1
  Cl  Cl490  1  0.50512819  0.44296517  0.10535674  1
  Cl  Cl491  1  0.49686817  0.77650208  0.11156999  1
  Cl  Cl492  1  -0.00077149  0.21895975  0.88054276  1
  Cl  Cl493  1  -0.01343043  0.55683168  0.88355928  1
  Cl  Cl494  1  -0.00884160  0.88959138  0.88751852  1
  Cl  Cl495  1  0.49646987  0.22822841  0.89668511  1
  Cl  Cl496  1  0.49023835  0.55321703  0.89086462  1
  Cl  Cl497  1  0.49741132  0.88301040  0.88038382  1
  Cl  Cl498  1  0.00033462  0.11212641  0.37595504  1
  Cl  Cl499  1  0.00603808  0.43864415  0.39422387  1
  Cl  Cl500  1  0.00975797  0.77937840  0.37869997  1
  Cl  Cl501  1  0.49657284  0.11102768  0.37944382  1
  Cl  Cl502  1  0.50169187  0.44472168  0.38571729  1
  Cl  Cl503  1  0.50713495  0.78133218  0.37904512  1
  Cl  Cl504  1  0.35687212  0.15097892  0.74596711  1
  Cl  Cl505  1  0.36026125  0.48035553  0.74246089  1
  Cl  Cl506  1  0.35805221  0.81535812  0.74372820  1
  Cl  Cl507  1  0.86174586  0.14749563  0.75956315  1
  Cl  Cl508  1  0.85538678  0.47980391  0.75257216  1
  Cl  Cl509  1  0.85700060  0.81582274  0.74767622  1
  Cl  Cl510  1  0.13656902  0.18674610  0.24766003  1
  Cl  Cl511  1  0.13876769  0.51882681  0.24993411  1
  Cl  Cl512  1  0.13875723  0.85496888  0.25141062  1
  Cl  Cl513  1  0.63233354  0.18946060  0.24409007  1
  Cl  Cl514  1  0.64232913  0.51657400  0.24369929  1
  Cl  Cl515  1  0.64050074  0.85113282  0.24538971  1
  Cl  Cl516  1  0.13533935  0.14618721  0.74932300  1
  Cl  Cl517  1  0.14156952  0.48256513  0.75109859  1
  Cl  Cl518  1  0.13921059  0.81506942  0.74992059  1
  Cl  Cl519  1  0.64251145  0.14647617  0.75493256  1
  Cl  Cl520  1  0.63405066  0.47850408  0.75384767  1
  Cl  Cl521  1  0.63695569  0.81460480  0.74886706  1
  Cl  Cl522  1  0.35790643  0.18431271  0.24997648  1
  Cl  Cl523  1  0.36251726  0.51748018  0.25384902  1
  Cl  Cl524  1  0.35737345  0.84994744  0.24813140  1
  Cl  Cl525  1  0.85209932  0.18372564  0.24369069  1
  Cl  Cl526  1  0.86107784  0.51774405  0.25574291  1
  Cl  Cl527  1  0.86139236  0.85089834  0.25256640  1
  Cl  Cl528  1  0.10830211  0.31539044  0.74567170  1
  Cl  Cl529  1  0.10286091  0.64887063  0.75020460  1
  Cl  Cl530  1  0.11304687  0.97950863  0.75608409  1
  Cl  Cl531  1  0.61518243  0.31111687  0.74547209  1
  Cl  Cl532  1  0.61214125  0.64513550  0.75937731  1
  Cl  Cl533  1  0.61491534  0.97947037  0.75545510  1
  Cl  Cl534  1  0.39358813  0.01516130  0.25095543  1
  Cl  Cl535  1  0.39408662  0.35123041  0.25059435  1
  Cl  Cl536  1  0.39056967  0.68458886  0.25416461  1
  Cl  Cl537  1  0.88841506  0.01764764  0.25142052  1
  Cl  Cl538  1  0.88991900  0.35134257  0.24422142  1
  Cl  Cl539  1  0.89015420  0.68553577  0.25271547  1
  Cl  Cl540  1  0.39426885  0.31475744  0.75224517  1
  Cl  Cl541  1  0.39107454  0.64927663  0.74920353  1
  Cl  Cl542  1  0.39365451  0.98434295  0.75146403  1
  Cl  Cl543  1  0.88616654  0.31477446  0.74938109  1
  Cl  Cl544  1  0.88359258  0.64528349  0.74189627  1
  Cl  Cl545  1  0.89204242  0.98387029  0.74983291  1
  Cl  Cl546  1  0.10735152  0.02260475  0.24470408  1
  Cl  Cl547  1  0.11110086  0.35160090  0.25899386  1
  Cl  Cl548  1  0.11349398  0.68566090  0.24311939  1
  Cl  Cl549  1  0.61517330  0.02241116  0.24686346  1
  Cl  Cl550  1  0.61521573  0.35433397  0.24447406  1
  Cl  Cl551  1  0.60903052  0.68305020  0.24312659  1
