# generated using pymatgen
data_H8PbC4(N3Cl2)2
_symmetry_space_group_name_H-M   'P 1'
_cell_length_a   16.62466015
_cell_length_b   22.51293639
_cell_length_c   21.59166838
_cell_angle_alpha   89.99987516
_cell_angle_beta   90.00055202
_cell_angle_gamma   89.99267906
_symmetry_Int_Tables_number   1
_chemical_formula_structural   H8PbC4(N3Cl2)2
_chemical_formula_sum   'H192 Pb24 C96 N144 Cl96'
_cell_volume   8081.11185386
_cell_formula_units_Z   24
loop_
 _symmetry_equiv_pos_site_id
 _symmetry_equiv_pos_as_xyz
  1  'x, y, z'
loop_
 _atom_site_type_symbol
 _atom_site_label
 _atom_site_symmetry_multiplicity
 _atom_site_fract_x
 _atom_site_fract_y
 _atom_site_fract_z
 _atom_site_occupancy
  H  H0  1  0.00559341  0.03047585  0.67776279  1
  H  H1  1  0.00308732  0.36443566  0.67293818  1
  H  H2  1  -0.01691891  0.69513920  0.67743080  1
  H  H3  1  0.49118388  0.02851321  0.67732356  1
  H  H4  1  0.49497840  0.36264465  0.68193270  1
  H  H5  1  0.51631297  0.69401952  0.67451635  1
  H  H6  1  0.00322072  0.30185857  0.17994665  1
  H  H7  1  0.00026902  0.63786590  0.17890531  1
  H  H8  1  -0.00784353  0.97045045  0.17454370  1
  H  H9  1  0.50248436  0.30396708  0.18102996  1
  H  H10  1  0.49287082  0.63960729  0.17621460  1
  H  H11  1  0.51427697  0.96973554  0.17706794  1
  H  H12  1  -0.00031273  0.02983142  0.81927666  1
  H  H13  1  -0.00710122  0.36109591  0.82512137  1
  H  H14  1  0.01015302  0.69667781  0.82447317  1
  H  H15  1  0.50890818  0.02953981  0.82082808  1
  H  H16  1  0.50057446  0.36501187  0.82607654  1
  H  H17  1  0.48792197  0.69922165  0.82352013  1
  H  H18  1  -0.00637954  0.30457356  0.32271576  1
  H  H19  1  -0.00492672  0.63692985  0.32030194  1
  H  H20  1  -0.01248168  0.96883878  0.31786879  1
  H  H21  1  0.50775084  0.30138208  0.32090288  1
  H  H22  1  0.50183914  0.63474327  0.32075970  1
  H  H23  1  0.50972525  0.97296598  0.32444889  1
  H  H24  1  0.24307348  0.19736097  0.67944912  1
  H  H25  1  0.26443224  0.53274204  0.67605052  1
  H  H26  1  0.25010479  0.86478705  0.67635295  1
  H  H27  1  0.74568265  0.19581718  0.67988583  1
  H  H28  1  0.74145772  0.53188780  0.68095590  1
  H  H29  1  0.75639734  0.86498182  0.68020142  1
  H  H30  1  0.24388954  0.13664306  0.18046818  1
  H  H31  1  0.25788454  0.46825501  0.17728825  1
  H  H32  1  0.25053019  0.80118234  0.17299942  1
  H  H33  1  0.75896647  0.13548780  0.18085868  1
  H  H34  1  0.74146462  0.47052832  0.17988165  1
  H  H35  1  0.74670855  0.80353924  0.17550735  1
  H  H36  1  0.26564694  0.19908327  0.82115372  1
  H  H37  1  0.26046002  0.52799675  0.81836217  1
  H  H38  1  0.26093679  0.86114278  0.82577530  1
  H  H39  1  0.74021373  0.19824028  0.81988715  1
  H  H40  1  0.74499387  0.52787077  0.81925242  1
  H  H41  1  0.73565351  0.85830071  0.82431365  1
  H  H42  1  0.24446721  0.13945512  0.32375673  1
  H  H43  1  0.26202647  0.46646482  0.31977120  1
  H  H44  1  0.25114027  0.80333694  0.32550076  1
  H  H45  1  0.75283734  0.13677918  0.32206648  1
  H  H46  1  0.73331221  0.47070734  0.32337237  1
  H  H47  1  0.75144114  0.80419789  0.31691074  1
  H  H48  1  0.11477603  0.05938035  0.59473684  1
  H  H49  1  0.12146672  0.39022168  0.59865769  1
  H  H50  1  0.12427532  0.71312524  0.62605472  1
  H  H51  1  0.61965500  0.05426988  0.61159177  1
  H  H52  1  0.62076750  0.38886644  0.61248473  1
  H  H53  1  0.61061801  0.72719629  0.58505053  1
  H  H54  1  0.36870405  0.28179789  0.11748734  1
  H  H55  1  0.38849625  0.60919759  0.09202741  1
  H  H56  1  0.37327899  0.94894209  0.12555668  1
  H  H57  1  0.86993825  0.28088415  0.11768494  1
  H  H58  1  0.88201339  0.61253077  0.10456498  1
  H  H59  1  0.87409128  0.94233501  0.09935189  1
  H  H60  1  0.36998959  0.05014759  0.87595462  1
  H  H61  1  0.37804096  0.38664551  0.89595209  1
  H  H62  1  0.37120138  0.72447077  0.90067827  1
  H  H63  1  0.86706996  0.05228235  0.88365221  1
  H  H64  1  0.88065068  0.39215785  0.90323071  1
  H  H65  1  0.86872535  0.71542875  0.87567873  1
  H  H66  1  0.10890354  0.27840824  0.40066196  1
  H  H67  1  0.12577203  0.61239307  0.38450228  1
  H  H68  1  0.12763541  0.95116037  0.37300697  1
  H  H69  1  0.61144556  0.27252864  0.40377030  1
  H  H70  1  0.62602286  0.61057319  0.39337705  1
  H  H71  1  0.62810474  0.94308323  0.39734220  1
  H  H72  1  0.37782242  0.21751059  0.61873983  1
  H  H73  1  0.36994119  0.55890743  0.59254749  1
  H  H74  1  0.36836943  0.89011952  0.60204192  1
  H  H75  1  0.88436032  0.21697377  0.62389974  1
  H  H76  1  0.86885223  0.55287152  0.61230653  1
  H  H77  1  0.86277130  0.89217048  0.59702311  1
  H  H78  1  0.13526505  0.11063700  0.09992885  1
  H  H79  1  0.12250598  0.44729480  0.11623064  1
  H  H80  1  0.12829186  0.77884290  0.10342279  1
  H  H81  1  0.64141206  0.11185374  0.10644944  1
  H  H82  1  0.62313614  0.44356266  0.10371295  1
  H  H83  1  0.63276490  0.77482171  0.09928159  1
  H  H84  1  0.12956217  0.21823430  0.88105344  1
  H  H85  1  0.12057076  0.54869286  0.87377079  1
  H  H86  1  0.12797670  0.87926016  0.88844385  1
  H  H87  1  0.63316560  0.22437330  0.90208736  1
  H  H88  1  0.61968548  0.55115108  0.88752647  1
  H  H89  1  0.63639035  0.89346967  0.91096700  1
  H  H90  1  0.38177886  0.11413282  0.37763047  1
  H  H91  1  0.37062940  0.44614434  0.40183457  1
  H  H92  1  0.37747091  0.77798035  0.39431766  1
  H  H93  1  0.87794408  0.11061098  0.39213692  1
  H  H94  1  0.87664081  0.45110811  0.37097437  1
  H  H95  1  0.87618996  0.77871631  0.38521146  1
  H  H96  1  0.36704261  0.28580986  0.37167143  1
  H  H97  1  0.37725760  0.61127952  0.39280997  1
  H  H98  1  0.38033502  0.95278198  0.39096280  1
  H  H99  1  0.86073976  0.27916383  0.38353953  1
  H  H100  1  0.87725922  0.60960772  0.39472616  1
  H  H101  1  0.88221926  0.94378427  0.40297729  1
  H  H102  1  0.11551626  0.05561690  0.89582222  1
  H  H103  1  0.12793559  0.38202383  0.88330945  1
  H  H104  1  0.11311766  0.72553031  0.91121071  1
  H  H105  1  0.61472638  0.05848162  0.90572366  1
  H  H106  1  0.62692252  0.38801537  0.89179909  1
  H  H107  1  0.61973090  0.71947924  0.88365493  1
  H  H108  1  0.11908523  0.27755079  0.10483198  1
  H  H109  1  0.13042118  0.61888526  0.11605028  1
  H  H110  1  0.12210779  0.94592329  0.11174904  1
  H  H111  1  0.61735666  0.27991674  0.10282291  1
  H  H112  1  0.63380212  0.61726030  0.12503402  1
  H  H113  1  0.61595197  0.93812095  0.09054747  1
  H  H114  1  0.37088347  0.05613931  0.60432100  1
  H  H115  1  0.37111068  0.38742796  0.61223851  1
  H  H116  1  0.37075223  0.71356591  0.63193719  1
  H  H117  1  0.86862171  0.05184994  0.61997379  1
  H  H118  1  0.87319012  0.38931297  0.60856123  1
  H  H119  1  0.88155808  0.72668472  0.59205233  1
  H  H120  1  0.13546448  0.10898139  0.40463753  1
  H  H121  1  0.12404008  0.45048040  0.37619714  1
  H  H122  1  0.13010256  0.77667619  0.39884482  1
  H  H123  1  0.62912827  0.11034602  0.39132884  1
  H  H124  1  0.63557841  0.44002879  0.41280236  1
  H  H125  1  0.62693201  0.77746110  0.38760463  1
  H  H126  1  0.37688310  0.22636231  0.90159420  1
  H  H127  1  0.36689744  0.55631396  0.90181486  1
  H  H128  1  0.37451017  0.89209049  0.90301393  1
  H  H129  1  0.87923001  0.21504648  0.87317954  1
  H  H130  1  0.86912624  0.55146430  0.88849853  1
  H  H131  1  0.87805122  0.88081044  0.87253092  1
  H  H132  1  0.38139538  0.11824625  0.12575029  1
  H  H133  1  0.36896564  0.44228535  0.09606664  1
  H  H134  1  0.37686710  0.77903917  0.10730513  1
  H  H135  1  0.89046925  0.11384112  0.11744483  1
  H  H136  1  0.87136327  0.44735403  0.11215507  1
  H  H137  1  0.88069694  0.78162160  0.11516453  1
  H  H138  1  0.13125263  0.22364797  0.59772055  1
  H  H139  1  0.12552915  0.54645205  0.62401392  1
  H  H140  1  0.11992381  0.88520211  0.61384573  1
  H  H141  1  0.63753782  0.22046823  0.59753800  1
  H  H142  1  0.61935619  0.55664439  0.60771304  1
  H  H143  1  0.61689034  0.88545479  0.62512333  1
  H  H144  1  0.15964245  0.91496449  0.99222179  1
  H  H145  1  0.69701054  0.08527101  -0.00427767  1
  H  H146  1  0.31201372  0.90542686  1.00565040  1
  H  H147  1  0.06351381  0.24666674  -0.00360101  1
  H  H148  1  0.20772607  0.07978350  0.50483428  1
  H  H149  1  0.93016497  0.91608916  -0.00330012  1
  H  H150  1  0.67764578  0.75775514  0.49474946  1
  H  H151  1  0.20057623  0.25734689  0.49923086  1
  H  H152  1  0.83070187  0.75112701  0.49641850  1
  H  H153  1  0.86459149  0.24563442  0.98725576  1
  H  H154  1  0.46631231  0.58040166  -0.00654877  1
  H  H155  1  0.78953706  0.92514846  0.49535364  1
  H  H156  1  0.57382478  0.92667475  0.50134882  1
  H  H157  1  0.53942371  0.24144872  0.50712674  1
  H  H158  1  0.14056248  0.57642586  0.50860499  1
  H  H159  1  0.85064448  0.74867918  0.00740645  1
  H  H160  1  0.72200607  0.41723553  0.50902934  1
  H  H161  1  0.53752753  0.08158704  1.00560704  1
  H  H162  1  0.15354163  0.91557773  0.50089885  1
  H  H163  1  0.53413692  0.91301180  -0.00685133  1
  H  H164  1  0.09732210  0.58775163  1.00333597  1
  H  H165  1  0.36152658  0.09253786  1.01110768  1
  H  H166  1  0.94622477  0.42078957  1.00440255  1
  H  H167  1  0.41975389  0.41659650  0.50155240  1
  H  H168  1  0.65979200  0.57930018  0.99828857  1
  H  H169  1  0.05291472  0.08782255  1.00212493  1
  H  H170  1  0.70706817  0.24640248  0.49156246  1
  H  H171  1  0.30263519  0.42408578  0.51075642  1
  H  H172  1  0.72054373  0.91927998  1.00705567  1
  H  H173  1  0.82492157  0.58218445  0.99819917  1
  H  H174  1  0.95742904  0.91809753  0.50634992  1
  H  H175  1  0.55380882  0.25639735  -0.00516916  1
  H  H176  1  0.42260582  0.90946529  0.48920826  1
  H  H177  1  0.86353866  0.24324219  0.51351666  1
  H  H178  1  0.20263482  0.08644119  -0.00792042  1
  H  H179  1  0.38023876  0.25096885  0.48384558  1
  H  H180  1  0.96170721  0.73907694  0.49329979  1
  H  H181  1  0.10643398  0.75151124  0.52151315  1
  H  H182  1  0.57172748  0.40895072  0.50496433  1
  H  H183  1  0.33534014  0.75021714  0.50022814  1
  H  H184  1  0.52333291  0.74959079  0.48921668  1
  H  H185  1  0.82384841  0.58241554  0.50271416  1
  H  H186  1  0.15213302  0.41879555  0.00902994  1
  H  H187  1  0.70323995  0.25217317  1.00762446  1
  H  H188  1  0.91267009  0.41923151  0.50168265  1
  H  H189  1  0.29340885  0.58975572  1.00279458  1
  H  H190  1  0.04047590  0.08604265  0.49514717  1
  H  H191  1  0.58908717  0.75003780  0.99789976  1
  Pb  Pb192  1  0.24247793  0.04977914  0.74364205  1
  Pb  Pb193  1  0.24794330  0.38058148  0.74918508  1
  Pb  Pb194  1  0.24459556  0.71360480  0.75912759  1
  Pb  Pb195  1  0.74651667  0.04682629  0.75505645  1
  Pb  Pb196  1  0.74528778  0.38255253  0.74785092  1
  Pb  Pb197  1  0.74571174  0.71509172  0.73639923  1
  Pb  Pb198  1  0.24785147  0.28610450  0.25520559  1
  Pb  Pb199  1  0.25744095  0.61719510  0.24549221  1
  Pb  Pb200  1  0.25188843  0.95266381  0.24598279  1
  Pb  Pb201  1  0.74891539  0.28561804  0.25286575  1
  Pb  Pb202  1  0.75368828  0.61973460  0.25324698  1
  Pb  Pb203  1  0.75683946  0.95011293  0.25066555  1
  Pb  Pb204  1  -0.00177680  0.21605260  0.74591058  1
  Pb  Pb205  1  -0.00454446  0.54759028  0.74692998  1
  Pb  Pb206  1  -0.00228641  0.87971977  0.74670243  1
  Pb  Pb207  1  0.50087056  0.21416211  0.75368858  1
  Pb  Pb208  1  0.49255995  0.55007606  0.75376925  1
  Pb  Pb209  1  0.49323223  0.88253651  0.75158599  1
  Pb  Pb210  1  0.00532949  0.11903282  0.25498935  1
  Pb  Pb211  1  0.00082177  0.45340270  0.24391322  1
  Pb  Pb212  1  0.00797009  0.78467924  0.25686669  1
  Pb  Pb213  1  0.50452375  0.11827268  0.24263374  1
  Pb  Pb214  1  0.50455323  0.45035527  0.25642353  1
  Pb  Pb215  1  0.50256918  0.78652269  0.24945044  1
  C  C216  1  -0.00327368  0.04616054  0.63076050  1
  C  C217  1  -0.00128003  0.38061612  0.62581779  1
  C  C218  1  -0.00375366  0.71066769  0.63076843  1
  C  C219  1  0.49408053  0.04569472  0.63066430  1
  C  C220  1  0.49634555  0.37876946  0.63446791  1
  C  C221  1  0.49944172  0.71015450  0.62894027  1
  C  C222  1  -0.00213868  0.28678661  0.13244129  1
  C  C223  1  0.00488078  0.62275559  0.13143694  1
  C  C224  1  -0.00439986  0.95402864  0.12743861  1
  C  C225  1  0.49603866  0.28897157  0.13353257  1
  C  C226  1  0.50479634  0.62287600  0.12997891  1
  C  C227  1  0.50135023  0.95364094  0.13080648  1
  C  C228  1  -0.00628792  0.04561367  0.86654417  1
  C  C229  1  0.00013425  0.37780530  0.87193937  1
  C  C230  1  -0.00256030  0.71166805  0.87111304  1
  C  C231  1  0.49810597  0.04523422  0.86755550  1
  C  C232  1  0.50193159  0.38022384  0.87389455  1
  C  C233  1  0.49363044  0.71415379  0.87096693  1
  C  C234  1  -0.01228312  0.28730129  0.36923789  1
  C  C235  1  -0.00032436  0.61988144  0.36682718  1
  C  C236  1  -0.00063302  0.95435902  0.36494471  1
  C  C237  1  0.49475230  0.28631947  0.36762323  1
  C  C238  1  0.50188115  0.61896346  0.36824878  1
  C  C239  1  0.50597281  0.95636983  0.37168780  1
  C  C240  1  0.25054300  0.21299839  0.63230405  1
  C  C241  1  0.25228975  0.54635152  0.62884746  1
  C  C242  1  0.24548103  0.87991221  0.62887204  1
  C  C243  1  0.75661018  0.21095611  0.63276904  1
  C  C244  1  0.74314018  0.54750338  0.63347900  1
  C  C245  1  0.74483727  0.88035691  0.63336648  1
  C  C246  1  0.25408410  0.12274165  0.13292589  1
  C  C247  1  0.24927680  0.45307859  0.13005668  1
  C  C248  1  0.25198168  0.78601059  0.12522699  1
  C  C249  1  0.76340186  0.12095565  0.13316120  1
  C  C250  1  0.74549071  0.45454291  0.13253140  1
  C  C251  1  0.75390276  0.78683914  0.12873443  1
  C  C252  1  0.25711449  0.21385284  0.86836495  1
  C  C253  1  0.24897085  0.54417821  0.86489885  1
  C  C254  1  0.25463652  0.87660782  0.87330499  1
  C  C255  1  0.75137189  0.21252752  0.86722490  1
  C  C256  1  0.74453225  0.54389390  0.86672050  1
  C  C257  1  0.74976337  0.87635081  0.86962389  1
  C  C258  1  0.25380886  0.12267087  0.37010970  1
  C  C259  1  0.25229149  0.45453251  0.36780217  1
  C  C260  1  0.25315552  0.78703284  0.37279871  1
  C  C261  1  0.75367039  0.11993565  0.36893293  1
  C  C262  1  0.74821426  0.45499210  0.36949962  1
  C  C263  1  0.75089394  0.78817961  0.36443445  1
  C  C264  1  0.46438361  0.40751057  0.96585947  1
  C  C265  1  0.31388065  0.10080304  0.04454879  1
  C  C266  1  0.21456916  0.75833400  0.03304059  1
  C  C267  1  0.03336515  0.41200447  0.53181101  1
  C  C268  1  0.51052874  0.25533215  0.46423287  1
  C  C269  1  0.02680522  0.25842523  0.03628645  1
  C  C270  1  0.98487270  0.92778235  0.46154602  1
  C  C271  1  0.54450374  0.40791164  0.96445795  1
  C  C272  1  0.05310090  0.59662091  0.03952227  1
  C  C273  1  0.31377160  0.08849254  0.45479920  1
  C  C274  1  0.27235312  0.43238934  0.46686939  1
  C  C275  1  0.43009562  0.26001939  0.45266528  1
  C  C276  1  0.05709149  0.40691015  0.95975026  1
  C  C277  1  0.26493683  0.57596307  0.95956399  1
  C  C278  1  0.72507203  0.75464504  0.03371866  1
  C  C279  1  0.71664267  0.08856864  0.46024243  1
  C  C280  1  0.42545865  0.73776208  0.54853446  1
  C  C281  1  0.96922032  0.58728461  0.45964635  1
  C  C282  1  0.73257641  0.09540631  0.03674475  1
  C  C283  1  0.93637509  0.73647056  0.95681316  1
  C  C284  1  0.70219113  0.57015304  0.96017934  1
  C  C285  1  0.19014449  0.56939448  0.54103328  1
  C  C286  1  0.78323744  0.57320435  0.54131452  1
  C  C287  1  0.79285570  0.76006274  0.45643103  1
  C  C288  1  0.73280266  0.24014937  0.96445012  1
  C  C289  1  0.27051899  0.57367077  0.53179279  1
  C  C290  1  0.52116950  0.26440779  0.03777964  1
  C  C291  1  0.04600452  0.92590761  0.03660214  1
  C  C292  1  0.46264021  0.74288120  0.96597024  1
  C  C293  1  0.97179375  0.59414617  0.03710912  1
  C  C294  1  0.56952005  0.59155018  0.04647419  1
  C  C295  1  0.19216449  0.43360276  0.45610926  1
  C  C296  1  0.27902033  0.90690725  0.53398380  1
  C  C297  1  0.01993046  0.07523287  0.96059758  1
  C  C298  1  0.73606510  0.23712808  0.53576487  1
  C  C299  1  0.81372733  0.23694952  0.95421247  1
  C  C300  1  0.27899216  0.24340398  0.96330389  1
  C  C301  1  0.94577107  0.26042832  0.04261602  1
  C  C302  1  0.19760964  0.90580564  0.53683472  1
  C  C303  1  0.78432021  0.57109275  0.96032821  1
  C  C304  1  0.46181487  0.07874587  0.53886295  1
  C  C305  1  0.93963881  0.25770211  0.45824567  1
  C  C306  1  0.45612489  0.40768720  0.54225278  1
  C  C307  1  0.29502772  0.75864957  0.03435029  1
  C  C308  1  0.54417644  0.74086109  0.96205264  1
  C  C309  1  0.81382460  0.09642735  0.04222323  1
  C  C310  1  0.76069468  0.91185608  0.53853312  1
  C  C311  1  0.23280664  0.09761521  0.03520219  1
  N  N312  1  0.19779054  0.42630263  0.04281751  1
  N  N313  1  0.51147136  0.92055716  0.03757017  1
  N  N314  1  0.81862985  0.90620998  0.95115933  1
  N  N315  1  0.70389268  0.57468141  0.53918885  1
  N  N316  1  0.06280832  0.92868901  0.45094365  1
  N  N317  1  0.71318768  0.75889542  0.45602198  1
  N  N318  1  0.18679935  0.57399832  0.95007074  1
  N  N319  1  0.93708274  0.07404239  0.54430556  1
  N  N320  1  0.05995432  0.73276814  0.54641835  1
  N  N321  1  0.51309465  0.07468744  0.96174073  1
  N  N322  1  0.23557339  0.08823444  0.46301267  1
  N  N323  1  0.27537872  0.42487364  0.03425684  1
  N  N324  1  0.28120742  0.91173291  0.96482876  1
  N  N325  1  0.80367994  0.75750167  0.04058837  1
  N  N326  1  0.74246051  0.42443947  0.46397560  1
  N  N327  1  0.94090187  0.07374032  0.95658857  1
  N  N328  1  0.22907317  0.24218660  0.53878952  1
  N  N329  1  0.46078216  0.93564249  0.46349240  1
  N  N330  1  0.01698963  0.25675019  0.46478416  1
  N  N331  1  0.01223960  0.74088332  0.96911634  1
  N  N332  1  0.20191980  0.24024127  0.95828917  1
  N  N333  1  0.46336414  0.59131979  0.46147120  1
  N  N334  1  0.53921189  0.07816197  0.53969125  1
  N  N335  1  0.43630844  0.07257651  0.95265929  1
  N  N336  1  0.95449767  0.41071284  0.53619502  1
  N  N337  1  0.30637698  0.23959991  0.54459744  1
  N  N338  1  0.79394224  0.08851915  0.46175466  1
  N  N339  1  0.96678295  0.92495298  0.03375517  1
  N  N340  1  0.20375788  0.89652728  0.96342978  1
  N  N341  1  0.04686400  0.58834060  0.45717947  1
  N  N342  1  0.53572724  0.40828906  0.54344330  1
  N  N343  1  0.21475323  0.75985768  0.46651777  1
  N  N344  1  0.74216611  0.91112060  0.96242204  1
  N  N345  1  0.97823563  0.41043576  0.96526416  1
  N  N346  1  0.53907355  0.92129635  0.46202479  1
  N  N347  1  0.43475202  0.92396280  0.04809237  1
  N  N348  1  0.68226816  0.90981423  0.54760756  1
  N  N349  1  0.49182975  0.58882370  0.03625412  1
  N  N350  1  0.71395703  0.42525489  0.03821789  1
  N  N351  1  0.29322686  0.75952473  0.46356273  1
  N  N352  1  0.81860114  0.42882813  0.45146956  1
  N  N353  1  0.01440969  0.07699277  0.53756885  1
  N  N354  1  0.44239785  0.26381498  0.04304855  1
  N  N355  1  0.53960701  0.59116020  0.46162469  1
  N  N356  1  0.81458808  0.23705492  0.54637523  1
  N  N357  1  0.98268156  0.74605529  0.53763353  1
  N  N358  1  0.79031827  0.42673630  0.04090716  1
  N  N359  1  0.50210866  0.74234136  0.53378505  1
  N  N360  1  0.05255224  0.05794546  0.58886991  1
  N  N361  1  0.06094369  0.39354168  0.58729440  1
  N  N362  1  0.06798708  0.72048482  0.60665875  1
  N  N363  1  0.55949970  0.05746303  0.59824941  1
  N  N364  1  0.56039048  0.38703011  0.59932659  1
  N  N365  1  0.54857419  0.72244919  0.58265021  1
  N  N366  1  0.42841519  0.27944533  0.10266179  1
  N  N367  1  0.45109294  0.61092737  0.08675227  1
  N  N368  1  0.42927778  0.94346225  0.10642709  1
  N  N369  1  0.92836044  0.27721529  0.10085885  1
  N  N370  1  0.94286782  0.60988147  0.09265733  1
  N  N371  1  0.93509213  0.94339944  0.08956925  1
  N  N372  1  0.42716029  0.05557384  0.89382459  1
  N  N373  1  0.43748902  0.39086227  0.91059001  1
  N  N374  1  0.43235135  0.72671574  0.91090153  1
  N  N375  1  0.92637281  0.05555283  0.89776583  1
  N  N376  1  0.94248366  0.39089228  0.91163760  1
  N  N377  1  0.92457604  0.71912282  0.89684314  1
  N  N378  1  0.04657660  0.27562743  0.40823295  1
  N  N379  1  0.06599098  0.60854822  0.39840367  1
  N  N380  1  0.07025386  0.94517947  0.39086154  1
  N  N381  1  0.54945092  0.27190248  0.41074474  1
  N  N382  1  0.56506003  0.60798049  0.40383292  1
  N  N383  1  0.56758894  0.94542827  0.40889960  1
  N  N384  1  0.31957276  0.22149311  0.60258640  1
  N  N385  1  0.30811856  0.55972217  0.58456270  1
  N  N386  1  0.30748575  0.89162988  0.58985156  1
  N  N387  1  0.82667865  0.22048816  0.60588118  1
  N  N388  1  0.80880279  0.55707309  0.59890980  1
  N  N389  1  0.80040161  0.89367215  0.59051494  1
  N  N390  1  0.19686212  0.11137325  0.09063512  1
  N  N391  1  0.18086264  0.44411452  0.10059450  1
  N  N392  1  0.18769024  0.77473713  0.08853044  1
  N  N393  1  0.70217606  0.11085000  0.09459943  1
  N  N394  1  0.68475408  0.44224707  0.09474552  1
  N  N395  1  0.69397146  0.77261606  0.08852008  1
  N  N396  1  0.18827908  0.22142260  0.89773747  1
  N  N397  1  0.17843641  0.55453476  0.89100745  1
  N  N398  1  0.18678946  0.88529895  0.90381667  1
  N  N399  1  0.69505102  0.22471246  0.90990058  1
  N  N400  1  0.67910525  0.55360327  0.90144994  1
  N  N401  1  0.69881485  0.89050873  0.91422644  1
  N  N402  1  0.32512703  0.10942774  0.39709007  1
  N  N403  1  0.30944153  0.44536218  0.41035281  1
  N  N404  1  0.31749373  0.77723055  0.40717511  1
  N  N405  1  0.81740132  0.10838880  0.40342694  1
  N  N406  1  0.82138201  0.44558776  0.39208417  1
  N  N407  1  0.81653532  0.77660957  0.39922375  1
  N  N408  1  0.42178181  0.27902587  0.39284822  1
  N  N409  1  0.43834126  0.60845799  0.40371260  1
  N  N410  1  0.43996970  0.94511918  0.40365471  1
  N  N411  1  0.91904023  0.27569077  0.39978720  1
  N  N412  1  0.93823845  0.60643769  0.40508703  1
  N  N413  1  0.94436911  0.94295589  0.40890942  1
  N  N414  1  0.05406643  0.05793590  0.90578479  1
  N  N415  1  0.07064172  0.38760920  0.90162275  1
  N  N416  1  0.05050621  0.72478012  0.91448819  1
  N  N417  1  0.55235979  0.05591144  0.91104356  1
  N  N418  1  0.56841358  0.39153925  0.90823734  1
  N  N419  1  0.56202566  0.72306546  0.90182428  1
  N  N420  1  0.05820601  0.27514987  0.09377425  1
  N  N421  1  0.07254648  0.61437940  0.09933955  1
  N  N422  1  0.06374001  0.94326120  0.09475842  1
  N  N423  1  0.55587138  0.27892827  0.09315468  1
  N  N424  1  0.57784268  0.61128572  0.10501277  1
  N  N425  1  0.55352803  0.94082816  0.08655216  1
  N  N426  1  0.43123387  0.05899998  0.59353502  1
  N  N427  1  0.43135426  0.39107141  0.59913839  1
  N  N428  1  0.42392565  0.71965862  0.60799142  1
  N  N429  1  0.92661037  0.05621614  0.60293160  1
  N  N430  1  0.93242402  0.39047696  0.59387977  1
  N  N431  1  0.94296578  0.72138841  0.58644636  1
  N  N432  1  0.19751880  0.11150310  0.41188642  1
  N  N433  1  0.18061756  0.44690543  0.39642288  1
  N  N434  1  0.19084047  0.77576368  0.40961108  1
  N  N435  1  0.68900865  0.10749713  0.40451124  1
  N  N436  1  0.69818930  0.44313255  0.41539506  1
  N  N437  1  0.68744313  0.77960330  0.40020903  1
  N  N438  1  0.31543772  0.22747494  0.90959588  1
  N  N439  1  0.30447030  0.55744372  0.90781229  1
  N  N440  1  0.31386549  0.88793766  0.91267061  1
  N  N441  1  0.82332770  0.22002559  0.89371709  1
  N  N442  1  0.80914641  0.55507564  0.90189096  1
  N  N443  1  0.82252530  0.88664864  0.89261639  1
  N  N444  1  0.32564303  0.11623734  0.10516589  1
  N  N445  1  0.30712260  0.44113475  0.08903246  1
  N  N446  1  0.31852659  0.77519711  0.09082128  1
  N  N447  1  0.83204738  0.11150333  0.10049252  1
  N  N448  1  0.81108720  0.44509212  0.09933911  1
  N  N449  1  0.82187926  0.77735708  0.09899619  1
  N  N450  1  0.19340517  0.22640928  0.59202480  1
  N  N451  1  0.18038404  0.55253959  0.60251995  1
  N  N452  1  0.17788059  0.88899612  0.59690651  1
  N  N453  1  0.69946814  0.22182193  0.58955779  1
  N  N454  1  0.68062426  0.55878389  0.59713663  1
  N  N455  1  0.67430974  0.89000566  0.60692908  1
  Cl  Cl456  1  0.23766188  0.06075596  0.60195485  1
  Cl  Cl457  1  0.24741302  0.38521977  0.61405685  1
  Cl  Cl458  1  0.24611696  0.71857368  0.62496113  1
  Cl  Cl459  1  0.74407175  0.05201979  0.62501163  1
  Cl  Cl460  1  0.74326309  0.39296872  0.60277804  1
  Cl  Cl461  1  0.74309896  0.73085231  0.59619995  1
  Cl  Cl462  1  0.24418341  0.28107521  0.12439907  1
  Cl  Cl463  1  0.26686807  0.61067923  0.10915638  1
  Cl  Cl464  1  0.24484463  0.93854998  0.11032755  1
  Cl  Cl465  1  0.74111459  0.27792751  0.12015465  1
  Cl  Cl466  1  0.75986997  0.61658213  0.11947985  1
  Cl  Cl467  1  0.73931687  0.93588792  0.10201490  1
  Cl  Cl468  1  0.23849101  0.04959410  0.87785215  1
  Cl  Cl469  1  0.25168507  0.38460832  0.88026662  1
  Cl  Cl470  1  0.24237802  0.72558308  0.89313818  1
  Cl  Cl471  1  0.73414187  0.05595196  0.89087380  1
  Cl  Cl472  1  0.75832675  0.38917715  0.87650437  1
  Cl  Cl473  1  0.74467635  0.72437145  0.86830888  1
  Cl  Cl474  1  0.23036427  0.27947441  0.39473200  1
  Cl  Cl475  1  0.25403681  0.61512107  0.37851375  1
  Cl  Cl476  1  0.25887555  0.95466938  0.37769523  1
  Cl  Cl477  1  0.73351810  0.27663562  0.38934924  1
  Cl  Cl478  1  0.75282817  0.61312563  0.38689864  1
  Cl  Cl479  1  0.75610874  0.94224902  0.38682014  1
  Cl  Cl480  1  0.01107781  0.21907675  0.61356272  1
  Cl  Cl481  1  -0.00760518  0.55273578  0.61555889  1
  Cl  Cl482  1  -0.01447452  0.88726358  0.61132192  1
  Cl  Cl483  1  0.51095713  0.22146709  0.61853195  1
  Cl  Cl484  1  0.49315084  0.55394183  0.62176163  1
  Cl  Cl485  1  0.48864845  0.88913132  0.61529939  1
  Cl  Cl486  1  0.01560123  0.10701591  0.12105895  1
  Cl  Cl487  1  -0.00506732  0.44286494  0.10694816  1
  Cl  Cl488  1  0.00355455  0.78700453  0.12641429  1
  Cl  Cl489  1  0.51795240  0.10282155  0.10359676  1
  Cl  Cl490  1  0.49699883  0.44737719  0.12271910  1
  Cl  Cl491  1  0.51004847  0.77861479  0.11760140  1
  Cl  Cl492  1  0.00620564  0.22026077  0.87708837  1
  Cl  Cl493  1  -0.00683849  0.54719846  0.87819407  1
  Cl  Cl494  1  0.00614772  0.88434744  0.88096440  1
  Cl  Cl495  1  0.50705720  0.22373102  0.88927276  1
  Cl  Cl496  1  0.48844836  0.55894910  0.89610544  1
  Cl  Cl497  1  0.51232887  0.89548931  0.89882914  1
  Cl  Cl498  1  0.01213840  0.10629362  0.39418509  1
  Cl  Cl499  1  0.00003740  0.44773917  0.37538204  1
  Cl  Cl500  1  0.00236162  0.77181352  0.39580954  1
  Cl  Cl501  1  0.50617537  0.11064964  0.37190874  1
  Cl  Cl502  1  0.51193134  0.43660760  0.39994698  1
  Cl  Cl503  1  0.50378214  0.77484139  0.39465411  1
  Cl  Cl504  1  0.36258287  0.14624415  0.74563791  1
  Cl  Cl505  1  0.35578114  0.48405369  0.74692071  1
  Cl  Cl506  1  0.35755136  0.81454043  0.75101463  1
  Cl  Cl507  1  0.86525550  0.14423486  0.75057064  1
  Cl  Cl508  1  0.85996385  0.48073075  0.74176152  1
  Cl  Cl509  1  0.85850175  0.81467487  0.75130559  1
  Cl  Cl510  1  0.14556353  0.18037184  0.25144719  1
  Cl  Cl511  1  0.13553815  0.52174752  0.24804934  1
  Cl  Cl512  1  0.14517428  0.84983839  0.25833856  1
  Cl  Cl513  1  0.64322722  0.18203517  0.24848614  1
  Cl  Cl514  1  0.64111939  0.51876663  0.25016460  1
  Cl  Cl515  1  0.63978147  0.85261628  0.25398833  1
  Cl  Cl516  1  0.14604704  0.14807949  0.74964270  1
  Cl  Cl517  1  0.13352969  0.48068790  0.74795223  1
  Cl  Cl518  1  0.13844236  0.81610677  0.74638793  1
  Cl  Cl519  1  0.64274672  0.15158902  0.74951032  1
  Cl  Cl520  1  0.64056509  0.47944229  0.74720930  1
  Cl  Cl521  1  0.63518280  0.81625556  0.74495032  1
  Cl  Cl522  1  0.36695641  0.18940869  0.25015038  1
  Cl  Cl523  1  0.35496160  0.51796204  0.24908917  1
  Cl  Cl524  1  0.36401742  0.85207954  0.24854056  1
  Cl  Cl525  1  0.86423415  0.18733436  0.25101166  1
  Cl  Cl526  1  0.86401275  0.51922498  0.25439566  1
  Cl  Cl527  1  0.85790928  0.85364488  0.24778038  1
  Cl  Cl528  1  0.10981009  0.31544511  0.75253426  1
  Cl  Cl529  1  0.10786279  0.64791544  0.74659584  1
  Cl  Cl530  1  0.10628252  0.98266783  0.74538682  1
  Cl  Cl531  1  0.61086060  0.31646595  0.74979712  1
  Cl  Cl532  1  0.61136548  0.64649282  0.75359349  1
  Cl  Cl533  1  0.60607806  0.98204773  0.74789529  1
  Cl  Cl534  1  0.38459546  0.02302275  0.23803224  1
  Cl  Cl535  1  0.38356581  0.35483484  0.25691168  1
  Cl  Cl536  1  0.39573912  0.68345162  0.25130582  1
  Cl  Cl537  1  0.89124682  0.01899662  0.24745187  1
  Cl  Cl538  1  0.88526298  0.35439059  0.24817957  1
  Cl  Cl539  1  0.88964633  0.68806382  0.25314554  1
  Cl  Cl540  1  0.39000990  0.31566448  0.74958843  1
  Cl  Cl541  1  0.39240845  0.65009102  0.74907219  1
  Cl  Cl542  1  0.38841128  0.97879033  0.76004439  1
  Cl  Cl543  1  0.89144514  0.31046704  0.73904442  1
  Cl  Cl544  1  0.88585149  0.64989362  0.75057988  1
  Cl  Cl545  1  0.88538215  0.98002739  0.75527505  1
  Cl  Cl546  1  0.11084704  0.01453346  0.25251054  1
  Cl  Cl547  1  0.10670654  0.35039913  0.25260527  1
  Cl  Cl548  1  0.10851051  0.68694024  0.25189245  1
  Cl  Cl549  1  0.60588862  0.01525978  0.25058783  1
  Cl  Cl550  1  0.60391354  0.35035394  0.25301826  1
  Cl  Cl551  1  0.61608450  0.68706080  0.25074163  1
