# generated using pymatgen
data_H8PbC4(N3Cl2)2
_symmetry_space_group_name_H-M   'P 1'
_cell_length_a   16.62815567
_cell_length_b   22.51816183
_cell_length_c   21.59576420
_cell_angle_alpha   90.00237914
_cell_angle_beta   90.00663077
_cell_angle_gamma   89.99239377
_symmetry_Int_Tables_number   1
_chemical_formula_structural   H8PbC4(N3Cl2)2
_chemical_formula_sum   'H192 Pb24 C96 N144 Cl96'
_cell_volume   8086.22064115
_cell_formula_units_Z   24
loop_
 _symmetry_equiv_pos_site_id
 _symmetry_equiv_pos_as_xyz
  1  'x, y, z'
loop_
 _atom_site_type_symbol
 _atom_site_label
 _atom_site_symmetry_multiplicity
 _atom_site_fract_x
 _atom_site_fract_y
 _atom_site_fract_z
 _atom_site_occupancy
  H  H0  1  -0.00382466  0.02976931  0.68010096  1
  H  H1  1  0.00810747  0.36263321  0.68298924  1
  H  H2  1  0.00912845  0.69601989  0.67933859  1
  H  H3  1  0.50433571  0.03017953  0.67996903  1
  H  H4  1  0.50566240  0.36275950  0.67284579  1
  H  H5  1  0.48610083  0.69758482  0.67707135  1
  H  H6  1  0.00775910  0.30583328  0.17938170  1
  H  H7  1  0.01097187  0.63612982  0.17813148  1
  H  H8  1  -0.01024412  0.96943972  0.17734131  1
  H  H9  1  0.48927018  0.30637360  0.17310850  1
  H  H10  1  0.48209097  0.63661895  0.18067051  1
  H  H11  1  0.50935950  0.97029268  0.17610169  1
  H  H12  1  0.00571183  0.02988798  0.82325769  1
  H  H13  1  -0.01229060  0.36288765  0.82341623  1
  H  H14  1  -0.00197183  0.69740452  0.82079269  1
  H  H15  1  0.49733392  0.03158468  0.82899440  1
  H  H16  1  0.50805767  0.36602521  0.82326412  1
  H  H17  1  0.49731536  0.69572131  0.82475352  1
  H  H18  1  0.00790971  0.30341210  0.31893990  1
  H  H19  1  -0.00299633  0.63848170  0.32083598  1
  H  H20  1  -0.00934779  0.96754758  0.32191367  1
  H  H21  1  0.49190145  0.30588254  0.32539346  1
  H  H22  1  0.51690784  0.63695650  0.32179106  1
  H  H23  1  0.50589856  0.97148577  0.32369621  1
  H  H24  1  0.26106032  0.19661913  0.67849366  1
  H  H25  1  0.26459930  0.53118367  0.67907585  1
  H  H26  1  0.25589755  0.86379521  0.67738519  1
  H  H27  1  0.75317461  0.19712606  0.67919223  1
  H  H28  1  0.74165013  0.52444033  0.67929836  1
  H  H29  1  0.74177827  0.86242960  0.67986147  1
  H  H30  1  0.26428623  0.13537191  0.17877582  1
  H  H31  1  0.25051493  0.46736520  0.17922213  1
  H  H32  1  0.25416882  0.80679193  0.17941743  1
  H  H33  1  0.73894730  0.13621161  0.17477218  1
  H  H34  1  0.75242722  0.46865736  0.17142442  1
  H  H35  1  0.74913131  0.80447013  0.17497152  1
  H  H36  1  0.26024955  0.19194927  0.82202853  1
  H  H37  1  0.25140289  0.52475425  0.81834663  1
  H  H38  1  0.25362400  0.86437145  0.82210553  1
  H  H39  1  0.74991651  0.19273471  0.82515595  1
  H  H40  1  0.74420002  0.52568459  0.82492436  1
  H  H41  1  0.73800170  0.86222659  0.82155335  1
  H  H42  1  0.23546307  0.13712764  0.32016846  1
  H  H43  1  0.23733493  0.46994331  0.32322619  1
  H  H44  1  0.26232191  0.80496099  0.32097363  1
  H  H45  1  0.76295517  0.13807037  0.32229312  1
  H  H46  1  0.75461039  0.46780225  0.32183240  1
  H  H47  1  0.73631601  0.80336796  0.32075538  1
  H  H48  1  0.11177641  0.05652925  0.60246428  1
  H  H49  1  0.11688211  0.38960210  0.60070931  1
  H  H50  1  0.12431058  0.72318312  0.60310699  1
  H  H51  1  0.62043917  0.05078589  0.60186639  1
  H  H52  1  0.61844447  0.39450522  0.59676310  1
  H  H53  1  0.62749859  0.71633061  0.62470520  1
  H  H54  1  0.39072187  0.26964538  0.08774859  1
  H  H55  1  0.38016986  0.60759737  0.09467623  1
  H  H56  1  0.38107981  0.94777200  0.10882706  1
  H  H57  1  0.88094529  0.28332700  0.10898293  1
  H  H58  1  0.87041840  0.61659686  0.12476705  1
  H  H59  1  0.88480159  0.94076400  0.09536524  1
  H  H60  1  0.37144486  0.05509112  0.89453686  1
  H  H61  1  0.36688736  0.38376738  0.87577526  1
  H  H62  1  0.38957384  0.72800532  0.90593941  1
  H  H63  1  0.86952634  0.05142440  0.88220771  1
  H  H64  1  0.86513549  0.38720606  0.89530145  1
  H  H65  1  0.88600833  0.72327893  0.89969247  1
  H  H66  1  0.12887075  0.27745474  0.39210102  1
  H  H67  1  0.12476759  0.61287305  0.38763376  1
  H  H68  1  0.13088931  0.95028253  0.37483093  1
  H  H69  1  0.63256824  0.28752894  0.37877439  1
  H  H70  1  0.61604639  0.60607889  0.41027005  1
  H  H71  1  0.63183589  0.94974639  0.39157307  1
  H  H72  1  0.36480555  0.22677226  0.59265418  1
  H  H73  1  0.37609698  0.55815846  0.59877958  1
  H  H74  1  0.36782098  0.89191044  0.59893139  1
  H  H75  1  0.86491980  0.22182472  0.59711575  1
  H  H76  1  0.87843398  0.54984950  0.62526622  1
  H  H77  1  0.86767240  0.88388163  0.61122674  1
  H  H78  1  0.13204107  0.11201732  0.11504866  1
  H  H79  1  0.13656273  0.44241763  0.09984364  1
  H  H80  1  0.11593757  0.78367669  0.12304322  1
  H  H81  1  0.63525163  0.10626301  0.08885835  1
  H  H82  1  0.63193674  0.44444342  0.10087245  1
  H  H83  1  0.61450435  0.78598918  0.11822047  1
  H  H84  1  0.12142133  0.21751079  0.87479629  1
  H  H85  1  0.12686103  0.55216120  0.88579168  1
  H  H86  1  0.11729498  0.88609298  0.88100137  1
  H  H87  1  0.61772295  0.21717856  0.88853208  1
  H  H88  1  0.62826279  0.55471100  0.90039547  1
  H  H89  1  0.62110547  0.89066044  0.89897617  1
  H  H90  1  0.37738043  0.11680251  0.37159896  1
  H  H91  1  0.38038780  0.45157152  0.37102255  1
  H  H92  1  0.36663645  0.77629782  0.40721395  1
  H  H93  1  0.87940157  0.11136668  0.39849361  1
  H  H94  1  0.87808091  0.44510222  0.39056250  1
  H  H95  1  0.87296566  0.78539294  0.37858824  1
  H  H96  1  0.38793605  0.27212671  0.40822265  1
  H  H97  1  0.37396857  0.61599743  0.37084695  1
  H  H98  1  0.38291168  0.94736357  0.39236653  1
  H  H99  1  0.87994883  0.27964755  0.38732256  1
  H  H100  1  0.87736750  0.61200670  0.39534612  1
  H  H101  1  0.88468829  0.94317894  0.40489120  1
  H  H102  1  0.11762578  0.05690958  0.90204052  1
  H  H103  1  0.11434035  0.38550174  0.88859273  1
  H  H104  1  0.13386057  0.71727962  0.87808894  1
  H  H105  1  0.62029402  0.05472223  0.89778547  1
  H  H106  1  0.61210911  0.39353532  0.90912102  1
  H  H107  1  0.63610885  0.71684035  0.87946932  1
  H  H108  1  0.12983891  0.27737563  0.10819887  1
  H  H109  1  0.11611503  0.60782812  0.09472783  1
  H  H110  1  0.13059567  0.95266695  0.12535322  1
  H  H111  1  0.63332858  0.28836118  0.12609713  1
  H  H112  1  0.62433013  0.61837684  0.12906365  1
  H  H113  1  0.63033603  0.94561696  0.10329183  1
  H  H114  1  0.37264890  0.04916717  0.61951258  1
  H  H115  1  0.37144192  0.38671791  0.61343434  1
  H  H116  1  0.38417099  0.72839122  0.59010674  1
  H  H117  1  0.86324927  0.04960828  0.61524026  1
  H  H118  1  0.87014772  0.38376608  0.62522571  1
  H  H119  1  0.87645846  0.71705927  0.61975327  1
  H  H120  1  0.13412320  0.10802331  0.40736470  1
  H  H121  1  0.13740332  0.43925939  0.40985936  1
  H  H122  1  0.12250233  0.78314684  0.37436800  1
  H  H123  1  0.63123391  0.11573823  0.38189667  1
  H  H124  1  0.62892395  0.44440654  0.39072059  1
  H  H125  1  0.62567504  0.77985966  0.40081713  1
  H  H126  1  0.36519025  0.22208197  0.90709404  1
  H  H127  1  0.37627925  0.55436788  0.88751027  1
  H  H128  1  0.36311689  0.89314415  0.90420432  1
  H  H129  1  0.86514574  0.22529414  0.90113502  1
  H  H130  1  0.87623992  0.54910601  0.88838725  1
  H  H131  1  0.86876569  0.88429341  0.88794918  1
  H  H132  1  0.37963677  0.10949821  0.09859938  1
  H  H133  1  0.38386173  0.44572513  0.11671079  1
  H  H134  1  0.36283587  0.77868313  0.09768857  1
  H  H135  1  0.87955080  0.11669487  0.12354684  1
  H  H136  1  0.88025558  0.44599186  0.10765150  1
  H  H137  1  0.86094801  0.77725782  0.09689503  1
  H  H138  1  0.12117949  0.21651542  0.62490005  1
  H  H139  1  0.12913443  0.55227874  0.61981455  1
  H  H140  1  0.11992113  0.88522935  0.61808604  1
  H  H141  1  0.61826575  0.21856436  0.61677040  1
  H  H142  1  0.63189098  0.55446332  0.59771112  1
  H  H143  1  0.61853123  0.88674896  0.61134691  1
  H  H144  1  0.83318085  0.41223384  0.50133215  1
  H  H145  1  0.14396535  0.91534661  0.50907693  1
  H  H146  1  0.42647859  0.92203233  0.00141806  1
  H  H147  1  0.53157477  0.58149398  0.50644756  1
  H  H148  1  0.68798777  0.75244634  0.50742395  1
  H  H149  1  0.46580989  0.75448106  0.49301586  1
  H  H150  1  0.28700634  0.24766655  1.00547517  1
  H  H151  1  0.28516518  0.24924886  0.49346023  1
  H  H152  1  0.07380082  0.41778593  1.00106818  1
  H  H153  1  0.08054885  0.58484976  0.49368032  1
  H  H154  1  0.10931468  0.74840208  -0.00911008  1
  H  H155  1  0.95614496  0.91087024  -0.00915203  1
  H  H156  1  0.89079711  0.58579523  0.01641231  1
  H  H157  1  0.07515776  0.24694464  0.49898912  1
  H  H158  1  0.89597412  0.07965180  0.99170923  1
  H  H159  1  0.21597841  0.08435312  0.50538551  1
  H  H160  1  0.65348160  0.24881573  0.99555533  1
  H  H161  1  0.04653416  0.41874084  0.49737920  1
  H  H162  1  0.06813431  0.75288893  0.49667750  1
  H  H163  1  0.95532958  0.91382476  0.50979290  1
  H  H164  1  0.47270907  0.24401617  -0.00936178  1
  H  H165  1  0.40224363  0.07540958  0.50442562  1
  H  H166  1  0.35134639  0.41792032  0.00821644  1
  H  H167  1  0.66215203  0.08008559  0.49434334  1
  H  H168  1  0.32509512  0.57327316  0.99516484  1
  H  H169  1  0.05359918  0.08627884  1.00858344  1
  H  H170  1  0.45963010  0.57889174  -0.00627835  1
  H  H171  1  0.40080531  0.41759667  0.50425475  1
  H  H172  1  0.17251849  0.58376611  0.99582679  1
  H  H173  1  0.28705107  0.74952061  0.50496112  1
  H  H174  1  0.30394504  0.92294374  0.49327275  1
  H  H175  1  0.07812775  0.24919829  0.00009230  1
  H  H176  1  0.04867975  0.08354012  0.49570557  1
  H  H177  1  0.68745984  0.58392092  1.00664198  1
  H  H178  1  0.04371422  0.57899552  -0.00906004  1
  H  H179  1  0.61234972  0.24840236  0.48399050  1
  H  H180  1  0.46362973  0.75437424  1.00739619  1
  H  H181  1  0.66217658  0.91861258  0.50033104  1
  H  H182  1  0.90200014  0.75079722  0.50744159  1
  H  H183  1  0.31043061  0.58771925  0.49506491  1
  H  H184  1  0.94906404  0.75563476  1.00527500  1
  H  H185  1  0.46631399  0.25306084  0.50821801  1
  H  H186  1  0.70210181  0.57774439  0.49667673  1
  H  H187  1  0.63752207  0.75391886  1.00241882  1
  H  H188  1  0.21817050  0.41459325  0.50765692  1
  H  H189  1  0.29086912  0.74978735  -0.00629732  1
  H  H190  1  0.14209186  0.91596069  0.99079554  1
  H  H191  1  0.85494268  0.58406190  0.51363901  1
  Pb  Pb192  1  0.23935146  0.05076563  0.74552065  1
  Pb  Pb193  1  0.24149892  0.38277871  0.74246041  1
  Pb  Pb194  1  0.25222661  0.71582030  0.74642854  1
  Pb  Pb195  1  0.74310407  0.04815944  0.74678888  1
  Pb  Pb196  1  0.74467464  0.38122431  0.75244321  1
  Pb  Pb197  1  0.74767817  0.71492283  0.75524256  1
  Pb  Pb198  1  0.25909556  0.28114549  0.24837851  1
  Pb  Pb199  1  0.24771256  0.61721446  0.23749699  1
  Pb  Pb200  1  0.25531255  0.95262332  0.25083468  1
  Pb  Pb201  1  0.75561839  0.28594266  0.24911376  1
  Pb  Pb202  1  0.75502147  0.61691326  0.26265767  1
  Pb  Pb203  1  0.74944724  0.95157594  0.25031850  1
  Pb  Pb204  1  -0.01107633  0.21539223  0.74943201  1
  Pb  Pb205  1  -0.00346896  0.55009638  0.75110883  1
  Pb  Pb206  1  -0.00519135  0.88122475  0.74907760  1
  Pb  Pb207  1  0.49205604  0.21731545  0.75083529  1
  Pb  Pb208  1  0.50010548  0.54757145  0.74727201  1
  Pb  Pb209  1  0.49175327  0.88472916  0.75588996  1
  Pb  Pb210  1  0.00073339  0.11641855  0.25524425  1
  Pb  Pb211  1  0.00814858  0.45018869  0.25326259  1
  Pb  Pb212  1  -0.00201706  0.78724039  0.24646344  1
  Pb  Pb213  1  0.50801486  0.11889514  0.23739906  1
  Pb  Pb214  1  0.50533657  0.45251202  0.25169109  1
  Pb  Pb215  1  0.49659452  0.78199625  0.25029174  1
  C  C216  1  -0.00980590  0.04490103  0.63258476  1
  C  C217  1  -0.00184625  0.37819383  0.63604624  1
  C  C218  1  0.00316362  0.71194643  0.63205955  1
  C  C219  1  0.49823290  0.04322488  0.63192295  1
  C  C220  1  0.49781882  0.38043912  0.62659823  1
  C  C221  1  0.49884118  0.71302832  0.63048800  1
  C  C222  1  0.00621887  0.28928435  0.13226162  1
  C  C223  1  -0.00138409  0.62056106  0.13140808  1
  C  C224  1  0.00169020  0.95446429  0.13045724  1
  C  C225  1  0.50430049  0.28919691  0.12755895  1
  C  C226  1  0.49593175  0.62142322  0.13414333  1
  C  C227  1  0.50649533  0.95558733  0.12844410  1
  C  C228  1  -0.00299804  0.04563352  0.87047469  1
  C  C229  1  -0.01036055  0.37845928  0.87080453  1
  C  C230  1  0.00634545  0.71259946  0.86811207  1
  C  C231  1  0.49631941  0.04740459  0.87656355  1
  C  C232  1  0.49569449  0.38076544  0.87001938  1
  C  C233  1  0.50724274  0.71248354  0.87130199  1
  C  C234  1  0.00557288  0.28704873  0.36613277  1
  C  C235  1  -0.00018718  0.62155541  0.36783557  1
  C  C236  1  0.00195445  0.95346307  0.36920359  1
  C  C237  1  0.50444854  0.28917535  0.37175617  1
  C  C238  1  0.50255908  0.62104667  0.36794252  1
  C  C239  1  0.50676704  0.95605403  0.37114763  1
  C  C240  1  0.24931232  0.21208835  0.63181684  1
  C  C241  1  0.25642969  0.54703968  0.63208025  1
  C  C242  1  0.24717976  0.87992717  0.63031278  1
  C  C243  1  0.74515964  0.21130494  0.63146838  1
  C  C244  1  0.75055069  0.54121651  0.63255322  1
  C  C245  1  0.74232258  0.87766677  0.63228580  1
  C  C246  1  0.25885727  0.11987737  0.13136317  1
  C  C247  1  0.25735249  0.45191503  0.13189912  1
  C  C248  1  0.24375338  0.79028134  0.13291710  1
  C  C249  1  0.75117055  0.12012229  0.12852545  1
  C  C250  1  0.75501485  0.45281361  0.12386093  1
  C  C251  1  0.74074391  0.78930258  0.12781565  1
  C  C252  1  0.24921283  0.20922712  0.86815341  1
  C  C253  1  0.25230684  0.54220469  0.86526751  1
  C  C254  1  0.24426062  0.88019744  0.86905109  1
  C  C255  1  0.74366851  0.21073576  0.87146903  1
  C  C256  1  0.74977634  0.54241161  0.87190186  1
  C  C257  1  0.74249854  0.87774469  0.86901409  1
  C  C258  1  0.24882058  0.12186319  0.36668173  1
  C  C259  1  0.25173318  0.45419608  0.36939384  1
  C  C260  1  0.25083614  0.78925935  0.36763075  1
  C  C261  1  0.75726619  0.12199500  0.36933715  1
  C  C262  1  0.75441476  0.45237898  0.36930295  1
  C  C263  1  0.74472455  0.78954904  0.36840381  1
  C  C264  1  0.43585244  0.40585469  0.95613092  1
  C  C265  1  0.54420895  0.92697096  0.03439973  1
  C  C266  1  0.76634439  0.75958527  0.03266048  1
  C  C267  1  0.70691365  0.09219701  0.45939577  1
  C  C268  1  0.26219422  0.76059129  0.03777638  1
  C  C269  1  0.27194426  0.91038210  0.53532728  1
  C  C270  1  0.95097823  0.40692129  0.96413543  1
  C  C271  1  0.06588493  0.92917558  0.45530268  1
  C  C272  1  0.32042315  0.42829137  0.45288811  1
  C  C273  1  0.79352310  0.42353168  0.46302559  1
  C  C274  1  0.71201250  0.42356193  0.46129339  1
  C  C275  1  0.52847506  0.06663582  0.53542644  1
  C  C276  1  0.78824613  0.09147980  0.46346785  1
  C  C277  1  0.21040163  0.57271909  0.95647369  1
  C  C278  1  0.27791952  0.57572655  0.53692428  1
  C  C279  1  0.57393300  0.26029204  0.04561426  1
  C  C280  1  0.94988767  0.73965814  0.54222586  1
  C  C281  1  0.72238112  0.57223480  0.96579411  1
  C  C282  1  0.98560110  0.92597828  0.46696369  1
  C  C283  1  0.03181121  0.74124275  0.53663201  1
  C  C284  1  0.72233936  0.76310159  0.46611424  1
  C  C285  1  0.45416219  0.07677377  0.96688919  1
  C  C286  1  0.68524320  0.76275945  0.03840186  1
  C  C287  1  0.01599676  0.07215771  0.53778081  1
  C  C288  1  0.98615065  0.92468576  0.03334133  1
  C  C289  1  0.71971920  0.42336448  0.03179376  1
  C  C290  1  0.44721604  0.06652416  0.54002013  1
  C  C291  1  0.03267686  0.40688747  0.96358346  1
  C  C292  1  0.80023427  0.42401300  0.03409391  1
  C  C293  1  0.78495347  0.90447072  0.53986548  1
  C  C294  1  0.01668035  0.40703856  0.54064606  1
  C  C295  1  0.56873074  0.74216293  0.95694857  1
  C  C296  1  0.02213507  0.07463451  0.96600196  1
  C  C297  1  0.06286648  0.73915698  0.95645605  1
  C  C298  1  0.80318462  0.76560466  0.45703181  1
  C  C299  1  0.53454876  0.07659074  0.96805593  1
  C  C300  1  0.52531317  0.41498816  0.53254418  1
  C  C301  1  0.01649783  0.59132460  0.03492636  1
  C  C302  1  0.06634513  0.92995658  0.04472763  1
  C  C303  1  0.98160388  0.74219629  0.96389036  1
  C  C304  1  0.03804936  0.25810582  0.45927538  1
  C  C305  1  0.46830982  0.92733005  0.46324687  1
  C  C306  1  0.81152476  0.09288272  0.04343063  1
  C  C307  1  0.54903324  0.92827822  0.46305475  1
  C  C308  1  0.80885201  0.57278670  0.54746615  1
  C  C309  1  0.48531625  0.59152816  0.03828955  1
  C  C310  1  0.70355217  0.90634364  0.53832738  1
  C  C311  1  0.04031718  0.26024762  0.03944681  1
  N  N312  1  0.22803689  0.42491883  0.03641927  1
  N  N313  1  0.94317918  0.07231115  0.95812830  1
  N  N314  1  0.49061382  0.74581233  0.96498818  1
  N  N315  1  0.26166034  0.24199165  0.53758204  1
  N  N316  1  0.56527623  0.74071723  0.54713102  1
  N  N317  1  0.56578453  0.26560629  0.45645843  1
  N  N318  1  0.56310747  0.59479038  0.04960117  1
  N  N319  1  0.26343510  0.75711744  0.46102237  1
  N  N320  1  0.80148991  0.57079716  0.96197998  1
  N  N321  1  0.93700670  0.06981677  0.54183689  1
  N  N322  1  0.28594945  0.09129166  0.03604175  1
  N  N323  1  0.29020509  0.57362535  0.95612613  1
  N  N324  1  0.43369320  0.59371850  0.45026548  1
  N  N325  1  0.51204297  0.40967354  0.96785410  1
  N  N326  1  0.48866780  0.74514638  0.53694783  1
  N  N327  1  0.49685100  0.25393092  0.03380854  1
  N  N328  1  0.23836302  0.09166137  0.46088149  1
  N  N329  1  0.18473877  0.23805576  0.54697697  1
  N  N330  1  0.69334176  0.23449441  0.54100976  1
  N  N331  1  0.19289271  0.90739836  0.54279395  1
  N  N332  1  0.77434382  0.24535658  0.96386495  1
  N  N333  1  0.76920658  0.23721134  0.53495522  1
  N  N334  1  0.93847833  0.59438909  0.04625222  1
  N  N335  1  0.78884434  0.90462764  0.96041989  1
  N  N336  1  0.24305364  0.42382496  0.46476665  1
  N  N337  1  0.26807603  0.90942247  0.96472429  1
  N  N338  1  0.19892479  0.57361088  0.54313809  1
  N  N339  1  0.46547066  0.92847729  0.03732843  1
  N  N340  1  0.95895517  0.25812143  0.45781544  1
  N  N341  1  0.72989718  0.57417231  0.53921331  1
  N  N342  1  0.18587779  0.23986053  0.95192594  1
  N  N343  1  0.93825201  0.40538702  0.54863653  1
  N  N344  1  0.20979572  0.09228495  0.04100904  1
  N  N345  1  0.26293455  0.24168620  0.96139888  1
  N  N346  1  0.44698744  0.41042871  0.53875647  1
  N  N347  1  0.18650024  0.76001842  0.45138885  1
  N  N348  1  0.96276176  0.59417415  0.46186486  1
  N  N349  1  0.04105397  0.59396588  0.45805042  1
  N  N350  1  0.96127297  0.26144654  0.03973917  1
  N  N351  1  0.18398122  0.76088745  0.04695255  1
  N  N352  1  0.31485556  0.09458366  0.45005874  1
  N  N353  1  0.30593856  0.42607681  0.04341222  1
  N  N354  1  0.51009174  0.58976333  0.46193978  1
  N  N355  1  0.19075708  0.90707665  0.95590366  1
  N  N356  1  0.48907960  0.25172677  0.46342049  1
  N  N357  1  0.73558228  0.08876246  0.03137476  1
  N  N358  1  0.71298075  0.90698213  0.96369899  1
  N  N359  1  0.69684577  0.24143794  0.95889764  1
  N  N360  1  0.05014571  0.05698023  0.59302724  1
  N  N361  1  0.05484233  0.39068349  0.59389963  1
  N  N362  1  0.06357029  0.72410192  0.59292230  1
  N  N363  1  0.55896089  0.05267606  0.59100733  1
  N  N364  1  0.55711609  0.39639823  0.58662512  1
  N  N365  1  0.57092830  0.72255888  0.60580310  1
  N  N366  1  0.45311629  0.27429558  0.08353512  1
  N  N367  1  0.44247803  0.60783103  0.08968654  1
  N  N368  1  0.44112111  0.94744769  0.09475684  1
  N  N369  1  0.94185216  0.27976243  0.09748564  1
  N  N370  1  0.92775593  0.61253896  0.10540866  1
  N  N371  1  0.94673058  0.94047185  0.08800967  1
  N  N372  1  0.43001826  0.05922606  0.91093990  1
  N  N373  1  0.42312610  0.38866890  0.89614435  1
  N  N374  1  0.45172172  0.72487945  0.91305000  1
  N  N375  1  0.92809728  0.05390103  0.89952593  1
  N  N376  1  0.92538911  0.38993786  0.90805155  1
  N  N377  1  0.94763107  0.72532093  0.90856504  1
  N  N378  1  0.06843932  0.27548206  0.40316928  1
  N  N379  1  0.06473212  0.61106559  0.40135921  1
  N  N380  1  0.07512798  0.94544405  0.39568163  1
  N  N381  1  0.57579848  0.27976206  0.39687452  1
  N  N382  1  0.55357729  0.60882761  0.41314036  1
  N  N383  1  0.57231751  0.94567251  0.40624860  1
  N  N384  1  0.30250219  0.22348240  0.58786127  1
  N  N385  1  0.31453315  0.55961622  0.59107804  1
  N  N386  1  0.30614337  0.89383338  0.58966087  1
  N  N387  1  0.80278385  0.22260617  0.59058243  1
  N  N388  1  0.82166808  0.55394727  0.60587426  1
  N  N389  1  0.80819092  0.88740975  0.59645816  1
  N  N390  1  0.19164356  0.10987267  0.10013829  1
  N  N391  1  0.19852251  0.44048311  0.09185686  1
  N  N392  1  0.17382133  0.77981435  0.10599166  1
  N  N393  1  0.69791585  0.10611917  0.08565138  1
  N  N394  1  0.69156302  0.44085739  0.08656068  1
  N  N395  1  0.67082031  0.78094054  0.09894628  1
  N  N396  1  0.17819821  0.22173091  0.89311436  1
  N  N397  1  0.18673835  0.55514443  0.89965145  1
  N  N398  1  0.17531729  0.88889432  0.89801318  1
  N  N399  1  0.67673229  0.21929465  0.90320482  1
  N  N400  1  0.68932892  0.55541958  0.91069408  1
  N  N401  1  0.68251581  0.89039233  0.90726799  1
  N  N402  1  0.32089842  0.11158056  0.39101513  1
  N  N403  1  0.32598915  0.44571922  0.39321837  1
  N  N404  1  0.30409066  0.77769240  0.41147177  1
  N  N405  1  0.81866552  0.10926768  0.40918058  1
  N  N406  1  0.81881578  0.44173507  0.40455103  1
  N  N407  1  0.81596965  0.78138687  0.39792361  1
  N  N408  1  0.45022273  0.27610338  0.41468100  1
  N  N409  1  0.42975696  0.61126015  0.39126565  1
  N  N410  1  0.44257458  0.94403813  0.40713059  1
  N  N411  1  0.94053248  0.27609044  0.39967647  1
  N  N412  1  0.93797969  0.61052669  0.40518294  1
  N  N413  1  0.94667209  0.94156406  0.41204716  1
  N  N414  1  0.05603433  0.05837246  0.91155915  1
  N  N415  1  0.05549088  0.38907691  0.90433202  1
  N  N416  1  0.07696764  0.72107366  0.89694165  1
  N  N417  1  0.56097126  0.05896595  0.91277041  1
  N  N418  1  0.54940378  0.39352335  0.91300514  1
  N  N419  1  0.57940878  0.72278408  0.89830479  1
  N  N420  1  0.06972071  0.27675027  0.09619554  1
  N  N421  1  0.05442130  0.60748473  0.08783797  1
  N  N422  1  0.07505100  0.94764604  0.10399425  1
  N  N423  1  0.57883085  0.28078850  0.10427200  1
  N  N424  1  0.56767909  0.61338183  0.10922452  1
  N  N425  1  0.57003729  0.94303222  0.09095967  1
  N  N426  1  0.42965011  0.05201048  0.60111221  1
  N  N427  1  0.42949995  0.38866608  0.59678765  1
  N  N428  1  0.44659487  0.72564424  0.58623753  1
  N  N429  1  0.92281024  0.05306310  0.60088296  1
  N  N430  1  0.92837712  0.38745160  0.60821160  1
  N  N431  1  0.93414439  0.72155636  0.60188184  1
  N  N432  1  0.19657355  0.11092339  0.41150411  1
  N  N433  1  0.19999191  0.44168969  0.41375670  1
  N  N434  1  0.17945794  0.77816615  0.39283542  1
  N  N435  1  0.68897753  0.11126028  0.39967159  1
  N  N436  1  0.68881568  0.44095381  0.40476123  1
  N  N437  1  0.68692013  0.77823639  0.40945657  1
  N  N438  1  0.30285432  0.22054678  0.91174272  1
  N  N439  1  0.31590814  0.55127427  0.90075994  1
  N  N440  1  0.30084984  0.89297230  0.91049925  1
  N  N441  1  0.80330357  0.22663422  0.90933001  1
  N  N442  1  0.81690076  0.55185686  0.90316770  1
  N  N443  1  0.80876191  0.88608906  0.90187040  1
  N  N444  1  0.31774269  0.10826705  0.09182248  1
  N  N445  1  0.32483990  0.44262744  0.10112452  1
  N  N446  1  0.30029950  0.77801148  0.09041743  1
  N  N447  1  0.82391304  0.11162264  0.10285061  1
  N  N448  1  0.82235696  0.44179408  0.09046273  1
  N  N449  1  0.79953328  0.77572944  0.08656270  1
  N  N450  1  0.17776661  0.22175072  0.60635973  1
  N  N451  1  0.18766935  0.55604701  0.60296007  1
  N  N452  1  0.17835331  0.88797124  0.60104550  1
  N  N453  1  0.67693700  0.21858640  0.60095488  1
  N  N454  1  0.69407466  0.55122341  0.59055230  1
  N  N455  1  0.67817364  0.88930453  0.59730157  1
  Cl  Cl456  1  0.23359358  0.06180802  0.60071175  1
  Cl  Cl457  1  0.24065642  0.39166409  0.60187490  1
  Cl  Cl458  1  0.26241576  0.72946124  0.60144611  1
  Cl  Cl459  1  0.73921666  0.05269315  0.61210149  1
  Cl  Cl460  1  0.74079779  0.38992676  0.61878525  1
  Cl  Cl461  1  0.75173581  0.71450709  0.62314832  1
  Cl  Cl462  1  0.26866568  0.26987560  0.10316825  1
  Cl  Cl463  1  0.25197095  0.60491388  0.09951742  1
  Cl  Cl464  1  0.25879152  0.94344028  0.12109881  1
  Cl  Cl465  1  0.75796959  0.28390857  0.11776162  1
  Cl  Cl466  1  0.74943483  0.61672020  0.13034272  1
  Cl  Cl467  1  0.75731119  0.94560596  0.11951792  1
  Cl  Cl468  1  0.24110444  0.05358258  0.87633667  1
  Cl  Cl469  1  0.24201432  0.38613000  0.87296107  1
  Cl  Cl470  1  0.26866417  0.72376999  0.88357623  1
  Cl  Cl471  1  0.74603942  0.05304221  0.87638678  1
  Cl  Cl472  1  0.73692732  0.39030466  0.88647427  1
  Cl  Cl473  1  0.76334640  0.71847383  0.88712626  1
  Cl  Cl474  1  0.26608629  0.27254365  0.39807965  1
  Cl  Cl475  1  0.24565411  0.61430178  0.37200063  1
  Cl  Cl476  1  0.25883074  0.94618121  0.38636302  1
  Cl  Cl477  1  0.75594284  0.28122928  0.38052791  1
  Cl  Cl478  1  0.74010668  0.60410501  0.40134376  1
  Cl  Cl479  1  0.75822894  0.94676586  0.38557461  1
  Cl  Cl480  1  -0.00936889  0.21940775  0.61654732  1
  Cl  Cl481  1  0.00521162  0.55550356  0.61902830  1
  Cl  Cl482  1  -0.00561744  0.88717634  0.61735788  1
  Cl  Cl483  1  0.48640042  0.23358692  0.60619761  1
  Cl  Cl484  1  0.50880989  0.56017398  0.60171328  1
  Cl  Cl485  1  0.49025699  0.88507981  0.62415299  1
  Cl  Cl486  1  0.00842709  0.10996558  0.12006648  1
  Cl  Cl487  1  0.01466642  0.44756388  0.11904761  1
  Cl  Cl488  1  -0.01616980  0.77747335  0.11409958  1
  Cl  Cl489  1  0.50748758  0.10930935  0.09990754  1
  Cl  Cl490  1  0.50581562  0.44724907  0.12306497  1
  Cl  Cl491  1  0.48021404  0.77687057  0.10546112  1
  Cl  Cl492  1  -0.00967668  0.22064451  0.88350295  1
  Cl  Cl493  1  0.00317607  0.55419964  0.88702227  1
  Cl  Cl494  1  -0.00770622  0.88920194  0.88294044  1
  Cl  Cl495  1  0.48729413  0.22588149  0.89500071  1
  Cl  Cl496  1  0.50011195  0.55974928  0.88285347  1
  Cl  Cl497  1  0.48781522  0.89364006  0.89715621  1
  Cl  Cl498  1  0.01274935  0.10758596  0.39062094  1
  Cl  Cl499  1  0.01581884  0.44381305  0.39008099  1
  Cl  Cl500  1  -0.00182041  0.77918924  0.37762372  1
  Cl  Cl501  1  0.50468066  0.11947550  0.36837413  1
  Cl  Cl502  1  0.50621068  0.44406384  0.38714435  1
  Cl  Cl503  1  0.48822958  0.77465755  0.39786146  1
  Cl  Cl504  1  0.36140684  0.14563018  0.74613014  1
  Cl  Cl505  1  0.36520610  0.47702708  0.74550821  1
  Cl  Cl506  1  0.35360535  0.81902688  0.75048636  1
  Cl  Cl507  1  0.85125753  0.15099588  0.75251922  1
  Cl  Cl508  1  0.86208554  0.48022262  0.75018883  1
  Cl  Cl509  1  0.86001048  0.81409090  0.74414497  1
  Cl  Cl510  1  0.14674047  0.18808826  0.24701367  1
  Cl  Cl511  1  0.14759074  0.51643546  0.24746148  1
  Cl  Cl512  1  0.13678051  0.85489588  0.25142981  1
  Cl  Cl513  1  0.64451837  0.18465226  0.24654523  1
  Cl  Cl514  1  0.64038869  0.51933409  0.25001571  1
  Cl  Cl515  1  0.63622001  0.85238645  0.24576136  1
  Cl  Cl516  1  0.13992263  0.14855916  0.74769233  1
  Cl  Cl517  1  0.14588195  0.48284406  0.74389212  1
  Cl  Cl518  1  0.13297271  0.81194563  0.74969814  1
  Cl  Cl519  1  0.62892113  0.14872235  0.75055969  1
  Cl  Cl520  1  0.63970433  0.48571043  0.75034382  1
  Cl  Cl521  1  0.63868973  0.81216134  0.75291292  1
  Cl  Cl522  1  0.36316410  0.19031643  0.25740240  1
  Cl  Cl523  1  0.36715743  0.52152084  0.25590744  1
  Cl  Cl524  1  0.35956384  0.84843530  0.24815918  1
  Cl  Cl525  1  0.86457940  0.18331631  0.24736364  1
  Cl  Cl526  1  0.85890572  0.52010876  0.25129138  1
  Cl  Cl527  1  0.85733034  0.84854399  0.25272004  1
  Cl  Cl528  1  0.10888937  0.31212450  0.75188890  1
  Cl  Cl529  1  0.11788165  0.64556266  0.75643298  1
  Cl  Cl530  1  0.10538859  0.98232302  0.75021949  1
  Cl  Cl531  1  0.60272521  0.31733462  0.74868246  1
  Cl  Cl532  1  0.61006264  0.64951427  0.74728581  1
  Cl  Cl533  1  0.60723598  0.98079065  0.75124513  1
  Cl  Cl534  1  0.38971662  0.02206454  0.25013977  1
  Cl  Cl535  1  0.39287679  0.35222716  0.25124239  1
  Cl  Cl536  1  0.39180375  0.68703170  0.25662249  1
  Cl  Cl537  1  0.89777298  0.01892128  0.25052296  1
  Cl  Cl538  1  0.89220706  0.35253671  0.25270851  1
  Cl  Cl539  1  0.89115638  0.68364168  0.25338057  1
  Cl  Cl540  1  0.38409016  0.31278302  0.74689719  1
  Cl  Cl541  1  0.39046329  0.64960899  0.75129173  1
  Cl  Cl542  1  0.38854528  0.98125968  0.74924140  1
  Cl  Cl543  1  0.88817835  0.31664786  0.74899992  1
  Cl  Cl544  1  0.89719971  0.64775642  0.74709897  1
  Cl  Cl545  1  0.88569806  0.98365771  0.74949779  1
  Cl  Cl546  1  0.11943266  0.01990036  0.24803893  1
  Cl  Cl547  1  0.11190720  0.35240668  0.25045628  1
  Cl  Cl548  1  0.11160299  0.68633906  0.24391706  1
  Cl  Cl549  1  0.60858936  0.01654639  0.24928291  1
  Cl  Cl550  1  0.61510279  0.35058174  0.25217846  1
  Cl  Cl551  1  0.60866311  0.68682839  0.24641230  1
