# generated using pymatgen
data_H8PbC4(N3Cl2)2
_symmetry_space_group_name_H-M   'P 1'
_cell_length_a   16.62362244
_cell_length_b   22.51458476
_cell_length_c   21.59507859
_cell_angle_alpha   90.00127005
_cell_angle_beta   89.98739623
_cell_angle_gamma   89.99733157
_symmetry_Int_Tables_number   1
_chemical_formula_structural   H8PbC4(N3Cl2)2
_chemical_formula_sum   'H192 Pb24 C96 N144 Cl96'
_cell_volume   8082.47529546
_cell_formula_units_Z   24
loop_
 _symmetry_equiv_pos_site_id
 _symmetry_equiv_pos_as_xyz
  1  'x, y, z'
loop_
 _atom_site_type_symbol
 _atom_site_label
 _atom_site_symmetry_multiplicity
 _atom_site_fract_x
 _atom_site_fract_y
 _atom_site_fract_z
 _atom_site_occupancy
  H  H0  1  -0.00389187  0.03027464  0.68114890  1
  H  H1  1  0.00052100  0.36310362  0.67504350  1
  H  H2  1  0.00822333  0.69358175  0.67762303  1
  H  H3  1  0.49436165  0.03116632  0.67988705  1
  H  H4  1  0.49794300  0.36047681  0.67601526  1
  H  H5  1  0.49487360  0.69513232  0.68084869  1
  H  H6  1  0.00013580  0.30063838  0.17927899  1
  H  H7  1  -0.00358623  0.63816598  0.17986269  1
  H  H8  1  -0.00436001  0.97014226  0.17747843  1
  H  H9  1  0.49881309  0.30340931  0.18055712  1
  H  H10  1  0.49387113  0.64137812  0.17702102  1
  H  H11  1  0.50138833  0.97087829  0.17985596  1
  H  H12  1  -0.01229172  0.03031521  0.82297770  1
  H  H13  1  -0.00625506  0.36199938  0.82186927  1
  H  H14  1  0.00365323  0.69810504  0.82372364  1
  H  H15  1  0.51217373  0.03110795  0.81861769  1
  H  H16  1  0.49950827  0.36336148  0.82007549  1
  H  H17  1  0.50644622  0.69801125  0.82196072  1
  H  H18  1  0.00787630  0.30620553  0.32590768  1
  H  H19  1  0.00825407  0.64045331  0.32248402  1
  H  H20  1  0.00455570  0.97116846  0.31977602  1
  H  H21  1  0.48743211  0.30428800  0.31798190  1
  H  H22  1  0.49324038  0.63728967  0.32563084  1
  H  H23  1  0.49484132  0.96997948  0.31903564  1
  H  H24  1  0.24484600  0.19909634  0.67928992  1
  H  H25  1  0.23784181  0.52806169  0.67721105  1
  H  H26  1  0.24919086  0.86516305  0.68121956  1
  H  H27  1  0.76139039  0.19699700  0.67591285  1
  H  H28  1  0.75758272  0.52887902  0.67823029  1
  H  H29  1  0.75215156  0.86066369  0.67707847  1
  H  H30  1  0.23910729  0.13786314  0.17772501  1
  H  H31  1  0.25246026  0.46620315  0.17820364  1
  H  H32  1  0.25241522  0.80617867  0.17604682  1
  H  H33  1  0.74907761  0.14788025  0.17545166  1
  H  H34  1  0.75632918  0.46725495  0.17905981  1
  H  H35  1  0.74299697  0.80325382  0.17727921  1
  H  H36  1  0.25521442  0.19337875  0.82330507  1
  H  H37  1  0.25669274  0.53261552  0.81698211  1
  H  H38  1  0.23242852  0.86593551  0.82450462  1
  H  H39  1  0.75017859  0.19859363  0.81833969  1
  H  H40  1  0.75822638  0.53491212  0.81867145  1
  H  H41  1  0.75603467  0.86241523  0.82143434  1
  H  H42  1  0.25764336  0.13853096  0.32048059  1
  H  H43  1  0.26085773  0.47132199  0.32423215  1
  H  H44  1  0.25859312  0.80206862  0.31981281  1
  H  H45  1  0.75050039  0.14080735  0.31816509  1
  H  H46  1  0.73440094  0.46997275  0.32464871  1
  H  H47  1  0.74298390  0.80381213  0.32233445  1
  H  H48  1  0.13165842  0.04850404  0.62205196  1
  H  H49  1  0.12617189  0.38624458  0.60832095  1
  H  H50  1  0.12902854  0.72041517  0.60544336  1
  H  H51  1  0.63553385  0.04971643  0.63058104  1
  H  H52  1  0.62615526  0.38716414  0.60992293  1
  H  H53  1  0.62895140  0.71734432  0.61816931  1
  H  H54  1  0.37581528  0.27923287  0.10817311  1
  H  H55  1  0.38543338  0.60882076  0.09569896  1
  H  H56  1  0.37988954  0.94639600  0.10733126  1
  H  H57  1  0.87804381  0.27816645  0.10830934  1
  H  H58  1  0.88276849  0.60959334  0.10106647  1
  H  H59  1  0.88479057  0.93994335  0.09644420  1
  H  H60  1  0.37438361  0.04809963  0.87357947  1
  H  H61  1  0.38640257  0.38675077  0.89942062  1
  H  H62  1  0.36723560  0.71965476  0.87552242  1
  H  H63  1  0.88319341  0.06089670  0.90856366  1
  H  H64  1  0.88891056  0.39148654  0.90689320  1
  H  H65  1  0.86776704  0.72041929  0.88203797  1
  H  H66  1  0.13031311  0.28057093  0.39753659  1
  H  H67  1  0.12759078  0.60949761  0.39693131  1
  H  H68  1  0.12888176  0.94701148  0.38963066  1
  H  H69  1  0.62694826  0.28356841  0.37409686  1
  H  H70  1  0.62954579  0.61540629  0.38300323  1
  H  H71  1  0.62788617  0.94738424  0.38184298  1
  H  H72  1  0.36244933  0.22425796  0.60573378  1
  H  H73  1  0.36872853  0.54879881  0.61587511  1
  H  H74  1  0.37119811  0.88806564  0.60887595  1
  H  H75  1  0.87065033  0.22396325  0.59549741  1
  H  H76  1  0.86571892  0.55543821  0.59792974  1
  H  H77  1  0.87277193  0.88768329  0.60578106  1
  H  H78  1  0.12494883  0.10887318  0.10003244  1
  H  H79  1  0.11770269  0.44402026  0.11886252  1
  H  H80  1  0.13925301  0.77967403  0.09582683  1
  H  H81  1  0.62370407  0.11399761  0.11109874  1
  H  H82  1  0.61614989  0.44992188  0.12352003  1
  H  H83  1  0.63624336  0.77272950  0.09435594  1
  H  H84  1  0.12237046  0.21623905  0.88409503  1
  H  H85  1  0.11845873  0.55279982  0.87500433  1
  H  H86  1  0.12487030  0.88952790  0.90608190  1
  H  H87  1  0.62438820  0.22159007  0.88899035  1
  H  H88  1  0.61766816  0.55079603  0.87073971  1
  H  H89  1  0.61751840  0.88342743  0.87755162  1
  H  H90  1  0.36286815  0.10852889  0.40484846  1
  H  H91  1  0.36164147  0.44226117  0.41239686  1
  H  H92  1  0.36756364  0.77625160  0.40084613  1
  H  H93  1  0.86910661  0.11468871  0.39450060  1
  H  H94  1  0.87711672  0.44925953  0.37439493  1
  H  H95  1  0.87464285  0.78191862  0.38678422  1
  H  H96  1  0.38054602  0.27947760  0.40176600  1
  H  H97  1  0.38315789  0.60648135  0.40370492  1
  H  H98  1  0.37978103  0.94408772  0.39692680  1
  H  H99  1  0.88120542  0.28055463  0.39419264  1
  H  H100  1  0.87940806  0.61316605  0.38813446  1
  H  H101  1  0.88001797  0.94612876  0.39091789  1
  H  H102  1  0.12768493  0.04842389  0.87727450  1
  H  H103  1  0.13331606  0.38389655  0.87610714  1
  H  H104  1  0.11465025  0.72481086  0.90417881  1
  H  H105  1  0.62100213  0.05780546  0.89977363  1
  H  H106  1  0.63437746  0.38552995  0.88034404  1
  H  H107  1  0.61270854  0.72510049  0.90632112  1
  H  H108  1  0.12754929  0.27984334  0.11246646  1
  H  H109  1  0.13051056  0.61427984  0.12191044  1
  H  H110  1  0.13169178  0.95022400  0.11682847  1
  H  H111  1  0.62519025  0.27913845  0.11176513  1
  H  H112  1  0.63145554  0.61905194  0.12355739  1
  H  H113  1  0.62885222  0.94337907  0.11246484  1
  H  H114  1  0.39083198  0.05661949  0.59518042  1
  H  H115  1  0.37711228  0.39003769  0.60529864  1
  H  H116  1  0.38068220  0.72154407  0.60272777  1
  H  H117  1  0.88408318  0.05594290  0.60408374  1
  H  H118  1  0.87779941  0.38618348  0.60558214  1
  H  H119  1  0.88030252  0.71944067  0.61107969  1
  H  H120  1  0.11762871  0.12017317  0.37311026  1
  H  H121  1  0.11884529  0.44894357  0.37514111  1
  H  H122  1  0.12070403  0.78550316  0.37483325  1
  H  H123  1  0.62094825  0.11568224  0.38520994  1
  H  H124  1  0.63500665  0.44116654  0.41323879  1
  H  H125  1  0.62673695  0.77494120  0.39870886  1
  H  H126  1  0.36982607  0.22332174  0.90090768  1
  H  H127  1  0.36514087  0.55819102  0.89936825  1
  H  H128  1  0.36986611  0.88251201  0.87821208  1
  H  H129  1  0.87346230  0.22238268  0.88867376  1
  H  H130  1  0.86295477  0.55877892  0.90281799  1
  H  H131  1  0.86470126  0.88864747  0.90339670  1
  H  H132  1  0.37254569  0.11506076  0.11637675  1
  H  H133  1  0.36387919  0.44261833  0.09738867  1
  H  H134  1  0.38656108  0.78198544  0.11472667  1
  H  H135  1  0.87201319  0.11227596  0.10945217  1
  H  H136  1  0.86057267  0.43958621  0.09244967  1
  H  H137  1  0.88126764  0.78341037  0.12318819  1
  H  H138  1  0.11322283  0.21889135  0.61547620  1
  H  H139  1  0.12012854  0.55469036  0.60274186  1
  H  H140  1  0.12207254  0.88575106  0.61556980  1
  H  H141  1  0.62478205  0.21779032  0.62231948  1
  H  H142  1  0.61871126  0.54714789  0.62358526  1
  H  H143  1  0.62336605  0.88718544  0.61124722  1
  H  H144  1  0.78933222  0.58517076  1.00832173  1
  H  H145  1  0.79622669  0.91661106  1.00844857  1
  H  H146  1  0.57843920  0.24793416  0.00329543  1
  H  H147  1  0.94693879  0.08626099  0.49536830  1
  H  H148  1  0.28841957  0.08310436  0.50398837  1
  H  H149  1  0.30603120  0.25493938  0.49566947  1
  H  H150  1  0.14705203  0.42266133  0.00887525  1
  H  H151  1  0.15931735  0.91541427  0.50285872  1
  H  H152  1  0.10236334  0.58387067  0.00923040  1
  H  H153  1  0.94806623  0.58801583  -0.00225615  1
  H  H154  1  0.96303323  0.08327841  1.00745648  1
  H  H155  1  0.13189734  0.42004853  0.48444965  1
  H  H156  1  0.13891704  0.75473992  0.48847667  1
  H  H157  1  0.42987010  0.91456293  0.00037198  1
  H  H158  1  0.09013074  0.24926520  0.00145536  1
  H  H159  1  0.82160366  0.92144486  0.49785702  1
  H  H160  1  0.86458194  0.41959050  0.48305704  1
  H  H161  1  0.62273686  0.07996514  0.51642404  1
  H  H162  1  0.79885929  0.58418415  0.49156112  1
  H  H163  1  0.64574313  0.25006764  0.50761590  1
  H  H164  1  0.61301154  0.58529324  0.00920763  1
  H  H165  1  0.64187523  0.90970299  0.98636308  1
  H  H166  1  0.29355770  0.40268285  0.00173104  1
  H  H167  1  0.45365214  0.25156969  0.50538353  1
  H  H168  1  0.92356598  0.24919468  -0.00161410  1
  H  H169  1  0.29988826  0.74879728  0.50726754  1
  H  H170  1  0.29442180  0.58610789  1.00352096  1
  H  H171  1  0.81314566  0.09374651  0.00388967  1
  H  H172  1  0.45698918  0.58572008  -0.00503034  1
  H  H173  1  0.66389571  0.91539970  0.50572276  1
  H  H174  1  0.96686567  0.41789114  1.00564114  1
  H  H175  1  0.45001812  0.41536060  1.00656029  1
  H  H176  1  0.78266503  0.41391451  -0.00612578  1
  H  H177  1  0.33616227  0.58093841  0.50265632  1
  H  H178  1  0.13316772  0.08594218  0.48659170  1
  H  H179  1  0.55391691  0.08111212  1.00709635  1
  H  H180  1  0.44069472  0.91366427  0.50196089  1
  H  H181  1  0.04416059  0.76597109  0.99778713  1
  H  H182  1  0.44510683  0.75195473  0.49717705  1
  H  H183  1  0.89421725  0.74481026  0.99207697  1
  H  H184  1  0.35462931  0.75545807  0.00579316  1
  H  H185  1  0.83381189  0.75030112  0.49239836  1
  H  H186  1  0.95676041  0.91453587  -0.00476132  1
  H  H187  1  0.60418867  0.41508970  0.98796148  1
  H  H188  1  0.39425020  0.07758920  0.98749937  1
  H  H189  1  0.60566634  0.58191486  0.49159829  1
  H  H190  1  0.68424801  0.10175799  0.00389474  1
  H  H191  1  0.46280339  0.08508387  0.49191394  1
  Pb  Pb192  1  0.25233874  0.04594230  0.73661500  1
  Pb  Pb193  1  0.25092646  0.37920822  0.75506017  1
  Pb  Pb194  1  0.24680173  0.71428921  0.75029167  1
  Pb  Pb195  1  0.75003967  0.04859286  0.76271556  1
  Pb  Pb196  1  0.75025794  0.37949450  0.75576612  1
  Pb  Pb197  1  0.74857342  0.71259978  0.75068280  1
  Pb  Pb198  1  0.25119182  0.28612751  0.25303798  1
  Pb  Pb199  1  0.25669091  0.61581619  0.25043084  1
  Pb  Pb200  1  0.25288694  0.95415666  0.25391353  1
  Pb  Pb201  1  0.75299064  0.28755844  0.24879893  1
  Pb  Pb202  1  0.75294972  0.62028198  0.24804435  1
  Pb  Pb203  1  0.75549248  0.94922107  0.24945284  1
  Pb  Pb204  1  -0.00140700  0.21316860  0.74971562  1
  Pb  Pb205  1  -0.00456634  0.54711156  0.75313553  1
  Pb  Pb206  1  -0.00264276  0.88092618  0.75703588  1
  Pb  Pb207  1  0.49715608  0.21364697  0.75108611  1
  Pb  Pb208  1  0.49396198  0.54705518  0.75603372  1
  Pb  Pb209  1  0.49896074  0.87908548  0.74565269  1
  Pb  Pb210  1  -0.00115950  0.12005107  0.24581569  1
  Pb  Pb211  1  -0.00268743  0.45334064  0.23857023  1
  Pb  Pb212  1  0.00734729  0.78478441  0.24133650  1
  Pb  Pb213  1  0.50097274  0.11973254  0.25093442  1
  Pb  Pb214  1  0.50266625  0.45164456  0.25730338  1
  Pb  Pb215  1  0.50142415  0.78555040  0.25413617  1
  C  C216  1  0.00376974  0.04482925  0.63364477  1
  C  C217  1  0.00146167  0.37836175  0.62762084  1
  C  C218  1  0.00565428  0.71050234  0.63086850  1
  C  C219  1  0.50761596  0.04566780  0.63299736  1
  C  C220  1  0.50061163  0.37853512  0.62972641  1
  C  C221  1  0.50175837  0.71086541  0.63367344  1
  C  C222  1  0.00203636  0.28545679  0.13151067  1
  C  C223  1  0.00308586  0.62183978  0.13275886  1
  C  C224  1  0.00360185  0.95441101  0.13040507  1
  C  C225  1  0.49997620  0.28716704  0.13331524  1
  C  C226  1  0.50356465  0.62448774  0.13040147  1
  C  C227  1  0.50368966  0.95377416  0.13285304  1
  C  C228  1  -0.00113264  0.04538695  0.86985951  1
  C  C229  1  0.00534266  0.37836646  0.86828741  1
  C  C230  1  -0.00487635  0.71431225  0.87081258  1
  C  C231  1  0.50225582  0.04549639  0.86604007  1
  C  C232  1  0.50755616  0.37888940  0.86733465  1
  C  C233  1  0.49546901  0.71383467  0.86848121  1
  C  C234  1  0.00632575  0.28964153  0.37286256  1
  C  C235  1  0.00525554  0.62225198  0.36896256  1
  C  C236  1  0.00415172  0.95533445  0.36699203  1
  C  C237  1  0.49868186  0.28954153  0.36505693  1
  C  C238  1  0.50255508  0.62045997  0.37207491  1
  C  C239  1  0.50113179  0.95405829  0.36624580  1
  C  C240  1  0.24037617  0.21367310  0.63161464  1
  C  C241  1  0.24288446  0.54384900  0.62999093  1
  C  C242  1  0.24697439  0.87993751  0.63348896  1
  C  C243  1  0.75130730  0.21259288  0.62907211  1
  C  C244  1  0.74761023  0.54357553  0.63104721  1
  C  C245  1  0.74887398  0.87795964  0.63010193  1
  C  C246  1  0.24579431  0.12143520  0.13102395  1
  C  C247  1  0.24403016  0.45179340  0.13053818  1
  C  C248  1  0.25988737  0.79001415  0.12905206  1
  C  C249  1  0.74826480  0.12657243  0.13033137  1
  C  C250  1  0.74443253  0.45279170  0.13190022  1
  C  C251  1  0.75349783  0.78665787  0.13100187  1
  C  C252  1  0.24940232  0.21055987  0.86980641  1
  C  C253  1  0.24624859  0.54680871  0.86431616  1
  C  C254  1  0.24274062  0.87945537  0.87190908  1
  C  C255  1  0.74903533  0.21410906  0.86557960  1
  C  C256  1  0.74606152  0.54770839  0.86619810  1
  C  C257  1  0.74538063  0.87804237  0.86837541  1
  C  C258  1  0.24611506  0.12319739  0.36748362  1
  C  C259  1  0.24685761  0.45502387  0.37035567  1
  C  C260  1  0.24850210  0.78757220  0.36722312  1
  C  C261  1  0.74667500  0.12456576  0.36542806  1
  C  C262  1  0.74919307  0.45420389  0.37076137  1
  C  C263  1  0.74841644  0.78732722  0.36929934  1
  C  C264  1  0.21050748  0.57359968  0.53589486  1
  C  C265  1  0.49211405  0.07312072  0.53528275  1
  C  C266  1  0.68070186  0.57047672  0.95240874  1
  C  C267  1  0.77409876  0.24209639  0.53333944  1
  C  C268  1  0.76692326  0.57194277  0.53374354  1
  C  C269  1  0.04640786  0.25937261  0.03851754  1
  C  C270  1  0.68633728  0.56813898  0.54415225  1
  C  C271  1  0.52349224  0.07133670  0.96365186  1
  C  C272  1  0.69330913  0.24034465  0.54103943  1
  C  C273  1  0.56430324  0.59490454  0.04490540  1
  C  C274  1  0.78491752  0.90932583  0.53751927  1
  C  C275  1  0.28461225  0.90620161  0.53939229  1
  C  C276  1  0.26479260  0.57406680  0.96023450  1
  C  C277  1  0.47805216  0.58674746  0.46720840  1
  C  C278  1  0.53858626  0.25918084  0.04148515  1
  C  C279  1  0.27104637  0.24220621  0.53615194  1
  C  C280  1  0.43782316  0.74164611  0.95464496  1
  C  C281  1  0.26956519  0.76062653  0.46441351  1
  C  C282  1  0.19980460  0.24051496  0.95841612  1
  C  C283  1  0.29197604  0.57149123  0.53883903  1
  C  C284  1  0.18829497  0.76345994  0.45522272  1
  C  C285  1  0.96407065  0.25902536  0.03698812  1
  C  C286  1  0.76075197  0.57347224  0.96459062  1
  C  C287  1  0.76685595  0.90617780  0.96473884  1
  C  C288  1  0.18962952  0.23973280  0.54108501  1
  C  C289  1  0.22230640  0.90614770  0.96802777  1
  C  C290  1  0.97959935  0.07316368  0.53688219  1
  C  C291  1  0.47521096  0.92533423  0.46069104  1
  C  C292  1  0.47755273  0.73978022  0.53917837  1
  C  C293  1  0.22037834  0.08871353  0.03758871  1
  C  C294  1  0.04285760  0.92682966  0.45949906  1
  C  C295  1  0.57268859  0.07072045  0.54764334  1
  C  C296  1  0.46948016  0.92530835  0.03975678  1
  C  C297  1  0.48210183  0.26221114  0.46123635  1
  C  C298  1  0.78652455  0.24233774  0.95836000  1
  C  C299  1  0.48090452  0.40581385  0.96326029  1
  C  C300  1  0.20301564  0.90577683  0.53997826  1
  C  C301  1  0.18280417  0.09569335  0.45242303  1
  C  C302  1  0.96223523  0.40577829  0.53448512  1
  C  C303  1  0.81093071  0.75782317  0.04494785  1
  C  C304  1  0.05786091  0.59311704  0.04501378  1
  C  C305  1  0.44232537  0.06896323  0.95419510  1
  C  C306  1  0.03953025  0.74162118  0.53824737  1
  C  C307  1  0.04129163  0.26000150  0.46533679  1
  C  C308  1  0.30268086  0.90353519  0.95882978  1
  C  C309  1  0.06040973  0.06955741  0.54491835  1
  C  C310  1  0.04449328  0.40575207  0.53537516  1
  C  C311  1  0.46765302  0.41294458  0.53884300  1
  N  N312  1  0.26107102  0.42574541  0.46727161  1
  N  N313  1  0.78816479  0.08158958  0.04588143  1
  N  N314  1  0.18483369  0.42830040  0.45378721  1
  N  N315  1  0.26769281  0.42986921  0.03448623  1
  N  N316  1  0.98379757  0.92575868  0.03676013  1
  N  N317  1  0.70853785  0.24151142  0.95964203  1
  N  N318  1  0.68146531  0.43007946  0.04562234  1
  N  N319  1  0.03691681  0.58704495  0.46099664  1
  N  N320  1  0.54491225  0.41208595  0.53912158  1
  N  N321  1  0.55974933  0.40648234  0.95508962  1
  N  N322  1  0.06309984  0.07188622  0.95455183  1
  N  N323  1  0.96080818  0.58834790  0.45840016  1
  N  N324  1  0.30913350  0.76312236  0.04110640  1
  N  N325  1  0.06119913  0.92924533  0.04244196  1
  N  N326  1  0.18629562  0.57186398  0.95215466  1
  N  N327  1  0.93991229  0.74385170  0.95621881  1
  N  N328  1  0.29745382  0.09093073  0.04149042  1
  N  N329  1  0.06783255  0.40859625  0.95225385  1
  N  N330  1  0.96511650  0.92672109  0.46122676  1
  N  N331  1  0.77830968  0.09461637  0.45937505  1
  N  N332  1  0.70234456  0.09470321  0.45598035  1
  N  N333  1  0.79335517  0.75876175  0.45760620  1
  N  N334  1  0.48529474  0.59091199  0.03710568  1
  N  N335  1  0.75815362  0.42729764  0.03624029  1
  N  N336  1  0.56019889  0.26295939  0.45158696  1
  N  N337  1  0.23161214  0.76160393  0.03380961  1
  N  N338  1  0.70516907  0.90981331  0.54093133  1
  N  N339  1  0.81253155  0.42781076  0.45362964  1
  N  N340  1  0.99091431  0.41114859  0.96153367  1
  N  N341  1  0.55620526  0.59084261  0.45894433  1
  N  N342  1  0.73634049  0.42418476  0.46761781  1
  N  N343  1  0.71552502  0.75663616  0.46309314  1
  N  N344  1  0.55438469  0.92636456  0.45627768  1
  N  N345  1  0.55640550  0.73831163  0.54421050  1
  N  N346  1  0.98621358  0.07581441  0.96362724  1
  N  N347  1  0.51424574  0.74349069  0.96595074  1
  N  N348  1  0.54890426  0.92439627  0.04073395  1
  N  N349  1  0.18981911  0.42280270  0.04460741  1
  N  N350  1  0.01796234  0.73703806  0.96680631  1
  N  N351  1  0.27692578  0.24342535  0.96496466  1
  N  N352  1  0.96143051  0.74157314  0.53890987  1
  N  N353  1  0.97860497  0.59112428  0.03912852  1
  N  N354  1  0.45927940  0.25931561  0.03964086  1
  N  N355  1  0.73447368  0.75427469  0.03449888  1
  N  N356  1  0.26127400  0.09163164  0.46177271  1
  N  N357  1  0.96408855  0.25946909  0.46547759  1
  N  N358  1  0.68829079  0.90501421  0.95468224  1
  N  N359  1  0.70540989  0.08418353  0.04492986  1
  N  N360  1  0.07491302  0.05275255  0.60354704  1
  N  N361  1  0.06685089  0.38920966  0.59311077  1
  N  N362  1  0.06859946  0.72327436  0.59386792  1
  N  N363  1  0.58063069  0.05384398  0.60824844  1
  N  N364  1  0.56581814  0.39033073  0.59697179  1
  N  N365  1  0.56970942  0.72037805  0.60308624  1
  N  N366  1  0.43700336  0.27649978  0.09732420  1
  N  N367  1  0.44784766  0.61201698  0.08869879  1
  N  N368  1  0.44069008  0.94279659  0.09590774  1
  N  N369  1  0.93814681  0.27507628  0.09527464  1
  N  N370  1  0.94488717  0.61177700  0.09239410  1
  N  N371  1  0.94675079  0.94214111  0.08944399  1
  N  N372  1  0.43079859  0.05315076  0.89366742  1
  N  N373  1  0.44812053  0.38935623  0.90861035  1
  N  N374  1  0.42363835  0.72406381  0.89506391  1
  N  N375  1  0.94516448  0.05734042  0.91336939  1
  N  N376  1  0.95149013  0.39018621  0.91173044  1
  N  N377  1  0.92571585  0.72134468  0.89999049  1
  N  N378  1  0.07013088  0.27762920  0.40936570  1
  N  N379  1  0.06613787  0.60832575  0.40585118  1
  N  N380  1  0.06895410  0.94387335  0.40255768  1
  N  N381  1  0.56907193  0.28005773  0.39175629  1
  N  N382  1  0.57167967  0.61168220  0.40043856  1
  N  N383  1  0.56871620  0.94423537  0.39686410  1
  N  N384  1  0.30167609  0.22545398  0.59353750  1
  N  N385  1  0.31074478  0.55312969  0.59861453  1
  N  N386  1  0.31088311  0.89077440  0.59579887  1
  N  N387  1  0.80907411  0.22542286  0.58622569  1
  N  N388  1  0.80414048  0.55619749  0.58931831  1
  N  N389  1  0.81218976  0.89059323  0.59313502  1
  N  N390  1  0.18611414  0.10715418  0.09131067  1
  N  N391  1  0.17484400  0.44538896  0.10084792  1
  N  N392  1  0.20129419  0.77788273  0.08883638  1
  N  N393  1  0.68395006  0.11352419  0.09724362  1
  N  N394  1  0.67303528  0.44601709  0.10506657  1
  N  N395  1  0.69863688  0.77275070  0.08935216  1
  N  N396  1  0.18039972  0.22107478  0.90060823  1
  N  N397  1  0.17631629  0.55517721  0.89222774  1
  N  N398  1  0.18599388  0.89136024  0.91500938  1
  N  N399  1  0.68527761  0.22397102  0.90063891  1
  N  N400  1  0.67239205  0.55503823  0.89258350  1
  N  N401  1  0.67549181  0.88643341  0.89580505  1
  N  N402  1  0.30041237  0.11082081  0.41039235  1
  N  N403  1  0.29936945  0.44195268  0.41506475  1
  N  N404  1  0.30584010  0.77562115  0.40926249  1
  N  N405  1  0.80727358  0.11358489  0.40359114  1
  N  N406  1  0.82116031  0.44633646  0.39511786  1
  N  N407  1  0.81499047  0.77805887  0.40119549  1
  N  N408  1  0.44283087  0.27816774  0.40833359  1
  N  N409  1  0.44442373  0.60527543  0.41343516  1
  N  N410  1  0.44128277  0.94203527  0.40595068  1
  N  N411  1  0.94187229  0.27848595  0.40669269  1
  N  N412  1  0.93961586  0.61014058  0.40132396  1
  N  N413  1  0.94098044  0.94505029  0.40237816  1
  N  N414  1  0.07049491  0.05421430  0.89572673  1
  N  N415  1  0.07645597  0.38942965  0.89390918  1
  N  N416  1  0.05246282  0.72891818  0.91054101  1
  N  N417  1  0.55971644  0.05658455  0.90818725  1
  N  N418  1  0.57599547  0.38988335  0.89607930  1
  N  N419  1  0.55020951  0.72569416  0.91096103  1
  N  N420  1  0.06820257  0.27562218  0.09771593  1
  N  N421  1  0.07326109  0.61064720  0.10355234  1
  N  N422  1  0.07307831  0.94609438  0.10096394  1
  N  N423  1  0.56519868  0.27605035  0.09869828  1
  N  N424  1  0.57540154  0.61403732  0.10362677  1
  N  N425  1  0.56868102  0.94217620  0.09962457  1
  N  N426  1  0.45310001  0.05725842  0.58889942  1
  N  N427  1  0.43745072  0.39283125  0.59332478  1
  N  N428  1  0.44225025  0.72308006  0.59365978  1
  N  N429  1  0.94538989  0.05731403  0.59352443  1
  N  N430  1  0.93743275  0.38906358  0.59140231  1
  N  N431  1  0.94072141  0.72157092  0.59784923  1
  N  N432  1  0.17340084  0.11420581  0.39345095  1
  N  N433  1  0.17538010  0.44674918  0.39534006  1
  N  N434  1  0.17708319  0.77993762  0.39457080  1
  N  N435  1  0.68098525  0.11258868  0.39778289  1
  N  N436  1  0.69723374  0.44061007  0.41570635  1
  N  N437  1  0.68798594  0.77375787  0.40745245  1
  N  N438  1  0.30801092  0.22422632  0.90846610  1
  N  N439  1  0.30285778  0.55838872  0.90683724  1
  N  N440  1  0.31448793  0.88758193  0.89979762  1
  N  N441  1  0.81339315  0.22588502  0.90156613  1
  N  N442  1  0.80065736  0.55873806  0.90984565  1
  N  N443  1  0.80255321  0.89060811  0.91087986  1
  N  N444  1  0.31365830  0.11183222  0.10090599  1
  N  N445  1  0.30164139  0.43857656  0.09056818  1
  N  N446  1  0.32763024  0.78089400  0.09856820  1
  N  N447  1  0.81170263  0.11256534  0.09634147  1
  N  N448  1  0.79806203  0.44085391  0.08839041  1
  N  N449  1  0.82528802  0.77703194  0.10404713  1
  N  N450  1  0.17181982  0.22274433  0.59891850  1
  N  N451  1  0.18098068  0.55692013  0.59083907  1
  N  N452  1  0.18091699  0.88945837  0.59996019  1
  N  N453  1  0.68050257  0.22198857  0.60176890  1
  N  N454  1  0.67533938  0.55138791  0.60331486  1
  N  N455  1  0.68336036  0.88898676  0.59755564  1
  Cl  Cl456  1  0.26873719  0.05864269  0.59966301  1
  Cl  Cl457  1  0.25168941  0.38756497  0.62481681  1
  Cl  Cl458  1  0.25563470  0.72092667  0.61485497  1
  Cl  Cl459  1  0.76412662  0.04979629  0.63210317  1
  Cl  Cl460  1  0.75101247  0.38683725  0.62577590  1
  Cl  Cl461  1  0.75701389  0.72235656  0.61720886  1
  Cl  Cl462  1  0.25201002  0.28522870  0.12226426  1
  Cl  Cl463  1  0.26346421  0.60866994  0.11214728  1
  Cl  Cl464  1  0.25634296  0.94965602  0.12202321  1
  Cl  Cl465  1  0.75189965  0.28048716  0.11652473  1
  Cl  Cl466  1  0.76180298  0.60933302  0.11369234  1
  Cl  Cl467  1  0.76067760  0.93940187  0.11017228  1
  Cl  Cl468  1  0.25009062  0.04543445  0.86494519  1
  Cl  Cl469  1  0.26343912  0.38722025  0.89389356  1
  Cl  Cl470  1  0.23677231  0.72106559  0.88259794  1
  Cl  Cl471  1  0.75561887  0.06666221  0.90350879  1
  Cl  Cl472  1  0.76816311  0.39115514  0.90079907  1
  Cl  Cl473  1  0.74026560  0.72237775  0.88150410  1
  Cl  Cl474  1  0.25755143  0.27919969  0.38868166  1
  Cl  Cl475  1  0.25556216  0.60729756  0.38476582  1
  Cl  Cl476  1  0.25429385  0.94648767  0.38833301  1
  Cl  Cl477  1  0.75753655  0.28078279  0.38090032  1
  Cl  Cl478  1  0.75578066  0.61248896  0.38149004  1
  Cl  Cl479  1  0.75533354  0.94276997  0.38473410  1
  Cl  Cl480  1  -0.00998567  0.22116376  0.62119933  1
  Cl  Cl481  1  -0.00516571  0.55307550  0.62398376  1
  Cl  Cl482  1  -0.00516727  0.88439425  0.62684118  1
  Cl  Cl483  1  0.48695379  0.22681628  0.61692943  1
  Cl  Cl484  1  0.49410508  0.55080725  0.62530253  1
  Cl  Cl485  1  0.49703685  0.88815892  0.61174300  1
  Cl  Cl486  1  -0.00572310  0.10571770  0.10555765  1
  Cl  Cl487  1  -0.01806644  0.43908035  0.09809654  1
  Cl  Cl488  1  0.01527737  0.78099594  0.10343269  1
  Cl  Cl489  1  0.50279916  0.11031721  0.11707127  1
  Cl  Cl490  1  0.48510019  0.44545730  0.11404146  1
  Cl  Cl491  1  0.50986497  0.77645461  0.12226017  1
  Cl  Cl492  1  -0.00329960  0.21900787  0.88519738  1
  Cl  Cl493  1  -0.01412468  0.56117131  0.89507174  1
  Cl  Cl494  1  -0.01190333  0.88843764  0.89910523  1
  Cl  Cl495  1  0.49911317  0.22224590  0.88385580  1
  Cl  Cl496  1  0.48472877  0.55935811  0.89425341  1
  Cl  Cl497  1  0.49649123  0.88595464  0.87753596  1
  Cl  Cl498  1  -0.01123338  0.11435988  0.37905283  1
  Cl  Cl499  1  -0.00033599  0.44399481  0.36936293  1
  Cl  Cl500  1  -0.00483503  0.78654537  0.37186113  1
  Cl  Cl501  1  0.48667689  0.11231860  0.38599405  1
  Cl  Cl502  1  0.49582279  0.44705751  0.38956397  1
  Cl  Cl503  1  0.49501229  0.77398821  0.38977493  1
  Cl  Cl504  1  0.35647312  0.14984448  0.75267999  1
  Cl  Cl505  1  0.35517834  0.48391331  0.74775950  1
  Cl  Cl506  1  0.35681580  0.81661391  0.75471073  1
  Cl  Cl507  1  0.85582323  0.15207888  0.75269621  1
  Cl  Cl508  1  0.85456229  0.48415544  0.75172979  1
  Cl  Cl509  1  0.85654551  0.81630941  0.75402245  1
  Cl  Cl510  1  0.13694135  0.18637411  0.25252994  1
  Cl  Cl511  1  0.13061544  0.52393012  0.23970774  1
  Cl  Cl512  1  0.14086740  0.85329744  0.24875792  1
  Cl  Cl513  1  0.63747999  0.18901666  0.25514098  1
  Cl  Cl514  1  0.63770615  0.52031977  0.24436117  1
  Cl  Cl515  1  0.64065477  0.85105183  0.25165278  1
  Cl  Cl516  1  0.13641006  0.14439446  0.74371289  1
  Cl  Cl517  1  0.13289395  0.47681063  0.76121559  1
  Cl  Cl518  1  0.13524162  0.81473213  0.75318674  1
  Cl  Cl519  1  0.63404785  0.14516456  0.74439320  1
  Cl  Cl520  1  0.63154460  0.47640051  0.76067328  1
  Cl  Cl521  1  0.63610970  0.81302406  0.74726137  1
  Cl  Cl522  1  0.35831578  0.18272725  0.24527062  1
  Cl  Cl523  1  0.34920584  0.51457990  0.24961786  1
  Cl  Cl524  1  0.35977088  0.84985642  0.24939747  1
  Cl  Cl525  1  0.85828543  0.18372857  0.24235992  1
  Cl  Cl526  1  0.85715873  0.51493124  0.25219028  1
  Cl  Cl527  1  0.85876760  0.85223967  0.24505474  1
  Cl  Cl528  1  0.11319094  0.31200298  0.75303040  1
  Cl  Cl529  1  0.11072467  0.64529565  0.75650913  1
  Cl  Cl530  1  0.11099119  0.98062561  0.74707753  1
  Cl  Cl531  1  0.61472708  0.31116950  0.75424279  1
  Cl  Cl532  1  0.61082345  0.64399601  0.74793052  1
  Cl  Cl533  1  0.61516646  0.97811439  0.75059131  1
  Cl  Cl534  1  0.39388585  0.01653117  0.24998443  1
  Cl  Cl535  1  0.39108720  0.35071585  0.24804812  1
  Cl  Cl536  1  0.39370544  0.68176172  0.25192893  1
  Cl  Cl537  1  0.88966937  0.01812856  0.24529085  1
  Cl  Cl538  1  0.89491435  0.34821238  0.24865163  1
  Cl  Cl539  1  0.89218319  0.68606227  0.24752452  1
  Cl  Cl540  1  0.39394029  0.31918483  0.75278797  1
  Cl  Cl541  1  0.38854773  0.65041703  0.75469586  1
  Cl  Cl542  1  0.39393965  0.98397328  0.74486307  1
  Cl  Cl543  1  0.89206690  0.31730838  0.75469006  1
  Cl  Cl544  1  0.89236059  0.65249011  0.75492302  1
  Cl  Cl545  1  0.88831563  0.98283030  0.75921639  1
  Cl  Cl546  1  0.11022183  0.01917321  0.24812653  1
  Cl  Cl547  1  0.11503792  0.35656598  0.24474732  1
  Cl  Cl548  1  0.11057025  0.68862155  0.24504895  1
  Cl  Cl549  1  0.61461814  0.02009049  0.25039193  1
  Cl  Cl550  1  0.61144742  0.35711797  0.25167416  1
  Cl  Cl551  1  0.61367695  0.68446224  0.25338966  1
