# generated using pymatgen
data_H8PbC4(N3Cl2)2
_symmetry_space_group_name_H-M   'P 1'
_cell_length_a   16.62361813
_cell_length_b   22.50299901
_cell_length_c   21.58773105
_cell_angle_alpha   89.99906205
_cell_angle_beta   89.99416194
_cell_angle_gamma   89.99772015
_symmetry_Int_Tables_number   1
_chemical_formula_structural   H8PbC4(N3Cl2)2
_chemical_formula_sum   'H192 Pb24 C96 N144 Cl96'
_cell_volume   8075.56563184
_cell_formula_units_Z   24
loop_
 _symmetry_equiv_pos_site_id
 _symmetry_equiv_pos_as_xyz
  1  'x, y, z'
loop_
 _atom_site_type_symbol
 _atom_site_label
 _atom_site_symmetry_multiplicity
 _atom_site_fract_x
 _atom_site_fract_y
 _atom_site_fract_z
 _atom_site_occupancy
  H  H0  1  0.00188783  0.03198012  0.68038904  1
  H  H1  1  0.01014188  0.36566285  0.67906565  1
  H  H2  1  -0.00313740  0.69923077  0.67913201  1
  H  H3  1  0.49242107  0.03178207  0.67723135  1
  H  H4  1  0.49134582  0.36465275  0.67951986  1
  H  H5  1  0.49631225  0.69521660  0.67938337  1
  H  H6  1  0.00208692  0.29917482  0.17723478  1
  H  H7  1  -0.00741171  0.63135730  0.18168512  1
  H  H8  1  -0.00526040  0.97104184  0.17890578  1
  H  H9  1  0.49879749  0.29907737  0.18108903  1
  H  H10  1  0.50741832  0.63429976  0.17788452  1
  H  H11  1  0.50028323  0.97005173  0.17773216  1
  H  H12  1  -0.00700492  0.03172979  0.82008192  1
  H  H13  1  0.00132537  0.36278170  0.82155844  1
  H  H14  1  0.01359087  0.69845979  0.82022740  1
  H  H15  1  0.50744192  0.03142487  0.81926844  1
  H  H16  1  0.50466783  0.36375012  0.82040849  1
  H  H17  1  0.48708051  0.70011531  0.81838931  1
  H  H18  1  -0.00457065  0.30246920  0.32111152  1
  H  H19  1  0.00702629  0.63454643  0.32223853  1
  H  H20  1  -0.00675274  0.96764824  0.31668410  1
  H  H21  1  0.50892819  0.30095514  0.32437198  1
  H  H22  1  0.49248063  0.63347601  0.32159757  1
  H  H23  1  0.49671620  0.96913498  0.32070968  1
  H  H24  1  0.24213673  0.19887344  0.67806102  1
  H  H25  1  0.24516782  0.53257812  0.67916694  1
  H  H26  1  0.25262427  0.86391516  0.68220648  1
  H  H27  1  0.75783044  0.19902273  0.67892335  1
  H  H28  1  0.75337969  0.53159500  0.67909986  1
  H  H29  1  0.75214418  0.86451800  0.67930288  1
  H  H30  1  0.24956253  0.13487451  0.17852951  1
  H  H31  1  0.25138570  0.46919303  0.17883280  1
  H  H32  1  0.25091157  0.80199027  0.18257279  1
  H  H33  1  0.74984472  0.13550706  0.17581826  1
  H  H34  1  0.75027123  0.46731126  0.18037971  1
  H  H35  1  0.75331746  0.80220459  0.17939153  1
  H  H36  1  0.25361983  0.19858825  0.81832482  1
  H  H37  1  0.24215304  0.53208371  0.82238201  1
  H  H38  1  0.25234381  0.86513806  0.81845343  1
  H  H39  1  0.74904910  0.19706013  0.82115222  1
  H  H40  1  0.75189924  0.53077510  0.81762509  1
  H  H41  1  0.74987293  0.86570848  0.82030397  1
  H  H42  1  0.23929041  0.13534880  0.32098689  1
  H  H43  1  0.24820099  0.46805825  0.31693263  1
  H  H44  1  0.25703811  0.80135578  0.32306322  1
  H  H45  1  0.75845003  0.13436654  0.32084207  1
  H  H46  1  0.74939064  0.46873432  0.31965438  1
  H  H47  1  0.74671544  0.80197988  0.31900139  1
  H  H48  1  0.12516968  0.05701939  0.60934320  1
  H  H49  1  0.12211452  0.39159206  0.59838435  1
  H  H50  1  0.13219775  0.71612153  0.61877445  1
  H  H51  1  0.62669210  0.05163639  0.61574081  1
  H  H52  1  0.62639187  0.38454485  0.61853993  1
  H  H53  1  0.63193345  0.71795573  0.62137292  1
  H  H54  1  0.38137102  0.28013442  0.10579045  1
  H  H55  1  0.37127315  0.61610711  0.11890789  1
  H  H56  1  0.38416191  0.94382244  0.10076051  1
  H  H57  1  0.87652406  0.27871594  0.11028383  1
  H  H58  1  0.88024133  0.61067820  0.10279450  1
  H  H59  1  0.88327678  0.94519885  0.09839151  1
  H  H60  1  0.37578310  0.05410807  0.88464812  1
  H  H61  1  0.37740290  0.38752526  0.88828712  1
  H  H62  1  0.38194590  0.72292332  0.90223466  1
  H  H63  1  0.87704418  0.05674587  0.89910419  1
  H  H64  1  0.87379083  0.38615228  0.88998736  1
  H  H65  1  0.87380186  0.71823905  0.87413688  1
  H  H66  1  0.12864536  0.27867621  0.38160250  1
  H  H67  1  0.12412525  0.61201724  0.39692841  1
  H  H68  1  0.12885240  0.94889365  0.37884949  1
  H  H69  1  0.62115258  0.27509661  0.40393938  1
  H  H70  1  0.62916183  0.61429171  0.38098145  1
  H  H71  1  0.62950543  0.94555976  0.38196417  1
  H  H72  1  0.37733176  0.21802364  0.61878842  1
  H  H73  1  0.37234650  0.55431764  0.61001289  1
  H  H74  1  0.37020724  0.88938783  0.60801314  1
  H  H75  1  0.87023458  0.22610097  0.59881073  1
  H  H76  1  0.86844209  0.55456208  0.60251819  1
  H  H77  1  0.86857359  0.88939173  0.60190916  1
  H  H78  1  0.12457208  0.11066235  0.11005928  1
  H  H79  1  0.12532344  0.44609883  0.11060590  1
  H  H80  1  0.12666546  0.77691318  0.11088378  1
  H  H81  1  0.62629106  0.11391378  0.10647542  1
  H  H82  1  0.62812794  0.44401718  0.10674502  1
  H  H83  1  0.62554698  0.78137892  0.11292444  1
  H  H84  1  0.12105949  0.22040040  0.88289636  1
  H  H85  1  0.12893425  0.55744870  0.90169721  1
  H  H86  1  0.11946859  0.88623689  0.87898227  1
  H  H87  1  0.62506278  0.22028309  0.89412956  1
  H  H88  1  0.62693647  0.55387936  0.88676464  1
  H  H89  1  0.61720439  0.88492228  0.88305630  1
  H  H90  1  0.37586101  0.11484604  0.37822045  1
  H  H91  1  0.37413394  0.44695567  0.38494622  1
  H  H92  1  0.36178105  0.77200008  0.40741955  1
  H  H93  1  0.86839331  0.10975758  0.40215852  1
  H  H94  1  0.87408578  0.44698493  0.39270866  1
  H  H95  1  0.86852388  0.77722270  0.39233543  1
  H  H96  1  0.37411153  0.27970806  0.38369325  1
  H  H97  1  0.38283394  0.60873217  0.40484826  1
  H  H98  1  0.38131220  0.94508189  0.39916164  1
  H  H99  1  0.88048786  0.27687826  0.39992168  1
  H  H100  1  0.87631402  0.61532392  0.38427265  1
  H  H101  1  0.88075863  0.94239063  0.39630841  1
  H  H102  1  0.12473547  0.05385991  0.88536181  1
  H  H103  1  0.12336987  0.38752399  0.89292375  1
  H  H104  1  0.11782736  0.72358237  0.90761476  1
  H  H105  1  0.62356988  0.05523232  0.89879196  1
  H  H106  1  0.62573205  0.38798263  0.89531060  1
  H  H107  1  0.62733540  0.71763775  0.87113192  1
  H  H108  1  0.12553410  0.27940506  0.10708269  1
  H  H109  1  0.12791220  0.61451349  0.12201496  1
  H  H110  1  0.13058364  0.94809092  0.12138954  1
  H  H111  1  0.63053273  0.28074285  0.11721544  1
  H  H112  1  0.61770272  0.60731292  0.09657436  1
  H  H113  1  0.63260032  0.94871768  0.11541915  1
  H  H114  1  0.37953109  0.06058962  0.59875444  1
  H  H115  1  0.37947646  0.39162279  0.59826876  1
  H  H116  1  0.38396702  0.72329430  0.59979006  1
  H  H117  1  0.87668928  0.05222660  0.61026199  1
  H  H118  1  0.87463960  0.38502637  0.62006154  1
  H  H119  1  0.88393351  0.72121630  0.60090169  1
  H  H120  1  0.12918652  0.11094175  0.40392317  1
  H  H121  1  0.12440040  0.44789106  0.38751377  1
  H  H122  1  0.11686671  0.78322601  0.37741828  1
  H  H123  1  0.62096504  0.11580029  0.37922405  1
  H  H124  1  0.62544014  0.44417953  0.39234497  1
  H  H125  1  0.61994874  0.77945367  0.38744980  1
  H  H126  1  0.36986070  0.22254387  0.89555812  1
  H  H127  1  0.37634598  0.55324865  0.88372998  1
  H  H128  1  0.36798719  0.88859420  0.89484855  1
  H  H129  1  0.87378749  0.22021723  0.89326944  1
  H  H130  1  0.87670759  0.55489055  0.88872707  1
  H  H131  1  0.86595349  0.88957476  0.89530788  1
  H  H132  1  0.37318520  0.11606066  0.10636828  1
  H  H133  1  0.37441082  0.44444208  0.10708946  1
  H  H134  1  0.37657695  0.78148252  0.11353546  1
  H  H135  1  0.87539782  0.11453311  0.10876413  1
  H  H136  1  0.87678209  0.44404367  0.11287694  1
  H  H137  1  0.87463402  0.77789139  0.10524129  1
  H  H138  1  0.13075671  0.22541950  0.59631330  1
  H  H139  1  0.12319571  0.55517569  0.60631172  1
  H  H140  1  0.12127447  0.88463906  0.61975502  1
  H  H141  1  0.62259089  0.21873047  0.61949937  1
  H  H142  1  0.61978220  0.55087692  0.61798210  1
  H  H143  1  0.62024167  0.88789748  0.61689978  1
  H  H144  1  0.32345415  0.41679800  0.00253538  1
  H  H145  1  0.91575725  0.41020534  0.99612740  1
  H  H146  1  0.30742944  0.24876533  1.00365993  1
  H  H147  1  0.64699761  0.08664616  0.48694848  1
  H  H148  1  0.60657033  0.74912148  0.50888817  1
  H  H149  1  0.80490893  0.91298300  0.49707946  1
  H  H150  1  0.82299519  0.75133534  0.00176792  1
  H  H151  1  0.94425138  0.74657823  0.49201421  1
  H  H152  1  0.31024028  0.91547089  1.00395685  1
  H  H153  1  0.92861553  0.09594303  0.51251762  1
  H  H154  1  0.94373133  0.58743901  -0.00779040  1
  H  H155  1  0.95264516  0.92104409  -0.00448551  1
  H  H156  1  0.33042890  0.42461208  0.49905642  1
  H  H157  1  0.17763889  0.75313000  0.00484630  1
  H  H158  1  0.03775640  0.74573666  1.00653829  1
  H  H159  1  0.94668952  0.91491885  0.50240629  1
  H  H160  1  0.07626327  0.41610408  1.00236682  1
  H  H161  1  0.80808588  0.92056757  1.00483294  1
  H  H162  1  0.66044801  0.75172339  0.00108519  1
  H  H163  1  0.14699241  0.91396244  0.99202453  1
  H  H164  1  0.31521914  0.91757836  0.49848816  1
  H  H165  1  0.43721309  0.25281998  -0.00523762  1
  H  H166  1  0.45136504  0.41523835  0.49622425  1
  H  H167  1  0.17173744  0.42294622  0.50024413  1
  H  H168  1  0.39912582  0.58243811  0.01268784  1
  H  H169  1  0.28356454  0.75446006  0.50796512  1
  H  H170  1  0.17189816  0.09582284  0.00357901  1
  H  H171  1  0.56887915  0.41121804  0.99934538  1
  H  H172  1  0.45059837  0.74404967  0.49643844  1
  H  H173  1  0.44831308  0.91720658  -0.00326340  1
  H  H174  1  0.44651433  0.91957747  0.50313481  1
  H  H175  1  0.20117561  0.09011071  0.50635395  1
  H  H176  1  0.45407788  0.74834894  1.00847319  1
  H  H177  1  0.05245110  0.42026363  0.49662622  1
  H  H178  1  0.60504436  0.58489754  0.48913702  1
  H  H179  1  0.67296791  0.57736564  0.99928684  1
  H  H180  1  0.82561062  0.57191184  0.99653642  1
  H  H181  1  0.15358277  0.91256654  0.50709240  1
  H  H182  1  0.33067585  0.75530779  0.00090643  1
  H  H183  1  0.13466947  0.74745796  0.48547496  1
  H  H184  1  0.94606860  0.25108838  0.50308492  1
  H  H185  1  0.80176504  0.25436035  0.49717737  1
  H  H186  1  0.54633862  0.59676284  -0.00562559  1
  H  H187  1  0.40237885  0.24960031  0.49231920  1
  H  H188  1  0.80107832  0.08168827  0.50831735  1
  H  H189  1  0.81283484  0.58364436  0.49487701  1
  H  H190  1  0.06966426  0.06306557  0.50255868  1
  H  H191  1  0.32226183  0.07515409  0.00871538  1
  Pb  Pb192  1  0.24509733  0.04915443  0.74819837  1
  Pb  Pb193  1  0.25044887  0.37912858  0.74767960  1
  Pb  Pb194  1  0.24872705  0.71499790  0.75559678  1
  Pb  Pb195  1  0.74729454  0.04945637  0.74989998  1
  Pb  Pb196  1  0.74749928  0.37901015  0.75419875  1
  Pb  Pb197  1  0.75024480  0.71209695  0.74898181  1
  Pb  Pb198  1  0.25311843  0.28696443  0.24623095  1
  Pb  Pb199  1  0.25069893  0.61873408  0.25532478  1
  Pb  Pb200  1  0.25265010  0.95362838  0.25098117  1
  Pb  Pb201  1  0.75013535  0.28672936  0.25991583  1
  Pb  Pb202  1  0.75017545  0.61713365  0.24090655  1
  Pb  Pb203  1  0.75309267  0.95415127  0.25230355  1
  Pb  Pb204  1  -0.00514699  0.21603521  0.74126356  1
  Pb  Pb205  1  -0.00001355  0.54555866  0.75090985  1
  Pb  Pb206  1  -0.00654662  0.88186854  0.75119194  1
  Pb  Pb207  1  0.49646471  0.21261220  0.75129716  1
  Pb  Pb208  1  0.49901067  0.54614080  0.75490714  1
  Pb  Pb209  1  0.49777077  0.88239941  0.74974777  1
  Pb  Pb210  1  0.00203210  0.12174178  0.26003633  1
  Pb  Pb211  1  -0.00035255  0.44993507  0.25036133  1
  Pb  Pb212  1  -0.00113937  0.78537814  0.24570364  1
  Pb  Pb213  1  0.50110422  0.12108898  0.24770275  1
  Pb  Pb214  1  0.49973629  0.45235542  0.24937375  1
  Pb  Pb215  1  0.49972748  0.78567508  0.25593770  1
  C  C216  1  0.00135426  0.04695977  0.63246746  1
  C  C217  1  0.00262891  0.38013712  0.63159025  1
  C  C218  1  0.00407476  0.71207988  0.63108401  1
  C  C219  1  0.49990023  0.04738699  0.63028852  1
  C  C220  1  0.49860625  0.37964772  0.63211392  1
  C  C221  1  0.50401271  0.71094476  0.63210491  1
  C  C222  1  0.00131589  0.28514256  0.12902596  1
  C  C223  1  0.00007488  0.61863456  0.13365460  1
  C  C224  1  0.00265292  0.95560487  0.13168096  1
  C  C225  1  0.50329484  0.28636927  0.13287387  1
  C  C226  1  0.49879769  0.61942655  0.13034757  1
  C  C227  1  0.50543580  0.95474641  0.13033360  1
  C  C228  1  -0.00176994  0.04660427  0.86775131  1
  C  C229  1  -0.00091281  0.37836570  0.86922869  1
  C  C230  1  0.00203145  0.71267495  0.86748519  1
  C  C231  1  0.50223379  0.04630323  0.86691457  1
  C  C232  1  0.50293291  0.37935951  0.86790438  1
  C  C233  1  0.49863545  0.71348920  0.86583207  1
  C  C234  1  0.00120672  0.28705156  0.36839816  1
  C  C235  1  0.00237376  0.62021521  0.36990651  1
  C  C236  1  0.00130947  0.95337620  0.36432914  1
  C  C237  1  0.50100867  0.28556106  0.37155363  1
  C  C238  1  0.50184608  0.61883269  0.36897233  1
  C  C239  1  0.50237963  0.95400956  0.36814436  1
  C  C240  1  0.24978704  0.21396311  0.63084276  1
  C  C241  1  0.24715206  0.54731868  0.63154791  1
  C  C242  1  0.24772177  0.87928537  0.63465753  1
  C  C243  1  0.75044116  0.21368044  0.63155824  1
  C  C244  1  0.74758656  0.54597499  0.63140043  1
  C  C245  1  0.74722131  0.87910041  0.63167666  1
  C  C246  1  0.24914637  0.12011425  0.13057369  1
  C  C247  1  0.25084916  0.45372823  0.13134216  1
  C  C248  1  0.25083091  0.78686764  0.13469842  1
  C  C249  1  0.75053720  0.12072414  0.12782120  1
  C  C250  1  0.75150950  0.45237914  0.13286758  1
  C  C251  1  0.75156892  0.78674306  0.13165712  1
  C  C252  1  0.24801091  0.21352497  0.86587088  1
  C  C253  1  0.24957782  0.54716572  0.86952593  1
  C  C254  1  0.24618780  0.87989521  0.86613668  1
  C  C255  1  0.74919719  0.21167531  0.86903830  1
  C  C256  1  0.75246140  0.54586145  0.86550627  1
  C  C257  1  0.74439472  0.87999503  0.86802505  1
  C  C258  1  0.24777569  0.12118733  0.36843318  1
  C  C259  1  0.24900995  0.45414839  0.36508878  1
  C  C260  1  0.24496885  0.78584231  0.36999434  1
  C  C261  1  0.74869862  0.11938000  0.36817563  1
  C  C262  1  0.74961878  0.45386669  0.36744937  1
  C  C263  1  0.74518587  0.78663778  0.36641875  1
  C  C264  1  0.56355528  0.73661308  0.95218013  1
  C  C265  1  0.97840281  0.92655131  0.45985133  1
  C  C266  1  0.22473038  0.57539617  0.96493967  1
  C  C267  1  0.29150905  0.43179687  0.45928421  1
  C  C268  1  0.69341476  0.24243705  0.54334948  1
  C  C269  1  0.55891966  0.92583837  0.04052273  1
  C  C270  1  0.06049778  0.92701610  0.04410577  1
  C  C271  1  0.19761134  0.90372979  0.54316965  1
  C  C272  1  0.52768145  0.25537760  0.46764750  1
  C  C273  1  0.27954934  0.90589163  0.53897811  1
  C  C274  1  0.79310432  0.42389293  0.04110923  1
  C  C275  1  0.20623338  0.42592082  0.03855068  1
  C  C276  1  0.03977239  0.26006477  0.03652946  1
  C  C277  1  0.94495202  0.40887975  0.54358574  1
  C  C278  1  0.70519676  0.76173861  0.03914917  1
  C  C279  1  0.19355407  0.90468396  0.95688506  1
  C  C280  1  0.47257294  0.26250894  0.03596701  1
  C  C281  1  0.48326429  0.73856072  0.96456168  1
  C  C282  1  0.71187527  0.09402923  0.03588675  1
  C  C283  1  0.77500651  0.57285782  0.53471807  1
  C  C284  1  0.05995629  0.73291747  0.54087148  1
  C  C285  1  0.55995606  0.73971386  0.54453139  1
  C  C286  1  0.95282037  0.59413413  0.46000769  1
  C  C287  1  0.77168953  0.09241615  0.46472432  1
  C  C288  1  0.05536780  0.25649971  0.45704019  1
  C  C289  1  0.77337427  0.90775838  0.96415741  1
  C  C290  1  0.79196764  0.09441994  0.03650702  1
  C  C291  1  0.03383026  0.59298061  0.46426173  1
  C  C292  1  0.71045119  0.57097196  0.95851335  1
  C  C293  1  0.29342831  0.76187408  0.04169620  1
  C  C294  1  0.55370453  0.26302297  0.04183464  1
  C  C295  1  0.27535613  0.90532322  0.96260556  1
  C  C296  1  0.69462092  0.90742033  0.54164578  1
  C  C297  1  0.97544660  0.59593485  0.03541481  1
  C  C298  1  0.70367460  0.76006814  0.45895501  1
  C  C299  1  0.95956397  0.25996076  0.03741333  1
  C  C300  1  0.69363501  0.57090251  0.54141041  1
  C  C301  1  0.69184763  0.90525505  0.95862183  1
  C  C302  1  0.97898159  0.73606763  0.53332830  1
  C  C303  1  0.30310942  0.23922277  0.54158988  1
  C  C304  1  0.20937770  0.43167277  0.46002090  1
  C  C305  1  0.03700614  0.40536313  0.96298744  1
  C  C306  1  0.30722789  0.09378211  0.45626147  1
  C  C307  1  0.27465734  0.23913994  0.96113134  1
  C  C308  1  0.47543545  0.07830319  0.53568037  1
  C  C309  1  0.21274186  0.57453072  0.53824286  1
  C  C310  1  0.55617428  0.92482681  0.45756077  1
  C  C311  1  0.05641119  0.59681270  0.04390647  1
  N  N312  1  0.28734336  0.10194330  0.03628435  1
  N  N313  1  0.78504608  0.76101562  0.03798652  1
  N  N314  1  0.44926254  0.25764996  0.45989428  1
  N  N315  1  0.69303132  0.09308286  0.45521652  1
  N  N316  1  0.45601976  0.40468449  0.95991902  1
  N  N317  1  0.77193496  0.24389187  0.53738157  1
  N  N318  1  0.77346362  0.90696220  0.53745906  1
  N  N319  1  0.53077508  0.07288784  0.96265906  1
  N  N320  1  0.55553564  0.40588195  0.54411784  1
  N  N321  1  0.79015265  0.57295550  0.95788691  1
  N  N322  1  0.78795908  0.42897936  0.46165629  1
  N  N323  1  0.04625426  0.07489038  0.95825159  1
  N  N324  1  0.19564211  0.23863817  0.95680981  1
  N  N325  1  0.78756570  0.23828479  0.96276504  1
  N  N326  1  0.47827482  0.59218854  0.46566540  1
  N  N327  1  0.52125022  0.58766649  0.03685427  1
  N  N328  1  0.95996512  0.06637783  0.53934583  1
  N  N329  1  0.71192207  0.42757710  0.46144050  1
  N  N330  1  0.47804384  0.40858981  0.53856416  1
  N  N331  1  0.53445081  0.40649772  0.96027623  1
  N  N332  1  0.98196164  0.92628376  0.03704623  1
  N  N333  1  0.55566395  0.59394234  0.45623934  1
  N  N334  1  0.93723236  0.73681405  0.95303922  1
  N  N335  1  0.44318054  0.59928292  0.04212787  1
  N  N336  1  0.05719827  0.92895570  0.45422295  1
  N  N337  1  0.71535983  0.42428737  0.03770580  1
  N  N338  1  0.55256715  0.07521419  0.54004264  1
  N  N339  1  0.22888270  0.09407239  0.46401005  1
  N  N340  1  0.95716438  0.40529891  0.96059090  1
  N  N341  1  0.26079186  0.75220975  0.46335878  1
  N  N342  1  0.29009479  0.57412079  0.53801724  1
  N  N343  1  0.30202481  0.57312677  0.96052627  1
  N  N344  1  0.20863306  0.08788048  0.04106735  1
  N  N345  1  0.21398765  0.75866433  0.04261932  1
  N  N346  1  0.97678445  0.25760813  0.46237853  1
  N  N347  1  0.04009117  0.07714725  0.54159444  1
  N  N348  1  0.45435292  0.07168604  0.95840651  1
  N  N349  1  0.96992090  0.07552550  0.96283473  1
  N  N350  1  0.18374377  0.76422452  0.45558374  1
  N  N351  1  0.47740875  0.92565905  0.46247480  1
  N  N352  1  0.22610693  0.24195989  0.53321118  1
  N  N353  1  0.01423659  0.73958880  0.96271012  1
  N  N354  1  0.47994769  0.92480833  0.03675111  1
  N  N355  1  0.02333034  0.41003140  0.53710501  1
  N  N356  1  0.71155524  0.23837042  0.96291203  1
  N  N357  1  0.48059464  0.74145789  0.53813240  1
  N  N358  1  0.28558933  0.42592226  0.03857842  1
  N  N359  1  0.78127995  0.75913324  0.46177355  1
  N  N360  1  0.06489288  0.05342530  0.59617494  1
  N  N361  1  0.06033686  0.39078238  0.59084204  1
  N  N362  1  0.07466211  0.71883889  0.60050118  1
  N  N363  1  0.56799267  0.05587598  0.60023266  1
  N  N364  1  0.56779176  0.38952239  0.60288018  1
  N  N365  1  0.57425822  0.72245513  0.60347668  1
  N  N366  1  0.44202725  0.27738018  0.09403553  1
  N  N367  1  0.42944825  0.60908418  0.10228168  1
  N  N368  1  0.44582604  0.94414328  0.09139626  1
  N  N369  1  0.93530910  0.27502855  0.09385733  1
  N  N370  1  0.94106945  0.60952394  0.09264004  1
  N  N371  1  0.94533444  0.94645861  0.09046727  1
  N  N372  1  0.43553466  0.05574293  0.89882630  1
  N  N373  1  0.43740525  0.38977456  0.90159089  1
  N  N374  1  0.44353602  0.72401045  0.90942633  1
  N  N375  1  0.93882538  0.05801606  0.90696670  1
  N  N376  1  0.93415337  0.38714224  0.90330376  1
  N  N377  1  0.93058075  0.72238600  0.89320028  1
  N  N378  1  0.07067543  0.27435629  0.39881252  1
  N  N379  1  0.06379254  0.60873297  0.40915816  1
  N  N380  1  0.06986543  0.94546725  0.39431166  1
  N  N381  1  0.56009558  0.27275068  0.41302583  1
  N  N382  1  0.57089363  0.61000935  0.39765411  1
  N  N383  1  0.57171073  0.94179195  0.39893724  1
  N  N384  1  0.31974145  0.22280935  0.60113600  1
  N  N385  1  0.31179274  0.55710143  0.59751525  1
  N  N386  1  0.30931491  0.89072513  0.59646003  1
  N  N387  1  0.80830773  0.22471864  0.59106298  1
  N  N388  1  0.80740411  0.55717070  0.59214273  1
  N  N389  1  0.80699849  0.88736752  0.59215341  1
  N  N390  1  0.18471633  0.11107966  0.09590391  1
  N  N391  1  0.18477123  0.44285358  0.09602919  1
  N  N392  1  0.18765461  0.77586377  0.09940941  1
  N  N393  1  0.68555420  0.10981562  0.09163484  1
  N  N394  1  0.68935414  0.44242660  0.09623956  1
  N  N395  1  0.68470479  0.77738685  0.09770929  1
  N  N396  1  0.18081653  0.22287033  0.89746324  1
  N  N397  1  0.19030496  0.55960853  0.91039177  1
  N  N398  1  0.17719386  0.88904040  0.89657396  1
  N  N399  1  0.68599692  0.22173280  0.90492728  1
  N  N400  1  0.68681435  0.55618640  0.90076995  1
  N  N401  1  0.67523296  0.88868594  0.90020895  1
  N  N402  1  0.31885552  0.10992465  0.39694917  1
  N  N403  1  0.31476396  0.44551636  0.39994698  1
  N  N404  1  0.29928971  0.77547875  0.41374676  1
  N  N405  1  0.80685030  0.10816121  0.41052036  1
  N  N406  1  0.81306383  0.44529465  0.40351763  1
  N  N407  1  0.80718111  0.77609168  0.40287609  1
  N  N408  1  0.43245913  0.27630902  0.40062983  1
  N  N409  1  0.44503201  0.60739625  0.41100536  1
  N  N410  1  0.44314267  0.94526205  0.40802041  1
  N  N411  1  0.94223757  0.27819661  0.40850694  1
  N  N412  1  0.93411268  0.61064959  0.40226379  1
  N  N413  1  0.94262997  0.94159114  0.40514177  1
  N  N414  1  0.06502746  0.05643148  0.89945184  1
  N  N415  1  0.06312264  0.38961381  0.90582712  1
  N  N416  1  0.05521345  0.72218422  0.91188965  1
  N  N417  1  0.56174008  0.05689973  0.90636012  1
  N  N418  1  0.56438755  0.38896743  0.90544234  1
  N  N419  1  0.57168724  0.72174252  0.89231013  1
  N  N420  1  0.06623233  0.27539900  0.09243205  1
  N  N421  1  0.07054649  0.61026749  0.10326329  1
  N  N422  1  0.07352765  0.94380515  0.10310560  1
  N  N423  1  0.57193477  0.27723400  0.10024254  1
  N  N424  1  0.55601553  0.61072574  0.08856050  1
  N  N425  1  0.57472797  0.94387549  0.09877593  1
  N  N426  1  0.44079835  0.06132794  0.58987619  1
  N  N427  1  0.44130587  0.39024409  0.59098103  1
  N  N428  1  0.44614802  0.72034428  0.59115400  1
  N  N429  1  0.93695950  0.05978324  0.59902358  1
  N  N430  1  0.93193239  0.39060863  0.60198842  1
  N  N431  1  0.94515617  0.72272170  0.59083863  1
  N  N432  1  0.19107430  0.11286731  0.41058596  1
  N  N433  1  0.18430939  0.44551474  0.40118962  1
  N  N434  1  0.17383580  0.77602457  0.39542670  1
  N  N435  1  0.67928425  0.10970972  0.39593612  1
  N  N436  1  0.68644898  0.44293339  0.40309476  1
  N  N437  1  0.67915595  0.77647377  0.40104612  1
  N  N438  1  0.30858201  0.22405330  0.90554806  1
  N  N439  1  0.31760497  0.55569738  0.89958227  1
  N  N440  1  0.30676109  0.88987780  0.90572743  1
  N  N441  1  0.81271594  0.22145876  0.90470304  1
  N  N442  1  0.81593046  0.55426266  0.90123372  1
  N  N443  1  0.80500515  0.89151827  0.90680223  1
  N  N444  1  0.31267820  0.10937689  0.09553049  1
  N  N445  1  0.31374269  0.44371674  0.09556809  1
  N  N446  1  0.31676818  0.77823978  0.09914485  1
  N  N447  1  0.81661423  0.11049118  0.09259576  1
  N  N448  1  0.81743458  0.44110777  0.09851510  1
  N  N449  1  0.81350048  0.77645353  0.09481258  1
  N  N450  1  0.19274249  0.22584586  0.59012735  1
  N  N451  1  0.18350524  0.55853030  0.59450935  1
  N  N452  1  0.17934315  0.88751110  0.60277044  1
  N  N453  1  0.68000495  0.22372644  0.60159273  1
  N  N454  1  0.67782343  0.55493451  0.60028092  1
  N  N455  1  0.67831355  0.89092757  0.60019718  1
  Cl  Cl456  1  0.24768586  0.06315954  0.60780886  1
  Cl  Cl457  1  0.25202748  0.39166575  0.61144163  1
  Cl  Cl458  1  0.26252224  0.72697918  0.61015058  1
  Cl  Cl459  1  0.75516063  0.05167102  0.61109964  1
  Cl  Cl460  1  0.75015845  0.37993312  0.62334482  1
  Cl  Cl461  1  0.75759996  0.71961233  0.62164751  1
  Cl  Cl462  1  0.25554009  0.28143861  0.11201402  1
  Cl  Cl463  1  0.25217465  0.61840473  0.12118054  1
  Cl  Cl464  1  0.26071161  0.94669457  0.11554990  1
  Cl  Cl465  1  0.75323802  0.28467929  0.13152766  1
  Cl  Cl466  1  0.74559329  0.60689229  0.10253981  1
  Cl  Cl467  1  0.76158936  0.94624026  0.11865528  1
  Cl  Cl468  1  0.25024005  0.05726968  0.88552029  1
  Cl  Cl469  1  0.25289151  0.38982675  0.88391463  1
  Cl  Cl470  1  0.24224083  0.72522447  0.89770013  1
  Cl  Cl471  1  0.75024599  0.05267250  0.88214685  1
  Cl  Cl472  1  0.74945788  0.38920366  0.88742197  1
  Cl  Cl473  1  0.75124222  0.72013039  0.88501027  1
  Cl  Cl474  1  0.25185332  0.28146109  0.37643895  1
  Cl  Cl475  1  0.25559702  0.61515651  0.38606600  1
  Cl  Cl476  1  0.25857457  0.94685177  0.38632725  1
  Cl  Cl477  1  0.75609294  0.27252989  0.39762604  1
  Cl  Cl478  1  0.75039786  0.61709816  0.37321593  1
  Cl  Cl479  1  0.75901880  0.94234996  0.39173942  1
  Cl  Cl480  1  -0.00543086  0.22472046  0.60053882  1
  Cl  Cl481  1  -0.00325552  0.54952231  0.61945871  1
  Cl  Cl482  1  -0.00979322  0.89166696  0.61653313  1
  Cl  Cl483  1  0.49908717  0.22009605  0.61713044  1
  Cl  Cl484  1  0.49555260  0.55258987  0.62392128  1
  Cl  Cl485  1  0.49298246  0.89062112  0.61075287  1
  Cl  Cl486  1  0.00367304  0.11422304  0.12873307  1
  Cl  Cl487  1  0.00078038  0.44398440  0.11524749  1
  Cl  Cl488  1  0.00322497  0.77643064  0.10329035  1
  Cl  Cl489  1  0.49600783  0.11701140  0.11742860  1
  Cl  Cl490  1  0.50281468  0.44469377  0.11340064  1
  Cl  Cl491  1  0.49941746  0.78305172  0.12250885  1
  Cl  Cl492  1  -0.00443675  0.22114983  0.87294748  1
  Cl  Cl493  1  0.00101343  0.55410651  0.88742709  1
  Cl  Cl494  1  -0.01006085  0.88959661  0.88941444  1
  Cl  Cl495  1  0.49732490  0.22292571  0.88458534  1
  Cl  Cl496  1  0.50388766  0.55953114  0.89290501  1
  Cl  Cl497  1  0.48930616  0.88984319  0.88718523  1
  Cl  Cl498  1  0.00037581  0.10903548  0.40143029  1
  Cl  Cl499  1  -0.00021041  0.44346968  0.38907207  1
  Cl  Cl500  1  -0.00802121  0.77995350  0.37874858  1
  Cl  Cl501  1  0.49939083  0.11733513  0.38168351  1
  Cl  Cl502  1  0.49947355  0.44169147  0.38787713  1
  Cl  Cl503  1  0.48441397  0.77351130  0.39787182  1
  Cl  Cl504  1  0.36188329  0.14590905  0.74849430  1
  Cl  Cl505  1  0.36316535  0.47985390  0.75387873  1
  Cl  Cl506  1  0.35830312  0.81209003  0.75043738  1
  Cl  Cl507  1  0.86130164  0.14489401  0.74503599  1
  Cl  Cl508  1  0.86229218  0.47800791  0.75360914  1
  Cl  Cl509  1  0.86036254  0.81311415  0.75401385  1
  Cl  Cl510  1  0.14001609  0.18732927  0.25162250  1
  Cl  Cl511  1  0.14093326  0.52293451  0.24712368  1
  Cl  Cl512  1  0.13648450  0.85558260  0.25261440  1
  Cl  Cl513  1  0.63853897  0.18830778  0.25243012  1
  Cl  Cl514  1  0.63721175  0.52345692  0.24812883  1
  Cl  Cl515  1  0.63853807  0.85462685  0.25047812  1
  Cl  Cl516  1  0.13943798  0.14294326  0.74802441  1
  Cl  Cl517  1  0.13773492  0.47886022  0.75225675  1
  Cl  Cl518  1  0.13982890  0.80967223  0.74841736  1
  Cl  Cl519  1  0.63907472  0.14309764  0.74429533  1
  Cl  Cl520  1  0.63728616  0.47897574  0.74854322  1
  Cl  Cl521  1  0.63539875  0.81082998  0.75247681  1
  Cl  Cl522  1  0.36156045  0.18792469  0.25146485  1
  Cl  Cl523  1  0.36485575  0.52163134  0.24805074  1
  Cl  Cl524  1  0.35867649  0.85058374  0.25294970  1
  Cl  Cl525  1  0.86078442  0.18507148  0.25492935  1
  Cl  Cl526  1  0.86112773  0.52318164  0.24884850  1
  Cl  Cl527  1  0.86257699  0.85346155  0.24944585  1
  Cl  Cl528  1  0.11307140  0.31224850  0.75038447  1
  Cl  Cl529  1  0.11277950  0.64640748  0.74663126  1
  Cl  Cl530  1  0.11467790  0.97770882  0.75078805  1
  Cl  Cl531  1  0.61153935  0.31200789  0.74768892  1
  Cl  Cl532  1  0.61385617  0.64562440  0.75201551  1
  Cl  Cl533  1  0.61026702  0.97603079  0.74475023  1
  Cl  Cl534  1  0.38919105  0.02149435  0.25031073  1
  Cl  Cl535  1  0.38747612  0.35523528  0.25403930  1
  Cl  Cl536  1  0.38962656  0.68805780  0.24743442  1
  Cl  Cl537  1  0.89124874  0.01967412  0.25345641  1
  Cl  Cl538  1  0.89123281  0.35579753  0.25103647  1
  Cl  Cl539  1  0.89115860  0.68800209  0.24748634  1
  Cl  Cl540  1  0.38969231  0.31304479  0.75083668  1
  Cl  Cl541  1  0.38873578  0.64712235  0.75181994  1
  Cl  Cl542  1  0.38832179  0.97724519  0.75010506  1
  Cl  Cl543  1  0.88999716  0.31108830  0.74588949  1
  Cl  Cl544  1  0.88806719  0.64581290  0.75718314  1
  Cl  Cl545  1  0.89287165  0.97887660  0.74682036  1
  Cl  Cl546  1  0.11593419  0.02188528  0.25157505  1
  Cl  Cl547  1  0.11164206  0.35612479  0.25150650  1
  Cl  Cl548  1  0.11421636  0.68972815  0.24649370  1
  Cl  Cl549  1  0.61254636  0.02011653  0.25425363  1
  Cl  Cl550  1  0.61351352  0.35346880  0.25096899  1
  Cl  Cl551  1  0.60840786  0.68885268  0.25141063  1
