# generated using pymatgen
data_H8PbC4(N3Cl2)2
_symmetry_space_group_name_H-M   'P 1'
_cell_length_a   16.62878549
_cell_length_b   22.51179729
_cell_length_c   21.59162853
_cell_angle_alpha   89.99989169
_cell_angle_beta   90.00351161
_cell_angle_gamma   90.00261392
_symmetry_Int_Tables_number   1
_chemical_formula_structural   H8PbC4(N3Cl2)2
_chemical_formula_sum   'H192 Pb24 C96 N144 Cl96'
_cell_volume   8082.69328487
_cell_formula_units_Z   24
loop_
 _symmetry_equiv_pos_site_id
 _symmetry_equiv_pos_as_xyz
  1  'x, y, z'
loop_
 _atom_site_type_symbol
 _atom_site_label
 _atom_site_symmetry_multiplicity
 _atom_site_fract_x
 _atom_site_fract_y
 _atom_site_fract_z
 _atom_site_occupancy
  H  H0  1  -0.00827553  0.03509023  0.68168747  1
  H  H1  1  -0.00555047  0.36567084  0.68049933  1
  H  H2  1  -0.00198869  0.69300619  0.67967990  1
  H  H3  1  0.51143773  0.03304642  0.68488467  1
  H  H4  1  0.51093060  0.36497053  0.68013714  1
  H  H5  1  0.49864457  0.69605513  0.67770268  1
  H  H6  1  -0.00581391  0.30507562  0.17673204  1
  H  H7  1  0.00549703  0.63856857  0.17926447  1
  H  H8  1  -0.01096814  0.96829588  0.18211179  1
  H  H9  1  0.50755364  0.30625216  0.17589111  1
  H  H10  1  0.50312386  0.63936191  0.17766031  1
  H  H11  1  0.51214840  0.96938924  0.17859554  1
  H  H12  1  -0.00192002  0.02936375  0.82035200  1
  H  H13  1  -0.00198496  0.36353331  0.82517114  1
  H  H14  1  0.00461352  0.69582980  0.82267623  1
  H  H15  1  0.49987857  0.02856279  0.81986882  1
  H  H16  1  0.50382158  0.36549594  0.82618431  1
  H  H17  1  0.48636578  0.69632240  0.82237747  1
  H  H18  1  -0.00665974  0.30596903  0.31994521  1
  H  H19  1  0.00543190  0.63553305  0.32514029  1
  H  H20  1  0.00882800  0.96690398  0.31771838  1
  H  H21  1  0.50385203  0.30524543  0.32190014  1
  H  H22  1  0.50092715  0.63519058  0.31946699  1
  H  H23  1  0.49003382  0.96645008  0.31685315  1
  H  H24  1  0.24268359  0.19545061  0.68297796  1
  H  H25  1  0.25597368  0.53217985  0.67399116  1
  H  H26  1  0.24151958  0.86186261  0.68166095  1
  H  H27  1  0.76137850  0.19855727  0.67835102  1
  H  H28  1  0.73988407  0.53136794  0.67741656  1
  H  H29  1  0.76181836  0.86571658  0.68215076  1
  H  H30  1  0.25537010  0.13749991  0.17976535  1
  H  H31  1  0.24890948  0.46777212  0.17251366  1
  H  H32  1  0.25057884  0.80630746  0.17695460  1
  H  H33  1  0.74920009  0.13740091  0.17678183  1
  H  H34  1  0.75376597  0.47134166  0.17903681  1
  H  H35  1  0.74145531  0.80065408  0.17774433  1
  H  H36  1  0.23608086  0.19731653  0.82035285  1
  H  H37  1  0.24852609  0.52961691  0.82141899  1
  H  H38  1  0.25327689  0.86367362  0.82113647  1
  H  H39  1  0.75607846  0.19544282  0.82296988  1
  H  H40  1  0.74524175  0.53177788  0.82208196  1
  H  H41  1  0.74983539  0.86165488  0.82223455  1
  H  H42  1  0.25992972  0.13797743  0.32171422  1
  H  H43  1  0.24166990  0.47034884  0.32520719  1
  H  H44  1  0.24243399  0.80206070  0.31973977  1
  H  H45  1  0.74031357  0.13519714  0.31760226  1
  H  H46  1  0.75612466  0.46867220  0.31840542  1
  H  H47  1  0.75302719  0.80291255  0.31830274  1
  H  H48  1  0.12877888  0.05185560  0.62406984  1
  H  H49  1  0.12680358  0.38784953  0.61530478  1
  H  H50  1  0.12293735  0.71867240  0.60966862  1
  H  H51  1  0.62898554  0.05168374  0.60827686  1
  H  H52  1  0.62244945  0.39249471  0.59853824  1
  H  H53  1  0.62212864  0.71693990  0.60606591  1
  H  H54  1  0.37667028  0.28535178  0.11006190  1
  H  H55  1  0.36756029  0.61500024  0.11916213  1
  H  H56  1  0.38150112  0.94826154  0.11741732  1
  H  H57  1  0.88231765  0.27406211  0.09767561  1
  H  H58  1  0.87037234  0.61626691  0.11900464  1
  H  H59  1  0.88295855  0.94265042  0.09781587  1
  H  H60  1  0.38353151  0.05304432  0.89669859  1
  H  H61  1  0.37791425  0.38764510  0.89242651  1
  H  H62  1  0.37386433  0.72622004  0.90070996  1
  H  H63  1  0.88535525  0.05764617  0.89823558  1
  H  H64  1  0.88369384  0.39158063  0.90300606  1
  H  H65  1  0.86787148  0.71645630  0.88132051  1
  H  H66  1  0.12985485  0.28589806  0.37684385  1
  H  H67  1  0.11837583  0.60805001  0.40292430  1
  H  H68  1  0.12706036  0.94882644  0.39509081  1
  H  H69  1  0.63049270  0.27822026  0.39033477  1
  H  H70  1  0.61615023  0.60910953  0.39697366  1
  H  H71  1  0.62763728  0.94779313  0.37577063  1
  H  H72  1  0.36795540  0.22138264  0.61154845  1
  H  H73  1  0.37818915  0.55553572  0.60462826  1
  H  H74  1  0.37167121  0.88480534  0.61793971  1
  H  H75  1  0.86350251  0.22785631  0.59120356  1
  H  H76  1  0.88134712  0.55169130  0.62748739  1
  H  H77  1  0.87031682  0.89012470  0.59874653  1
  H  H78  1  0.11829660  0.11708901  0.12094518  1
  H  H79  1  0.12257714  0.44623033  0.10640232  1
  H  H80  1  0.12910310  0.77757289  0.10433968  1
  H  H81  1  0.61632932  0.11306026  0.11650950  1
  H  H82  1  0.61968625  0.44952527  0.11567052  1
  H  H83  1  0.63311669  0.77695852  0.09642727  1
  H  H84  1  0.12545709  0.22780375  0.90171358  1
  H  H85  1  0.13993107  0.55419392  0.90227259  1
  H  H86  1  0.12000164  0.88359870  0.87964379  1
  H  H87  1  0.62117005  0.21964152  0.88064628  1
  H  H88  1  0.63564672  0.55588109  0.90310125  1
  H  H89  1  0.61649817  0.88417169  0.88511980  1
  H  H90  1  0.36726327  0.11153458  0.40609198  1
  H  H91  1  0.37505795  0.44894068  0.38660161  1
  H  H92  1  0.37354274  0.77998947  0.38458571  1
  H  H93  1  0.87141454  0.11195591  0.38200542  1
  H  H94  1  0.87179817  0.44473085  0.39600136  1
  H  H95  1  0.87561502  0.77868940  0.39022701  1
  H  H96  1  0.38110124  0.28258443  0.39293831  1
  H  H97  1  0.36757780  0.61300365  0.38323854  1
  H  H98  1  0.38091830  0.94299488  0.40023104  1
  H  H99  1  0.88292149  0.27464892  0.40015079  1
  H  H100  1  0.87119486  0.61313544  0.38566322  1
  H  H101  1  0.87808084  0.94571440  0.38254307  1
  H  H102  1  0.13358623  0.05164025  0.88025222  1
  H  H103  1  0.13193730  0.38625526  0.88504362  1
  H  H104  1  0.11379744  0.72489929  0.90481359  1
  H  H105  1  0.63191456  0.05302208  0.88405988  1
  H  H106  1  0.62655052  0.38765601  0.89604616  1
  H  H107  1  0.62122843  0.71601964  0.88339121  1
  H  H108  1  0.12966875  0.28475384  0.11786255  1
  H  H109  1  0.11800598  0.60883669  0.10125115  1
  H  H110  1  0.12930590  0.94826161  0.12657860  1
  H  H111  1  0.62428857  0.27660151  0.09970523  1
  H  H112  1  0.61515878  0.61084636  0.09920822  1
  H  H113  1  0.62991683  0.94466549  0.10236116  1
  H  H114  1  0.38022287  0.05316120  0.62224298  1
  H  H115  1  0.37565091  0.38682795  0.61775714  1
  H  H116  1  0.37397766  0.72171414  0.60901529  1
  H  H117  1  0.88154774  0.05673325  0.60151956  1
  H  H118  1  0.87800406  0.39132165  0.60405815  1
  H  H119  1  0.87428578  0.72008936  0.61067148  1
  H  H120  1  0.12253214  0.11485240  0.37789379  1
  H  H121  1  0.12723829  0.44553015  0.40312449  1
  H  H122  1  0.12510848  0.77563881  0.39514157  1
  H  H123  1  0.62209745  0.11279432  0.39306170  1
  H  H124  1  0.62329324  0.44739994  0.38241888  1
  H  H125  1  0.62656338  0.77919474  0.38774963  1
  H  H126  1  0.37168255  0.21941835  0.88093868  1
  H  H127  1  0.38734819  0.54696996  0.87736019  1
  H  H128  1  0.36749792  0.88760599  0.89910725  1
  H  H129  1  0.86836326  0.22531991  0.90210619  1
  H  H130  1  0.88179618  0.54926883  0.87713298  1
  H  H131  1  0.86384255  0.89057371  0.90091913  1
  H  H132  1  0.36512364  0.10960245  0.09939708  1
  H  H133  1  0.37082929  0.44621010  0.10257271  1
  H  H134  1  0.37803610  0.78225676  0.10821770  1
  H  H135  1  0.86440516  0.11044432  0.09884834  1
  H  H136  1  0.86844606  0.44538715  0.10086269  1
  H  H137  1  0.87991142  0.78222251  0.12290118  1
  H  H138  1  0.11982014  0.22050901  0.60977438  1
  H  H139  1  0.12961599  0.55366940  0.60775556  1
  H  H140  1  0.12253760  0.88885568  0.60625127  1
  H  H141  1  0.62070753  0.21693575  0.62605269  1
  H  H142  1  0.63714295  0.55974343  0.59165919  1
  H  H143  1  0.62383844  0.88506346  0.62428020  1
  H  H144  1  0.57115454  0.76064716  0.50993722  1
  H  H145  1  0.42880729  0.25048060  0.50190435  1
  H  H146  1  0.34109157  0.41973120  0.49413934  1
  H  H147  1  0.18121233  0.90569175  0.50028707  1
  H  H148  1  0.79542000  0.91667921  1.00356569  1
  H  H149  1  0.79949440  0.25114822  1.00449749  1
  H  H150  1  0.78230583  0.25297284  0.49338551  1
  H  H151  1  0.91972875  0.91229616  0.48831463  1
  H  H152  1  0.10355528  0.08134789  0.98784547  1
  H  H153  1  0.80864936  0.41606720  0.50319808  1
  H  H154  1  0.94881451  0.08709089  1.00497058  1
  H  H155  1  0.95139491  0.24865315  -0.00482123  1
  H  H156  1  0.69892186  0.74706121  -0.00917349  1
  H  H157  1  0.83099153  0.09552248  0.49197957  1
  H  H158  1  0.55021766  0.57820824  -0.00607594  1
  H  H159  1  0.18689197  0.74958125  0.00030897  1
  H  H160  1  0.39074965  0.58243521  0.01030401  1
  H  H161  1  0.67988673  0.09449733  0.50478722  1
  H  H162  1  0.82541759  0.75000920  0.49857722  1
  H  H163  1  0.57218582  0.06470864  0.49554702  1
  H  H164  1  0.90069967  0.58504281  0.49527118  1
  H  H165  1  0.79715277  0.91557891  0.49384477  1
  H  H166  1  0.86055613  0.58055773  -0.00813685  1
  H  H167  1  0.29591436  0.07963882  -0.00521677  1
  H  H168  1  0.71506878  0.58276782  0.49204025  1
  H  H169  1  0.20743183  0.58178113  1.00900071  1
  H  H170  1  0.41771265  0.25659949  0.00423983  1
  H  H171  1  0.95008865  0.42093944  1.00546735  1
  H  H172  1  0.79902424  0.08213742  -0.00393486  1
  H  H173  1  0.80360420  0.41846274  -0.00610627  1
  H  H174  1  0.94860850  0.07974570  0.49155845  1
  H  H175  1  0.06903727  0.93479221  0.50677769  1
  H  H176  1  0.95657040  0.91256810  -0.00466272  1
  H  H177  1  0.58667309  0.25253276  0.49602892  1
  H  H178  1  0.94006994  0.42103819  0.49691119  1
  H  H179  1  0.33379667  0.91236710  0.50486953  1
  H  H180  1  0.55296136  0.58020655  0.50343649  1
  H  H181  1  0.42228129  0.73613186  0.50289107  1
  H  H182  1  0.18359267  0.74051735  0.49971395  1
  H  H183  1  0.10546701  0.25008289  0.48756713  1
  H  H184  1  0.41410608  0.07602700  0.50721208  1
  H  H185  1  0.14747339  0.91360673  -0.00634567  1
  H  H186  1  0.29055166  0.08942110  0.50673424  1
  H  H187  1  0.45269059  0.91897485  0.50555789  1
  H  H188  1  0.44502078  0.08178745  1.00381300  1
  H  H189  1  0.89223989  0.74717045  0.98985645  1
  H  H190  1  0.41451035  0.91516253  0.00422838  1
  H  H191  1  0.95124814  0.25200396  0.50217679  1
  Pb  Pb192  1  0.25255081  0.04556702  0.75018245  1
  Pb  Pb193  1  0.25143073  0.38075271  0.74501095  1
  Pb  Pb194  1  0.24904941  0.71348363  0.75616113  1
  Pb  Pb195  1  0.74972147  0.04873345  0.74836663  1
  Pb  Pb196  1  0.74791201  0.38310899  0.74989629  1
  Pb  Pb197  1  0.74956317  0.71241716  0.74499612  1
  Pb  Pb198  1  0.25133162  0.28921634  0.25101457  1
  Pb  Pb199  1  0.24711201  0.61897051  0.24907299  1
  Pb  Pb200  1  0.24725277  0.95178216  0.26137243  1
  Pb  Pb201  1  0.74848092  0.28482270  0.24614488  1
  Pb  Pb202  1  0.74588384  0.62024831  0.25473544  1
  Pb  Pb203  1  0.75141951  0.95319018  0.24220269  1
  Pb  Pb204  1  -0.00425670  0.21846573  0.74932669  1
  Pb  Pb205  1  0.00438377  0.54675020  0.75343873  1
  Pb  Pb206  1  -0.00244685  0.88044316  0.74632457  1
  Pb  Pb207  1  0.49568811  0.21559418  0.74869054  1
  Pb  Pb208  1  0.50295760  0.54728567  0.74813296  1
  Pb  Pb209  1  0.49864645  0.87845883  0.75339203  1
  Pb  Pb210  1  -0.00124254  0.12129244  0.24510651  1
  Pb  Pb211  1  -0.00200334  0.45344267  0.24853087  1
  Pb  Pb212  1  -0.00019304  0.78481394  0.25191518  1
  Pb  Pb213  1  0.49337926  0.11733554  0.25313906  1
  Pb  Pb214  1  0.49820717  0.45394308  0.25048758  1
  Pb  Pb215  1  0.49930282  0.78695141  0.25108587  1
  C  C216  1  0.00070388  0.04751599  0.63371446  1
  C  C217  1  0.00000242  0.38090710  0.63300796  1
  C  C218  1  -0.00130874  0.71050406  0.63312550  1
  C  C219  1  0.50670077  0.04598011  0.63658046  1
  C  C220  1  0.50306294  0.38035326  0.63284917  1
  C  C221  1  0.49826069  0.71206805  0.63021131  1
  C  C222  1  0.00169775  0.28913500  0.12977818  1
  C  C223  1  -0.00236709  0.62194106  0.13277709  1
  C  C224  1  0.00075176  0.95346468  0.13509930  1
  C  C225  1  0.50268639  0.29007054  0.12869833  1
  C  C226  1  0.49462911  0.62259659  0.13077612  1
  C  C227  1  0.50725894  0.95402798  0.13123313  1
  C  C228  1  0.00645727  0.04576137  0.86730233  1
  C  C229  1  0.00432347  0.37956438  0.87225855  1
  C  C230  1  -0.00492222  0.71156412  0.86961420  1
  C  C231  1  0.50547407  0.04450808  0.86705871  1
  C  C232  1  0.50269932  0.38040699  0.87412369  1
  C  C233  1  0.49400198  0.71224771  0.86922871  1
  C  C234  1  0.00184733  0.28986061  0.36701264  1
  C  C235  1  -0.00233123  0.62009739  0.37230767  1
  C  C236  1  0.00420132  0.95253830  0.36571253  1
  C  C237  1  0.50575060  0.28877725  0.36924301  1
  C  C238  1  0.49464536  0.61979568  0.36681432  1
  C  C239  1  0.49970957  0.95271474  0.36441300  1
  C  C240  1  0.24357669  0.21143793  0.63558033  1
  C  C241  1  0.25460793  0.54719490  0.62615595  1
  C  C242  1  0.24468478  0.87763889  0.63407120  1
  C  C243  1  0.74862199  0.21362000  0.63154382  1
  C  C244  1  0.75261285  0.54612290  0.63052941  1
  C  C245  1  0.75174706  0.88018385  0.63484087  1
  C  C246  1  0.24582317  0.12181655  0.13276805  1
  C  C247  1  0.24731139  0.45292147  0.12484664  1
  C  C248  1  0.25220174  0.78940628  0.12996128  1
  C  C249  1  0.74363128  0.12111296  0.12981119  1
  C  C250  1  0.74710745  0.45546889  0.13180952  1
  C  C251  1  0.75121882  0.78657724  0.13030313  1
  C  C252  1  0.24424359  0.21355360  0.86730153  1
  C  C253  1  0.25856523  0.54393036  0.86885893  1
  C  C254  1  0.24610534  0.87847042  0.86849872  1
  C  C255  1  0.74884158  0.21173643  0.86977259  1
  C  C256  1  0.75522675  0.54576636  0.86952701  1
  C  C257  1  0.74350301  0.87794944  0.86929051  1
  C  C258  1  0.25027709  0.12246277  0.36871056  1
  C  C259  1  0.24836566  0.45524489  0.37258608  1
  C  C260  1  0.24727896  0.78599917  0.36698253  1
  C  C261  1  0.74523805  0.12030406  0.36534484  1
  C  C262  1  0.75019794  0.45336878  0.36581655  1
  C  C263  1  0.75150797  0.78700213  0.36567472  1
  C  C264  1  0.21878413  0.42617167  0.46829465  1
  C  C265  1  0.20353711  0.42513034  0.03368847  1
  C  C266  1  0.51912832  0.59099432  0.03618489  1
  C  C267  1  0.05917469  0.25920890  0.04218289  1
  C  C268  1  0.47848451  0.07194495  0.96168766  1
  C  C269  1  0.02547235  0.58949016  0.46787402  1
  C  C270  1  0.23887710  0.57080201  0.96626085  1
  C  C271  1  0.53837065  0.06320507  0.53865619  1
  C  C272  1  0.27445157  0.90604423  0.96408334  1
  C  C273  1  0.98480803  0.92476775  0.03918598  1
  C  C274  1  0.26585498  0.09222322  0.03765198  1
  C  C275  1  0.47055864  0.74500673  0.96275651  1
  C  C276  1  0.46030865  0.40673376  0.96530668  1
  C  C277  1  0.03696431  0.93486180  0.46281028  1
  C  C278  1  0.02169452  0.58915135  0.03910598  1
  C  C279  1  0.31969575  0.56773388  0.95655767  1
  C  C280  1  0.46675964  0.26069079  0.46227688  1
  C  C281  1  0.97302750  0.40896833  0.53862039  1
  C  C282  1  0.28475861  0.42497313  0.03248805  1
  C  C283  1  0.45834583  0.92635606  0.03998215  1
  C  C284  1  0.77180263  0.42827740  0.03678433  1
  C  C285  1  0.54057207  0.40665016  0.96647856  1
  C  C286  1  0.96089649  0.74291673  0.54186225  1
  C  C287  1  0.05952530  0.26007794  0.45327064  1
  C  C288  1  0.52036252  0.59177951  0.46139759  1
  C  C289  1  0.68943789  0.09031940  0.04128157  1
  C  C290  1  0.45673934  0.06627192  0.54404459  1
  C  C291  1  0.19336489  0.90469366  0.95876843  1
  C  C292  1  0.05987537  0.40948283  0.96086131  1
  C  C293  1  0.81219401  0.76176892  0.04325859  1
  C  C294  1  0.29328430  0.90418224  0.54347321  1
  C  C295  1  0.73218610  0.57331113  0.96579930  1
  C  C296  1  0.69170624  0.24289750  0.95699255  1
  C  C297  1  0.78641287  0.76042311  0.45910950  1
  C  C298  1  0.81289799  0.57150411  0.95828653  1
  C  C299  1  0.21891140  0.75439506  0.45987514  1
  C  C300  1  0.21201633  0.57365612  0.53509338  1
  C  C301  1  0.48145809  0.92850138  0.46135988  1
  C  C302  1  0.76904479  0.90603734  0.53826605  1
  C  C303  1  0.05953991  0.06884805  0.54492039  1
  C  C304  1  0.81876453  0.57251250  0.54601688  1
  C  C305  1  0.53970965  0.92584242  0.03662567  1
  C  C306  1  0.29228510  0.57441320  0.53409650  1
  C  C307  1  0.97890090  0.07077253  0.53524583  1
  C  C308  1  0.98013441  0.07568374  0.96230504  1
  C  C309  1  0.73169793  0.75910151  0.03267724  1
  C  C310  1  0.77609008  0.42647382  0.46078006  1
  C  C311  1  0.71204143  0.09714727  0.46104748  1
  N  N312  1  0.69074937  0.90567562  0.54716141  1
  N  N313  1  0.52681318  0.40930224  0.53696503  1
  N  N314  1  0.69289114  0.42863859  0.04209068  1
  N  N315  1  0.05203157  0.40729732  0.54232462  1
  N  N316  1  0.98073429  0.25694028  0.03625803  1
  N  N317  1  0.28271970  0.23897952  0.54231399  1
  N  N318  1  0.45814071  0.26260173  0.03975128  1
  N  N319  1  0.05905679  0.07437364  0.95467808  1
  N  N320  1  0.54640795  0.25890692  0.46000419  1
  N  N321  1  0.22020296  0.75903681  0.03893563  1
  N  N322  1  0.53700735  0.73252906  0.53653717  1
  N  N323  1  0.06283792  0.92627295  0.04903021  1
  N  N324  1  0.68225963  0.23856921  0.54708957  1
  N  N325  1  0.98103855  0.41071586  0.96575634  1
  N  N326  1  0.76803875  0.09054578  0.03625532  1
  N  N327  1  0.94715296  0.59259049  0.46116453  1
  N  N328  1  0.18729502  0.09448827  0.04503906  1
  N  N329  1  0.75901696  0.24259349  0.53681849  1
  N  N330  1  0.68946319  0.90635245  0.95762025  1
  N  N331  1  0.29822092  0.75639615  0.45715910  1
  N  N332  1  0.01823643  0.74166247  0.96515492  1
  N  N333  1  0.55984849  0.93000119  0.45318853  1
  N  N334  1  0.98051624  0.25620035  0.46034115  1
  N  N335  1  0.22201938  0.24561329  0.96235111  1
  N  N336  1  0.79134067  0.09477026  0.45583158  1
  N  N337  1  0.53599224  0.25952394  0.03486011  1
  N  N338  1  0.94109551  0.73847211  0.95599268  1
  N  N339  1  0.03858565  0.74220496  0.54029008  1
  N  N340  1  0.21371564  0.90598330  0.54060928  1
  N  N341  1  0.29780614  0.24232470  0.95579517  1
  N  N342  1  0.29737022  0.42774720  0.46155796  1
  N  N343  1  0.69710276  0.42720395  0.45626063  1
  N  N344  1  0.95755930  0.93251767  0.45757001  1
  N  N345  1  0.74114430  0.57481320  0.53468764  1
  N  N346  1  0.77012732  0.24345161  0.96339361  1
  N  N347  1  0.26644685  0.09321380  0.46288947  1
  N  N348  1  0.45786457  0.74486947  0.54082402  1
  N  N349  1  0.18916874  0.09429203  0.45440334  1
  N  N350  1  0.55739924  0.07280873  0.95724983  1
  N  N351  1  0.54755014  0.74134008  0.95884820  1
  N  N352  1  0.45084631  0.40710690  0.54328132  1
  N  N353  1  0.20633308  0.23808243  0.54158421  1
  N  N354  1  0.44131151  0.59332049  0.45705212  1
  N  N355  1  0.44014892  0.59231410  0.04424777  1
  N  N356  1  0.29806901  0.76085596  0.03892936  1
  N  N357  1  0.76711247  0.90860114  0.96185869  1
  N  N358  1  0.70697153  0.76079262  0.45901930  1
  N  N359  1  0.94468547  0.59204312  0.04414426  1
  N  N360  1  0.07204158  0.05509080  0.60440633  1
  N  N361  1  0.06699816  0.39013000  0.60121616  1
  N  N362  1  0.06221647  0.72155377  0.59828058  1
  N  N363  1  0.56833760  0.05118590  0.59662918  1
  N  N364  1  0.56056436  0.39287892  0.59221765  1
  N  N365  1  0.56181602  0.72418562  0.59573072  1
  N  N366  1  0.43646562  0.28219303  0.09592889  1
  N  N367  1  0.42580206  0.61246170  0.10220831  1
  N  N368  1  0.43941119  0.94416948  0.09994387  1
  N  N369  1  0.94400810  0.27740524  0.08937498  1
  N  N370  1  0.92919246  0.61255154  0.10327856  1
  N  N371  1  0.94522099  0.94155032  0.09168643  1
  N  N372  1  0.44490035  0.05501542  0.90660672  1
  N  N373  1  0.43658712  0.39110822  0.90888079  1
  N  N374  1  0.43490425  0.72732800  0.90928069  1
  N  N375  1  0.94709991  0.05873669  0.90787608  1
  N  N376  1  0.94560610  0.39102821  0.91175901  1
  N  N377  1  0.92595184  0.72008372  0.89829612  1
  N  N378  1  0.07278815  0.27934648  0.39502817  1
  N  N379  1  0.05705486  0.60644131  0.41307241  1
  N  N380  1  0.06612870  0.94784354  0.40600042  1
  N  N381  1  0.57023376  0.27764610  0.40303198  1
  N  N382  1  0.55470016  0.60812742  0.40653312  1
  N  N383  1  0.56946612  0.94483505  0.39295138  1
  N  N384  1  0.30698779  0.22290652  0.60041706  1
  N  N385  1  0.31917483  0.55861493  0.58967330  1
  N  N386  1  0.31271645  0.88861682  0.60186691  1
  N  N387  1  0.80091586  0.22590752  0.58730097  1
  N  N388  1  0.82602530  0.55590427  0.60577387  1
  N  N389  1  0.80834139  0.89084825  0.59185245  1
  N  N390  1  0.17638983  0.11293040  0.10457548  1
  N  N391  1  0.18105648  0.44215270  0.09033312  1
  N  N392  1  0.19037366  0.77720064  0.09357096  1
  N  N393  1  0.67402653  0.10876182  0.09928866  1
  N  N394  1  0.67937754  0.44553773  0.10120811  1
  N  N395  1  0.69468297  0.77518833  0.08828486  1
  N  N396  1  0.18735340  0.22775781  0.90772610  1
  N  N397  1  0.20183967  0.55597940  0.91050121  1
  N  N398  1  0.17697666  0.88786168  0.89823019  1
  N  N399  1  0.67834252  0.22396167  0.89889517  1
  N  N400  1  0.69743303  0.55760441  0.91242798  1
  N  N401  1  0.67528599  0.88860200  0.89950307  1
  N  N402  1  0.30522437  0.11268116  0.41181698  1
  N  N403  1  0.31618398  0.44621454  0.40269736  1
  N  N404  1  0.31396396  0.77622108  0.39878246  1
  N  N405  1  0.81175150  0.11162019  0.39734260  1
  N  N406  1  0.81041882  0.44209391  0.40553821  1
  N  N407  1  0.81506470  0.77595433  0.40209490  1
  N  N408  1  0.44140249  0.27802018  0.40568454  1
  N  N409  1  0.42708080  0.61040011  0.39800074  1
  N  N410  1  0.44273645  0.94232909  0.40718252  1
  N  N411  1  0.94496482  0.27810489  0.40808249  1
  N  N412  1  0.92938498  0.61246013  0.40232515  1
  N  N413  1  0.93787553  0.94009851  0.39676234  1
  N  N414  1  0.07500973  0.05496164  0.89653190  1
  N  N415  1  0.07424197  0.39069072  0.90273145  1
  N  N416  1  0.05145367  0.72495174  0.91108045  1
  N  N417  1  0.57248266  0.05557091  0.89821619  1
  N  N418  1  0.56737034  0.39099026  0.91078667  1
  N  N419  1  0.56227775  0.72034955  0.89918555  1
  N  N420  1  0.07232975  0.27844966  0.10024605  1
  N  N421  1  0.05645214  0.60725073  0.09253954  1
  N  N422  1  0.07131355  0.94397995  0.10873210  1
  N  N423  1  0.56319952  0.27597354  0.09095575  1
  N  N424  1  0.55348696  0.60959867  0.08975718  1
  N  N425  1  0.56912865  0.94228550  0.09173081  1
  N  N426  1  0.43853131  0.05559436  0.60510848  1
  N  N427  1  0.43492765  0.38897429  0.60263000  1
  N  N428  1  0.43401978  0.72085432  0.59529895  1
  N  N429  1  0.94284101  0.05730552  0.59193439  1
  N  N430  1  0.93928355  0.39288548  0.59392042  1
  N  N431  1  0.93412861  0.72413721  0.59809953  1
  N  N432  1  0.17985699  0.11081607  0.39532610  1
  N  N433  1  0.18806318  0.44293747  0.41328443  1
  N  N434  1  0.18625888  0.77263955  0.40511151  1
  N  N435  1  0.68282239  0.11101504  0.40449315  1
  N  N436  1  0.68288460  0.44360865  0.39696360  1
  N  N437  1  0.68711428  0.77706789  0.40016345  1
  N  N438  1  0.31281551  0.22207078  0.89699642  1
  N  N439  1  0.33085458  0.55153689  0.89697674  1
  N  N440  1  0.30618995  0.89020657  0.90953132  1
  N  N441  1  0.80661012  0.22239492  0.91040020  1
  N  N442  1  0.82586027  0.55440514  0.89724830  1
  N  N443  1  0.80188648  0.88955037  0.90922254  1
  N  N444  1  0.30313117  0.10884894  0.09114627  1
  N  N445  1  0.31126937  0.44199062  0.08796288  1
  N  N446  1  0.31759451  0.77902506  0.09604596  1
  N  N447  1  0.80263703  0.11081192  0.09020433  1
  N  N448  1  0.80673128  0.44391262  0.09169643  1
  N  N449  1  0.82346815  0.77794826  0.10266178  1
  N  N450  1  0.18055601  0.22060229  0.59918392  1
  N  N451  1  0.18837892  0.55735112  0.59138722  1
  N  N452  1  0.18376106  0.88633516  0.59577768  1
  N  N453  1  0.67657126  0.22167296  0.60641198  1
  N  N454  1  0.69950242  0.55597299  0.58629389  1
  N  N455  1  0.68180592  0.88960216  0.60714459  1
  Cl  Cl456  1  0.25665763  0.05657889  0.61300116  1
  Cl  Cl457  1  0.25245483  0.39174652  0.60958394  1
  Cl  Cl458  1  0.24993788  0.72223181  0.62174799  1
  Cl  Cl459  1  0.75549023  0.06061037  0.61150078  1
  Cl  Cl460  1  0.75191027  0.38973443  0.61399337  1
  Cl  Cl461  1  0.74717227  0.71531136  0.61165594  1
  Cl  Cl462  1  0.25484726  0.28505597  0.11924656  1
  Cl  Cl463  1  0.24009704  0.61193897  0.11320802  1
  Cl  Cl464  1  0.25480529  0.94988707  0.13147365  1
  Cl  Cl465  1  0.75806468  0.27099554  0.10606041  1
  Cl  Cl466  1  0.73922839  0.61284520  0.12387844  1
  Cl  Cl467  1  0.76005667  0.94406689  0.10345298  1
  Cl  Cl468  1  0.26039160  0.05309261  0.88550423  1
  Cl  Cl469  1  0.25393168  0.38688047  0.87274269  1
  Cl  Cl470  1  0.23719476  0.72671686  0.89290610  1
  Cl  Cl471  1  0.76334054  0.05893484  0.88997541  1
  Cl  Cl472  1  0.76117696  0.38741838  0.88568606  1
  Cl  Cl473  1  0.74533021  0.71848526  0.87846391  1
  Cl  Cl474  1  0.25723119  0.28693316  0.38268422  1
  Cl  Cl475  1  0.23997693  0.61100093  0.37977323  1
  Cl  Cl476  1  0.25224589  0.94109744  0.39926387  1
  Cl  Cl477  1  0.75984037  0.27215458  0.39602293  1
  Cl  Cl478  1  0.74079241  0.60648103  0.39549107  1
  Cl  Cl479  1  0.75660681  0.94735132  0.37733187  1
  Cl  Cl480  1  -0.01323424  0.22775274  0.60431395  1
  Cl  Cl481  1  0.00495317  0.55666886  0.61982382  1
  Cl  Cl482  1  -0.00362791  0.89221801  0.60608668  1
  Cl  Cl483  1  0.49196736  0.22214767  0.61311148  1
  Cl  Cl484  1  0.51604857  0.56163860  0.61363403  1
  Cl  Cl485  1  0.49515625  0.88359583  0.61930886  1
  Cl  Cl486  1  -0.01275764  0.11324057  0.10863488  1
  Cl  Cl487  1  -0.00944158  0.44318692  0.10931666  1
  Cl  Cl488  1  0.00776093  0.77884938  0.11981142  1
  Cl  Cl489  1  0.48777099  0.11163017  0.11785740  1
  Cl  Cl490  1  0.49572073  0.45085716  0.11893442  1
  Cl  Cl491  1  0.50271113  0.78072810  0.11925037  1
  Cl  Cl492  1  -0.00728249  0.22821831  0.89488729  1
  Cl  Cl493  1  0.01561025  0.55075522  0.88517383  1
  Cl  Cl494  1  -0.01585705  0.89022435  0.88254274  1
  Cl  Cl495  1  0.49500183  0.22208791  0.88070194  1
  Cl  Cl496  1  0.51620116  0.55408981  0.88380445  1
  Cl  Cl497  1  0.49027292  0.88539899  0.88647666  1
  Cl  Cl498  1  -0.00554350  0.11293404  0.37868684  1
  Cl  Cl499  1  -0.00245550  0.44745616  0.38375120  1
  Cl  Cl500  1  0.00021692  0.78247550  0.38391430  1
  Cl  Cl501  1  0.49287455  0.11139262  0.38960260  1
  Cl  Cl502  1  0.49851177  0.44732140  0.38104843  1
  Cl  Cl503  1  0.50059741  0.77727193  0.38825303  1
  Cl  Cl504  1  0.36140133  0.14755593  0.74978096  1
  Cl  Cl505  1  0.36252682  0.48254969  0.74630583  1
  Cl  Cl506  1  0.35601787  0.81705494  0.74930710  1
  Cl  Cl507  1  0.86046466  0.15053136  0.75155822  1
  Cl  Cl508  1  0.86687454  0.47994391  0.74725368  1
  Cl  Cl509  1  0.85983620  0.81404232  0.74978594  1
  Cl  Cl510  1  0.13651946  0.18833669  0.25081675  1
  Cl  Cl511  1  0.13881185  0.51610916  0.24600023  1
  Cl  Cl512  1  0.14039072  0.85506426  0.24993912  1
  Cl  Cl513  1  0.64127838  0.18821915  0.24909579  1
  Cl  Cl514  1  0.63873046  0.51747957  0.25309346  1
  Cl  Cl515  1  0.64154939  0.85185950  0.25366107  1
  Cl  Cl516  1  0.13873442  0.14341451  0.75148283  1
  Cl  Cl517  1  0.14072858  0.48013849  0.74470460  1
  Cl  Cl518  1  0.13618797  0.81468217  0.75435595  1
  Cl  Cl519  1  0.63997065  0.14517620  0.74741491  1
  Cl  Cl520  1  0.64711570  0.48260950  0.75099913  1
  Cl  Cl521  1  0.63933874  0.81446982  0.74761922  1
  Cl  Cl522  1  0.35611445  0.18391684  0.25036890  1
  Cl  Cl523  1  0.35884522  0.51849975  0.25058551  1
  Cl  Cl524  1  0.35985913  0.85191816  0.25737141  1
  Cl  Cl525  1  0.86028137  0.18554593  0.25286423  1
  Cl  Cl526  1  0.85916595  0.52032477  0.25126137  1
  Cl  Cl527  1  0.86414180  0.85313738  0.24437160  1
  Cl  Cl528  1  0.11371626  0.31219913  0.74707259  1
  Cl  Cl529  1  0.10755329  0.65120879  0.75114843  1
  Cl  Cl530  1  0.11418085  0.97861158  0.74723913  1
  Cl  Cl531  1  0.61268088  0.31363133  0.74996190  1
  Cl  Cl532  1  0.60916220  0.65123238  0.75184045  1
  Cl  Cl533  1  0.61348274  0.97893493  0.75477434  1
  Cl  Cl534  1  0.39599652  0.01843301  0.25068619  1
  Cl  Cl535  1  0.39616294  0.34827558  0.25132123  1
  Cl  Cl536  1  0.38625075  0.68604558  0.25123005  1
  Cl  Cl537  1  0.89107213  0.01809296  0.25322639  1
  Cl  Cl538  1  0.88784813  0.35132424  0.25003518  1
  Cl  Cl539  1  0.88526089  0.68643659  0.25088776  1
  Cl  Cl540  1  0.39063987  0.31413360  0.74892671  1
  Cl  Cl541  1  0.38964086  0.64727235  0.75089290  1
  Cl  Cl542  1  0.39220515  0.98181800  0.74344620  1
  Cl  Cl543  1  0.89716731  0.31341550  0.75231729  1
  Cl  Cl544  1  0.88735655  0.64467989  0.75354763  1
  Cl  Cl545  1  0.89247274  0.98498983  0.75071536  1
  Cl  Cl546  1  0.11199994  0.02102555  0.24772307  1
  Cl  Cl547  1  0.10829051  0.35146948  0.24854930  1
  Cl  Cl548  1  0.10668167  0.68290152  0.25069863  1
  Cl  Cl549  1  0.61627635  0.02257312  0.25270211  1
  Cl  Cl550  1  0.61558001  0.35463744  0.25167038  1
  Cl  Cl551  1  0.60636044  0.68384431  0.25300647  1
