# generated using pymatgen
data_H8PbC4(N3Cl2)2
_symmetry_space_group_name_H-M   'P 1'
_cell_length_a   16.63514437
_cell_length_b   22.52541673
_cell_length_c   21.59994667
_cell_angle_alpha   90.00049043
_cell_angle_beta   89.98726521
_cell_angle_gamma   90.01157713
_symmetry_Int_Tables_number   1
_chemical_formula_structural   H8PbC4(N3Cl2)2
_chemical_formula_sum   'H192 Pb24 C96 N144 Cl96'
_cell_volume   8093.79253658
_cell_formula_units_Z   24
loop_
 _symmetry_equiv_pos_site_id
 _symmetry_equiv_pos_as_xyz
  1  'x, y, z'
loop_
 _atom_site_type_symbol
 _atom_site_label
 _atom_site_symmetry_multiplicity
 _atom_site_fract_x
 _atom_site_fract_y
 _atom_site_fract_z
 _atom_site_occupancy
  H  H0  1  -0.00296913  0.02712574  0.67977301  1
  H  H1  1  0.00163046  0.36399551  0.68226091  1
  H  H2  1  -0.00132485  0.69384451  0.67699337  1
  H  H3  1  0.49172305  0.02371889  0.67959415  1
  H  H4  1  0.50517356  0.36892284  0.68618108  1
  H  H5  1  0.49800689  0.69209481  0.67266526  1
  H  H6  1  0.01352259  0.30668830  0.17824370  1
  H  H7  1  0.00070009  0.63602607  0.18102942  1
  H  H8  1  0.01328058  0.97335334  0.17520003  1
  H  H9  1  0.47613292  0.31191244  0.17225884  1
  H  H10  1  0.50517692  0.63706618  0.17813927  1
  H  H11  1  0.49634377  0.97247931  0.17453478  1
  H  H12  1  -0.00041048  0.02953775  0.81760952  1
  H  H13  1  0.00311810  0.36553810  0.82415931  1
  H  H14  1  0.01253272  0.69753345  0.81934979  1
  H  H15  1  0.49056168  0.03158704  0.82266928  1
  H  H16  1  0.49077952  0.36070553  0.82685173  1
  H  H17  1  0.48188377  0.69046798  0.82135715  1
  H  H18  1  -0.01804621  0.30108854  0.32851205  1
  H  H19  1  0.02564835  0.63678107  0.32845950  1
  H  H20  1  -0.01081397  0.96903804  0.32139677  1
  H  H21  1  0.51309736  0.30045455  0.31778149  1
  H  H22  1  0.48386378  0.63876196  0.32243836  1
  H  H23  1  0.51257715  0.96611033  0.32750682  1
  H  H24  1  0.26339216  0.19614392  0.67787606  1
  H  H25  1  0.25900653  0.52619788  0.67585298  1
  H  H26  1  0.25200710  0.86058957  0.68210639  1
  H  H27  1  0.73699384  0.19242590  0.67798180  1
  H  H28  1  0.74070316  0.53107818  0.67615488  1
  H  H29  1  0.75501483  0.85785569  0.67624960  1
  H  H30  1  0.24503368  0.13523367  0.18198925  1
  H  H31  1  0.25319663  0.47495863  0.16882266  1
  H  H32  1  0.24394023  0.79947437  0.18411751  1
  H  H33  1  0.75211521  0.13979563  0.17402951  1
  H  H34  1  0.73823023  0.47327503  0.17376454  1
  H  H35  1  0.75825588  0.80383219  0.17968765  1
  H  H36  1  0.25113558  0.19038254  0.82071717  1
  H  H37  1  0.25974651  0.52957141  0.82535841  1
  H  H38  1  0.24214711  0.86463495  0.81871490  1
  H  H39  1  0.74141848  0.19653978  0.82524305  1
  H  H40  1  0.74310412  0.52676123  0.82394670  1
  H  H41  1  0.76307230  0.85723073  0.82621838  1
  H  H42  1  0.24971132  0.13987443  0.32502439  1
  H  H43  1  0.25181612  0.47001403  0.31918489  1
  H  H44  1  0.25965470  0.80521952  0.32203412  1
  H  H45  1  0.75909454  0.13382370  0.31655895  1
  H  H46  1  0.74849041  0.46082880  0.31361472  1
  H  H47  1  0.74470483  0.81343085  0.32772856  1
  H  H48  1  0.13365481  0.05011475  0.62225776  1
  H  H49  1  0.12409681  0.38883028  0.61129503  1
  H  H50  1  0.13327560  0.71744961  0.61819645  1
  H  H51  1  0.63047985  0.04629135  0.62513171  1
  H  H52  1  0.62552722  0.38201281  0.61086723  1
  H  H53  1  0.63209216  0.72127467  0.61521359  1
  H  H54  1  0.38179774  0.27903800  0.08201628  1
  H  H55  1  0.37664140  0.60876077  0.11218050  1
  H  H56  1  0.36866744  0.94520404  0.10982486  1
  H  H57  1  0.87162996  0.28461687  0.12808391  1
  H  H58  1  0.88369267  0.61083764  0.10336401  1
  H  H59  1  0.86891122  0.95409377  0.12849776  1
  H  H60  1  0.38499930  0.06238241  0.90639460  1
  H  H61  1  0.36930088  0.39068612  0.89707710  1
  H  H62  1  0.38034527  0.71862948  0.90824586  1
  H  H63  1  0.88230946  0.05470371  0.89379337  1
  H  H64  1  0.87017678  0.38978302  0.88694052  1
  H  H65  1  0.87388821  0.71384388  0.87477559  1
  H  H66  1  0.12461382  0.28733708  0.37401139  1
  H  H67  1  0.12122472  0.60520629  0.41661260  1
  H  H68  1  0.11681737  0.94679957  0.38542118  1
  H  H69  1  0.61895714  0.27519768  0.40291448  1
  H  H70  1  0.62929263  0.62100566  0.36854987  1
  H  H71  1  0.61291887  0.93709016  0.41356115  1
  H  H72  1  0.37292169  0.22622601  0.59629812  1
  H  H73  1  0.36661671  0.56084227  0.59589112  1
  H  H74  1  0.38152080  0.88421547  0.61681966  1
  H  H75  1  0.87632208  0.21527801  0.62399957  1
  H  H76  1  0.86415442  0.55482835  0.60413546  1
  H  H77  1  0.87851308  0.88707079  0.60532312  1
  H  H78  1  0.12173679  0.11114098  0.11029113  1
  H  H79  1  0.13087802  0.44709077  0.10173585  1
  H  H80  1  0.12251840  0.77829606  0.11192425  1
  H  H81  1  0.61638197  0.11709218  0.11639838  1
  H  H82  1  0.63249134  0.44168914  0.09161462  1
  H  H83  1  0.62535153  0.78017844  0.11652756  1
  H  H84  1  0.12827601  0.22518830  0.88743156  1
  H  H85  1  0.12468499  0.54843764  0.88198754  1
  H  H86  1  0.13793249  0.89138035  0.90387318  1
  H  H87  1  0.62754097  0.22851520  0.90155044  1
  H  H88  1  0.62156333  0.55109184  0.89621510  1
  H  H89  1  0.63794025  0.88678946  0.89419342  1
  H  H90  1  0.35793332  0.10636709  0.40546943  1
  H  H91  1  0.37239343  0.43898720  0.38871266  1
  H  H92  1  0.36041239  0.77688909  0.40696070  1
  H  H93  1  0.86728945  0.11111310  0.39853695  1
  H  H94  1  0.87587346  0.44911685  0.38257061  1
  H  H95  1  0.86578592  0.77988752  0.39619333  1
  H  H96  1  0.37316453  0.28216558  0.37329763  1
  H  H97  1  0.38724067  0.60618537  0.40971079  1
  H  H98  1  0.37078679  0.95082178  0.37423418  1
  H  H99  1  0.88321425  0.26949610  0.41555036  1
  H  H100  1  0.88147223  0.62302814  0.37188139  1
  H  H101  1  0.86777085  0.94471305  0.39414404  1
  H  H102  1  0.13084890  0.05395804  0.88190514  1
  H  H103  1  0.11777478  0.39213578  0.90237893  1
  H  H104  1  0.12032955  0.71902859  0.90136554  1
  H  H105  1  0.62986786  0.04868215  0.87666529  1
  H  H106  1  0.61805720  0.38994559  0.89250725  1
  H  H107  1  0.62360922  0.71282469  0.86880992  1
  H  H108  1  0.11643964  0.27759155  0.09323771  1
  H  H109  1  0.13160640  0.61005411  0.11867631  1
  H  H110  1  0.10910880  0.93862680  0.08688850  1
  H  H111  1  0.62113827  0.28597452  0.13003726  1
  H  H112  1  0.62478295  0.60907260  0.10242372  1
  H  H113  1  0.61619203  0.94781742  0.10036744  1
  H  H114  1  0.38642703  0.05620670  0.59560711  1
  H  H115  1  0.37718100  0.39179514  0.62100648  1
  H  H116  1  0.38438379  0.72552868  0.59752042  1
  H  H117  1  0.88718278  0.05549687  0.59953489  1
  H  H118  1  0.87519599  0.38171948  0.61029944  1
  H  H119  1  0.88625213  0.72157327  0.59623458  1
  H  H120  1  0.11208162  0.11998349  0.38196923  1
  H  H121  1  0.12528832  0.45317078  0.39036065  1
  H  H122  1  0.11634259  0.78712435  0.36978892  1
  H  H123  1  0.62189680  0.11343425  0.36960677  1
  H  H124  1  0.62671780  0.44796205  0.38753976  1
  H  H125  1  0.61721131  0.78262463  0.39249488  1
  H  H126  1  0.37543308  0.21497359  0.89044486  1
  H  H127  1  0.37145803  0.55399066  0.90475108  1
  H  H128  1  0.38282831  0.88503437  0.87245279  1
  H  H129  1  0.87487834  0.21831750  0.88721869  1
  H  H130  1  0.87048120  0.55235643  0.88707933  1
  H  H131  1  0.88592569  0.88617731  0.89747779  1
  H  H132  1  0.37077253  0.11291195  0.11195023  1
  H  H133  1  0.37952654  0.44821278  0.10461076  1
  H  H134  1  0.37199217  0.77996187  0.11767710  1
  H  H135  1  0.86317673  0.10700770  0.09720706  1
  H  H136  1  0.87787728  0.45293059  0.11968866  1
  H  H137  1  0.87258150  0.77588379  0.09999216  1
  H  H138  1  0.12663694  0.21688852  0.62110529  1
  H  H139  1  0.12072122  0.55201631  0.62295840  1
  H  H140  1  0.13290201  0.88787572  0.60764282  1
  H  H141  1  0.63172872  0.22322255  0.59339771  1
  H  H142  1  0.61532497  0.55861480  0.60832570  1
  H  H143  1  0.63009649  0.88572785  0.60641989  1
  H  H144  1  0.83180683  0.58730962  0.99851328  1
  H  H145  1  0.71054616  0.25129326  0.49551598  1
  H  H146  1  0.64073954  0.08344380  0.48410977  1
  H  H147  1  0.07802837  0.91333670  0.49780524  1
  H  H148  1  0.17242361  0.08115869  0.00243199  1
  H  H149  1  0.29273885  0.59025480  0.49631629  1
  H  H150  1  0.54471076  0.24709706  0.50492471  1
  H  H151  1  0.02268279  0.91205264  -0.00779612  1
  H  H152  1  0.46407045  0.07889075  0.49564403  1
  H  H153  1  0.83433871  0.91655075  1.00017213  1
  H  H154  1  0.61143882  0.74371462  0.98234865  1
  H  H155  1  0.83521555  0.44734527  0.49873096  1
  H  H156  1  0.88461519  0.59033576  0.48655419  1
  H  H157  1  0.40851959  0.92196979  0.00259675  1
  H  H158  1  0.19146555  0.28676229  0.97039101  1
  H  H159  1  0.10528714  0.74909850  0.50523055  1
  H  H160  1  0.55751196  0.90438826  0.00402533  1
  H  H161  1  0.92530286  0.38242518  0.50136098  1
  H  H162  1  0.47228460  0.25150053  -0.01071627  1
  H  H163  1  0.33162613  0.75628222  0.00356802  1
  H  H164  1  0.62154796  0.59295605  0.47947542  1
  H  H165  1  0.11832240  0.25376465  0.49013835  1
  H  H166  1  0.95594762  0.08438685  0.49477199  1
  H  H167  1  0.04213001  0.24386509  -0.00706841  1
  H  H168  1  0.88958467  0.25445763  0.01897423  1
  H  H169  1  0.21265236  0.92237434  1.00473518  1
  H  H170  1  0.64381824  0.08489180  0.00723554  1
  H  H171  1  0.57319793  0.39530239  0.49778839  1
  H  H172  1  0.31552816  0.22644774  0.99638830  1
  H  H173  1  0.37829851  0.91836081  0.48976452  1
  H  H174  1  0.30130431  0.37851450  0.47089411  1
  H  H175  1  0.67579379  0.44087446  0.50217385  1
  H  H176  1  0.28282090  0.74772268  0.51006355  1
  H  H177  1  0.07691547  0.40082443  0.49761950  1
  H  H178  1  0.17225411  0.75249426  0.00054895  1
  H  H179  1  0.05131297  0.74430808  1.00923830  1
  H  H180  1  0.46894967  0.57786092  0.50940507  1
  H  H181  1  0.79957454  0.08202043  0.50448827  1
  H  H182  1  0.14679185  0.57853162  0.99663773  1
  H  H183  1  0.28457875  0.08891974  0.50747627  1
  H  H184  1  0.94183396  0.08451017  1.00033287  1
  H  H185  1  0.90696746  0.41833839  0.99332874  1
  H  H186  1  0.13776942  0.08299666  0.48808899  1
  H  H187  1  0.68908318  0.25940999  1.00601474  1
  H  H188  1  0.46026721  0.73518375  1.00769253  1
  H  H189  1  0.18947531  0.45552740  0.49638394  1
  H  H190  1  0.45129391  0.75884637  0.49616198  1
  H  H191  1  0.41641357  0.42019217  0.50873746  1
  Pb  Pb192  1  0.25951068  0.05024260  0.74929295  1
  Pb  Pb193  1  0.24814924  0.38155649  0.74808751  1
  Pb  Pb194  1  0.25525276  0.71469525  0.75729917  1
  Pb  Pb195  1  0.75717802  0.04859305  0.75131356  1
  Pb  Pb196  1  0.75591210  0.38340876  0.74819921  1
  Pb  Pb197  1  0.75375730  0.71322106  0.74091801  1
  Pb  Pb198  1  0.24654283  0.28619231  0.23198536  1
  Pb  Pb199  1  0.24878489  0.61765585  0.26314937  1
  Pb  Pb200  1  0.23889184  0.94870850  0.24129406  1
  Pb  Pb201  1  0.74415230  0.28251606  0.26465091  1
  Pb  Pb202  1  0.74855158  0.61783135  0.24240515  1
  Pb  Pb203  1  0.74162044  0.95337492  0.25208623  1
  Pb  Pb204  1  0.00259778  0.21337634  0.75585099  1
  Pb  Pb205  1  0.00006317  0.54905289  0.74669459  1
  Pb  Pb206  1  0.00566317  0.88074857  0.75167102  1
  Pb  Pb207  1  0.50797855  0.21931125  0.74600499  1
  Pb  Pb208  1  0.50078390  0.54691075  0.74735764  1
  Pb  Pb209  1  0.50923816  0.88092868  0.75698798  1
  Pb  Pb210  1  -0.00611230  0.11935881  0.24715530  1
  Pb  Pb211  1  -0.00100023  0.45090046  0.25367052  1
  Pb  Pb212  1  -0.01092731  0.78235311  0.24690955  1
  Pb  Pb213  1  0.48518961  0.11526852  0.26003079  1
  Pb  Pb214  1  0.49875511  0.45163844  0.25139303  1
  Pb  Pb215  1  0.49647088  0.78537829  0.25502410  1
  C  C216  1  0.00662062  0.04301653  0.63289089  1
  C  C217  1  -0.00040898  0.37650446  0.63363435  1
  C  C218  1  0.00617322  0.71014554  0.63015268  1
  C  C219  1  0.50267755  0.04011231  0.63314654  1
  C  C220  1  0.50237976  0.38071560  0.63744563  1
  C  C221  1  0.50467939  0.71155762  0.62721255  1
  C  C222  1  -0.00016473  0.29008200  0.13215387  1
  C  C223  1  0.00503166  0.62012517  0.13391729  1
  C  C224  1  -0.00276276  0.95617392  0.12996048  1
  C  C225  1  0.49274005  0.29291266  0.12789000  1
  C  C226  1  0.50224853  0.61990983  0.13123848  1
  C  C227  1  0.49360874  0.95516397  0.12764319  1
  C  C228  1  0.00450246  0.04548654  0.86485512  1
  C  C229  1  -0.00344637  0.38172087  0.87116789  1
  C  C230  1  0.00235609  0.71052312  0.86696207  1
  C  C231  1  0.50165201  0.04713087  0.86924014  1
  C  C232  1  0.49295646  0.37988554  0.87261918  1
  C  C233  1  0.49534537  0.70604195  0.86789558  1
  C  C234  1  -0.00237031  0.28564728  0.37447643  1
  C  C235  1  0.00835473  0.62131133  0.37404072  1
  C  C236  1  -0.00815912  0.95387720  0.36892836  1
  C  C237  1  0.50151234  0.28558180  0.36473001  1
  C  C238  1  0.50110799  0.62350719  0.36842710  1
  C  C239  1  0.49771663  0.95120200  0.37379931  1
  C  C240  1  0.25468960  0.21318521  0.63162540  1
  C  C241  1  0.24891859  0.54495344  0.63046173  1
  C  C242  1  0.25528584  0.87735869  0.63534423  1
  C  C243  1  0.74797556  0.20961682  0.63187274  1
  C  C244  1  0.74029087  0.54814446  0.62934587  1
  C  C245  1  0.75460153  0.87576302  0.62963661  1
  C  C246  1  0.24576889  0.12011204  0.13431683  1
  C  C247  1  0.25460839  0.45680820  0.12229497  1
  C  C248  1  0.24638412  0.78576224  0.13594060  1
  C  C249  1  0.74340348  0.12261989  0.12766652  1
  C  C250  1  0.74991794  0.45659878  0.12776993  1
  C  C251  1  0.75213525  0.78791557  0.13253023  1
  C  C252  1  0.25154340  0.20943507  0.86682343  1
  C  C253  1  0.25119333  0.54401457  0.87278319  1
  C  C254  1  0.25486854  0.88026558  0.86523758  1
  C  C255  1  0.74819005  0.21364612  0.87195704  1
  C  C256  1  0.74564050  0.54319694  0.87097235  1
  C  C257  1  0.76278872  0.87588773  0.87244334  1
  C  C258  1  0.23973061  0.12324514  0.37165177  1
  C  C259  1  0.24942610  0.45473630  0.36677078  1
  C  C260  1  0.24526171  0.78975541  0.36834437  1
  C  C261  1  0.74862988  0.12019789  0.36419994  1
  C  C262  1  0.75047232  0.45251326  0.36312617  1
  C  C263  1  0.74230797  0.79262547  0.37273552  1
  C  C264  1  0.29120850  0.76379602  0.04233695  1
  C  C265  1  0.70078117  0.57796647  0.53756620  1
  C  C266  1  0.76937920  0.09325148  0.46139531  1
  C  C267  1  0.29745807  0.42492780  0.03289761  1
  C  C268  1  0.06608019  0.26065532  0.45897349  1
  C  C269  1  0.72316278  0.24584529  0.96542051  1
  C  C270  1  0.05747728  0.73842846  0.54176859  1
  C  C271  1  0.79016029  0.57445966  0.96224333  1
  C  C272  1  0.45661511  0.40395625  0.54442172  1
  C  C273  1  0.19539993  0.56955811  0.96261997  1
  C  C274  1  0.21076810  0.09279551  0.04132208  1
  C  C275  1  0.17657114  0.76433602  0.45193656  1
  C  C276  1  0.24084951  0.91061948  0.96060523  1
  C  C277  1  0.73354205  0.42364973  0.03313197  1
  C  C278  1  0.56181689  0.73432165  0.95078739  1
  C  C279  1  0.98648120  0.25443540  0.47115299  1
  C  C280  1  0.45916999  0.41518831  0.96299087  1
  C  C281  1  0.18791278  0.58153659  0.54740798  1
  C  C282  1  0.76893310  0.08679122  0.03377890  1
  C  C283  1  0.27646739  0.57119450  0.96888329  1
  C  C284  1  0.51041412  0.92186350  0.47083823  1
  C  C285  1  0.68831302  0.09387606  0.45118685  1
  C  C286  1  0.49286050  0.59192531  0.46465975  1
  C  C287  1  0.02155074  0.73481391  0.96544609  1
  C  C288  1  0.03636204  0.92555251  0.46124112  1
  C  C289  1  0.01656108  0.59040220  0.47120620  1
  C  C290  1  0.03958433  0.39528738  0.53843500  1
  C  C291  1  0.93738239  0.59703492  0.45746498  1
  C  C292  1  0.25583505  0.76024029  0.46602756  1
  C  C293  1  0.55934984  0.75099510  0.54290188  1
  C  C294  1  0.94157759  0.73311986  0.95430697  1
  C  C295  1  0.97638546  0.07311910  0.95912795  1
  C  C296  1  0.79507160  0.44435270  0.45924301  1
  C  C297  1  0.98625321  0.07138651  0.53743967  1
  C  C298  1  0.95490204  0.92624077  0.46260603  1
  C  C299  1  0.71314342  0.44254871  0.46093801  1
  C  C300  1  0.05214512  0.59161940  0.04386448  1
  C  C301  1  0.77570636  0.75224685  0.46093986  1
  C  C302  1  0.29914540  0.90601558  0.54470335  1
  C  C303  1  0.43052140  0.92605536  0.45882881  1
  C  C304  1  0.01540365  0.25780420  0.03655360  1
  C  C305  1  0.20017624  0.24225411  0.54485488  1
  C  C306  1  0.21665675  0.42436315  0.03182275  1
  C  C307  1  0.70868272  0.57313913  0.96397061  1
  C  C308  1  0.51629930  0.25829251  0.46099258  1
  C  C309  1  0.53771417  0.39646057  0.54000522  1
  C  C310  1  0.20934696  0.76245978  0.04063084  1
  C  C311  1  0.56011904  0.07341609  0.95549427  1
  N  N312  1  0.43820443  0.25960305  0.45126165  1
  N  N313  1  0.29002057  0.09376642  0.04108552  1
  N  N314  1  0.77844283  0.57722484  0.53513317  1
  N  N315  1  0.48380217  0.73587090  0.96364674  1
  N  N316  1  0.70264736  0.75958649  0.04282802  1
  N  N317  1  0.31879385  0.90977530  0.94986291  1
  N  N318  1  0.45840632  0.58989146  0.04023364  1
  N  N319  1  0.71564663  0.90938607  0.53871092  1
  N  N320  1  0.02724232  0.41033577  0.96595667  1
  N  N321  1  0.79176275  0.90993235  0.53843286  1
  N  N322  1  0.05559757  0.07249882  0.95558052  1
  N  N323  1  0.48994329  0.25761390  0.03518199  1
  N  N324  1  0.77836637  0.75778431  0.03760982  1
  N  N325  1  0.56557409  0.25975375  0.05002006  1
  N  N326  1  0.26599789  0.58279398  0.53891883  1
  N  N327  1  0.18269074  0.10008941  0.45827981  1
  N  N328  1  0.81110826  0.24026854  0.54814322  1
  N  N329  1  0.93762245  0.26003548  0.04921660  1
  N  N330  1  0.00220517  0.92091808  0.03721245  1
  N  N331  1  0.29372662  0.24377144  0.95560917  1
  N  N332  1  0.48091519  0.75034132  0.53703453  1
  N  N333  1  0.28837223  0.42150870  0.45791878  1
  N  N334  1  0.27664349  0.24603768  0.53550311  1
  N  N335  1  0.48389245  0.07869082  0.96617168  1
  N  N336  1  0.94950907  0.40984602  0.95912269  1
  N  N337  1  0.22184076  0.90768296  0.54044417  1
  N  N338  1  0.92631732  0.92678078  0.04967488  1
  N  N339  1  0.95969662  0.39338839  0.53898756  1
  N  N340  1  0.25973680  0.08717414  0.46338533  1
  N  N341  1  0.56981545  0.59794499  0.45003349  1
  N  N342  1  0.71915398  0.90850710  0.96270029  1
  N  N343  1  0.20525390  0.42941897  0.45913100  1
  N  N344  1  0.79734852  0.90841525  0.96232296  1
  N  N345  1  0.97498345  0.59173316  0.03756087  1
  N  N346  1  0.81019425  0.42751772  0.04114536  1
  N  N347  1  0.48816968  0.07162864  0.53963418  1
  N  N348  1  0.73415623  0.24309156  0.53920814  1
  N  N349  1  0.06476878  0.06836532  0.54442262  1
  N  N350  1  0.53643214  0.41469853  0.96301852  1
  N  N351  1  0.56499141  0.06784182  0.54808215  1
  N  N352  1  0.69838516  0.75263658  0.46072742  1
  N  N353  1  0.80216157  0.24220434  0.96131071  1
  N  N354  1  0.52660078  0.93165398  0.03374921  1
  N  N355  1  0.69091233  0.09245018  0.04063247  1
  N  N356  1  0.21160887  0.24602151  0.95539622  1
  N  N357  1  0.97889972  0.74041728  0.53443585  1
  N  N358  1  0.44838701  0.92207727  0.04001421  1
  N  N359  1  0.53441871  0.58981191  0.03741814  1
  N  N360  1  0.07604344  0.05107664  0.60450436  1
  N  N361  1  0.06407069  0.38733891  0.59734992  1
  N  N362  1  0.07553412  0.72055433  0.60063155  1
  N  N363  1  0.57364146  0.05028910  0.60692794  1
  N  N364  1  0.56514567  0.38291451  0.59844191  1
  N  N365  1  0.57431429  0.72729735  0.59884947  1
  N  N366  1  0.44423450  0.28012303  0.08124614  1
  N  N367  1  0.43673611  0.60870375  0.09833123  1
  N  N368  1  0.42755916  0.94577875  0.09484074  1
  N  N369  1  0.92833587  0.28083072  0.10772962  1
  N  N370  1  0.94539226  0.61031855  0.09497370  1
  N  N371  1  0.92379129  0.94635425  0.10820050  1
  N  N372  1  0.44739193  0.06182972  0.91106382  1
  N  N373  1  0.42953443  0.39431141  0.90861096  1
  N  N374  1  0.44279035  0.71469433  0.91304864  1
  N  N375  1  0.94363830  0.05675160  0.90384323  1
  N  N376  1  0.92943669  0.39138863  0.90224759  1
  N  N377  1  0.93037412  0.71863665  0.89499224  1
  N  N378  1  0.07128402  0.27967558  0.39764705  1
  N  N379  1  0.05938447  0.60514738  0.42087618  1
  N  N380  1  0.05815121  0.94307548  0.40175935  1
  N  N381  1  0.55682530  0.27421140  0.40838736  1
  N  N382  1  0.57429991  0.61875362  0.39139412  1
  N  N383  1  0.55097931  0.93701798  0.41973419  1
  N  N384  1  0.31095411  0.22740284  0.59116123  1
  N  N385  1  0.30468223  0.55780185  0.58884171  1
  N  N386  1  0.32232877  0.88824065  0.60228754  1
  N  N387  1  0.81904669  0.22127961  0.60638268  1
  N  N388  1  0.80302059  0.55819934  0.59350975  1
  N  N389  1  0.81761284  0.88887061  0.59462835  1
  N  N390  1  0.18194364  0.10908179  0.09817025  1
  N  N391  1  0.19024718  0.44336664  0.08658108  1
  N  N392  1  0.18273456  0.77598398  0.09912585  1
  N  N393  1  0.67441921  0.11538226  0.09847226  1
  N  N394  1  0.69440614  0.44103048  0.08504286  1
  N  N395  1  0.68464506  0.77874520  0.10146823  1
  N  N396  1  0.18915406  0.23103192  0.89708870  1
  N  N397  1  0.18134907  0.55263026  0.90143408  1
  N  N398  1  0.20032560  0.89275151  0.90910489  1
  N  N399  1  0.68879184  0.22858290  0.91092581  1
  N  N400  1  0.68185695  0.55448453  0.90890292  1
  N  N401  1  0.69845188  0.88978814  0.90601287  1
  N  N402  1  0.29593964  0.11110977  0.41333834  1
  N  N403  1  0.31127777  0.43438743  0.39866557  1
  N  N404  1  0.29806037  0.77632014  0.41254119  1
  N  N405  1  0.80547671  0.10988453  0.40693391  1
  N  N406  1  0.81693717  0.45009047  0.39814994  1
  N  N407  1  0.80545366  0.77604878  0.40799406  1
  N  N408  1  0.43090722  0.27599084  0.39125023  1
  N  N409  1  0.44973272  0.60754096  0.41399804  1
  N  N410  1  0.42444362  0.94387946  0.39729027  1
  N  N411  1  0.94507478  0.26967985  0.42031580  1
  N  N412  1  0.93413644  0.61584481  0.39623444  1
  N  N413  1  0.92815691  0.94309341  0.40691387  1
  N  N414  1  0.07124025  0.05548327  0.89654274  1
  N  N415  1  0.05609780  0.39375220  0.91056070  1
  N  N416  1  0.05892833  0.72079218  0.90955076  1
  N  N417  1  0.57371690  0.05462343  0.89627075  1
  N  N418  1  0.55781148  0.39241450  0.90541336  1
  N  N419  1  0.56865749  0.71790143  0.89104419  1
  N  N420  1  0.05453304  0.27596552  0.08806956  1
  N  N421  1  0.07293416  0.60849404  0.10227509  1
  N  N422  1  0.04676721  0.94176795  0.08445968  1
  N  N423  1  0.56632828  0.27948420  0.10851597  1
  N  N424  1  0.56325448  0.60836800  0.09361864  1
  N  N425  1  0.55502111  0.94114142  0.09159944  1
  N  N426  1  0.44862999  0.05201062  0.58993438  1
  N  N427  1  0.43584845  0.39348923  0.60510057  1
  N  N428  1  0.44598778  0.72393780  0.58791319  1
  N  N429  1  0.94923528  0.05566457  0.59121019  1
  N  N430  1  0.93556937  0.37776743  0.59734373  1
  N  N431  1  0.94866789  0.72241539  0.58971658  1
  N  N432  1  0.16961661  0.11349653  0.39882873  1
  N  N433  1  0.18571218  0.45405075  0.40327338  1
  N  N434  1  0.17062796  0.78183524  0.39259326  1
  N  N435  1  0.67693769  0.11061908  0.39085712  1
  N  N436  1  0.68664850  0.44728861  0.40079966  1
  N  N437  1  0.67730122  0.77840920  0.40461825  1
  N  N438  1  0.31499491  0.21437041  0.90341471  1
  N  N439  1  0.31018080  0.55596459  0.91486641  1
  N  N440  1  0.32584626  0.89072291  0.89032713  1
  N  N441  1  0.81605649  0.22213550  0.90252068  1
  N  N442  1  0.81188237  0.55568658  0.90328765  1
  N  N443  1  0.82538266  0.88703358  0.90832854  1
  N  N444  1  0.31004698  0.11052924  0.09945649  1
  N  N445  1  0.32077862  0.44420341  0.08837692  1
  N  N446  1  0.31299260  0.77804148  0.10196328  1
  N  N447  1  0.80191844  0.10585449  0.08734910  1
  N  N448  1  0.82044862  0.44811996  0.10141005  1
  N  N449  1  0.81068680  0.77519261  0.09302789  1
  N  N450  1  0.18387235  0.22307659  0.60319782  1
  N  N451  1  0.17716195  0.55903657  0.60451228  1
  N  N452  1  0.19436396  0.88930685  0.59824977  1
  N  N453  1  0.69406260  0.22209167  0.58870518  1
  N  N454  1  0.67514236  0.56074248  0.59490697  1
  N  N455  1  0.69096456  0.88836289  0.59518290  1
  Cl  Cl456  1  0.26749939  0.06700578  0.60512050  1
  Cl  Cl457  1  0.24762976  0.39751008  0.61252206  1
  Cl  Cl458  1  0.26368697  0.72332035  0.62110959  1
  Cl  Cl459  1  0.76440458  0.05816624  0.61676590  1
  Cl  Cl460  1  0.75210904  0.39012832  0.61242810  1
  Cl  Cl461  1  0.76190760  0.72178519  0.60884146  1
  Cl  Cl462  1  0.25374893  0.27554099  0.09419240  1
  Cl  Cl463  1  0.25439208  0.60647533  0.13126783  1
  Cl  Cl464  1  0.23410708  0.94065939  0.10399495  1
  Cl  Cl465  1  0.74804948  0.28462296  0.13166037  1
  Cl  Cl466  1  0.75293330  0.60629676  0.10728722  1
  Cl  Cl467  1  0.73792322  0.95424143  0.11613357  1
  Cl  Cl468  1  0.25769139  0.05969373  0.88172830  1
  Cl  Cl469  1  0.24153787  0.38476295  0.88355690  1
  Cl  Cl470  1  0.25464872  0.72207752  0.89302145  1
  Cl  Cl471  1  0.75797675  0.05434800  0.88508319  1
  Cl  Cl472  1  0.74611484  0.39205723  0.88074845  1
  Cl  Cl473  1  0.74945693  0.71336475  0.87132231  1
  Cl  Cl474  1  0.25100835  0.29208454  0.36428128  1
  Cl  Cl475  1  0.26084488  0.60404308  0.40210130  1
  Cl  Cl476  1  0.24062777  0.95286533  0.36872393  1
  Cl  Cl477  1  0.74552196  0.27367229  0.40243147  1
  Cl  Cl478  1  0.75254348  0.61771705  0.37083522  1
  Cl  Cl479  1  0.73966941  0.94114623  0.38130823  1
  Cl  Cl480  1  0.00104617  0.21421257  0.62714500  1
  Cl  Cl481  1  -0.00932039  0.54894709  0.61276214  1
  Cl  Cl482  1  0.00612060  0.88858796  0.61923233  1
  Cl  Cl483  1  0.50828257  0.22170351  0.60970038  1
  Cl  Cl484  1  0.48972572  0.56160917  0.60923312  1
  Cl  Cl485  1  0.50736703  0.88388376  0.62434481  1
  Cl  Cl486  1  -0.01059428  0.11023617  0.11280121  1
  Cl  Cl487  1  0.00534566  0.44724779  0.12274907  1
  Cl  Cl488  1  -0.00298062  0.77763494  0.11097857  1
  Cl  Cl489  1  0.49359213  0.11528401  0.12931460  1
  Cl  Cl490  1  0.50729082  0.44300851  0.12008802  1
  Cl  Cl491  1  0.49741553  0.77421275  0.11535705  1
  Cl  Cl492  1  0.00499326  0.22199873  0.89233887  1
  Cl  Cl493  1  -0.00258716  0.55130885  0.87380450  1
  Cl  Cl494  1  0.01438283  0.89202041  0.89968440  1
  Cl  Cl495  1  0.49663166  0.23221222  0.89291571  1
  Cl  Cl496  1  0.49540266  0.55220529  0.87773141  1
  Cl  Cl497  1  0.51475366  0.88584731  0.89454491  1
  Cl  Cl498  1  -0.01204956  0.11097531  0.38426984  1
  Cl  Cl499  1  0.00277317  0.43694898  0.39012116  1
  Cl  Cl500  1  -0.01273480  0.78499068  0.37422707  1
  Cl  Cl501  1  0.47670182  0.10033599  0.40074435  1
  Cl  Cl502  1  0.49616893  0.44417929  0.38753203  1
  Cl  Cl503  1  0.48506765  0.77627202  0.39444083  1
  Cl  Cl504  1  0.35991116  0.14933255  0.75095012  1
  Cl  Cl505  1  0.35839797  0.48308880  0.74913542  1
  Cl  Cl506  1  0.36992292  0.81422878  0.75959157  1
  Cl  Cl507  1  0.86020913  0.15356846  0.75598497  1
  Cl  Cl508  1  0.85862865  0.48178372  0.74659144  1
  Cl  Cl509  1  0.86606566  0.81489609  0.75344636  1
  Cl  Cl510  1  0.13255197  0.18704680  0.25345317  1
  Cl  Cl511  1  0.13887837  0.51625648  0.25415028  1
  Cl  Cl512  1  0.13681764  0.85189187  0.25130617  1
  Cl  Cl513  1  0.63071683  0.18837960  0.25847910  1
  Cl  Cl514  1  0.63733564  0.51841225  0.25639932  1
  Cl  Cl515  1  0.63182211  0.85191926  0.24351738  1
  Cl  Cl516  1  0.13975700  0.14568131  0.74724329  1
  Cl  Cl517  1  0.13546331  0.48158844  0.74436569  1
  Cl  Cl518  1  0.14524770  0.81620173  0.74803306  1
  Cl  Cl519  1  0.64041264  0.14808513  0.75185824  1
  Cl  Cl520  1  0.63828055  0.48062291  0.74382683  1
  Cl  Cl521  1  0.64502532  0.81449795  0.75549541  1
  Cl  Cl522  1  0.34945388  0.18170825  0.25238295  1
  Cl  Cl523  1  0.35890383  0.51619074  0.25352951  1
  Cl  Cl524  1  0.35830166  0.85177228  0.24407136  1
  Cl  Cl525  1  0.85338995  0.18257655  0.24390192  1
  Cl  Cl526  1  0.85977922  0.51617865  0.24743149  1
  Cl  Cl527  1  0.85592481  0.85348861  0.24642113  1
  Cl  Cl528  1  0.10768866  0.31708313  0.75326664  1
  Cl  Cl529  1  0.11513571  0.64808209  0.74710695  1
  Cl  Cl530  1  0.11872744  0.98077328  0.74615444  1
  Cl  Cl531  1  0.60556649  0.31554603  0.75555767  1
  Cl  Cl532  1  0.61380251  0.64733575  0.74234212  1
  Cl  Cl533  1  0.61708617  0.98387650  0.75248995  1
  Cl  Cl534  1  0.38967360  0.01532085  0.24847656  1
  Cl  Cl535  1  0.39004602  0.34917353  0.24991767  1
  Cl  Cl536  1  0.38719120  0.68321423  0.25032396  1
  Cl  Cl537  1  0.88421364  0.01724601  0.24595320  1
  Cl  Cl538  1  0.88983155  0.34871472  0.25455430  1
  Cl  Cl539  1  0.89425662  0.68055357  0.25067680  1
  Cl  Cl540  1  0.38528561  0.31332183  0.74584971  1
  Cl  Cl541  1  0.39269787  0.64926498  0.74501804  1
  Cl  Cl542  1  0.39444160  0.98033472  0.75387193  1
  Cl  Cl543  1  0.89022263  0.31473130  0.75683557  1
  Cl  Cl544  1  0.89377346  0.65085643  0.74860825  1
  Cl  Cl545  1  0.89576082  0.98209117  0.75235071  1
  Cl  Cl546  1  0.10548674  0.01893420  0.24815972  1
  Cl  Cl547  1  0.10922926  0.35005466  0.25091969  1
  Cl  Cl548  1  0.11357216  0.68833251  0.25665132  1
  Cl  Cl549  1  0.60520045  0.02034222  0.25684036  1
  Cl  Cl550  1  0.61263159  0.35238495  0.25085861  1
  Cl  Cl551  1  0.61047581  0.68608893  0.25285067  1
