# generated using pymatgen
data_H8PbC4(N3Cl2)2
_symmetry_space_group_name_H-M   'P 1'
_cell_length_a   16.63286481
_cell_length_b   22.52503321
_cell_length_c   21.59746162
_cell_angle_alpha   90.00113628
_cell_angle_beta   89.98775607
_cell_angle_gamma   89.99485236
_symmetry_Int_Tables_number   1
_chemical_formula_structural   H8PbC4(N3Cl2)2
_chemical_formula_sum   'H192 Pb24 C96 N144 Cl96'
_cell_volume   8091.61473666
_cell_formula_units_Z   24
loop_
 _symmetry_equiv_pos_site_id
 _symmetry_equiv_pos_as_xyz
  1  'x, y, z'
loop_
 _atom_site_type_symbol
 _atom_site_label
 _atom_site_symmetry_multiplicity
 _atom_site_fract_x
 _atom_site_fract_y
 _atom_site_fract_z
 _atom_site_occupancy
  H  H0  1  -0.01358828  0.02858600  0.68125014  1
  H  H1  1  -0.00263721  0.35760146  0.67762960  1
  H  H2  1  -0.01872503  0.69577667  0.67460398  1
  H  H3  1  0.50864837  0.02930334  0.68192618  1
  H  H4  1  0.49782602  0.36141101  0.68117746  1
  H  H5  1  0.51480916  0.69896248  0.67657568  1
  H  H6  1  -0.00300651  0.30724324  0.17969869  1
  H  H7  1  -0.00775702  0.63626884  0.18162890  1
  H  H8  1  -0.00266933  0.96798067  0.17968184  1
  H  H9  1  0.51934474  0.30211989  0.15517460  1
  H  H10  1  0.50270509  0.63924599  0.17560222  1
  H  H11  1  0.50555888  0.97326093  0.17915956  1
  H  H12  1  -0.00755876  0.02849878  0.81935345  1
  H  H13  1  0.00660827  0.36362892  0.82110964  1
  H  H14  1  0.00357170  0.69144419  0.82409214  1
  H  H15  1  0.49422946  0.02235856  0.82225907  1
  H  H16  1  0.48625616  0.36697903  0.82422185  1
  H  H17  1  0.50138958  0.69298372  0.81964555  1
  H  H18  1  -0.00848512  0.30731517  0.32735724  1
  H  H19  1  -0.00180980  0.63716711  0.32696225  1
  H  H20  1  -0.00643159  0.96687941  0.32291747  1
  H  H21  1  0.50633199  0.30447404  0.31997558  1
  H  H22  1  0.50168018  0.63792520  0.31651903  1
  H  H23  1  0.50535451  0.97060530  0.31928392  1
  H  H24  1  0.26103695  0.19486202  0.67376052  1
  H  H25  1  0.26842264  0.53305515  0.67830814  1
  H  H26  1  0.25122257  0.86164513  0.67754324  1
  H  H27  1  0.73706291  0.20144243  0.68209264  1
  H  H28  1  0.72798056  0.52245479  0.67267019  1
  H  H29  1  0.74423714  0.86352004  0.66922179  1
  H  H30  1  0.26396952  0.13866641  0.17749920  1
  H  H31  1  0.23294944  0.47209788  0.17530439  1
  H  H32  1  0.24643808  0.80635419  0.18265950  1
  H  H33  1  0.75632331  0.13345159  0.18330861  1
  H  H34  1  0.75643120  0.47647627  0.17227415  1
  H  H35  1  0.75135167  0.80448511  0.17833374  1
  H  H36  1  0.25718035  0.19688089  0.82042737  1
  H  H37  1  0.23848104  0.52608338  0.81889085  1
  H  H38  1  0.23554529  0.86208989  0.82719471  1
  H  H39  1  0.72848463  0.19986048  0.84384446  1
  H  H40  1  0.74742785  0.52833455  0.82561108  1
  H  H41  1  0.76130637  0.85866026  0.82185878  1
  H  H42  1  0.26117237  0.14281090  0.32342451  1
  H  H43  1  0.25970440  0.46798743  0.32010280  1
  H  H44  1  0.25544032  0.80643133  0.32545883  1
  H  H45  1  0.74448936  0.14314763  0.32210263  1
  H  H46  1  0.74307703  0.46866768  0.32008114  1
  H  H47  1  0.74770491  0.81018666  0.32570604  1
  H  H48  1  0.12590285  0.05177521  0.62711472  1
  H  H49  1  0.12878347  0.38392602  0.61459484  1
  H  H50  1  0.11865195  0.71565663  0.61876828  1
  H  H51  1  0.63306572  0.04679128  0.60824272  1
  H  H52  1  0.63330272  0.38485057  0.62149866  1
  H  H53  1  0.60874538  0.73263977  0.58701072  1
  H  H54  1  0.41275637  0.26769066  0.07473134  1
  H  H55  1  0.37885486  0.61425549  0.10798478  1
  H  H56  1  0.37767612  0.94785420  0.11407226  1
  H  H57  1  0.88944158  0.27800504  0.09727368  1
  H  H58  1  0.87462626  0.60891138  0.10494551  1
  H  H59  1  0.88536368  0.94185635  0.10171544  1
  H  H60  1  0.38399412  0.05558535  0.90242407  1
  H  H61  1  0.38256616  0.39291164  0.90757381  1
  H  H62  1  0.36982748  0.71643604  0.87932767  1
  H  H63  1  0.88342300  0.06000710  0.90071099  1
  H  H64  1  0.88077257  0.38808625  0.89191577  1
  H  H65  1  0.86739111  0.71320671  0.88070801  1
  H  H66  1  0.12799023  0.28352312  0.38229826  1
  H  H67  1  0.12443687  0.61480362  0.39431524  1
  H  H68  1  0.13199224  0.94852915  0.37812377  1
  H  H69  1  0.62852135  0.27706787  0.39372203  1
  H  H70  1  0.62280395  0.61068376  0.38949433  1
  H  H71  1  0.63328162  0.94754890  0.38880831  1
  H  H72  1  0.36597606  0.22799182  0.59214633  1
  H  H73  1  0.36351965  0.56146277  0.58942683  1
  H  H74  1  0.36155747  0.89283884  0.59694255  1
  H  H75  1  0.86935243  0.22180209  0.61697100  1
  H  H76  1  0.87580244  0.54324692  0.63632855  1
  H  H77  1  0.87036877  0.88545937  0.60380790  1
  H  H78  1  0.12202085  0.11568252  0.13040249  1
  H  H79  1  0.12411306  0.44057636  0.09476511  1
  H  H80  1  0.13288121  0.78041040  0.10144372  1
  H  H81  1  0.61846179  0.11278142  0.12532442  1
  H  H82  1  0.61852940  0.45239498  0.11805743  1
  H  H83  1  0.62854345  0.77705818  0.10976797  1
  H  H84  1  0.11645433  0.21813941  0.86925508  1
  H  H85  1  0.12396944  0.55316526  0.89722316  1
  H  H86  1  0.12327547  0.88869728  0.90652407  1
  H  H87  1  0.58972778  0.22312281  0.89472261  1
  H  H88  1  0.62126909  0.55800177  0.89072827  1
  H  H89  1  0.62090211  0.87965048  0.87258745  1
  H  H90  1  0.36782893  0.10856974  0.40482663  1
  H  H91  1  0.36645904  0.44012866  0.40422491  1
  H  H92  1  0.37891985  0.77786135  0.39560164  1
  H  H93  1  0.86749711  0.10817901  0.38642503  1
  H  H94  1  0.87164024  0.44548106  0.38840249  1
  H  H95  1  0.88525945  0.78346195  0.38028248  1
  H  H96  1  0.38007078  0.27724225  0.38878297  1
  H  H97  1  0.37369774  0.61423864  0.38248354  1
  H  H98  1  0.38396793  0.94426679  0.39121473  1
  H  H99  1  0.88156070  0.27510850  0.40657744  1
  H  H100  1  0.87594782  0.61268751  0.39727007  1
  H  H101  1  0.88639436  0.94147976  0.40748212  1
  H  H102  1  0.12933644  0.04765171  0.87484172  1
  H  H103  1  0.12959880  0.38865213  0.89309794  1
  H  H104  1  0.11426504  0.72491738  0.90259121  1
  H  H105  1  0.63014981  0.05165659  0.87453563  1
  H  H106  1  0.62748369  0.38324868  0.87553945  1
  H  H107  1  0.61772099  0.71929844  0.89475020  1
  H  H108  1  0.13390838  0.28381575  0.12715132  1
  H  H109  1  0.12288476  0.61317149  0.11473380  1
  H  H110  1  0.13302813  0.95028495  0.12076647  1
  H  H111  1  0.65854883  0.28224667  0.10344065  1
  H  H112  1  0.62790103  0.61374592  0.10732260  1
  H  H113  1  0.62612011  0.94244375  0.10689378  1
  H  H114  1  0.38503049  0.05982333  0.61481329  1
  H  H115  1  0.38562398  0.38644474  0.60068507  1
  H  H116  1  0.36892786  0.71611116  0.63373789  1
  H  H117  1  0.88059903  0.05645561  0.59722084  1
  H  H118  1  0.88072956  0.39040925  0.60442877  1
  H  H119  1  0.87348286  0.72715781  0.59174612  1
  H  H120  1  0.12269261  0.11698872  0.37436027  1
  H  H121  1  0.12030547  0.45201221  0.37490565  1
  H  H122  1  0.13017246  0.77868674  0.39189295  1
  H  H123  1  0.62111686  0.12250707  0.39548334  1
  H  H124  1  0.62333686  0.44190290  0.39579863  1
  H  H125  1  0.63974495  0.77931472  0.40885109  1
  H  H126  1  0.35906072  0.22892000  0.90525747  1
  H  H127  1  0.37193738  0.55242298  0.87925986  1
  H  H128  1  0.37008417  0.88124410  0.88372109  1
  H  H129  1  0.83529424  0.23492606  0.92405408  1
  H  H130  1  0.86984989  0.55446353  0.89775942  1
  H  H131  1  0.86595631  0.89055578  0.90596485  1
  H  H132  1  0.36489852  0.10500411  0.09248034  1
  H  H133  1  0.37062991  0.44910128  0.11939691  1
  H  H134  1  0.38047159  0.78211233  0.12005540  1
  H  H135  1  0.86503195  0.10745038  0.10098002  1
  H  H136  1  0.86430157  0.44298176  0.09284763  1
  H  H137  1  0.87755881  0.78040839  0.11165839  1
  H  H138  1  0.12147042  0.22009893  0.62261150  1
  H  H139  1  0.12306396  0.54641893  0.63482762  1
  H  H140  1  0.11503664  0.88241285  0.61817886  1
  H  H141  1  0.62159920  0.22314984  0.60122944  1
  H  H142  1  0.63915885  0.56089199  0.58215715  1
  H  H143  1  0.62199618  0.88781057  0.60027903  1
  H  H144  1  0.79093269  0.91416187  1.00502589  1
  H  H145  1  0.94917392  0.25023274  0.50809937  1
  H  H146  1  0.42343984  0.58232465  -0.00316521  1
  H  H147  1  0.40059029  0.74859766  -0.00791150  1
  H  H148  1  0.94895982  0.91182032  -0.00602324  1
  H  H149  1  0.48501828  0.24661091  -0.02759325  1
  H  H150  1  0.58122783  0.05763556  0.50093327  1
  H  H151  1  0.56816969  0.59096883  0.49570411  1
  H  H152  1  0.28286712  0.08080594  -0.00642688  1
  H  H153  1  0.29413915  0.08635995  0.50549426  1
  H  H154  1  0.10796307  0.07743147  0.98907295  1
  H  H155  1  0.45444881  0.07857526  1.00368180  1
  H  H156  1  0.95457832  0.08655701  0.49539650  1
  H  H157  1  0.11364227  0.25392490  0.01177435  1
  H  H158  1  0.67432867  0.74212741  0.00139450  1
  H  H159  1  0.34670476  0.91245428  0.99858060  1
  H  H160  1  0.69396749  0.12779601  0.49912417  1
  H  H161  1  0.43147233  0.08976726  0.50434417  1
  H  H162  1  0.63958325  0.42057483  0.00767608  1
  H  H163  1  0.29395483  0.40871629  0.50183760  1
  H  H164  1  0.14010617  0.25010394  0.51190056  1
  H  H165  1  0.04511609  0.75405247  1.00321302  1
  H  H166  1  0.93284665  0.42183685  0.99482638  1
  H  H167  1  0.45483081  0.42250560  1.01205762  1
  H  H168  1  0.14201221  0.08308085  0.48686312  1
  H  H169  1  0.73055233  0.58137456  0.48908169  1
  H  H170  1  0.71644656  0.75218048  0.50808586  1
  H  H171  1  0.88192941  0.58002306  0.52385981  1
  H  H172  1  0.83963878  0.74673440  0.00234570  1
  H  H173  1  0.80214242  0.04719475  0.47044272  1
  H  H174  1  0.79410429  0.08095563  -0.00373037  1
  H  H175  1  0.95396284  0.08000230  1.00273336  1
  H  H176  1  0.17156321  0.74559671  0.50137545  1
  H  H177  1  0.45340282  0.41599724  0.49608100  1
  H  H178  1  0.52219168  0.75575660  0.49164571  1
  H  H179  1  0.63740272  0.91188435  0.98522962  1
  H  H180  1  0.12179184  0.57886734  0.52074873  1
  H  H181  1  0.76377997  0.25795822  1.02594083  1
  H  H182  1  0.33350265  0.75195724  0.50152021  1
  H  H183  1  0.43772459  0.91342406  0.49921057  1
  H  H184  1  0.60696136  0.08320944  0.98756854  1
  H  H185  1  0.18705876  0.58521534  1.00117136  1
  H  H186  1  0.28099713  0.58746805  0.48886156  1
  H  H187  1  0.14038328  0.42324046  0.48863094  1
  H  H188  1  0.14335664  0.91420827  0.51003678  1
  H  H189  1  0.41531555  0.58014397  0.49255259  1
  H  H190  1  0.28112647  0.25306329  1.00526787  1
  H  H191  1  0.96024382  0.25337465  -0.00382342  1
  Pb  Pb192  1  0.25578833  0.05321782  0.75179267  1
  Pb  Pb193  1  0.25539460  0.38288192  0.74856493  1
  Pb  Pb194  1  0.24485977  0.71505322  0.75212437  1
  Pb  Pb195  1  0.75102147  0.04877705  0.74579093  1
  Pb  Pb196  1  0.75515319  0.38430485  0.75453264  1
  Pb  Pb197  1  0.75153657  0.71756881  0.74250956  1
  Pb  Pb198  1  0.25763605  0.28467165  0.24021864  1
  Pb  Pb199  1  0.25177337  0.61819620  0.24738326  1
  Pb  Pb200  1  0.25470393  0.95364788  0.25240838  1
  Pb  Pb201  1  0.75151683  0.28650874  0.25446274  1
  Pb  Pb202  1  0.75286363  0.61758008  0.25425452  1
  Pb  Pb203  1  0.75863054  0.94991646  0.24852817  1
  Pb  Pb204  1  -0.00860310  0.21603379  0.75949358  1
  Pb  Pb205  1  0.00036566  0.54771051  0.76023436  1
  Pb  Pb206  1  0.00115072  0.88241192  0.75759251  1
  Pb  Pb207  1  0.50519730  0.21696757  0.74297264  1
  Pb  Pb208  1  0.50272190  0.55154880  0.73489636  1
  Pb  Pb209  1  0.49668729  0.88117016  0.74125796  1
  Pb  Pb210  1  -0.00215217  0.11979717  0.24534543  1
  Pb  Pb211  1  0.00085216  0.45093348  0.24000366  1
  Pb  Pb212  1  0.00723533  0.78441329  0.24087537  1
  Pb  Pb213  1  0.50369110  0.11623053  0.25253516  1
  Pb  Pb214  1  0.49975832  0.45070944  0.25743058  1
  Pb  Pb215  1  0.50336506  0.78577731  0.25895795  1
  C  C216  1  -0.00192978  0.04472452  0.63471407  1
  C  C217  1  0.00263190  0.37651589  0.63189192  1
  C  C218  1  -0.00926704  0.71161357  0.62788910  1
  C  C219  1  0.50943383  0.04363114  0.63380591  1
  C  C220  1  0.50577616  0.37721696  0.63415828  1
  C  C221  1  0.49752575  0.71436898  0.63083629  1
  C  C222  1  0.00701240  0.29100190  0.13297215  1
  C  C223  1  -0.00321391  0.62048241  0.13427809  1
  C  C224  1  0.00516481  0.95347553  0.13227368  1
  C  C225  1  0.53032770  0.28519202  0.10865469  1
  C  C226  1  0.50272293  0.62312952  0.12836223  1
  C  C227  1  0.50349316  0.95485627  0.13301390  1
  C  C228  1  0.00164346  0.04392360  0.86653082  1
  C  C229  1  0.00518200  0.37990351  0.86836860  1
  C  C230  1  -0.00462436  0.70858092  0.87053728  1
  C  C231  1  0.50273932  0.04091210  0.86828367  1
  C  C232  1  0.49878144  0.38134552  0.87123646  1
  C  C233  1  0.49558153  0.70909832  0.86665136  1
  C  C234  1  -0.00004562  0.28994509  0.37378998  1
  C  C235  1  -0.00055205  0.62186780  0.37429294  1
  C  C236  1  0.00391286  0.95241734  0.37000875  1
  C  C237  1  0.50508470  0.28751647  0.36700151  1
  C  C238  1  0.49992661  0.62230044  0.36420492  1
  C  C239  1  0.50779127  0.95400821  0.36640432  1
  C  C240  1  0.24875132  0.21273023  0.62814769  1
  C  C241  1  0.25096823  0.54692708  0.63197011  1
  C  C242  1  0.24212422  0.87896984  0.63119417  1
  C  C243  1  0.74262018  0.21457016  0.63398317  1
  C  C244  1  0.74774701  0.54063287  0.62851622  1
  C  C245  1  0.74560210  0.87947127  0.62176108  1
  C  C246  1  0.25029214  0.12208459  0.13153809  1
  C  C247  1  0.24281585  0.45426803  0.12945476  1
  C  C248  1  0.25316740  0.79069264  0.13539753  1
  C  C249  1  0.74605585  0.11890263  0.13606352  1
  C  C250  1  0.74575452  0.45867193  0.12644159  1
  C  C251  1  0.75252098  0.78718444  0.13136414  1
  C  C252  1  0.24417405  0.21257563  0.86682424  1
  C  C253  1  0.24498080  0.54297085  0.86565437  1
  C  C254  1  0.24369486  0.87742499  0.87428719  1
  C  C255  1  0.71779144  0.21733883  0.89021022  1
  C  C256  1  0.74634736  0.54619390  0.87196828  1
  C  C257  1  0.74954561  0.87552963  0.86825402  1
  C  C258  1  0.25071057  0.12447897  0.36933014  1
  C  C259  1  0.24890449  0.45257541  0.36718145  1
  C  C260  1  0.25546922  0.78857058  0.37225268  1
  C  C261  1  0.74388935  0.12504748  0.36851444  1
  C  C262  1  0.74577051  0.45258727  0.36738208  1
  C  C263  1  0.75700202  0.79250656  0.37180598  1
  C  C264  1  0.22378116  0.41934834  0.03623675  1
  C  C265  1  0.47434256  0.92531110  0.45927743  1
  C  C266  1  0.98120452  0.92470884  0.03572713  1
  C  C267  1  0.06119348  0.06989720  0.95346301  1
  C  C268  1  0.21324940  0.75760140  0.46353137  1
  C  C269  1  0.59300620  0.25678444  0.02263747  1
  C  C270  1  0.98277395  0.07410026  0.53908145  1
  C  C271  1  0.68590735  0.90407572  0.95234413  1
  C  C272  1  0.48433113  0.40988058  0.96900665  1
  C  C273  1  0.76722607  0.42444320  0.03134489  1
  C  C274  1  0.93659942  0.73873363  0.95717827  1
  C  C275  1  0.17755298  0.57017985  0.54978842  1
  C  C276  1  0.65529380  0.24563716  0.97634380  1
  C  C277  1  0.06713430  0.26168657  0.04742366  1
  C  C278  1  0.76471760  0.09239369  0.03987238  1
  C  C279  1  0.78828526  0.90822484  0.53148098  1
  C  C280  1  0.45999542  0.92233352  0.04328754  1
  C  C281  1  0.70619470  0.58077784  0.96109526  1
  C  C282  1  0.97368604  0.41383485  0.54081489  1
  C  C283  1  0.17848493  0.24199829  0.95055492  1
  C  C284  1  0.22036196  0.57319645  0.95959584  1
  C  C285  1  0.04731350  0.73908190  0.54085003  1
  C  C286  1  0.71420359  0.75568960  0.03877381  1
  C  C287  1  0.29897124  0.90413002  0.96395765  1
  C  C288  1  0.46834227  0.07248688  0.54172390  1
  C  C289  1  0.46338251  0.59404348  0.03478344  1
  C  C290  1  0.56433921  0.40618615  0.95649158  1
  C  C291  1  0.70790513  0.90905452  0.53031965  1
  C  C292  1  0.06217898  0.92788833  0.04378510  1
  C  C293  1  0.44552071  0.73772823  0.95715765  1
  C  C294  1  0.21761654  0.90679704  0.96991138  1
  C  C295  1  0.05866326  0.26144917  0.46081357  1
  C  C296  1  0.18249649  0.09103997  0.04957658  1
  C  C297  1  0.54493995  0.59488046  0.03596676  1
  C  C298  1  0.04234350  0.59518972  0.46694898  1
  C  C299  1  0.06083048  0.92718475  0.45729302  1
  C  C300  1  0.45471193  0.59224851  0.45447836  1
  C  C301  1  0.25675352  0.57476653  0.53368889  1
  C  C302  1  0.42346742  0.74122926  0.55050036  1
  C  C303  1  0.96148153  0.59478472  0.46796432  1
  C  C304  1  0.79630638  0.75713640  0.03946881  1
  C  C305  1  0.18765479  0.43014297  0.45434096  1
  C  C306  1  0.82555279  0.57110349  0.55234704  1
  C  C307  1  0.48428600  0.40554998  0.53919018  1
  C  C308  1  0.26720062  0.24827614  0.53310719  1
  C  C309  1  0.56119300  0.07367460  0.95294548  1
  C  C310  1  0.52678751  0.73825207  0.96126388  1
  C  C311  1  0.18909366  0.09223173  0.45305288  1
  N  N312  1  0.98011880  0.25786158  0.46770133  1
  N  N313  1  0.26607511  0.42519663  0.46283958  1
  N  N314  1  0.04646485  0.40841308  0.96079467  1
  N  N315  1  0.26722669  0.91028753  0.53640313  1
  N  N316  1  0.81744572  0.75921066  0.45543048  1
  N  N317  1  0.71519761  0.23653083  0.53688326  1
  N  N318  1  0.05098122  0.41134171  0.54310362  1
  N  N319  1  0.78913561  0.42454021  0.45923183  1
  N  N320  1  0.53433496  0.59189788  0.45604802  1
  N  N321  1  0.53771817  0.92087421  0.03967321  1
  N  N322  1  0.04248482  0.59214739  0.04320360  1
  N  N323  1  0.78334336  0.57994521  0.96445362  1
  N  N324  1  0.01513666  0.74301690  0.96321994  1
  N  N325  1  0.56294146  0.40585166  0.54600282  1
  N  N326  1  0.98434115  0.92437256  0.46784313  1
  N  N327  1  0.96612659  0.59072258  0.04002618  1
  N  N328  1  0.97099108  0.74328274  0.53115367  1
  N  N329  1  0.06083405  0.07253611  0.54884171  1
  N  N330  1  0.30355854  0.76324893  0.04575115  1
  N  N331  1  0.30060239  0.42219446  0.04254432  1
  N  N332  1  0.26776207  0.08903767  0.46248478  1
  N  N333  1  0.22786588  0.76238803  0.03980327  1
  N  N334  1  0.29301319  0.75797676  0.46354735  1
  N  N335  1  0.54018344  0.25536049  0.45945898  1
  N  N336  1  0.18972004  0.24305300  0.54354214  1
  N  N337  1  0.29939878  0.57296273  0.95420690  1
  N  N338  1  0.76424397  0.90897012  0.96224382  1
  N  N339  1  0.55362098  0.92690176  0.45880471  1
  N  N340  1  0.79149315  0.23695522  0.54215200  1
  N  N341  1  0.51304921  0.24915218  0.01563818  1
  N  N342  1  0.96853007  0.40779570  0.95910611  1
  N  N343  1  0.98845544  0.25894191  0.03906981  1
  N  N344  1  0.48227397  0.07584042  0.96108312  1
  N  N345  1  0.25595501  0.24514014  0.96122496  1
  N  N346  1  0.68630856  0.09444483  0.04807804  1
  N  N347  1  0.25978758  0.08788234  0.03765535  1
  N  N348  1  0.49990472  0.74642330  0.53585402  1
  N  N349  1  0.70433380  0.09931063  0.46247971  1
  N  N350  1  0.54754643  0.06533800  0.53980556  1
  N  N351  1  0.78720271  0.08990112  0.45779848  1
  N  N352  1  0.68946410  0.42873512  0.04067255  1
  N  N353  1  0.74941067  0.57690169  0.53483554  1
  N  N354  1  0.98250197  0.07506542  0.96072563  1
  N  N355  1  0.74046899  0.75845302  0.46385734  1
  N  N356  1  0.18985100  0.90639950  0.54444130  1
  N  N357  1  0.73521299  0.25236096  0.98337456  1
  N  N358  1  0.71307570  0.42292660  0.46132908  1
  N  N359  1  0.46394526  0.25551171  0.45805338  1
  N  N360  1  0.06879007  0.05437806  0.60867811  1
  N  N361  1  0.06939079  0.38807751  0.60102916  1
  N  N362  1  0.06188939  0.72012362  0.59956841  1
  N  N363  1  0.57226126  0.04462931  0.59633270  1
  N  N364  1  0.57450179  0.38787883  0.60515453  1
  N  N365  1  0.54644479  0.72738241  0.58464067  1
  N  N366  1  0.47512317  0.27163609  0.06691996  1
  N  N367  1  0.43819295  0.61183094  0.09352045  1
  N  N368  1  0.43705350  0.94254297  0.09976444  1
  N  N369  1  0.95174784  0.28022400  0.09054555  1
  N  N370  1  0.93639560  0.60836258  0.09619820  1
  N  N371  1  0.94659613  0.94097625  0.09195621  1
  N  N372  1  0.44629249  0.05174521  0.90998354  1
  N  N373  1  0.44437977  0.39391545  0.91463984  1
  N  N374  1  0.42736969  0.71956164  0.89719191  1
  N  N375  1  0.94560820  0.05592686  0.90816648  1
  N  N376  1  0.94163547  0.39180201  0.90288139  1
  N  N377  1  0.92424961  0.71870199  0.89928581  1
  N  N378  1  0.07127628  0.27955742  0.40201167  1
  N  N379  1  0.06508098  0.61160858  0.40894539  1
  N  N380  1  0.07543625  0.94411533  0.39752676  1
  N  N381  1  0.56724434  0.27570432  0.40331470  1
  N  N382  1  0.56202537  0.61389075  0.40137389  1
  N  N383  1  0.57270530  0.94422981  0.40058598  1
  N  N384  1  0.30423088  0.22925451  0.58514402  1
  N  N385  1  0.30168081  0.56002830  0.58541264  1
  N  N386  1  0.29922709  0.89395706  0.59079245  1
  N  N387  1  0.80975505  0.22271683  0.60207049  1
  N  N388  1  0.82389979  0.55106531  0.61109434  1
  N  N389  1  0.81189157  0.89054955  0.58723189  1
  N  N390  1  0.17614851  0.11073803  0.10821104  1
  N  N391  1  0.18557596  0.43848800  0.08809494  1
  N  N392  1  0.19506871  0.77981814  0.09497131  1
  N  N393  1  0.67625536  0.11091928  0.10798808  1
  N  N394  1  0.67582652  0.45026831  0.09912523  1
  N  N395  1  0.68845017  0.77445186  0.09615414  1
  N  N396  1  0.17030633  0.22304393  0.89145626  1
  N  N397  1  0.18560799  0.55530291  0.90559825  1
  N  N398  1  0.18450463  0.89081054  0.91577327  1
  N  N399  1  0.64533028  0.22604681  0.91666198  1
  N  N400  1  0.68054800  0.56050428  0.90532064  1
  N  N401  1  0.67671867  0.88516627  0.89350807  1
  N  N402  1  0.30582565  0.11264133  0.41179090  1
  N  N403  1  0.30386568  0.43724093  0.40853731  1
  N  N404  1  0.31870805  0.77894289  0.40791324  1
  N  N405  1  0.80701717  0.10394104  0.39842742  1
  N  N406  1  0.81110563  0.44332563  0.40119360  1
  N  N407  1  0.82733175  0.77910025  0.39767427  1
  N  N408  1  0.44062746  0.27517705  0.40079606  1
  N  N409  1  0.43311784  0.60974710  0.39713514  1
  N  N410  1  0.44462530  0.94159301  0.40294248  1
  N  N411  1  0.94328146  0.27760569  0.41445086  1
  N  N412  1  0.93562548  0.61088703  0.41078749  1
  N  N413  1  0.94885666  0.94033072  0.41214484  1
  N  N414  1  0.07324759  0.05216288  0.89445105  1
  N  N415  1  0.06883467  0.39060947  0.90420669  1
  N  N416  1  0.05229857  0.72259078  0.91051138  1
  N  N417  1  0.57390973  0.05418336  0.89476047  1
  N  N418  1  0.57240108  0.38911351  0.89695143  1
  N  N419  1  0.55685662  0.72129762  0.90654573  1
  N  N420  1  0.07882277  0.27981899  0.10648456  1
  N  N421  1  0.06270463  0.61057611  0.10158625  1
  N  N422  1  0.07588236  0.94499297  0.10221880  1
  N  N423  1  0.60284737  0.27681045  0.08219251  1
  N  N424  1  0.56826947  0.61195743  0.09264721  1
  N  N425  1  0.56491547  0.94142192  0.09706722  1
  N  N426  1  0.44483244  0.05996684  0.60001798  1
  N  N427  1  0.44753345  0.38873556  0.59292723  1
  N  N428  1  0.42186471  0.72236876  0.60971710  1
  N  N429  1  0.94277017  0.05711860  0.59132919  1
  N  N430  1  0.94177897  0.39253131  0.59402446  1
  N  N431  1  0.93527308  0.72522051  0.58656121  1
  N  N432  1  0.17858203  0.11210366  0.39470211  1
  N  N433  1  0.17673350  0.44721797  0.39502982  1
  N  N434  1  0.19001140  0.77561925  0.40638519  1
  N  N435  1  0.68178015  0.12324039  0.40651553  1
  N  N436  1  0.68456701  0.43992420  0.40434851  1
  N  N437  1  0.70188934  0.78077629  0.41431495  1
  N  N438  1  0.29701435  0.22393434  0.91077274  1
  N  N439  1  0.31287690  0.55394254  0.89551495  1
  N  N440  1  0.31343201  0.88615654  0.90316959  1
  N  N441  1  0.77313667  0.23024761  0.93206601  1
  N  N442  1  0.80877110  0.55791440  0.90777841  1
  N  N443  1  0.80349823  0.88852142  0.91121923  1
  N  N444  1  0.30262470  0.11034018  0.08717428  1
  N  N445  1  0.31247106  0.44412490  0.10219528  1
  N  N446  1  0.32089675  0.78053253  0.10498680  1
  N  N447  1  0.80281434  0.10750873  0.09348602  1
  N  N448  1  0.80249771  0.44252350  0.08452690  1
  N  N449  1  0.81844648  0.77643320  0.09754794  1
  N  N450  1  0.17776747  0.22043408  0.60217063  1
  N  N451  1  0.17613292  0.55305510  0.61067453  1
  N  N452  1  0.17347720  0.88709632  0.60170870  1
  N  N453  1  0.68346615  0.22365449  0.59393457  1
  N  N454  1  0.70120615  0.55416449  0.58080202  1
  N  N455  1  0.68103258  0.89186381  0.58556827  1
  Cl  Cl456  1  0.26134932  0.06417526  0.61498023  1
  Cl  Cl457  1  0.26171965  0.38695996  0.60416920  1
  Cl  Cl458  1  0.24219812  0.72626096  0.61685731  1
  Cl  Cl459  1  0.75542110  0.05819045  0.60709727  1
  Cl  Cl460  1  0.75853166  0.38861034  0.62543656  1
  Cl  Cl461  1  0.73248916  0.73074430  0.59993827  1
  Cl  Cl462  1  0.29182516  0.26995616  0.09668194  1
  Cl  Cl463  1  0.24739201  0.61028263  0.11528868  1
  Cl  Cl464  1  0.25789176  0.95225400  0.11966548  1
  Cl  Cl465  1  0.77603132  0.28070255  0.11613361  1
  Cl  Cl466  1  0.75242176  0.60899831  0.12336798  1
  Cl  Cl467  1  0.75768198  0.93865651  0.10600824  1
  Cl  Cl468  1  0.26424661  0.06375766  0.89650384  1
  Cl  Cl469  1  0.25408580  0.38685909  0.88128467  1
  Cl  Cl470  1  0.23603106  0.72460206  0.88200862  1
  Cl  Cl471  1  0.76225103  0.06097020  0.88431789  1
  Cl  Cl472  1  0.75853936  0.38670143  0.89006315  1
  Cl  Cl473  1  0.74096216  0.72052221  0.87542983  1
  Cl  Cl474  1  0.25464535  0.27755622  0.37401293  1
  Cl  Cl475  1  0.25067173  0.61525562  0.38212021  1
  Cl  Cl476  1  0.25916931  0.94611205  0.38348852  1
  Cl  Cl477  1  0.75644945  0.27228324  0.38419448  1
  Cl  Cl478  1  0.74441949  0.60459044  0.39436426  1
  Cl  Cl479  1  0.76135865  0.95259597  0.38429388  1
  Cl  Cl480  1  -0.00711802  0.22715506  0.61872009  1
  Cl  Cl481  1  -0.00110434  0.54421444  0.63208831  1
  Cl  Cl482  1  -0.00595682  0.88019545  0.62741874  1
  Cl  Cl483  1  0.49457036  0.21959022  0.61293511  1
  Cl  Cl484  1  0.51011864  0.56547632  0.59529450  1
  Cl  Cl485  1  0.48467786  0.88887848  0.60587541  1
  Cl  Cl486  1  -0.01410938  0.10578637  0.10675425  1
  Cl  Cl487  1  -0.01011764  0.43922545  0.10385880  1
  Cl  Cl488  1  0.01047329  0.77747143  0.10297987  1
  Cl  Cl489  1  0.48488656  0.10327601  0.10817899  1
  Cl  Cl490  1  0.49480558  0.44806207  0.12467656  1
  Cl  Cl491  1  0.50406048  0.77890871  0.12814417  1
  Cl  Cl492  1  -0.04314914  0.23105891  0.90195130  1
  Cl  Cl493  1  -0.00215253  0.55476791  0.89068550  1
  Cl  Cl494  1  -0.00854407  0.88760744  0.89385584  1
  Cl  Cl495  1  0.47209029  0.22664535  0.88135301  1
  Cl  Cl496  1  0.49727142  0.55833404  0.86748202  1
  Cl  Cl497  1  0.49631505  0.88368422  0.86990095  1
  Cl  Cl498  1  -0.00885679  0.11414381  0.38039914  1
  Cl  Cl499  1  -0.00621002  0.44390442  0.37191686  1
  Cl  Cl500  1  0.00926755  0.78390990  0.37104612  1
  Cl  Cl501  1  0.49509362  0.10426433  0.39179737  1
  Cl  Cl502  1  0.49037838  0.44429428  0.39383050  1
  Cl  Cl503  1  0.51528707  0.77328056  0.39948436  1
  Cl  Cl504  1  0.35216088  0.15215447  0.74844461  1
  Cl  Cl505  1  0.35543490  0.48137332  0.74919380  1
  Cl  Cl506  1  0.35786129  0.81511725  0.74745074  1
  Cl  Cl507  1  0.85733122  0.15267818  0.74669779  1
  Cl  Cl508  1  0.85619498  0.48510869  0.75608242  1
  Cl  Cl509  1  0.85243967  0.81362191  0.74820311  1
  Cl  Cl510  1  0.13297096  0.19066107  0.24067638  1
  Cl  Cl511  1  0.13799098  0.51884790  0.25235898  1
  Cl  Cl512  1  0.14167890  0.85418088  0.24887499  1
  Cl  Cl513  1  0.63159223  0.19080240  0.23800573  1
  Cl  Cl514  1  0.63466680  0.52082060  0.25198028  1
  Cl  Cl515  1  0.63692235  0.85613626  0.25506435  1
  Cl  Cl516  1  0.12739716  0.14321337  0.75618438  1
  Cl  Cl517  1  0.13501762  0.47772292  0.74844369  1
  Cl  Cl518  1  0.13777195  0.81737725  0.75038856  1
  Cl  Cl519  1  0.63630292  0.14670188  0.76562710  1
  Cl  Cl520  1  0.63473222  0.47971340  0.74864907  1
  Cl  Cl521  1  0.63498740  0.81557827  0.74598506  1
  Cl  Cl522  1  0.35524534  0.18054896  0.25056866  1
  Cl  Cl523  1  0.35945114  0.51529526  0.24965398  1
  Cl  Cl524  1  0.36263075  0.85044025  0.25600431  1
  Cl  Cl525  1  0.85331869  0.17927182  0.25160098  1
  Cl  Cl526  1  0.85791565  0.51345427  0.24703102  1
  Cl  Cl527  1  0.85508932  0.85001946  0.24843537  1
  Cl  Cl528  1  0.11258232  0.30901231  0.74885785  1
  Cl  Cl529  1  0.10842228  0.64791081  0.74337968  1
  Cl  Cl530  1  0.11224565  0.97991241  0.74815022  1
  Cl  Cl531  1  0.61206075  0.30977697  0.76221365  1
  Cl  Cl532  1  0.60170366  0.64920457  0.74660038  1
  Cl  Cl533  1  0.61358609  0.98006483  0.75252934  1
  Cl  Cl534  1  0.39611036  0.01510683  0.25394975  1
  Cl  Cl535  1  0.39506211  0.34611360  0.24821906  1
  Cl  Cl536  1  0.39143512  0.68485485  0.25472909  1
  Cl  Cl537  1  0.89731791  0.01306790  0.25117734  1
  Cl  Cl538  1  0.89510467  0.34649243  0.25059224  1
  Cl  Cl539  1  0.89140884  0.68550120  0.25464106  1
  Cl  Cl540  1  0.39330695  0.31770150  0.74886737  1
  Cl  Cl541  1  0.37755490  0.64388651  0.73961763  1
  Cl  Cl542  1  0.39111258  0.98652669  0.74619666  1
  Cl  Cl543  1  0.89326228  0.32009162  0.75372814  1
  Cl  Cl544  1  0.88665271  0.64863635  0.75031337  1
  Cl  Cl545  1  0.88883573  0.98317470  0.75311519  1
  Cl  Cl546  1  0.11788515  0.02407310  0.24856407  1
  Cl  Cl547  1  0.11891831  0.35364019  0.24843908  1
  Cl  Cl548  1  0.11138605  0.68530444  0.24717325  1
  Cl  Cl549  1  0.61486286  0.02553376  0.24343579  1
  Cl  Cl550  1  0.61451526  0.35309692  0.23693952  1
  Cl  Cl551  1  0.61575518  0.68589408  0.25243342  1
