# generated using pymatgen
data_H8PbC4(N3Cl2)2
_symmetry_space_group_name_H-M   'P 1'
_cell_length_a   16.62981253
_cell_length_b   22.52416665
_cell_length_c   21.59520433
_cell_angle_alpha   89.99586238
_cell_angle_beta   89.94289208
_cell_angle_gamma   90.00334745
_symmetry_Int_Tables_number   1
_chemical_formula_structural   H8PbC4(N3Cl2)2
_chemical_formula_sum   'H192 Pb24 C96 N144 Cl96'
_cell_volume   8088.96926575
_cell_formula_units_Z   24
loop_
 _symmetry_equiv_pos_site_id
 _symmetry_equiv_pos_as_xyz
  1  'x, y, z'
loop_
 _atom_site_type_symbol
 _atom_site_label
 _atom_site_symmetry_multiplicity
 _atom_site_fract_x
 _atom_site_fract_y
 _atom_site_fract_z
 _atom_site_occupancy
  H  H0  1  0.00348481  0.02608677  0.67148345  1
  H  H1  1  0.00464076  0.36539615  0.67808494  1
  H  H2  1  -0.00920244  0.69222044  0.67761828  1
  H  H3  1  0.52369714  0.03333716  0.66069643  1
  H  H4  1  0.49392764  0.35730849  0.67528202  1
  H  H5  1  0.50723529  0.69743975  0.67812800  1
  H  H6  1  -0.00113459  0.30541625  0.18187067  1
  H  H7  1  -0.00271945  0.64345316  0.17644899  1
  H  H8  1  0.01008342  0.97619245  0.17313174  1
  H  H9  1  0.51174651  0.30670010  0.17772222  1
  H  H10  1  0.49618609  0.63411799  0.17521012  1
  H  H11  1  0.49136376  0.96958490  0.18062258  1
  H  H12  1  0.00871215  0.02562534  0.82412894  1
  H  H13  1  0.00058780  0.35761461  0.82415261  1
  H  H14  1  -0.01013568  0.70104567  0.82411803  1
  H  H15  1  0.50554073  0.03037252  0.81951570  1
  H  H16  1  0.50947920  0.36493122  0.81811105  1
  H  H17  1  0.50877841  0.68840279  0.81784390  1
  H  H18  1  0.00266320  0.30229004  0.31810276  1
  H  H19  1  -0.00878688  0.63371911  0.32695275  1
  H  H20  1  -0.00477688  0.97347752  0.32744271  1
  H  H21  1  0.49521615  0.30498511  0.32366294  1
  H  H22  1  0.51526148  0.64376957  0.32196056  1
  H  H23  1  0.50596811  0.96893971  0.32030506  1
  H  H24  1  0.24685982  0.19940286  0.68124826  1
  H  H25  1  0.26628402  0.53142076  0.67557390  1
  H  H26  1  0.26165118  0.86506410  0.67536922  1
  H  H27  1  0.75196541  0.19214855  0.67322080  1
  H  H28  1  0.73651834  0.52997161  0.67944321  1
  H  H29  1  0.74292987  0.86257921  0.67665914  1
  H  H30  1  0.24497023  0.14042310  0.18130025  1
  H  H31  1  0.25774797  0.47572249  0.17521853  1
  H  H32  1  0.26407239  0.80376582  0.17435332  1
  H  H33  1  0.74186383  0.13487007  0.18127893  1
  H  H34  1  0.74016235  0.46768109  0.18187045  1
  H  H35  1  0.73198914  0.81065214  0.17385470  1
  H  H36  1  0.24025918  0.19328640  0.82472190  1
  H  H37  1  0.23802286  0.52651665  0.82073740  1
  H  H38  1  0.25196804  0.86278390  0.82277081  1
  H  H39  1  0.74363058  0.19283226  0.82349760  1
  H  H40  1  0.76184636  0.53150819  0.82474423  1
  H  H41  1  0.75542547  0.86245043  0.82107677  1
  H  H42  1  0.25755709  0.13404143  0.31877238  1
  H  H43  1  0.26379785  0.47170449  0.32453854  1
  H  H44  1  0.24518645  0.80720523  0.32375181  1
  H  H45  1  0.73082551  0.13180831  0.34986064  1
  H  H46  1  0.73318085  0.46787927  0.31888157  1
  H  H47  1  0.75315475  0.80519538  0.32230386  1
  H  H48  1  0.13414149  0.05353314  0.60858874  1
  H  H49  1  0.13051764  0.39263778  0.60926794  1
  H  H50  1  0.13257931  0.71446103  0.62767509  1
  H  H51  1  0.66200336  0.05162040  0.60423284  1
  H  H52  1  0.63200614  0.38124018  0.62093026  1
  H  H53  1  0.63807117  0.72287995  0.61488761  1
  H  H54  1  0.36845153  0.28595770  0.12984698  1
  H  H55  1  0.38270529  0.60626719  0.09839440  1
  H  H56  1  0.38555232  0.94342003  0.09770808  1
  H  H57  1  0.86933368  0.27981743  0.11782198  1
  H  H58  1  0.88685406  0.61153248  0.09702567  1
  H  H59  1  0.88468619  0.94457100  0.10807370  1
  H  H60  1  0.37014778  0.05079707  0.87497778  1
  H  H61  1  0.37024997  0.37972746  0.87137578  1
  H  H62  1  0.37792515  0.71631193  0.87858244  1
  H  H63  1  0.87371309  0.04793568  0.88445257  1
  H  H64  1  0.87245673  0.38591681  0.89048510  1
  H  H65  1  0.88062974  0.72826051  0.90715562  1
  H  H66  1  0.10866139  0.27491418  0.40161204  1
  H  H67  1  0.12236137  0.61226294  0.38957529  1
  H  H68  1  0.13010158  0.94690481  0.38517746  1
  H  H69  1  0.61089076  0.27310295  0.39892201  1
  H  H70  1  0.61915543  0.60689419  0.40454209  1
  H  H71  1  0.63654986  0.95170593  0.38643235  1
  H  H72  1  0.38655936  0.21883090  0.62624806  1
  H  H73  1  0.37498391  0.56084236  0.59533263  1
  H  H74  1  0.36206098  0.89523505  0.58917207  1
  H  H75  1  0.88025573  0.21443680  0.60556220  1
  H  H76  1  0.87957165  0.54995888  0.63018877  1
  H  H77  1  0.86576954  0.89028219  0.60657991  1
  H  H78  1  0.13058228  0.11238406  0.10187688  1
  H  H79  1  0.13443881  0.44618630  0.10586129  1
  H  H80  1  0.12052932  0.78507529  0.12555356  1
  H  H81  1  0.63247733  0.10874653  0.10064435  1
  H  H82  1  0.63711046  0.44136604  0.09777978  1
  H  H83  1  0.63234584  0.77459181  0.08741720  1
  H  H84  1  0.12899024  0.22175003  0.90256973  1
  H  H85  1  0.11934001  0.55572608  0.89693478  1
  H  H86  1  0.11851024  0.88731963  0.88393625  1
  H  H87  1  0.64137585  0.22416865  0.90988983  1
  H  H88  1  0.61724558  0.55036654  0.87023557  1
  H  H89  1  0.62345961  0.88695007  0.88416886  1
  H  H90  1  0.36194290  0.10689971  0.40212712  1
  H  H91  1  0.36078807  0.43834818  0.41278414  1
  H  H92  1  0.36777046  0.77775746  0.39194902  1
  H  H93  1  0.83625006  0.09840796  0.43041288  1
  H  H94  1  0.86617671  0.44806390  0.38300037  1
  H  H95  1  0.85741891  0.77852776  0.40714290  1
  H  H96  1  0.36287927  0.28172291  0.38596421  1
  H  H97  1  0.37491729  0.62067837  0.37136330  1
  H  H98  1  0.38746543  0.94323395  0.39287250  1
  H  H99  1  0.86331755  0.28066979  0.37298261  1
  H  H100  1  0.87440956  0.60745178  0.40295306  1
  H  H101  1  0.88315412  0.94477256  0.40536741  1
  H  H102  1  0.12087461  0.05786721  0.90110276  1
  H  H103  1  0.12115334  0.38678668  0.89509442  1
  H  H104  1  0.12662294  0.71801251  0.88134800  1
  H  H105  1  0.61694057  0.05585830  0.89936187  1
  H  H106  1  0.61572366  0.39116403  0.90030391  1
  H  H107  1  0.62652311  0.72267797  0.89154324  1
  H  H108  1  0.11769374  0.28075014  0.10568131  1
  H  H109  1  0.13304012  0.61389828  0.12279016  1
  H  H110  1  0.13340628  0.94667779  0.10295819  1
  H  H111  1  0.61192119  0.27127752  0.09269534  1
  H  H112  1  0.62995012  0.61142877  0.11427474  1
  H  H113  1  0.63102061  0.95358403  0.12781471  1
  H  H114  1  0.41435865  0.06058811  0.58039496  1
  H  H115  1  0.38705899  0.39248024  0.59320652  1
  H  H116  1  0.38958382  0.72328815  0.60203094  1
  H  H117  1  0.88588426  0.05499208  0.59838607  1
  H  H118  1  0.88150112  0.38702872  0.60741068  1
  H  H119  1  0.89091351  0.72949875  0.59336253  1
  H  H120  1  0.11715946  0.11439323  0.37289831  1
  H  H121  1  0.12015637  0.45259845  0.37234943  1
  H  H122  1  0.11875597  0.77860459  0.39112027  1
  H  H123  1  0.59174234  0.11220873  0.40018387  1
  H  H124  1  0.61902503  0.43920841  0.39897980  1
  H  H125  1  0.61203279  0.78518768  0.37476894  1
  H  H126  1  0.37474770  0.21300852  0.88032960  1
  H  H127  1  0.36721403  0.55417944  0.88605813  1
  H  H128  1  0.36600753  0.89202335  0.90145708  1
  H  H129  1  0.88548358  0.21351748  0.87206366  1
  H  H130  1  0.85914538  0.56225171  0.91309613  1
  H  H131  1  0.87158859  0.88989414  0.89703711  1
  H  H132  1  0.37830753  0.11595732  0.11754356  1
  H  H133  1  0.38368450  0.44723845  0.10869489  1
  H  H134  1  0.36396141  0.77096030  0.08942981  1
  H  H135  1  0.87944842  0.11609485  0.12593008  1
  H  H136  1  0.88131028  0.45319623  0.13148730  1
  H  H137  1  0.87451530  0.78588303  0.12671208  1
  H  H138  1  0.14035320  0.22336856  0.59742785  1
  H  H139  1  0.12894973  0.55290589  0.61969671  1
  H  H140  1  0.11916922  0.88490602  0.62729729  1
  H  H141  1  0.63233725  0.22234692  0.60204410  1
  H  H142  1  0.63659487  0.55766969  0.59175099  1
  H  H143  1  0.61677346  0.89103140  0.60814503  1
  H  H144  1  0.28796468  0.07812431  0.50561895  1
  H  H145  1  0.71669796  0.58305440  0.49116934  1
  H  H146  1  0.86943236  0.42305040  1.01763736  1
  H  H147  1  0.93106834  0.58020910  0.50550764  1
  H  H148  1  0.18600263  0.41479507  0.00154558  1
  H  H149  1  0.15392943  0.58156657  0.51066562  1
  H  H150  1  0.31853713  0.74464358  0.50150420  1
  H  H151  1  0.77582450  0.58557990  1.01046703  1
  H  H152  1  0.09606372  0.08482569  0.50204337  1
  H  H153  1  0.97249589  0.75639553  0.49631694  1
  H  H154  1  0.59941519  0.58291383  0.00452154  1
  H  H155  1  0.41396903  0.75084282  0.98942254  1
  H  H156  1  0.71097487  0.41320090  -0.00645392  1
  H  H157  1  0.08615180  0.41676531  0.50301227  1
  H  H158  1  0.03592543  0.24522836  0.50396498  1
  H  H159  1  0.10143082  0.91812696  0.49517687  1
  H  H160  1  0.69000825  0.23771337  0.49550182  1
  H  H161  1  0.54304898  0.58335857  0.50362024  1
  H  H162  1  0.21094350  0.25164064  0.49310765  1
  H  H163  1  0.39326323  0.08213864  -0.01076805  1
  H  H164  1  0.62901549  0.75964544  0.48633196  1
  H  H165  1  0.85891289  0.08460383  1.01335113  1
  H  H166  1  0.83912632  0.25057751  0.50299270  1
  H  H167  1  0.29680890  0.92091343  1.00274990  1
  H  H168  1  0.46433991  0.41903050  0.49426171  1
  H  H169  1  0.38494192  0.41137002  0.98486739  1
  H  H170  1  0.28202263  0.91777133  0.48988516  1
  H  H171  1  0.87300034  0.24702765  0.98567955  1
  H  H172  1  0.92854115  0.42028263  0.49835897  1
  H  H173  1  0.27518297  0.41430238  0.50877411  1
  H  H174  1  0.13296105  0.75325505  0.01521981  1
  H  H175  1  0.38903967  0.58587048  0.48327937  1
  H  H176  1  0.28568587  0.73976135  -0.01139094  1
  H  H177  1  0.44147614  0.91566755  0.50416172  1
  H  H178  1  0.35218274  0.24585640  -0.00479104  1
  H  H179  1  0.95805120  0.58072257  -0.00315536  1
  H  H180  1  0.45597620  0.91842302  -0.00807637  1
  H  H181  1  0.71840238  0.74901349  -0.00818768  1
  H  H182  1  0.36707652  0.24399199  0.51498309  1
  H  H183  1  0.71944646  0.24680571  1.00791602  1
  H  H184  1  0.56663642  0.74361581  0.99603689  1
  H  H185  1  0.47766837  0.08890487  0.47395075  1
  H  H186  1  0.61521894  0.92651962  1.01339023  1
  H  H187  1  0.53005596  0.24660086  -0.00584893  1
  H  H188  1  0.16203119  0.75008844  0.49620340  1
  H  H189  1  0.78425434  0.75067365  0.51018019  1
  H  H190  1  0.54550256  0.42110234  1.00513843  1
  H  H191  1  0.69898382  0.07598202  -0.00397488  1
  Pb  Pb192  1  0.25064241  0.05050182  0.74264939  1
  Pb  Pb193  1  0.24664846  0.38349617  0.74888122  1
  Pb  Pb194  1  0.25343119  0.71485360  0.74483207  1
  Pb  Pb195  1  0.75193284  0.04742759  0.75653085  1
  Pb  Pb196  1  0.75313550  0.38212244  0.75460418  1
  Pb  Pb197  1  0.74747487  0.71877653  0.75244907  1
  Pb  Pb198  1  0.24192914  0.28282221  0.25479743  1
  Pb  Pb199  1  0.24955102  0.61981821  0.25251242  1
  Pb  Pb200  1  0.24548615  0.94841831  0.24623284  1
  Pb  Pb201  1  0.74126514  0.27964666  0.24733603  1
  Pb  Pb202  1  0.74642945  0.61657035  0.24981775  1
  Pb  Pb203  1  0.75371825  0.95198879  0.25231803  1
  Pb  Pb204  1  0.00215118  0.21424197  0.74298329  1
  Pb  Pb205  1  -0.00232528  0.55102490  0.76144743  1
  Pb  Pb206  1  -0.00136316  0.88209887  0.74881844  1
  Pb  Pb207  1  0.50574332  0.21587260  0.76096543  1
  Pb  Pb208  1  0.50041313  0.54720915  0.73770667  1
  Pb  Pb209  1  0.49300137  0.88553832  0.74773544  1
  Pb  Pb210  1  -0.00650680  0.11510904  0.25625626  1
  Pb  Pb211  1  -0.00065142  0.45196311  0.25004600  1
  Pb  Pb212  1  -0.00636737  0.78385100  0.26489045  1
  Pb  Pb213  1  0.49579574  0.11545687  0.24279162  1
  Pb  Pb214  1  0.49396401  0.44872801  0.25181196  1
  Pb  Pb215  1  0.49874307  0.78467370  0.23374607  1
  C  C216  1  0.00856101  0.04400340  0.62511270  1
  C  C217  1  0.00627712  0.38116908  0.63048756  1
  C  C218  1  0.00466448  0.71047130  0.63241629  1
  C  C219  1  0.53332535  0.04886093  0.61362133  1
  C  C220  1  0.50382584  0.37617490  0.62975199  1
  C  C221  1  0.51153812  0.71430602  0.63139478  1
  C  C222  1  -0.00469085  0.28911700  0.13490603  1
  C  C223  1  0.00551896  0.62461876  0.13081833  1
  C  C224  1  0.00967644  0.95684375  0.12738876  1
  C  C225  1  0.49768612  0.28971920  0.13200049  1
  C  C226  1  0.50364988  0.61821814  0.12825239  1
  C  C227  1  0.50321320  0.95608074  0.13314630  1
  C  C228  1  0.00073894  0.04291209  0.87039908  1
  C  C229  1  -0.00233425  0.37642024  0.87008725  1
  C  C230  1  -0.00117348  0.71512596  0.87148307  1
  C  C231  1  0.49664119  0.04562444  0.86657174  1
  C  C232  1  0.49781876  0.37887870  0.86548373  1
  C  C233  1  0.50500292  0.70718982  0.86415780  1
  C  C234  1  -0.00897300  0.28703849  0.36487834  1
  C  C235  1  -0.00439278  0.61882370  0.37457296  1
  C  C236  1  0.00351531  0.95621071  0.37378173  1
  C  C237  1  0.48976802  0.28777065  0.37017635  1
  C  C238  1  0.50327535  0.62515522  0.36755774  1
  C  C239  1  0.50968102  0.95470382  0.36811302  1
  C  C240  1  0.25876015  0.21312697  0.63382135  1
  C  C241  1  0.25611690  0.54728563  0.62882799  1
  C  C242  1  0.24774308  0.88008648  0.62880723  1
  C  C243  1  0.75488000  0.20916925  0.62609355  1
  C  C244  1  0.75134685  0.54501652  0.63306072  1
  C  C245  1  0.74142609  0.88030175  0.63012620  1
  C  C246  1  0.25138169  0.12395591  0.13425657  1
  C  C247  1  0.25808885  0.45733470  0.12881566  1
  C  C248  1  0.24883177  0.78742453  0.12845354  1
  C  C249  1  0.75168700  0.11977264  0.13403554  1
  C  C250  1  0.75356718  0.45366813  0.13483580  1
  C  C251  1  0.74572774  0.79136159  0.12906068  1
  C  C252  1  0.24896042  0.20948710  0.87147643  1
  C  C253  1  0.24121026  0.54396711  0.86750265  1
  C  C254  1  0.24588816  0.87974891  0.86949876  1
  C  C255  1  0.75692110  0.20869769  0.87003796  1
  C  C256  1  0.74616167  0.54692240  0.87088976  1
  C  C257  1  0.74977319  0.87915630  0.86771657  1
  C  C258  1  0.24476671  0.11884627  0.36553129  1
  C  C259  1  0.24830800  0.45538516  0.37025258  1
  C  C260  1  0.24328032  0.78865194  0.37023095  1
  C  C261  1  0.71902118  0.11478491  0.39586563  1
  C  C262  1  0.73910694  0.45226302  0.36616385  1
  C  C263  1  0.74005957  0.79064494  0.36928546  1
  C  C264  1  0.03161431  0.41063002  0.96156052  1
  C  C265  1  0.77740867  0.91374136  0.53922239  1
  C  C266  1  0.74246266  0.57227080  0.53626250  1
  C  C267  1  0.55686111  0.74398403  0.54160750  1
  C  C268  1  0.74019623  0.08153181  0.49245441  1
  C  C269  1  0.73870581  0.42582087  0.03718459  1
  C  C270  1  0.28164436  0.75651478  0.46183932  1
  C  C271  1  0.00696393  0.25889971  0.46088588  1
  C  C272  1  0.05348617  0.73984771  0.95973459  1
  C  C273  1  0.47514384  0.58628418  0.03340286  1
  C  C274  1  0.97496289  0.07841528  0.53213628  1
  C  C275  1  0.95086618  0.26080076  0.04448323  1
  C  C276  1  0.97052370  0.91916873  0.03942181  1
  C  C277  1  0.45528300  0.73949625  0.95221774  1
  C  C278  1  0.82292793  0.23806597  0.95277747  1
  C  C279  1  0.06392719  0.58691583  0.04713341  1
  C  C280  1  0.56609880  0.93436906  0.04583031  1
  C  C281  1  0.27946481  0.57813430  0.53240998  1
  C  C282  1  0.75672698  0.76227220  0.46597909  1
  C  C283  1  0.44244330  0.25807270  0.45943902  1
  C  C284  1  0.50972552  0.07784916  0.51640559  1
  C  C285  1  0.26106605  0.75443802  0.03274423  1
  C  C286  1  0.59208974  0.07434843  0.52502653  1
  C  C287  1  0.55842852  0.93113984  0.45978171  1
  C  C288  1  0.65716128  0.08621226  0.48271231  1
  C  C289  1  0.43511578  0.40326537  0.95237373  1
  C  C290  1  0.97666558  0.92244596  0.46823300  1
  C  C291  1  0.48541861  0.93013345  0.03522632  1
  C  C292  1  0.02422542  0.07725307  0.96347399  1
  C  C293  1  0.22379293  0.24032251  0.96630832  1
  C  C294  1  0.30471471  0.23725634  0.96051310  1
  C  C295  1  0.04703350  0.59103900  0.46516019  1
  C  C296  1  0.81098875  0.09331875  0.04665555  1
  C  C297  1  0.67552539  0.57265673  0.95361541  1
  C  C298  1  0.43868547  0.59398365  0.45041098  1
  C  C299  1  0.72976785  0.08971521  0.03794108  1
  C  C300  1  0.44052922  0.07273833  0.95554615  1
  C  C301  1  0.96667240  0.40929756  0.53763013  1
  C  C302  1  0.25970124  0.09064738  0.46166694  1
  C  C303  1  0.47725460  0.92759359  0.46380250  1
  C  C304  1  0.77803370  0.91124954  0.96087718  1
  C  C305  1  0.52153501  0.07473689  0.96232516  1
  C  C306  1  0.30239452  0.42469781  0.03799767  1
  C  C307  1  0.81915485  0.43038260  0.04917491  1
  C  C308  1  0.23954079  0.24017496  0.53694945  1
  C  C309  1  0.17993826  0.90688876  0.54523369  1
  C  C310  1  0.42972739  0.25897926  0.05015326  1
  C  C311  1  0.51608760  0.40798762  0.96231078  1
  N  N312  1  0.22330107  0.42407982  0.03814844  1
  N  N313  1  0.25741738  0.91056856  0.53331452  1
  N  N314  1  0.96773230  0.59001534  0.46855659  1
  N  N315  1  0.18154546  0.09409273  0.45213787  1
  N  N316  1  0.05486584  0.92516619  0.46089533  1
  N  N317  1  0.92881187  0.26322848  0.45222062  1
  N  N318  1  0.97689977  0.74324605  0.96907834  1
  N  N319  1  0.17823168  0.42773674  0.45175777  1
  N  N320  1  0.28608502  0.57600889  0.95755978  1
  N  N321  1  0.04781962  0.91959146  0.03653837  1
  N  N322  1  0.51976717  0.25513778  0.46489663  1
  N  N323  1  0.19121059  0.91093269  0.95658479  1
  N  N324  1  0.26882327  0.91244538  0.96119585  1
  N  N325  1  0.71305445  0.42207839  0.46127266  1
  N  N326  1  0.51709963  0.58840050  0.46043984  1
  N  N327  1  0.79894904  0.23222956  0.53499416  1
  N  N328  1  0.94723984  0.07404342  0.95867890  1
  N  N329  1  0.53482921  0.74170709  0.95544300  1
  N  N330  1  0.98579816  0.58822986  0.03891985  1
  N  N331  1  0.70071808  0.91018159  0.95763811  1
  N  N332  1  0.73828019  0.75554931  0.03691587  1
  N  N333  1  0.22528523  0.09435278  0.03915191  1
  N  N334  1  0.72089741  0.24404911  0.53619031  1
  N  N335  1  0.47932726  0.74445119  0.53620832  1
  N  N336  1  0.81452050  0.75869517  0.04882704  1
  N  N337  1  0.20199280  0.75598391  0.45976178  1
  N  N338  1  0.02810171  0.26005299  0.03940389  1
  N  N339  1  0.25426110  0.42219863  0.46373757  1
  N  N340  1  0.56576643  0.40824243  0.54590932  1
  N  N341  1  0.31790760  0.23745834  0.54748045  1
  N  N342  1  0.55345700  0.59004938  0.03943767  1
  N  N343  1  0.20130390  0.57470566  0.54179628  1
  N  N344  1  0.70016832  0.91401365  0.53848787  1
  N  N345  1  0.04631445  0.41087161  0.53956442  1
  N  N346  1  0.48867009  0.41149911  0.53796554  1
  N  N347  1  0.18365640  0.75910089  0.04605182  1
  N  N348  1  0.99520517  0.74684481  0.54036337  1
  N  N349  1  0.82010221  0.57027272  0.54862653  1
  N  N350  1  0.05365241  0.07677961  0.53673098  1
  N  N351  1  0.07167863  0.74084550  0.55026875  1
  N  N352  1  0.30088709  0.09501646  0.04479140  1
  N  N353  1  0.50686058  0.25488557  0.03838099  1
  N  N354  1  0.67869575  0.76536436  0.45432916  1
  N  N355  1  0.21007158  0.57645190  0.96078453  1
  N  N356  1  0.95406683  0.41060803  0.96043689  1
  N  N357  1  0.74476021  0.24158650  0.96431741  1
  N  N358  1  0.75261471  0.57727901  0.96649196  1
  N  N359  1  0.78922369  0.42481992  0.45625040  1
  N  N360  1  0.07518824  0.05461750  0.59376850  1
  N  N361  1  0.07056384  0.39160658  0.59622657  1
  N  N362  1  0.07695527  0.72011710  0.60823670  1
  N  N363  1  0.60408661  0.05629107  0.58591071  1
  N  N364  1  0.57471824  0.38793146  0.60379470  1
  N  N365  1  0.57932077  0.72588327  0.59947872  1
  N  N366  1  0.42346606  0.27912862  0.10866722  1
  N  N367  1  0.44389335  0.60388631  0.08809879  1
  N  N368  1  0.44750179  0.94379225  0.09015815  1
  N  N369  1  0.92789514  0.27768176  0.10250707  1
  N  N370  1  0.94878334  0.61334846  0.08954499  1
  N  N371  1  0.94427890  0.94155084  0.09407821  1
  N  N372  1  0.42655620  0.05472277  0.89491714  1
  N  N373  1  0.42565666  0.38528321  0.89205262  1
  N  N374  1  0.43656941  0.71988144  0.89505738  1
  N  N375  1  0.93230066  0.05246689  0.89979983  1
  N  N376  1  0.93268680  0.38947440  0.90256146  1
  N  N377  1  0.94279088  0.72743729  0.91281024  1
  N  N378  1  0.04652894  0.27381360  0.40784053  1
  N  N379  1  0.06408263  0.60838883  0.40672587  1
  N  N380  1  0.07224836  0.94704704  0.40273876  1
  N  N381  1  0.54910779  0.27462787  0.40818291  1
  N  N382  1  0.55699222  0.61120184  0.41036278  1
  N  N383  1  0.57763658  0.94725236  0.40206526  1
  N  N384  1  0.32933695  0.21976292  0.60676826  1
  N  N385  1  0.31375696  0.56159755  0.58649979  1
  N  N386  1  0.29994133  0.89096589  0.58417827  1
  N  N387  1  0.82050769  0.22028290  0.59339181  1
  N  N388  1  0.82362840  0.55324567  0.60920354  1
  N  N389  1  0.80554924  0.89330838  0.59420857  1
  N  N390  1  0.19281923  0.11308524  0.09417035  1
  N  N391  1  0.19532163  0.44560832  0.09372240  1
  N  N392  1  0.17659593  0.78033836  0.10449178  1
  N  N393  1  0.69409453  0.10631819  0.09271169  1
  N  N394  1  0.69907106  0.44040483  0.09103800  1
  N  N395  1  0.69459136  0.77738102  0.08446145  1
  N  N396  1  0.19028287  0.22371044  0.91285435  1
  N  N397  1  0.18061266  0.55660198  0.90511214  1
  N  N398  1  0.17745156  0.89172099  0.89893409  1
  N  N399  1  0.70426510  0.22005555  0.91445674  1
  N  N400  1  0.67113390  0.55534169  0.89371185  1
  N  N401  1  0.68275053  0.89016040  0.89854073  1
  N  N402  1  0.29955083  0.10558790  0.40894400  1
  N  N403  1  0.29837044  0.44200910  0.41571567  1
  N  N404  1  0.30764739  0.77570747  0.40600200  1
  N  N405  1  0.77526068  0.09893045  0.43955457  1
  N  N406  1  0.80664433  0.44318125  0.39722952  1
  N  N407  1  0.79518983  0.77742338  0.41308339  1
  N  N408  1  0.42132158  0.27725209  0.40157167  1
  N  N409  1  0.43024190  0.61456764  0.39210699  1
  N  N410  1  0.44778938  0.94263422  0.40553885  1
  N  N411  1  0.92042905  0.28019739  0.39199601  1
  N  N412  1  0.93552993  0.60849181  0.41294634  1
  N  N413  1  0.94455759  0.94150768  0.41452505  1
  N  N414  1  0.05936571  0.05857823  0.91034833  1
  N  N415  1  0.06044710  0.38987342  0.90690632  1
  N  N416  1  0.06977256  0.72270381  0.90024309  1
  N  N417  1  0.55530832  0.05838235  0.90867260  1
  N  N418  1  0.55387837  0.39281665  0.90787029  1
  N  N419  1  0.56543017  0.71822496  0.90224935  1
  N  N420  1  0.05583429  0.27819192  0.09708749  1
  N  N421  1  0.07632224  0.60888529  0.10411725  1
  N  N422  1  0.07252014  0.94369119  0.09251364  1
  N  N423  1  0.54980955  0.27705865  0.08767668  1
  N  N424  1  0.57168768  0.61035258  0.09788873  1
  N  N425  1  0.57555457  0.95030914  0.10648335  1
  N  N426  1  0.47553818  0.06202021  0.57194533  1
  N  N427  1  0.44921345  0.39007807  0.58771539  1
  N  N428  1  0.45143774  0.72572701  0.59355318  1
  N  N429  1  0.94692013  0.05829446  0.58678611  1
  N  N430  1  0.94167700  0.39186537  0.59434832  1
  N  N431  1  0.95293988  0.72584749  0.58877032  1
  N  N432  1  0.17382508  0.11158031  0.39196280  1
  N  N433  1  0.17511344  0.44619003  0.39289496  1
  N  N434  1  0.17862463  0.77757623  0.40389086  1
  N  N435  1  0.64733163  0.10677371  0.42164316  1
  N  N436  1  0.68061766  0.43917452  0.40564678  1
  N  N437  1  0.66874992  0.78426076  0.39530664  1
  N  N438  1  0.31900131  0.21842879  0.89990174  1
  N  N439  1  0.30709108  0.55553074  0.89992251  1
  N  N440  1  0.30403262  0.89157090  0.90942517  1
  N  N441  1  0.83027300  0.21923945  0.89375245  1
  N  N442  1  0.79675761  0.55909260  0.91612303  1
  N  N443  1  0.81040398  0.89252413  0.90680593  1
  N  N444  1  0.31867827  0.11223893  0.10391665  1
  N  N445  1  0.32426230  0.44413323  0.09455960  1
  N  N446  1  0.30215373  0.77171163  0.08382789  1
  N  N447  1  0.82298967  0.11168185  0.10633913  1
  N  N448  1  0.82667116  0.44738702  0.10969804  1
  N  N449  1  0.81858645  0.77904228  0.10689901  1
  N  N450  1  0.20225977  0.22546781  0.59058342  1
  N  N451  1  0.18650763  0.55490917  0.60086541  1
  N  N452  1  0.17373397  0.88953494  0.60492509  1
  N  N453  1  0.69276399  0.21934673  0.58922073  1
  N  N454  1  0.69898215  0.55743444  0.58763532  1
  N  N455  1  0.67733885  0.89279472  0.59645535  1
  Cl  Cl456  1  0.27176275  0.05681099  0.60705424  1
  Cl  Cl457  1  0.26424239  0.39531961  0.60137970  1
  Cl  Cl458  1  0.26515873  0.72117375  0.60919739  1
  Cl  Cl459  1  0.77537712  0.05172598  0.62286619  1
  Cl  Cl460  1  0.75949960  0.37781289  0.62433249  1
  Cl  Cl461  1  0.76712795  0.72733395  0.61539392  1
  Cl  Cl462  1  0.23979798  0.28664398  0.12278413  1
  Cl  Cl463  1  0.26121823  0.61325115  0.12195039  1
  Cl  Cl464  1  0.26235075  0.93902573  0.10787923  1
  Cl  Cl465  1  0.73374579  0.26784066  0.10578901  1
  Cl  Cl466  1  0.76280088  0.60673746  0.10517006  1
  Cl  Cl467  1  0.76071626  0.94095021  0.12215019  1
  Cl  Cl468  1  0.24096325  0.05604817  0.87402452  1
  Cl  Cl469  1  0.23894481  0.38984673  0.88373621  1
  Cl  Cl470  1  0.25421200  0.72368275  0.87925765  1
  Cl  Cl471  1  0.74114015  0.05402672  0.88846811  1
  Cl  Cl472  1  0.74209903  0.38753535  0.89009042  1
  Cl  Cl473  1  0.74947499  0.72801054  0.89629647  1
  Cl  Cl474  1  0.23498398  0.27868424  0.39209933  1
  Cl  Cl475  1  0.24601149  0.61138214  0.38805267  1
  Cl  Cl476  1  0.26056993  0.93696215  0.39060325  1
  Cl  Cl477  1  0.73338139  0.26332644  0.38752184  1
  Cl  Cl478  1  0.74458604  0.60846849  0.38814636  1
  Cl  Cl479  1  0.76204284  0.95073803  0.38516027  1
  Cl  Cl480  1  0.00993106  0.21966642  0.60603032  1
  Cl  Cl481  1  0.00568187  0.55751850  0.62628015  1
  Cl  Cl482  1  -0.00986595  0.89039053  0.61374652  1
  Cl  Cl483  1  0.51203717  0.22283849  0.62838151  1
  Cl  Cl484  1  0.50856489  0.56175127  0.59878359  1
  Cl  Cl485  1  0.48580733  0.89519300  0.61217369  1
  Cl  Cl486  1  0.01000740  0.10819913  0.12240624  1
  Cl  Cl487  1  0.01349997  0.44803756  0.11918873  1
  Cl  Cl488  1  -0.00173161  0.78690053  0.13634061  1
  Cl  Cl489  1  0.50618909  0.11443999  0.11212817  1
  Cl  Cl490  1  0.51154079  0.44452217  0.11702617  1
  Cl  Cl491  1  0.50446569  0.76821146  0.09473267  1
  Cl  Cl492  1  0.01121014  0.21671417  0.87360183  1
  Cl  Cl493  1  -0.01540427  0.56084644  0.90058562  1
  Cl  Cl494  1  -0.00546624  0.88685285  0.87931718  1
  Cl  Cl495  1  0.52290338  0.22800830  0.90120876  1
  Cl  Cl496  1  0.48982829  0.55815268  0.87027557  1
  Cl  Cl497  1  0.48832795  0.88803881  0.88388228  1
  Cl  Cl498  1  -0.02272111  0.10625788  0.38879969  1
  Cl  Cl499  1  -0.00953386  0.44976654  0.38572667  1
  Cl  Cl500  1  -0.01739114  0.77673223  0.40424621  1
  Cl  Cl501  1  0.47382830  0.11565824  0.37646544  1
  Cl  Cl502  1  0.48281842  0.43786472  0.39805412  1
  Cl  Cl503  1  0.48859347  0.77789257  0.36551123  1
  Cl  Cl504  1  0.36920739  0.14747824  0.75840955  1
  Cl  Cl505  1  0.36075713  0.48257505  0.74894453  1
  Cl  Cl506  1  0.35390570  0.82125671  0.75077057  1
  Cl  Cl507  1  0.86388499  0.14901294  0.75308039  1
  Cl  Cl508  1  0.86078316  0.48602068  0.74888611  1
  Cl  Cl509  1  0.85780240  0.81922905  0.74933532  1
  Cl  Cl510  1  0.14128862  0.18618895  0.25759112  1
  Cl  Cl511  1  0.13729258  0.51961714  0.25583153  1
  Cl  Cl512  1  0.14086558  0.85514516  0.25327463  1
  Cl  Cl513  1  0.64590677  0.18116589  0.25507602  1
  Cl  Cl514  1  0.64171285  0.52019531  0.24582860  1
  Cl  Cl515  1  0.63296979  0.85578396  0.25172487  1
  Cl  Cl516  1  0.14632622  0.15141362  0.74237201  1
  Cl  Cl517  1  0.14031246  0.47815623  0.73646789  1
  Cl  Cl518  1  0.13343305  0.81035537  0.73891376  1
  Cl  Cl519  1  0.64597273  0.15143793  0.74754246  1
  Cl  Cl520  1  0.63914498  0.48247978  0.75397250  1
  Cl  Cl521  1  0.63686288  0.80944095  0.75787298  1
  Cl  Cl522  1  0.36157527  0.18697322  0.24540238  1
  Cl  Cl523  1  0.35980773  0.51726559  0.25408471  1
  Cl  Cl524  1  0.35849455  0.84796745  0.24370487  1
  Cl  Cl525  1  0.86581846  0.18742232  0.24969958  1
  Cl  Cl526  1  0.86554963  0.52078631  0.24670609  1
  Cl  Cl527  1  0.85443785  0.84525047  0.25388484  1
  Cl  Cl528  1  0.11408531  0.31580923  0.74132504  1
  Cl  Cl529  1  0.11987274  0.64504170  0.75231239  1
  Cl  Cl530  1  0.11369016  0.98098909  0.74001160  1
  Cl  Cl531  1  0.60981825  0.32008663  0.74847014  1
  Cl  Cl532  1  0.61805475  0.64466670  0.74903413  1
  Cl  Cl533  1  0.61239130  0.98201579  0.74657232  1
  Cl  Cl534  1  0.39557032  0.01651746  0.24925989  1
  Cl  Cl535  1  0.38845869  0.35525450  0.24536098  1
  Cl  Cl536  1  0.39358198  0.68053919  0.24794392  1
  Cl  Cl537  1  0.89924159  0.01138527  0.24526855  1
  Cl  Cl538  1  0.88325740  0.35526976  0.24783512  1
  Cl  Cl539  1  0.89652906  0.68414061  0.25408001  1
  Cl  Cl540  1  0.38592066  0.31151638  0.75257036  1
  Cl  Cl541  1  0.39592030  0.65224122  0.74145988  1
  Cl  Cl542  1  0.39555393  0.98364292  0.75169321  1
  Cl  Cl543  1  0.89416720  0.31659803  0.75619682  1
  Cl  Cl544  1  0.89734474  0.65012258  0.75271917  1
  Cl  Cl545  1  0.89360662  0.98545680  0.75555902  1
  Cl  Cl546  1  0.11956431  0.02139628  0.26320816  1
  Cl  Cl547  1  0.10723495  0.35086827  0.25793495  1
  Cl  Cl548  1  0.11436276  0.68865125  0.25673363  1
  Cl  Cl549  1  0.61689677  0.02053244  0.24689435  1
  Cl  Cl550  1  0.60721934  0.34870258  0.25635980  1
  Cl  Cl551  1  0.61447713  0.68581473  0.24387109  1
