# generated using pymatgen
data_H8PbC4(N3Cl2)2
_symmetry_space_group_name_H-M   'P 1'
_cell_length_a   16.62677036
_cell_length_b   22.51511127
_cell_length_c   21.59443427
_cell_angle_alpha   90.00049320
_cell_angle_beta   90.00350717
_cell_angle_gamma   90.00098701
_symmetry_Int_Tables_number   1
_chemical_formula_structural   H8PbC4(N3Cl2)2
_chemical_formula_sum   'H192 Pb24 C96 N144 Cl96'
_cell_volume   8083.95386106
_cell_formula_units_Z   24
loop_
 _symmetry_equiv_pos_site_id
 _symmetry_equiv_pos_as_xyz
  1  'x, y, z'
loop_
 _atom_site_type_symbol
 _atom_site_label
 _atom_site_symmetry_multiplicity
 _atom_site_fract_x
 _atom_site_fract_y
 _atom_site_fract_z
 _atom_site_occupancy
  H  H0  1  -0.01174014  0.03142325  0.68200184  1
  H  H1  1  -0.00540741  0.36313692  0.67462149  1
  H  H2  1  -0.00455620  0.69458494  0.67996354  1
  H  H3  1  0.50632836  0.02755238  0.67730919  1
  H  H4  1  0.49075558  0.36437095  0.67617540  1
  H  H5  1  0.49575811  0.69570874  0.68081938  1
  H  H6  1  -0.00012011  0.30579938  0.18377739  1
  H  H7  1  -0.00588514  0.63796892  0.17530888  1
  H  H8  1  0.00193314  0.97011575  0.18219545  1
  H  H9  1  0.50503786  0.30360561  0.17301885  1
  H  H10  1  0.50286722  0.63559387  0.18144453  1
  H  H11  1  0.50726920  0.97091623  0.17706974  1
  H  H12  1  -0.01317529  0.02679040  0.82100864  1
  H  H13  1  -0.00087031  0.36843256  0.81912375  1
  H  H14  1  0.00686189  0.69703385  0.81991644  1
  H  H15  1  0.49906158  0.03039535  0.81638591  1
  H  H16  1  0.49928958  0.36222717  0.82136268  1
  H  H17  1  0.49137945  0.69787382  0.82174773  1
  H  H18  1  0.01389020  0.30191885  0.32545662  1
  H  H19  1  -0.01186394  0.63818087  0.31916593  1
  H  H20  1  -0.00444134  0.96896851  0.32032469  1
  H  H21  1  0.48393650  0.30581160  0.32120504  1
  H  H22  1  0.50170627  0.63590275  0.32205660  1
  H  H23  1  0.49996886  0.96903638  0.32190762  1
  H  H24  1  0.26150333  0.19573025  0.67786499  1
  H  H25  1  0.25825618  0.52838259  0.67617390  1
  H  H26  1  0.25536573  0.86138572  0.68071142  1
  H  H27  1  0.73718214  0.19931141  0.67636632  1
  H  H28  1  0.74510421  0.52756809  0.67691488  1
  H  H29  1  0.74874247  0.86260023  0.68173445  1
  H  H30  1  0.25411319  0.13426319  0.18040015  1
  H  H31  1  0.24095448  0.47004289  0.17803123  1
  H  H32  1  0.25259962  0.80474638  0.17995709  1
  H  H33  1  0.75201537  0.13771951  0.17998476  1
  H  H34  1  0.75126500  0.47174550  0.17765987  1
  H  H35  1  0.75709628  0.80196709  0.17535748  1
  H  H36  1  0.23283033  0.19800578  0.82299224  1
  H  H37  1  0.25677801  0.53078229  0.82225600  1
  H  H38  1  0.26282432  0.86263778  0.82262749  1
  H  H39  1  0.76811782  0.19958839  0.82182652  1
  H  H40  1  0.74367383  0.52815324  0.82047215  1
  H  H41  1  0.74105708  0.86332958  0.81793461  1
  H  H42  1  0.25471273  0.13530765  0.31852797  1
  H  H43  1  0.25762242  0.47249599  0.32432237  1
  H  H44  1  0.24734093  0.80189219  0.32563194  1
  H  H45  1  0.74017592  0.13776329  0.31897475  1
  H  H46  1  0.74127873  0.47150776  0.32282883  1
  H  H47  1  0.75592328  0.80278281  0.31734309  1
  H  H48  1  0.11934854  0.05210089  0.61560980  1
  H  H49  1  0.13139792  0.38660653  0.61811486  1
  H  H50  1  0.12962852  0.71758155  0.61728997  1
  H  H51  1  0.61857254  0.05793882  0.59749116  1
  H  H52  1  0.62922326  0.38338122  0.61956634  1
  H  H53  1  0.62633745  0.71830552  0.61305865  1
  H  H54  1  0.37431676  0.27844925  0.11163266  1
  H  H55  1  0.38061408  0.61286241  0.10726773  1
  H  H56  1  0.37146109  0.94884106  0.11906345  1
  H  H57  1  0.87666893  0.28222753  0.11042931  1
  H  H58  1  0.87925008  0.60850096  0.09878135  1
  H  H59  1  0.87543556  0.94432452  0.11329651  1
  H  H60  1  0.37877972  0.05239785  0.89098149  1
  H  H61  1  0.37074051  0.38711322  0.88747213  1
  H  H62  1  0.38366090  0.72320829  0.90307255  1
  H  H63  1  0.88410314  0.05924470  0.90705654  1
  H  H64  1  0.86670936  0.38614535  0.88249878  1
  H  H65  1  0.87924100  0.71968967  0.88559141  1
  H  H66  1  0.11598796  0.27207240  0.41249653  1
  H  H67  1  0.12005016  0.61572155  0.38352970  1
  H  H68  1  0.13307353  0.94873841  0.37456059  1
  H  H69  1  0.62483714  0.28364978  0.37283249  1
  H  H70  1  0.61516821  0.61065955  0.39889992  1
  H  H71  1  0.63395205  0.94742701  0.38334394  1
  H  H72  1  0.36816827  0.22604265  0.59338495  1
  H  H73  1  0.38042154  0.55322341  0.60429127  1
  H  H74  1  0.36578616  0.88744567  0.59973843  1
  H  H75  1  0.87808411  0.21693176  0.62503518  1
  H  H76  1  0.87944333  0.55115058  0.61890822  1
  H  H77  1  0.86498869  0.88765891  0.60473952  1
  H  H78  1  0.12233033  0.11617121  0.11957462  1
  H  H79  1  0.13587157  0.44047257  0.09431110  1
  H  H80  1  0.12255391  0.77896463  0.11455652  1
  H  H81  1  0.61611264  0.11600411  0.12296945  1
  H  H82  1  0.62965230  0.44415062  0.10672803  1
  H  H83  1  0.62039137  0.78266847  0.11734618  1
  H  H84  1  0.13357248  0.22494695  0.91059934  1
  H  H85  1  0.12281963  0.55236419  0.88378880  1
  H  H86  1  0.12846204  0.88498673  0.88345968  1
  H  H87  1  0.62348762  0.21668731  0.86929045  1
  H  H88  1  0.62224444  0.55429101  0.89269616  1
  H  H89  1  0.62803384  0.88778228  0.89627073  1
  H  H90  1  0.37618225  0.11110259  0.39267134  1
  H  H91  1  0.36371969  0.44369420  0.40845022  1
  H  H92  1  0.37230129  0.77949169  0.39270329  1
  H  H93  1  0.87869801  0.11625225  0.37551837  1
  H  H94  1  0.86369012  0.44406644  0.39418686  1
  H  H95  1  0.87057521  0.77847425  0.39444070  1
  H  H96  1  0.38130567  0.27685487  0.40857660  1
  H  H97  1  0.36692781  0.61750618  0.38232755  1
  H  H98  1  0.38725670  0.94067616  0.40229933  1
  H  H99  1  0.87281014  0.28253328  0.37826997  1
  H  H100  1  0.87240779  0.60850616  0.39764449  1
  H  H101  1  0.88665459  0.94323355  0.40061463  1
  H  H102  1  0.12754951  0.04620968  0.87401305  1
  H  H103  1  0.11566926  0.38938143  0.89491029  1
  H  H104  1  0.12882760  0.72123141  0.89120362  1
  H  H105  1  0.62766031  0.05588076  0.88387584  1
  H  H106  1  0.61961165  0.38846113  0.89540934  1
  H  H107  1  0.63056530  0.71505575  0.87636292  1
  H  H108  1  0.12589232  0.27894942  0.11751664  1
  H  H109  1  0.12694560  0.61568644  0.11462847  1
  H  H110  1  0.12435198  0.94643757  0.11025021  1
  H  H111  1  0.62217046  0.27698457  0.09687633  1
  H  H112  1  0.62934247  0.61303509  0.11333742  1
  H  H113  1  0.61892700  0.94139293  0.09771579  1
  H  H114  1  0.37200058  0.05061561  0.61740207  1
  H  H115  1  0.38337919  0.39481888  0.59533061  1
  H  H116  1  0.37796662  0.71972796  0.60300406  1
  H  H117  1  0.87068157  0.05730963  0.60659102  1
  H  H118  1  0.88503625  0.38973088  0.59269072  1
  H  H119  1  0.88110142  0.71951661  0.60129699  1
  H  H120  1  0.12724662  0.11299051  0.38639442  1
  H  H121  1  0.11846502  0.44892110  0.37687521  1
  H  H122  1  0.12351501  0.77868666  0.39377998  1
  H  H123  1  0.63222502  0.11091642  0.40164177  1
  H  H124  1  0.61481776  0.44630484  0.39267764  1
  H  H125  1  0.62218272  0.78370027  0.37717726  1
  H  H126  1  0.37645262  0.21797068  0.87107500  1
  H  H127  1  0.37107352  0.55832024  0.89898750  1
  H  H128  1  0.37616490  0.88977731  0.90131125  1
  H  H129  1  0.86402969  0.22950192  0.91283390  1
  H  H130  1  0.87119312  0.55190122  0.88942364  1
  H  H131  1  0.87590810  0.88368886  0.87576721  1
  H  H132  1  0.36969946  0.11071527  0.10409624  1
  H  H133  1  0.38105890  0.45062857  0.12566546  1
  H  H134  1  0.37102410  0.77989789  0.10532910  1
  H  H135  1  0.86353645  0.10789057  0.09977003  1
  H  H136  1  0.87857815  0.44633151  0.10982698  1
  H  H137  1  0.86672236  0.77298751  0.09614664  1
  H  H138  1  0.12309094  0.21869695  0.62370169  1
  H  H139  1  0.13137182  0.55164055  0.61164496  1
  H  H140  1  0.11856704  0.88206247  0.62143331  1
  H  H141  1  0.63248245  0.22637008  0.59311713  1
  H  H142  1  0.63191521  0.55531164  0.59821011  1
  H  H143  1  0.61656903  0.88633433  0.61784300  1
  H  H144  1  0.43271096  0.08208129  0.99819309  1
  H  H145  1  0.95304987  0.91459065  0.50701760  1
  H  H146  1  0.64176226  0.08314434  0.01108547  1
  H  H147  1  0.70408156  0.08373241  0.50557504  1
  H  H148  1  0.15237994  0.08503365  1.00579643  1
  H  H149  1  0.45135190  0.75117950  1.00910643  1
  H  H150  1  0.07383111  0.91490379  0.00285201  1
  H  H151  1  0.70282308  0.25413963  0.48883945  1
  H  H152  1  0.10682331  0.41124843  0.50772117  1
  H  H153  1  0.79601110  0.08671567  -0.00283094  1
  H  H154  1  0.93006462  0.26462670  0.00399844  1
  H  H155  1  0.29743680  0.91340286  0.49417020  1
  H  H156  1  0.81102644  0.75057422  0.50294709  1
  H  H157  1  0.05876073  0.41764161  1.00515503  1
  H  H158  1  0.55387438  0.58296120  0.50827772  1
  H  H159  1  0.66239506  0.41726193  0.49623364  1
  H  H160  1  0.80268891  0.91668966  0.49782028  1
  H  H161  1  0.64992262  0.75399887  0.48999051  1
  H  H162  1  0.88970723  0.25235279  0.48967362  1
  H  H163  1  0.11283438  0.91880518  0.48815778  1
  H  H164  1  0.29075646  0.25248097  0.49500077  1
  H  H165  1  0.54953525  0.91456194  -0.00436976  1
  H  H166  1  0.41114588  0.41777951  0.99722559  1
  H  H167  1  0.08236199  0.75284280  0.99944670  1
  H  H168  1  0.36534105  0.24339724  0.98249243  1
  H  H169  1  0.56559925  0.24858948  -0.00507522  1
  H  H170  1  0.69007326  0.91328904  1.00485164  1
  H  H171  1  0.94639666  0.74795631  0.49482766  1
  H  H172  1  0.64367689  0.74878192  0.00896610  1
  H  H173  1  0.69958771  0.58354025  0.49601348  1
  H  H174  1  0.17099174  0.58739233  0.50023038  1
  H  H175  1  0.31102431  0.59075199  1.00496556  1
  H  H176  1  0.77669794  0.25651539  1.00663798  1
  H  H177  1  0.15255425  0.58138115  0.99107593  1
  H  H178  1  0.94079453  0.57857637  -0.00263330  1
  H  H179  1  0.21200043  0.41465500  -0.00544711  1
  H  H180  1  0.17209476  0.08417038  0.49654047  1
  H  H181  1  0.46255809  0.25113322  0.50553433  1
  H  H182  1  0.85076179  0.91120205  0.98943663  1
  H  H183  1  0.21248245  0.25030354  1.01282158  1
  H  H184  1  0.91708611  0.75018061  0.99650377  1
  H  H185  1  0.95733295  0.42936119  0.49870084  1
  H  H186  1  0.08234529  0.25127901  0.00560549  1
  H  H187  1  0.92806892  0.08568434  0.49964851  1
  H  H188  1  0.96531242  0.08153757  1.00557035  1
  H  H189  1  0.45685854  0.91598614  0.50371531  1
  H  H190  1  0.67401809  0.58413817  1.00042979  1
  H  H191  1  0.54778690  0.08269522  0.49600490  1
  Pb  Pb192  1  0.24753372  0.04903830  0.74940848  1
  Pb  Pb193  1  0.25146637  0.38091618  0.75472930  1
  Pb  Pb194  1  0.25157011  0.71304883  0.75343895  1
  Pb  Pb195  1  0.75071104  0.04898048  0.75168376  1
  Pb  Pb196  1  0.75053796  0.37989611  0.74422952  1
  Pb  Pb197  1  0.75227705  0.71338265  0.74642698  1
  Pb  Pb198  1  0.25367812  0.28371798  0.25860850  1
  Pb  Pb199  1  0.24896553  0.62013858  0.24401905  1
  Pb  Pb200  1  0.25109117  0.95310092  0.25352289  1
  Pb  Pb201  1  0.74885680  0.28833312  0.23945373  1
  Pb  Pb202  1  0.74991137  0.61936857  0.25392953  1
  Pb  Pb203  1  0.75346785  0.95046872  0.24927478  1
  Pb  Pb204  1  -0.00237593  0.21648835  0.76776772  1
  Pb  Pb205  1  0.00073711  0.54608853  0.75544145  1
  Pb  Pb206  1  0.00035475  0.88057126  0.74929272  1
  Pb  Pb207  1  0.49960155  0.21395930  0.73818901  1
  Pb  Pb208  1  0.50191754  0.54664094  0.74992218  1
  Pb  Pb209  1  0.49484267  0.88328747  0.75131502  1
  Pb  Pb210  1  -0.00134535  0.11957299  0.24343859  1
  Pb  Pb211  1  -0.00026040  0.45303724  0.24894444  1
  Pb  Pb212  1  0.00063707  0.78646965  0.24820042  1
  Pb  Pb213  1  0.50343750  0.11773349  0.25475864  1
  Pb  Pb214  1  0.49904410  0.45349086  0.25581617  1
  Pb  Pb215  1  0.49721858  0.78623471  0.24824799  1
  C  C216  1  -0.00703956  0.04678608  0.63452815  1
  C  C217  1  0.00394276  0.37924353  0.62766302  1
  C  C218  1  0.00217920  0.71049859  0.63281288  1
  C  C219  1  0.49939358  0.04464763  0.63069651  1
  C  C220  1  0.50154518  0.38012821  0.62968424  1
  C  C221  1  0.50030533  0.71109614  0.63327910  1
  C  C222  1  0.00011415  0.29003057  0.13615787  1
  C  C223  1  -0.00012633  0.62082166  0.12856898  1
  C  C224  1  0.00031978  0.95385228  0.13489444  1
  C  C225  1  0.50100251  0.28657629  0.12607825  1
  C  C226  1  0.50394824  0.62083695  0.13383209  1
  C  C227  1  0.49948053  0.95499731  0.13012250  1
  C  C228  1  -0.00079916  0.04298433  0.86731697  1
  C  C229  1  -0.00583596  0.38153729  0.86723491  1
  C  C230  1  0.00487406  0.71271366  0.86750175  1
  C  C231  1  0.50227917  0.04585516  0.86393253  1
  C  C232  1  0.49642728  0.37918110  0.86830348  1
  C  C233  1  0.50168855  0.71210581  0.86907794  1
  C  C234  1  0.00055098  0.28601672  0.37175110  1
  C  C235  1  -0.00678311  0.62161009  0.36622253  1
  C  C236  1  0.00566284  0.95405348  0.36752604  1
  C  C237  1  0.49635515  0.28981753  0.36762279  1
  C  C238  1  0.49478512  0.62148656  0.36958149  1
  C  C239  1  0.50682035  0.95363434  0.36920617  1
  C  C240  1  0.25149372  0.21220587  0.63132640  1
  C  C241  1  0.25605620  0.54455049  0.62900479  1
  C  C242  1  0.24624802  0.87628360  0.63349363  1
  C  C243  1  0.74911118  0.21392396  0.62937360  1
  C  C244  1  0.75196623  0.54368634  0.63003004  1
  C  C245  1  0.74312676  0.87869681  0.63459906  1
  C  C246  1  0.24779011  0.12038628  0.13264404  1
  C  C247  1  0.25244541  0.45460062  0.13125834  1
  C  C248  1  0.24832775  0.78812625  0.13316469  1
  C  C249  1  0.74401997  0.12173184  0.13281919  1
  C  C250  1  0.75355719  0.45421595  0.13109929  1
  C  C251  1  0.74745466  0.78592155  0.12866111  1
  C  C252  1  0.24836971  0.21286887  0.86944783  1
  C  C253  1  0.24955365  0.54673396  0.86950817  1
  C  C254  1  0.25550079  0.87828818  0.86959434  1
  C  C255  1  0.75227155  0.21469986  0.86798307  1
  C  C256  1  0.74595405  0.54433381  0.86772631  1
  C  C257  1  0.74876365  0.87811525  0.86545633  1
  C  C258  1  0.25280446  0.12011163  0.36614646  1
  C  C259  1  0.24656225  0.45523347  0.37032651  1
  C  C260  1  0.24769783  0.78639792  0.37330530  1
  C  C261  1  0.75073891  0.12193762  0.36577323  1
  C  C262  1  0.73950812  0.45441436  0.36972915  1
  C  C263  1  0.74918365  0.78836708  0.36510457  1
  C  C264  1  0.80806955  0.57560745  0.54286088  1
  C  C265  1  0.68726906  0.09289014  0.04588455  1
  C  C266  1  0.45422969  0.40760625  0.95938157  1
  C  C267  1  0.21248996  0.09434168  0.45831949  1
  C  C268  1  0.46985735  0.07194699  0.95794504  1
  C  C269  1  0.73337254  0.09417887  0.46171723  1
  C  C270  1  0.45012420  0.25726694  0.03612271  1
  C  C271  1  0.77717229  0.76185940  0.46148443  1
  C  C272  1  0.54516223  0.59397887  0.04154976  1
  C  C273  1  0.44171592  0.92459847  0.04279394  1
  C  C274  1  0.80439995  0.90224424  0.95507557  1
  C  C275  1  0.72277334  0.90346269  0.96244604  1
  C  C276  1  0.27763503  0.57740086  0.96391682  1
  C  C277  1  0.43976650  0.59678594  0.45882294  1
  C  C278  1  0.71931430  0.42087736  0.03981467  1
  C  C279  1  0.06517099  0.92882769  0.45508636  1
  C  C280  1  0.48287991  0.73910428  0.96678165  1
  C  C281  1  0.94273560  0.40505797  0.95799260  1
  C  C282  1  0.77127165  0.75409005  0.03266684  1
  C  C283  1  0.71234396  0.57285437  0.96078617  1
  C  C284  1  0.03519088  0.92587031  0.04203413  1
  C  C285  1  0.27928606  0.75811982  0.03966540  1
  C  C286  1  0.97788506  0.73819982  0.53783995  1
  C  C287  1  0.52072488  0.59425539  0.46640641  1
  C  C288  1  0.19720624  0.09505671  0.04120631  1
  C  C289  1  0.20825174  0.75803639  0.46456266  1
  C  C290  1  0.23715116  0.23979574  0.96738114  1
  C  C291  1  0.56337661  0.73545127  0.95624122  1
  C  C292  1  0.98415730  0.92661962  0.46447416  1
  C  C293  1  0.31679667  0.42701250  0.04603476  1
  C  C294  1  0.04375245  0.26182349  0.04467489  1
  C  C295  1  0.96012111  0.74012146  0.95979438  1
  C  C296  1  0.04241317  0.74108205  0.96141966  1
  C  C297  1  0.05377719  0.59174648  0.03938078  1
  C  C298  1  0.21247356  0.57510278  0.53700647  1
  C  C299  1  0.69549903  0.76350439  0.45518245  1
  C  C300  1  0.48331832  0.41252060  0.53502936  1
  C  C301  1  0.76956399  0.90644523  0.54001148  1
  C  C302  1  0.81370650  0.23839946  0.54355221  1
  C  C303  1  0.29409246  0.57479356  0.53612430  1
  C  C304  1  0.27850789  0.09337081  0.03724199  1
  C  C305  1  0.96380591  0.07461179  0.54029648  1
  C  C306  1  0.02387591  0.40664751  0.96405103  1
  C  C307  1  0.26715766  0.90329692  0.53777458  1
  C  C308  1  0.18891221  0.42511502  0.45559558  1
  C  C309  1  0.28863158  0.75815014  0.46429428  1
  C  C310  1  0.28007859  0.90923297  0.96374990  1
  C  C311  1  0.73352683  0.24200158  0.53158536  1
  N  N312  1  0.26620222  0.24442262  0.53835408  1
  N  N313  1  0.98801078  0.07461496  0.96111695  1
  N  N314  1  0.18908856  0.24197952  0.54679066  1
  N  N315  1  0.48535324  0.92481757  0.46255995  1
  N  N316  1  0.52930332  0.25689656  0.03244271  1
  N  N317  1  0.79669345  0.42161180  0.03947257  1
  N  N318  1  0.04300555  0.07370445  0.54324021  1
  N  N319  1  0.97471352  0.58931466  0.03524142  1
  N  N320  1  0.52019390  0.92334393  0.03643589  1
  N  N321  1  0.76633538  0.09036626  0.03897673  1
  N  N322  1  0.04197500  0.59291038  0.45630828  1
  N  N323  1  0.06047744  0.40973866  0.54310509  1
  N  N324  1  0.53338867  0.40831133  0.96258370  1
  N  N325  1  0.95581666  0.92545753  0.04251185  1
  N  N326  1  0.56291212  0.92755339  0.45778380  1
  N  N327  1  0.56018105  0.40850403  0.54202426  1
  N  N328  1  0.46763694  0.59400354  0.03847241  1
  N  N329  1  0.06456475  0.07001823  0.95117504  1
  N  N330  1  0.54538504  0.73855040  0.54163651  1
  N  N331  1  0.05664182  0.73860918  0.54356911  1
  N  N332  1  0.20272728  0.90754435  0.95952469  1
  N  N333  1  0.52024383  0.07552973  0.53795425  1
  N  N334  1  0.70137324  0.42527885  0.45975891  1
  N  N335  1  0.96404481  0.26284526  0.04353109  1
  N  N336  1  0.01681959  0.25713685  0.46859068  1
  N  N337  1  0.20177299  0.75809000  0.04156664  1
  N  N338  1  0.44262243  0.07336151  0.54327795  1
  N  N339  1  0.46947722  0.73892619  0.53829096  1
  N  N340  1  0.18882896  0.90272878  0.54554844  1
  N  N341  1  0.69063447  0.90672268  0.54460029  1
  N  N342  1  0.96577999  0.59059972  0.46074249  1
  N  N343  1  0.23875289  0.42336430  0.03660519  1
  N  N344  1  0.81184855  0.09508052  0.45292615  1
  N  N345  1  0.98300296  0.40224170  0.53154584  1
  N  N346  1  0.56229396  0.26074137  0.45080507  1
  N  N347  1  0.31432283  0.23728718  0.95280776  1
  N  N348  1  0.26524856  0.42312790  0.46683854  1
  N  N349  1  0.69320000  0.75765209  0.04149495  1
  N  N350  1  0.68030725  0.23833103  0.95018921  1
  N  N351  1  0.19827919  0.57490642  0.95763625  1
  N  N352  1  0.48548498  0.25841971  0.46135699  1
  N  N353  1  0.77959899  0.42456322  0.46208231  1
  N  N354  1  0.72952645  0.57571816  0.53681456  1
  N  N355  1  0.29172768  0.09359486  0.46077117  1
  N  N356  1  0.79165670  0.57259146  0.96001833  1
  N  N357  1  0.75622695  0.24322067  0.96309907  1
  N  N358  1  0.54907046  0.07239380  0.95630950  1
  N  N359  1  0.94039836  0.26082483  0.45649433  1
  N  N360  1  0.05929356  0.05642783  0.60215673  1
  N  N361  1  0.07385275  0.38685646  0.59942718  1
  N  N362  1  0.07007148  0.72124869  0.60264156  1
  N  N363  1  0.55665798  0.05624360  0.58999219  1
  N  N364  1  0.57153825  0.38810560  0.60221382  1
  N  N365  1  0.56607224  0.72182289  0.60077328  1
  N  N366  1  0.43249527  0.27466489  0.09441358  1
  N  N367  1  0.44179257  0.61109808  0.09717244  1
  N  N368  1  0.42881809  0.94373725  0.10096538  1
  N  N369  1  0.93752661  0.28372212  0.09899417  1
  N  N370  1  0.94090307  0.60799368  0.08999492  1
  N  N371  1  0.93574956  0.94257789  0.10094325  1
  N  N372  1  0.43981823  0.05616424  0.90167226  1
  N  N373  1  0.43013160  0.39026098  0.90151049  1
  N  N374  1  0.44548712  0.72430319  0.91114039  1
  N  N375  1  0.94658634  0.05555050  0.91139299  1
  N  N376  1  0.92508674  0.39018601  0.89967516  1
  N  N377  1  0.93846124  0.72261347  0.90103772  1
  N  N378  1  0.05402437  0.27258683  0.41556312  1
  N  N379  1  0.06027167  0.61194556  0.39777337  1
  N  N380  1  0.07710590  0.94569125  0.39495153  1
  N  N381  1  0.56824708  0.27850497  0.39202618  1
  N  N382  1  0.55413268  0.60979608  0.40946145  1
  N  N383  1  0.57572598  0.94406739  0.39897568  1
  N  N384  1  0.30598563  0.22438474  0.58857214  1
  N  N385  1  0.32020268  0.55641574  0.59163148  1
  N  N386  1  0.30388964  0.88731021  0.59153223  1
  N  N387  1  0.82244681  0.22173295  0.60320040  1
  N  N388  1  0.82217002  0.55640739  0.60069964  1
  N  N389  1  0.80350454  0.88975213  0.59501027  1
  N  N390  1  0.17935543  0.11215023  0.10161125  1
  N  N391  1  0.19808089  0.44275517  0.08841519  1
  N  N392  1  0.18239533  0.77701141  0.10113026  1
  N  N393  1  0.67335589  0.11092540  0.10444343  1
  N  N394  1  0.69004296  0.44052659  0.09481434  1
  N  N395  1  0.67821696  0.77696063  0.10050690  1
  N  N396  1  0.19552950  0.22515475  0.91546418  1
  N  N397  1  0.18160790  0.55509285  0.89979918  1
  N  N398  1  0.18748635  0.88771275  0.89939567  1
  N  N399  1  0.67852404  0.22124687  0.89091631  1
  N  N400  1  0.68290060  0.55616230  0.90438768  1
  N  N401  1  0.68945750  0.88848570  0.90615138  1
  N  N402  1  0.31514123  0.10949969  0.40289257  1
  N  N403  1  0.30114960  0.44251345  0.41263141  1
  N  N404  1  0.31328737  0.77524264  0.40857502  1
  N  N405  1  0.82066438  0.11218746  0.39307346  1
  N  N406  1  0.80268791  0.44197016  0.40536499  1
  N  N407  1  0.80927366  0.77734181  0.40493906  1
  N  N408  1  0.44383309  0.27842535  0.41204379  1
  N  N409  1  0.42467874  0.61298869  0.40034206  1
  N  N410  1  0.44933647  0.94259627  0.40988974  1
  N  N411  1  0.92946570  0.27856330  0.39780043  1
  N  N412  1  0.93419759  0.60839267  0.40507637  1
  N  N413  1  0.94833428  0.94247354  0.40944943  1
  N  N414  1  0.07104055  0.05247018  0.89238029  1
  N  N415  1  0.05494734  0.39164679  0.90619757  1
  N  N416  1  0.06863892  0.72396855  0.90380068  1
  N  N417  1  0.56780105  0.05609193  0.89706785  1
  N  N418  1  0.55801011  0.39059757  0.90542161  1
  N  N419  1  0.57414617  0.71961118  0.89671943  1
  N  N420  1  0.06629096  0.27684600  0.10258560  1
  N  N421  1  0.06924909  0.61044498  0.09756170  1
  N  N422  1  0.06376290  0.94305963  0.09839948  1
  N  N423  1  0.56097319  0.27613688  0.08778538  1
  N  N424  1  0.56979663  0.61011815  0.09918181  1
  N  N425  1  0.55709427  0.94381957  0.08947053  1
  N  N426  1  0.43031475  0.05582381  0.60181431  1
  N  N427  1  0.44502497  0.39537236  0.58749687  1
  N  N428  1  0.43986571  0.72174818  0.59465485  1
  N  N429  1  0.93156804  0.05838412  0.59604343  1
  N  N430  1  0.94729865  0.39318607  0.58700240  1
  N  N431  1  0.94262166  0.72170376  0.59247902  1
  N  N432  1  0.18695478  0.11022733  0.40047524  1
  N  N433  1  0.17475546  0.44409839  0.39642815  1
  N  N434  1  0.18253985  0.77512155  0.40909481  1
  N  N435  1  0.69444113  0.11035850  0.40859818  1
  N  N436  1  0.67546697  0.44408358  0.40437905  1
  N  N437  1  0.67973570  0.77960727  0.39517273  1
  N  N438  1  0.32082033  0.21964902  0.89313475  1
  N  N439  1  0.30976498  0.56017372  0.90920291  1
  N  N440  1  0.31489489  0.89149435  0.91001081  1
  N  N441  1  0.80163742  0.22837424  0.91378203  1
  N  N442  1  0.81068741  0.55465528  0.90171886  1
  N  N443  1  0.81885949  0.88682043  0.89472738  1
  N  N444  1  0.30876104  0.10867375  0.09236625  1
  N  N445  1  0.32531277  0.44507577  0.10508414  1
  N  N446  1  0.31018456  0.77601403  0.09473673  1
  N  N447  1  0.80128556  0.11129382  0.09173896  1
  N  N448  1  0.81830201  0.44270159  0.09774354  1
  N  N449  1  0.80526075  0.77151151  0.08675387  1
  N  N450  1  0.18043321  0.22325006  0.60529803  1
  N  N451  1  0.19012565  0.55609986  0.59597446  1
  N  N452  1  0.17703665  0.88571159  0.60506407  1
  N  N453  1  0.69408777  0.22632943  0.58638205  1
  N  N454  1  0.69378319  0.55418154  0.58974272  1
  N  N455  1  0.67593659  0.88942368  0.60353544  1
  Cl  Cl456  1  0.24460723  0.05073550  0.61712359  1
  Cl  Cl457  1  0.25724660  0.38979441  0.62367813  1
  Cl  Cl458  1  0.25614376  0.71753730  0.62020588  1
  Cl  Cl459  1  0.74052169  0.06019327  0.61609570  1
  Cl  Cl460  1  0.76178043  0.38825175  0.61089803  1
  Cl  Cl461  1  0.75475076  0.71773230  0.61092196  1
  Cl  Cl462  1  0.24921188  0.28016236  0.12083673  1
  Cl  Cl463  1  0.25468647  0.61072651  0.10859437  1
  Cl  Cl464  1  0.24734446  0.94994681  0.12398860  1
  Cl  Cl465  1  0.75297705  0.27523688  0.09995512  1
  Cl  Cl466  1  0.75434803  0.61313666  0.12017138  1
  Cl  Cl467  1  0.74255667  0.94212744  0.11349788  1
  Cl  Cl468  1  0.25548931  0.04941463  0.88197682  1
  Cl  Cl469  1  0.24192822  0.38997619  0.89523292  1
  Cl  Cl470  1  0.25713660  0.72013820  0.88554375  1
  Cl  Cl471  1  0.76308655  0.06573624  0.89573585  1
  Cl  Cl472  1  0.74189624  0.38266758  0.87637658  1
  Cl  Cl473  1  0.75518096  0.72003496  0.87806602  1
  Cl  Cl474  1  0.25764855  0.27265334  0.39877536  1
  Cl  Cl475  1  0.24264864  0.61615607  0.37561998  1
  Cl  Cl476  1  0.26713198  0.94020771  0.38845019  1
  Cl  Cl477  1  0.74919966  0.28216626  0.37148567  1
  Cl  Cl478  1  0.74361332  0.60543691  0.39370565  1
  Cl  Cl479  1  0.76417605  0.94364087  0.38378607  1
  Cl  Cl480  1  0.00107715  0.21722597  0.63712170  1
  Cl  Cl481  1  0.00385743  0.54485113  0.62752279  1
  Cl  Cl482  1  -0.01224540  0.88634574  0.61549333  1
  Cl  Cl483  1  0.49265664  0.22848173  0.59940008  1
  Cl  Cl484  1  0.50887944  0.55368996  0.61386749  1
  Cl  Cl485  1  0.48761602  0.89269540  0.61068446  1
  Cl  Cl486  1  -0.01735658  0.10456214  0.10081345  1
  Cl  Cl487  1  0.01119135  0.44487597  0.11413717  1
  Cl  Cl488  1  -0.00744264  0.77504305  0.11398182  1
  Cl  Cl489  1  0.49090849  0.11459496  0.12060870  1
  Cl  Cl490  1  0.50672608  0.44831645  0.12431267  1
  Cl  Cl491  1  0.49465397  0.78397343  0.11252467  1
  Cl  Cl492  1  -0.00747203  0.22706824  0.90620060  1
  Cl  Cl493  1  -0.00360028  0.55526825  0.89309809  1
  Cl  Cl494  1  0.00428861  0.89034569  0.87999239  1
  Cl  Cl495  1  0.49963361  0.22362792  0.87289582  1
  Cl  Cl496  1  0.49653418  0.55508433  0.88085464  1
  Cl  Cl497  1  0.50399085  0.89180007  0.89068822  1
  Cl  Cl498  1  0.00326520  0.11515252  0.37516655  1
  Cl  Cl499  1  -0.01230518  0.44273126  0.38776591  1
  Cl  Cl500  1  -0.00657928  0.77754323  0.38147088  1
  Cl  Cl501  1  0.50845644  0.10904911  0.39320619  1
  Cl  Cl502  1  0.48997882  0.44478878  0.39151087  1
  Cl  Cl503  1  0.49556670  0.78367981  0.37558938  1
  Cl  Cl504  1  0.36497620  0.14687521  0.75394008  1
  Cl  Cl505  1  0.35910762  0.48399931  0.75220368  1
  Cl  Cl506  1  0.35748966  0.81807720  0.74894918  1
  Cl  Cl507  1  0.85981502  0.15075003  0.74670919  1
  Cl  Cl508  1  0.86232790  0.48021672  0.75449304  1
  Cl  Cl509  1  0.86414686  0.81354251  0.75483896  1
  Cl  Cl510  1  0.13159713  0.18991254  0.23909085  1
  Cl  Cl511  1  0.14001829  0.51740834  0.25128534  1
  Cl  Cl512  1  0.13854931  0.85264073  0.25593723  1
  Cl  Cl513  1  0.63926372  0.18577966  0.24664156  1
  Cl  Cl514  1  0.63910292  0.51846976  0.25153885  1
  Cl  Cl515  1  0.63399671  0.85429553  0.24951944  1
  Cl  Cl516  1  0.14521020  0.14682932  0.75287139  1
  Cl  Cl517  1  0.13915031  0.48159760  0.75715150  1
  Cl  Cl518  1  0.13456482  0.81127649  0.74746959  1
  Cl  Cl519  1  0.63434062  0.14594668  0.75776660  1
  Cl  Cl520  1  0.64270785  0.48124700  0.74572835  1
  Cl  Cl521  1  0.64231085  0.81346654  0.74560147  1
  Cl  Cl522  1  0.35267813  0.18552307  0.25145396  1
  Cl  Cl523  1  0.35970088  0.51852925  0.24735259  1
  Cl  Cl524  1  0.35890127  0.85122730  0.24768231  1
  Cl  Cl525  1  0.86074919  0.18694682  0.24771955  1
  Cl  Cl526  1  0.86024127  0.51838967  0.25225698  1
  Cl  Cl527  1  0.85480929  0.85125401  0.24360794  1
  Cl  Cl528  1  0.11452059  0.31359043  0.75006317  1
  Cl  Cl529  1  0.11175494  0.64698892  0.75087320  1
  Cl  Cl530  1  0.11202756  0.98119315  0.74863824  1
  Cl  Cl531  1  0.61189732  0.31412965  0.74245154  1
  Cl  Cl532  1  0.61420768  0.64760664  0.75337792  1
  Cl  Cl533  1  0.61882810  0.97715702  0.75435993  1
  Cl  Cl534  1  0.38846106  0.01915204  0.24925866  1
  Cl  Cl535  1  0.38951011  0.35074439  0.24287873  1
  Cl  Cl536  1  0.39085856  0.68293036  0.24817414  1
  Cl  Cl537  1  0.89194681  0.01614602  0.24783052  1
  Cl  Cl538  1  0.88521153  0.35372092  0.25083137  1
  Cl  Cl539  1  0.88764790  0.68609816  0.24921838  1
  Cl  Cl540  1  0.38970578  0.31528441  0.75365811  1
  Cl  Cl541  1  0.39290408  0.64948149  0.75079639  1
  Cl  Cl542  1  0.39830959  0.98224914  0.74528723  1
  Cl  Cl543  1  0.89535859  0.31481608  0.75107761  1
  Cl  Cl544  1  0.89059781  0.64761361  0.75159260  1
  Cl  Cl545  1  0.88721458  0.98107133  0.75381052  1
  Cl  Cl546  1  0.11368378  0.02169622  0.25519699  1
  Cl  Cl547  1  0.10381944  0.35067540  0.25685325  1
  Cl  Cl548  1  0.10833757  0.68432631  0.24054155  1
  Cl  Cl549  1  0.60583108  0.02133783  0.25045686  1
  Cl  Cl550  1  0.60922670  0.35131650  0.25360409  1
  Cl  Cl551  1  0.61366365  0.68811785  0.25056837  1
