# generated using pymatgen
data_H8PbC4(N3Cl2)2
_symmetry_space_group_name_H-M   'P 1'
_cell_length_a   16.61961211
_cell_length_b   22.50149577
_cell_length_c   21.58757077
_cell_angle_alpha   90.00024978
_cell_angle_beta   90.00009925
_cell_angle_gamma   89.99835263
_symmetry_Int_Tables_number   1
_chemical_formula_structural   H8PbC4(N3Cl2)2
_chemical_formula_sum   'H192 Pb24 C96 N144 Cl96'
_cell_volume   8073.02032763
_cell_formula_units_Z   24
loop_
 _symmetry_equiv_pos_site_id
 _symmetry_equiv_pos_as_xyz
  1  'x, y, z'
loop_
 _atom_site_type_symbol
 _atom_site_label
 _atom_site_symmetry_multiplicity
 _atom_site_fract_x
 _atom_site_fract_y
 _atom_site_fract_z
 _atom_site_occupancy
  H  H0  1  0.00330848  0.03146545  0.67944119  1
  H  H1  1  -0.00705212  0.36566860  0.68197051  1
  H  H2  1  -0.00715245  0.70007434  0.68167477  1
  H  H3  1  0.49250691  0.03109288  0.68001745  1
  H  H4  1  0.50420452  0.36524322  0.67944107  1
  H  H5  1  0.49433308  0.69815966  0.68188918  1
  H  H6  1  0.00035172  0.30095878  0.17855639  1
  H  H7  1  0.00356005  0.63523973  0.17907713  1
  H  H8  1  -0.00337003  0.96777647  0.18013299  1
  H  H9  1  0.49726674  0.30091888  0.18014493  1
  H  H10  1  0.50408158  0.63393778  0.17697374  1
  H  H11  1  0.50015503  0.96789980  0.17937713  1
  H  H12  1  0.00380464  0.03281085  0.81787001  1
  H  H13  1  -0.00412122  0.36591013  0.82056412  1
  H  H14  1  0.00217548  0.69852858  0.82110641  1
  H  H15  1  0.49840053  0.03204804  0.81914526  1
  H  H16  1  0.50584875  0.36670174  0.82317395  1
  H  H17  1  0.50388551  0.69791581  0.82191718  1
  H  H18  1  -0.00629246  0.30221537  0.32238618  1
  H  H19  1  0.00026358  0.63467466  0.31779958  1
  H  H20  1  -0.00897311  0.96760794  0.31771740  1
  H  H21  1  0.50531119  0.30045596  0.31964816  1
  H  H22  1  0.49547535  0.63373242  0.32194835  1
  H  H23  1  0.50520531  0.96751514  0.31967457  1
  H  H24  1  0.24923225  0.20021672  0.68062986  1
  H  H25  1  0.24003236  0.53146356  0.68027634  1
  H  H26  1  0.24675998  0.86482176  0.68279083  1
  H  H27  1  0.75176108  0.19857752  0.68146919  1
  H  H28  1  0.76072107  0.53219799  0.67818035  1
  H  H29  1  0.75497644  0.86516301  0.68198348  1
  H  H30  1  0.24945901  0.13548039  0.18282188  1
  H  H31  1  0.24033944  0.46821995  0.17727508  1
  H  H32  1  0.24531609  0.80052124  0.17833561  1
  H  H33  1  0.75217657  0.13527617  0.18249410  1
  H  H34  1  0.75500255  0.46796834  0.18134330  1
  H  H35  1  0.74428244  0.80100653  0.17949207  1
  H  H36  1  0.25165531  0.19741504  0.82193294  1
  H  H37  1  0.24422078  0.53241253  0.82176794  1
  H  H38  1  0.24894362  0.86471832  0.82024869  1
  H  H39  1  0.75173357  0.19889500  0.82123064  1
  H  H40  1  0.74785586  0.53295641  0.82125906  1
  H  H41  1  0.75348395  0.86479382  0.81818521  1
  H  H42  1  0.25537957  0.13604306  0.32042236  1
  H  H43  1  0.25319791  0.46778276  0.31810341  1
  H  H44  1  0.25231540  0.80068460  0.31736098  1
  H  H45  1  0.74676096  0.13381491  0.32099884  1
  H  H46  1  0.74745029  0.46585245  0.31886175  1
  H  H47  1  0.75201891  0.80258324  0.31841199  1
  H  H48  1  0.12208891  0.05667324  0.60354260  1
  H  H49  1  0.12226203  0.38654336  0.61343486  1
  H  H50  1  0.13185645  0.71699203  0.62527870  1
  H  H51  1  0.62908641  0.04995067  0.62241450  1
  H  H52  1  0.62153308  0.38952060  0.60248990  1
  H  H53  1  0.62829150  0.71874943  0.62004569  1
  H  H54  1  0.37991891  0.27883425  0.10519534  1
  H  H55  1  0.37072249  0.61394621  0.11514024  1
  H  H56  1  0.37638730  0.94400302  0.10900661  1
  H  H57  1  0.87770973  0.27724167  0.10634066  1
  H  H58  1  0.87214860  0.61432247  0.11477487  1
  H  H59  1  0.87704228  0.94494248  0.10594767  1
  H  H60  1  0.37598800  0.05434749  0.89084175  1
  H  H61  1  0.37382902  0.38591627  0.88707236  1
  H  H62  1  0.36934750  0.71677999  0.88330082  1
  H  H63  1  0.87459717  0.05200845  0.88471894  1
  H  H64  1  0.87853332  0.38996861  0.89780585  1
  H  H65  1  0.87423851  0.71884336  0.88564192  1
  H  H66  1  0.12947236  0.28338045  0.38160165  1
  H  H67  1  0.12597986  0.61372749  0.38743977  1
  H  H68  1  0.12801534  0.94948417  0.37464464  1
  H  H69  1  0.62720810  0.27777665  0.39247813  1
  H  H70  1  0.62766410  0.61201407  0.38632905  1
  H  H71  1  0.62478060  0.94614218  0.39562778  1
  H  H72  1  0.36760305  0.22317470  0.60413772  1
  H  H73  1  0.37476736  0.55089780  0.61888468  1
  H  H74  1  0.37216530  0.88753165  0.61232403  1
  H  H75  1  0.86878418  0.22150820  0.60413178  1
  H  H76  1  0.86526882  0.55882814  0.59248683  1
  H  H77  1  0.87139938  0.88944468  0.60509872  1
  H  H78  1  0.12558607  0.11309202  0.10947321  1
  H  H79  1  0.12870355  0.44327991  0.09618177  1
  H  H80  1  0.13153251  0.77494045  0.09965319  1
  H  H81  1  0.62451570  0.11345056  0.11356484  1
  H  H82  1  0.62288028  0.44752676  0.11573266  1
  H  H83  1  0.63357004  0.77466006  0.09756705  1
  H  H84  1  0.12319673  0.22080182  0.88847250  1
  H  H85  1  0.13104389  0.55692170  0.90196618  1
  H  H86  1  0.12278126  0.88669896  0.89008355  1
  H  H87  1  0.62316290  0.22146468  0.88785378  1
  H  H88  1  0.62859443  0.55498377  0.89654640  1
  H  H89  1  0.62522608  0.88680235  0.88673597  1
  H  H90  1  0.36864512  0.10971900  0.39903207  1
  H  H91  1  0.37610904  0.44451269  0.39173622  1
  H  H92  1  0.36705698  0.77767453  0.39487357  1
  H  H93  1  0.87569715  0.11377094  0.38564718  1
  H  H94  1  0.87947074  0.44747403  0.38216292  1
  H  H95  1  0.87053788  0.77771116  0.39445134  1
  H  H96  1  0.37807553  0.28122974  0.38559696  1
  H  H97  1  0.38036968  0.60944125  0.40114688  1
  H  H98  1  0.37626216  0.94596233  0.38760405  1
  H  H99  1  0.88258247  0.27464583  0.40234413  1
  H  H100  1  0.87599404  0.60917968  0.38904856  1
  H  H101  1  0.88065113  0.94606497  0.39791023  1
  H  H102  1  0.12405908  0.05399271  0.89000998  1
  H  H103  1  0.12760722  0.38568908  0.88473426  1
  H  H104  1  0.12278237  0.71955643  0.89491029  1
  H  H105  1  0.62592075  0.05429127  0.88797767  1
  H  H106  1  0.62226188  0.38969311  0.90055669  1
  H  H107  1  0.61682707  0.72415805  0.90116875  1
  H  H108  1  0.12707728  0.28031697  0.10971105  1
  H  H109  1  0.12060474  0.61181794  0.10140060  1
  H  H110  1  0.12559044  0.94593689  0.11248715  1
  H  H111  1  0.62897225  0.28200933  0.11628959  1
  H  H112  1  0.61875793  0.60892299  0.09959525  1
  H  H113  1  0.62570502  0.94446701  0.10970287  1
  H  H114  1  0.38201682  0.05955829  0.59883199  1
  H  H115  1  0.37273371  0.38567837  0.61547042  1
  H  H116  1  0.38147960  0.72238693  0.60068677  1
  H  H117  1  0.87427955  0.05329552  0.61225221  1
  H  H118  1  0.87395900  0.38947299  0.60503267  1
  H  H119  1  0.88432888  0.72325313  0.60035656  1
  H  H120  1  0.12139483  0.11579080  0.38187974  1
  H  H121  1  0.12673855  0.44616860  0.38690969  1
  H  H122  1  0.11867788  0.78284337  0.37768021  1
  H  H123  1  0.62735491  0.11228093  0.39468073  1
  H  H124  1  0.63034969  0.44400323  0.39391525  1
  H  H125  1  0.62131912  0.78118415  0.38203907  1
  H  H126  1  0.37196320  0.22245246  0.89468877  1
  H  H127  1  0.37838168  0.55128125  0.88251876  1
  H  H128  1  0.37260901  0.88766587  0.89083372  1
  H  H129  1  0.87220447  0.22217397  0.89474054  1
  H  H130  1  0.87758471  0.55252054  0.88437138  1
  H  H131  1  0.87435714  0.88811320  0.89156543  1
  H  H132  1  0.37412247  0.11226783  0.11054870  1
  H  H133  1  0.37587780  0.44805124  0.11757766  1
  H  H134  1  0.37921330  0.78065733  0.11596550  1
  H  H135  1  0.87338722  0.11256993  0.10914849  1
  H  H136  1  0.87174491  0.44439103  0.10356001  1
  H  H137  1  0.88125276  0.78209422  0.12138472  1
  H  H138  1  0.11944223  0.22100147  0.61573134  1
  H  H139  1  0.12822671  0.55787954  0.59865597  1
  H  H140  1  0.12317875  0.88712614  0.61111434  1
  H  H141  1  0.61988329  0.21907424  0.61534902  1
  H  H142  1  0.62048289  0.55044522  0.62620615  1
  H  H143  1  0.62259327  0.88578656  0.61665436  1
  H  H144  1  0.55899730  0.41446991  0.49781066  1
  H  H145  1  0.90926059  0.74869040  0.99902176  1
  H  H146  1  0.30104015  0.09845274  0.50250809  1
  H  H147  1  0.58284504  0.08365620  0.99278971  1
  H  H148  1  0.16745365  0.91440312  0.99508145  1
  H  H149  1  0.95339594  0.26322013  0.50512749  1
  H  H150  1  0.80754402  0.24679148  0.49599886  1
  H  H151  1  0.14314439  0.75350542  0.49098537  1
  H  H152  1  0.40203817  0.58363758  0.00717975  1
  H  H153  1  0.94627654  0.91912235  0.50631212  1
  H  H154  1  0.10326788  0.25007046  0.48823677  1
  H  H155  1  0.82194540  0.91757983  0.99929216  1
  H  H156  1  0.84447816  0.58331329  0.99791227  1
  H  H157  1  0.07948565  0.58913120  0.49989799  1
  H  H158  1  0.16376874  0.25014010  0.99431415  1
  H  H159  1  0.70414071  0.74853701  -0.00373078  1
  H  H160  1  0.94137798  0.41826608  1.00154044  1
  H  H161  1  0.65642079  0.75271523  0.49417172  1
  H  H162  1  0.19909657  0.58166167  0.49693794  1
  H  H163  1  0.95276241  0.75143110  0.49298428  1
  H  H164  1  0.42185129  0.91632707  0.49289605  1
  H  H165  1  0.16910625  0.91495151  0.50201971  1
  H  H166  1  0.80964642  0.91887576  0.49804954  1
  H  H167  1  0.07353177  0.08138041  1.00141517  1
  H  H168  1  0.81175347  0.75615343  0.49955772  1
  H  H169  1  0.60750613  0.08162482  0.51051673  1
  H  H170  1  0.41757941  0.25262626  0.49893683  1
  H  H171  1  0.45041973  0.08007019  0.49616595  1
  H  H172  1  0.92693416  0.58764689  0.49601805  1
  H  H173  1  0.40979622  0.41448794  0.99422960  1
  H  H174  1  0.82258402  0.08234051  0.00186091  1
  H  H175  1  0.57878313  0.91608307  0.00459615  1
  H  H176  1  0.80962240  0.41918841  -0.00432601  1
  H  H177  1  0.15517275  0.07654763  0.48338944  1
  H  H178  1  0.40070982  0.75185033  0.98827797  1
  H  H179  1  0.45052957  0.74450850  0.49808372  1
  H  H180  1  0.59264984  0.58572126  0.49424156  1
  H  H181  1  0.68698890  0.41601466  0.50457528  1
  H  H182  1  0.30667908  0.75211152  0.50416135  1
  H  H183  1  0.66268032  0.25066899  0.99379282  1
  H  H184  1  0.78850573  0.58022520  0.49215413  1
  H  H185  1  0.42483775  0.08415949  1.00041139  1
  H  H186  1  0.17297117  0.41637237  0.49659475  1
  H  H187  1  0.92835496  0.24874747  0.00219436  1
  H  H188  1  0.43282476  0.25032025  -0.00358591  1
  H  H189  1  0.91357119  0.08082064  0.50701157  1
  H  H190  1  0.54796335  0.73965558  1.00467723  1
  H  H191  1  0.32754965  0.91653096  1.00040432  1
  Pb  Pb192  1  0.24873061  0.05061652  0.74329193  1
  Pb  Pb193  1  0.24970451  0.37818968  0.74917955  1
  Pb  Pb194  1  0.25172270  0.71229553  0.74940753  1
  Pb  Pb195  1  0.74952149  0.04535961  0.75158872  1
  Pb  Pb196  1  0.74924278  0.38436645  0.75084270  1
  Pb  Pb197  1  0.74898989  0.71392705  0.75065067  1
  Pb  Pb198  1  0.25065160  0.28698558  0.24478234  1
  Pb  Pb199  1  0.24989868  0.62133058  0.25366656  1
  Pb  Pb200  1  0.25178283  0.95297015  0.24607694  1
  Pb  Pb201  1  0.75223923  0.28728202  0.25050817  1
  Pb  Pb202  1  0.75038421  0.61648655  0.25025997  1
  Pb  Pb203  1  0.75095247  0.95395689  0.25112669  1
  Pb  Pb204  1  -0.00605964  0.21481505  0.74969521  1
  Pb  Pb205  1  0.00357188  0.54812278  0.74418049  1
  Pb  Pb206  1  0.00096670  0.88044207  0.74917874  1
  Pb  Pb207  1  0.50126421  0.21450846  0.74987080  1
  Pb  Pb208  1  0.49854342  0.54534538  0.75395538  1
  Pb  Pb209  1  0.49679953  0.88138873  0.75138458  1
  Pb  Pb210  1  0.00082957  0.12015413  0.24808085  1
  Pb  Pb211  1  0.00494640  0.45281357  0.24022716  1
  Pb  Pb212  1  -0.00067363  0.78752764  0.24866092  1
  Pb  Pb213  1  0.50120598  0.11960163  0.25212967  1
  Pb  Pb214  1  0.49658256  0.45179968  0.25317155  1
  Pb  Pb215  1  0.50147912  0.78431189  0.24892406  1
  C  C216  1  -0.00019474  0.04729012  0.63202065  1
  C  C217  1  -0.00364227  0.38029588  0.63413847  1
  C  C218  1  0.00280104  0.71340773  0.63399994  1
  C  C219  1  0.50092350  0.04575909  0.63245084  1
  C  C220  1  0.49976582  0.37960005  0.63172280  1
  C  C221  1  0.50114121  0.71247852  0.63418894  1
  C  C222  1  0.00129889  0.28614260  0.13078820  1
  C  C223  1  -0.00108929  0.62030858  0.13162388  1
  C  C224  1  0.00010437  0.95326447  0.13254517  1
  C  C225  1  0.50181304  0.28709052  0.13224419  1
  C  C226  1  0.49743593  0.61905880  0.12949579  1
  C  C227  1  0.50118579  0.95246157  0.13187221  1
  C  C228  1  0.00115527  0.04649074  0.86591950  1
  C  C229  1  0.00039472  0.38038686  0.86822939  1
  C  C230  1  -0.00087977  0.71258177  0.86902069  1
  C  C231  1  0.50059103  0.04713112  0.86696926  1
  C  C232  1  0.50024897  0.38123438  0.87084695  1
  C  C233  1  0.49642788  0.71289878  0.86949736  1
  C  C234  1  0.00204432  0.28707460  0.36983071  1
  C  C235  1  0.00022921  0.61978000  0.36576482  1
  C  C236  1  -0.00015306  0.95424057  0.36542692  1
  C  C237  1  0.50296326  0.28631398  0.36754094  1
  C  C238  1  0.50163069  0.61884066  0.36950603  1
  C  C239  1  0.50171678  0.95273778  0.36739198  1
  C  C240  1  0.24548274  0.21450193  0.63293366  1
  C  C241  1  0.24715217  0.54617893  0.63272352  1
  C  C242  1  0.24745155  0.88004833  0.63514018  1
  C  C243  1  0.74654704  0.21272908  0.63358439  1
  C  C244  1  0.74905966  0.54640037  0.63092034  1
  C  C245  1  0.74933654  0.87982592  0.63432989  1
  C  C246  1  0.24971845  0.12058881  0.13497045  1
  C  C247  1  0.24859685  0.45332172  0.13013084  1
  C  C248  1  0.25244342  0.78586427  0.13104071  1
  C  C249  1  0.74975917  0.12056078  0.13471101  1
  C  C250  1  0.74970830  0.45336302  0.13359227  1
  C  C251  1  0.75267805  0.78642202  0.13204407  1
  C  C252  1  0.24847062  0.21318934  0.86927866  1
  C  C253  1  0.25119632  0.54693091  0.86919653  1
  C  C254  1  0.24772589  0.87997913  0.86802164  1
  C  C255  1  0.74865515  0.21417623  0.86873937  1
  C  C256  1  0.75195386  0.54728279  0.86904576  1
  C  C257  1  0.75078646  0.88011991  0.86577648  1
  C  C258  1  0.24824375  0.12061179  0.36786013  1
  C  C259  1  0.25214813  0.45295977  0.36583962  1
  C  C260  1  0.24565512  0.78689929  0.36529124  1
  C  C261  1  0.74996410  0.11983047  0.36891183  1
  C  C262  1  0.75217125  0.45226297  0.36683010  1
  C  C263  1  0.74816934  0.78745519  0.36618669  1
  C  C264  1  0.22608565  0.42425416  0.03472619  1
  C  C265  1  0.28749873  0.90666270  0.96134483  1
  C  C266  1  0.05905460  0.93072175  0.45376235  1
  C  C267  1  0.78385830  0.90649081  0.95966387  1
  C  C268  1  0.04242842  0.59486736  0.45879209  1
  C  C269  1  0.52678709  0.58877383  0.03400560  1
  C  C270  1  0.53200237  0.40791369  0.96710406  1
  C  C271  1  0.95341358  0.73857374  0.96221996  1
  C  C272  1  0.69866385  0.76161521  0.45687497  1
  C  C273  1  0.81217060  0.76021669  0.04394665  1
  C  C274  1  0.46255060  0.07324620  0.96090944  1
  C  C275  1  0.77659637  0.42855359  0.03815541  1
  C  C276  1  0.06383605  0.73682901  0.54657643  1
  C  C277  1  0.27311436  0.76210502  0.46206561  1
  C  C278  1  0.28518405  0.24309475  0.96345454  1
  C  C279  1  0.19943346  0.23874440  0.54095928  1
  C  C280  1  0.47098596  0.26093412  0.03603036  1
  C  C281  1  0.44808692  0.40687296  0.54104992  1
  C  C282  1  0.30246734  0.57287475  0.95875024  1
  C  C283  1  0.77415894  0.23736763  0.53827326  1
  C  C284  1  0.45971174  0.92414241  0.03829619  1
  C  C285  1  0.54065135  0.26082466  0.46187965  1
  C  C286  1  0.97803462  0.92923498  0.46338520  1
  C  C287  1  0.98339538  0.73963825  0.53588372  1
  C  C288  1  0.05216851  0.40756371  0.95885154  1
  C  C289  1  0.79958321  0.57329053  0.96142701  1
  C  C290  1  0.22705511  0.75699788  0.03600017  1
  C  C291  1  0.68393373  0.57195475  0.54518911  1
  C  C292  1  0.78509034  0.24213598  0.96368910  1
  C  C293  1  0.55912347  0.07237780  0.54497264  1
  C  C294  1  0.03483320  0.73835045  0.96350851  1
  C  C295  1  0.79699326  0.09434447  0.46027974  1
  C  C296  1  0.72211933  0.42676053  0.46349493  1
  C  C297  1  0.45911298  0.26168127  0.46126893  1
  C  C298  1  0.19136046  0.76342532  0.45579518  1
  C  C299  1  0.21286579  0.42684473  0.45813294  1
  C  C300  1  0.78345646  0.09388642  0.04104912  1
  C  C301  1  0.71795049  0.57382777  0.96385511  1
  C  C302  1  0.95428127  0.06997931  0.95829286  1
  C  C303  1  0.95226420  0.59378774  0.04090161  1
  C  C304  1  0.21101773  0.90501202  0.54139723  1
  C  C305  1  0.80339831  0.42819440  0.45768617  1
  C  C306  1  0.77628462  0.90689118  0.53960659  1
  C  C307  1  0.03574747  0.07129116  0.96178567  1
  C  C308  1  0.71563645  0.09401641  0.46344276  1
  C  C309  1  0.04638904  0.25937756  0.03780174  1
  C  C310  1  0.96739766  0.92686239  0.03801703  1
  C  C311  1  0.55242878  0.26278918  0.04120131  1
  N  N312  1  0.30437534  0.76027276  0.03985989  1
  N  N313  1  0.28875555  0.09410081  0.04128983  1
  N  N314  1  0.20606352  0.24169555  0.96000092  1
  N  N315  1  0.96408103  0.40541456  0.53862102  1
  N  N316  1  0.52687313  0.40740075  0.53757418  1
  N  N317  1  0.21187472  0.09449357  0.04088809  1
  N  N318  1  0.30400513  0.57114779  0.54404861  1
  N  N319  1  0.69757707  0.42910773  0.04224866  1
  N  N320  1  0.70599649  0.24145825  0.95985780  1
  N  N321  1  0.55679824  0.73701648  0.54512169  1
  N  N322  1  0.69723536  0.90522653  0.54325115  1
  N  N323  1  0.04524011  0.92710532  0.03924785  1
  N  N324  1  0.47100678  0.59367652  0.46551643  1
  N  N325  1  0.20769253  0.90677933  0.95983863  1
  N  N326  1  0.02954896  0.59265757  0.03532159  1
  N  N327  1  0.22642214  0.57354504  0.53867234  1
  N  N328  1  0.27489377  0.08861509  0.46058320  1
  N  N329  1  0.96703872  0.25867365  0.03777677  1
  N  N330  1  0.47899088  0.73978952  0.54013574  1
  N  N331  1  0.30325666  0.42543714  0.04052152  1
  N  N332  1  0.95655322  0.07069937  0.54109973  1
  N  N333  1  0.29215857  0.42651685  0.46016797  1
  N  N334  1  0.77823086  0.75921422  0.45981786  1
  N  N335  1  0.73369521  0.75808789  0.03685199  1
  N  N336  1  0.70437807  0.90557212  0.95884162  1
  N  N337  1  0.04077200  0.40488668  0.54136173  1
  N  N338  1  0.96295131  0.59167596  0.45779694  1
  N  N339  1  0.45333601  0.40631017  0.96132675  1
  N  N340  1  0.97333131  0.40819652  0.96229133  1
  N  N341  1  0.03528029  0.07231993  0.53689163  1
  N  N342  1  0.29058120  0.90537891  0.54101751  1
  N  N343  1  0.44810722  0.59163333  0.04030324  1
  N  N344  1  0.46056258  0.92886176  0.45829344  1
  N  N345  1  0.47995729  0.07624968  0.53784357  1
  N  N346  1  0.69502846  0.23728603  0.54216953  1
  N  N347  1  0.54889292  0.59470756  0.45918223  1
  N  N348  1  0.44352142  0.73424214  0.95829752  1
  N  N349  1  0.53861923  0.92784557  0.46213014  1
  N  N350  1  0.52164258  0.74545895  0.96197120  1
  N  N351  1  0.70394236  0.09483844  0.04153274  1
  N  N352  1  0.05750430  0.26603024  0.45793607  1
  N  N353  1  0.97927388  0.25430763  0.46289921  1
  N  N354  1  0.19599985  0.09966432  0.45708787  1
  N  N355  1  0.27726718  0.24001911  0.53599419  1
  N  N356  1  0.54226900  0.07255863  0.95882924  1
  N  N357  1  0.76193613  0.57433759  0.53482107  1
  N  N358  1  0.22529272  0.57529821  0.96620196  1
  N  N359  1  0.53909390  0.92483093  0.03970425  1
  N  N360  1  0.06108058  0.05760384  0.59379981  1
  N  N361  1  0.06185017  0.38948134  0.60063397  1
  N  N362  1  0.07520831  0.72124756  0.60590656  1
  N  N363  1  0.57190029  0.05500703  0.60394294  1
  N  N364  1  0.55999875  0.38918886  0.59296524  1
  N  N365  1  0.56987449  0.72229982  0.60441757  1
  N  N366  1  0.44056893  0.27626125  0.09397297  1
  N  N367  1  0.42956852  0.61042664  0.09917703  1
  N  N368  1  0.43623853  0.94099589  0.09539436  1
  N  N369  1  0.93866811  0.27554803  0.09495434  1
  N  N370  1  0.93090200  0.61020023  0.09939649  1
  N  N371  1  0.93761153  0.94250050  0.09430685  1
  N  N372  1  0.43643926  0.05734869  0.90386502  1
  N  N373  1  0.43311602  0.39030092  0.90191540  1
  N  N374  1  0.42786181  0.72365563  0.89854057  1
  N  N375  1  0.93380603  0.05530313  0.90018812  1
  N  N376  1  0.94021079  0.39079640  0.90684914  1
  N  N377  1  0.93244457  0.72226156  0.90182123  1
  N  N378  1  0.07132371  0.27720816  0.39813265  1
  N  N379  1  0.06605710  0.61085071  0.40131786  1
  N  N380  1  0.07134065  0.94561004  0.39445321  1
  N  N381  1  0.56711068  0.27549327  0.40532834  1
  N  N382  1  0.56861840  0.61003088  0.40105351  1
  N  N383  1  0.56375533  0.94365360  0.40544275  1
  N  N384  1  0.30583815  0.22471073  0.59476924  1
  N  N385  1  0.31620912  0.55548027  0.60313588  1
  N  N386  1  0.31136243  0.88993757  0.60012360  1
  N  N387  1  0.80742684  0.22265190  0.59407197  1
  N  N388  1  0.80296077  0.55619928  0.58717439  1
  N  N389  1  0.81001203  0.89114944  0.59503087  1
  N  N390  1  0.18668861  0.11047771  0.09893054  1
  N  N391  1  0.19020822  0.44113053  0.08848055  1
  N  N392  1  0.19299135  0.77291832  0.09057531  1
  N  N393  1  0.68481095  0.11145664  0.10062767  1
  N  N394  1  0.68274899  0.44451794  0.10160736  1
  N  N395  1  0.69596724  0.77555350  0.09075202  1
  N  N396  1  0.18291395  0.22267901  0.90225015  1
  N  N397  1  0.19321946  0.55861442  0.90916035  1
  N  N398  1  0.18343575  0.88954860  0.90258889  1
  N  N399  1  0.68305647  0.22441710  0.90144703  1
  N  N400  1  0.68946215  0.55811826  0.90813116  1
  N  N401  1  0.68561427  0.88940001  0.89961211  1
  N  N402  1  0.30699639  0.11275116  0.40843509  1
  N  N403  1  0.31499028  0.44287888  0.40226063  1
  N  N404  1  0.30569896  0.77670424  0.40532729  1
  N  N405  1  0.81708639  0.10993876  0.40208433  1
  N  N406  1  0.82110674  0.44335293  0.39940415  1
  N  N407  1  0.80864672  0.77763111  0.40454720  1
  N  N408  1  0.43688664  0.27741151  0.40130816  1
  N  N409  1  0.44186551  0.60839812  0.40934957  1
  N  N410  1  0.43647188  0.94206673  0.40045277  1
  N  N411  1  0.94457877  0.27726392  0.41104541  1
  N  N412  1  0.93687068  0.60998823  0.40125525  1
  N  N413  1  0.94217656  0.94413673  0.40708181  1
  N  N414  1  0.06390288  0.05663967  0.90304396  1
  N  N415  1  0.06907367  0.39039116  0.90064126  1
  N  N416  1  0.06230891  0.72280320  0.90748103  1
  N  N417  1  0.56546390  0.05698201  0.90076333  1
  N  N418  1  0.56148984  0.39233422  0.91110302  1
  N  N419  1  0.55475911  0.72191647  0.91019835  1
  N  N420  1  0.06746948  0.27620387  0.09550576  1
  N  N421  1  0.05881723  0.60964132  0.09304644  1
  N  N422  1  0.06548920  0.94389727  0.09929943  1
  N  N423  1  0.57042518  0.27836306  0.09966666  1
  N  N424  1  0.55774319  0.60605304  0.08910692  1
  N  N425  1  0.56523098  0.94255292  0.09729747  1
  N  N426  1  0.44394475  0.05637971  0.59110154  1
  N  N427  1  0.43106461  0.39004228  0.59935406  1
  N  N428  1  0.44358075  0.72181238  0.59312336  1
  N  N429  1  0.93440611  0.05663125  0.59873069  1
  N  N430  1  0.93536722  0.39054683  0.59594492  1
  N  N431  1  0.94620429  0.72462551  0.59188624  1
  N  N432  1  0.18004162  0.10868659  0.39680754  1
  N  N433  1  0.18667953  0.44283139  0.40054677  1
  N  N434  1  0.17620969  0.77879066  0.39544823  1
  N  N435  1  0.68737024  0.10964243  0.40722272  1
  N  N436  1  0.69109892  0.44196238  0.40551940  1
  N  N437  1  0.67975821  0.77754087  0.39832735  1
  N  N438  1  0.31160608  0.22557724  0.90716428  1
  N  N439  1  0.32064715  0.55590630  0.89955992  1
  N  N440  1  0.31245392  0.89053949  0.90402766  1
  N  N441  1  0.81168385  0.22520571  0.90710491  1
  N  N442  1  0.81931310  0.55675177  0.90106115  1
  N  N443  1  0.81361900  0.89101309  0.90298489  1
  N  N444  1  0.31320177  0.11055176  0.09935815  1
  N  N445  1  0.31725587  0.44369950  0.10130798  1
  N  N446  1  0.32036858  0.77809573  0.10048607  1
  N  N447  1  0.81280761  0.10955857  0.09777002  1
  N  N448  1  0.81032221  0.44295098  0.09397655  1
  N  N449  1  0.82404495  0.77716060  0.10309525  1
  N  N450  1  0.17803709  0.22362800  0.59995651  1
  N  N451  1  0.18984912  0.55659190  0.59165812  1
  N  N452  1  0.18345668  0.88983094  0.59886366  1
  N  N453  1  0.67969278  0.22186391  0.60146755  1
  N  N454  1  0.67598035  0.55582007  0.60505508  1
  N  N455  1  0.68228809  0.88872530  0.60242724  1
  Cl  Cl456  1  0.25403389  0.06200298  0.60211069  1
  Cl  Cl457  1  0.24585266  0.38548480  0.61680012  1
  Cl  Cl458  1  0.26145731  0.72082913  0.61402694  1
  Cl  Cl459  1  0.75487399  0.05138218  0.61974259  1
  Cl  Cl460  1  0.74623014  0.38927787  0.61541061  1
  Cl  Cl461  1  0.75845119  0.72194498  0.60940438  1
  Cl  Cl462  1  0.25038067  0.27943019  0.10964955  1
  Cl  Cl463  1  0.24619885  0.61608701  0.12208965  1
  Cl  Cl464  1  0.25076638  0.94216619  0.11046278  1
  Cl  Cl465  1  0.75457589  0.27831532  0.11497558  1
  Cl  Cl466  1  0.74526357  0.61670072  0.11874796  1
  Cl  Cl467  1  0.75112574  0.94491507  0.11684987  1
  Cl  Cl468  1  0.25215590  0.05029764  0.87435225  1
  Cl  Cl469  1  0.25085516  0.38183057  0.88176889  1
  Cl  Cl470  1  0.24678341  0.71784028  0.88097109  1
  Cl  Cl471  1  0.74958336  0.05427352  0.88432689  1
  Cl  Cl472  1  0.75400213  0.38688888  0.88681456  1
  Cl  Cl473  1  0.73654762  0.72475458  0.89130176  1
  Cl  Cl474  1  0.25075095  0.28140043  0.37558660  1
  Cl  Cl475  1  0.25074769  0.60937636  0.39123207  1
  Cl  Cl476  1  0.25470010  0.94934289  0.37862159  1
  Cl  Cl477  1  0.76057279  0.27742944  0.38535207  1
  Cl  Cl478  1  0.75405448  0.60829217  0.39473490  1
  Cl  Cl479  1  0.75301138  0.94603814  0.38530319  1
  Cl  Cl480  1  -0.00777850  0.22550379  0.60839794  1
  Cl  Cl481  1  -0.00557554  0.56123716  0.60065128  1
  Cl  Cl482  1  -0.00397826  0.88833095  0.61492492  1
  Cl  Cl483  1  0.49221527  0.21937984  0.61696941  1
  Cl  Cl484  1  0.49769147  0.54875428  0.62166653  1
  Cl  Cl485  1  0.49560061  0.88612179  0.61773609  1
  Cl  Cl486  1  0.00137589  0.11612282  0.11473367  1
  Cl  Cl487  1  -0.00342221  0.44130261  0.10295121  1
  Cl  Cl488  1  0.00708054  0.78107466  0.11709758  1
  Cl  Cl489  1  0.49850991  0.10973628  0.11443960  1
  Cl  Cl490  1  0.49936930  0.44818629  0.11900021  1
  Cl  Cl491  1  0.51046854  0.77412513  0.10518544  1
  Cl  Cl492  1  -0.00393635  0.22297637  0.88601566  1
  Cl  Cl493  1  0.00639311  0.54941441  0.87557523  1
  Cl  Cl494  1  -0.00019319  0.88544832  0.88113281  1
  Cl  Cl495  1  0.49818262  0.21961478  0.88438729  1
  Cl  Cl496  1  0.50415720  0.55358522  0.88850894  1
  Cl  Cl497  1  0.50002488  0.88750819  0.88727233  1
  Cl  Cl498  1  -0.00016357  0.11606615  0.38219135  1
  Cl  Cl499  1  0.00341939  0.45112239  0.37181045  1
  Cl  Cl500  1  -0.01011421  0.77947519  0.38381021  1
  Cl  Cl501  1  0.49092347  0.10629853  0.39356105  1
  Cl  Cl502  1  0.50466330  0.44243652  0.39025691  1
  Cl  Cl503  1  0.49089107  0.77609371  0.38697954  1
  Cl  Cl504  1  0.36111849  0.14319481  0.74894421  1
  Cl  Cl505  1  0.36225113  0.47815163  0.74924737  1
  Cl  Cl506  1  0.36238199  0.81191678  0.75191842  1
  Cl  Cl507  1  0.86274118  0.14499943  0.75199620  1
  Cl  Cl508  1  0.85950409  0.47726079  0.74970231  1
  Cl  Cl509  1  0.85980385  0.81126643  0.75037769  1
  Cl  Cl510  1  0.13593329  0.18996099  0.25326588  1
  Cl  Cl511  1  0.13850622  0.52208890  0.25005368  1
  Cl  Cl512  1  0.13744925  0.85583241  0.25359620  1
  Cl  Cl513  1  0.63664894  0.18850430  0.24812019  1
  Cl  Cl514  1  0.64063559  0.52425008  0.24951264  1
  Cl  Cl515  1  0.63718533  0.85460763  0.25128465  1
  Cl  Cl516  1  0.14013390  0.14281716  0.74800081  1
  Cl  Cl517  1  0.13800042  0.47829650  0.74878100  1
  Cl  Cl518  1  0.13715002  0.81072774  0.74960004  1
  Cl  Cl519  1  0.63703520  0.14460043  0.74948883  1
  Cl  Cl520  1  0.63895373  0.47703239  0.74865850  1
  Cl  Cl521  1  0.63829379  0.80967806  0.74777468  1
  Cl  Cl522  1  0.36044443  0.18811287  0.25023362  1
  Cl  Cl523  1  0.36393865  0.52210131  0.24713236  1
  Cl  Cl524  1  0.36408204  0.85481986  0.24517068  1
  Cl  Cl525  1  0.86409021  0.18768932  0.25122785  1
  Cl  Cl526  1  0.85969067  0.52435446  0.25462845  1
  Cl  Cl527  1  0.86180769  0.85494922  0.24726793  1
  Cl  Cl528  1  0.11316489  0.31045257  0.75092510  1
  Cl  Cl529  1  0.11258004  0.64401571  0.74506297  1
  Cl  Cl530  1  0.11086318  0.97699023  0.74666286  1
  Cl  Cl531  1  0.60878001  0.30985731  0.75112790  1
  Cl  Cl532  1  0.61294079  0.64448799  0.74652527  1
  Cl  Cl533  1  0.61413860  0.97744188  0.74980683  1
  Cl  Cl534  1  0.38747514  0.02148435  0.24997808  1
  Cl  Cl535  1  0.38905380  0.35653656  0.24997115  1
  Cl  Cl536  1  0.39032412  0.68827398  0.24864273  1
  Cl  Cl537  1  0.88883626  0.02090740  0.25017623  1
  Cl  Cl538  1  0.88822969  0.35557302  0.24918692  1
  Cl  Cl539  1  0.88739303  0.68964267  0.24994853  1
  Cl  Cl540  1  0.38695967  0.31159116  0.75030472  1
  Cl  Cl541  1  0.38983724  0.64562584  0.75311735  1
  Cl  Cl542  1  0.39293280  0.97750061  0.74744739  1
  Cl  Cl543  1  0.89162663  0.30968470  0.75046799  1
  Cl  Cl544  1  0.88724146  0.64569830  0.75153827  1
  Cl  Cl545  1  0.88819077  0.97871318  0.75079665  1
  Cl  Cl546  1  0.11531060  0.02199767  0.25219838  1
  Cl  Cl547  1  0.10976589  0.35554471  0.25024393  1
  Cl  Cl548  1  0.11214137  0.68863488  0.25390088  1
  Cl  Cl549  1  0.60942065  0.02282594  0.24855910  1
  Cl  Cl550  1  0.61405082  0.35470128  0.24748978  1
  Cl  Cl551  1  0.61097974  0.68931450  0.25287527  1
