# generated using pymatgen
data_H8PbC4(N3Cl2)2
_symmetry_space_group_name_H-M   'P 1'
_cell_length_a   16.61940672
_cell_length_b   22.50117914
_cell_length_c   21.58758071
_cell_angle_alpha   89.99941985
_cell_angle_beta   90.00736405
_cell_angle_gamma   89.99879530
_symmetry_Int_Tables_number   1
_chemical_formula_structural   H8PbC4(N3Cl2)2
_chemical_formula_sum   'H192 Pb24 C96 N144 Cl96'
_cell_volume   8072.81061543
_cell_formula_units_Z   24
loop_
 _symmetry_equiv_pos_site_id
 _symmetry_equiv_pos_as_xyz
  1  'x, y, z'
loop_
 _atom_site_type_symbol
 _atom_site_label
 _atom_site_symmetry_multiplicity
 _atom_site_fract_x
 _atom_site_fract_y
 _atom_site_fract_z
 _atom_site_occupancy
  H  H0  1  0.00193516  0.03121396  0.67917599  1
  H  H1  1  0.00186645  0.36695752  0.68054921  1
  H  H2  1  -0.00202481  0.69806317  0.68045101  1
  H  H3  1  0.49814369  0.03169642  0.68015403  1
  H  H4  1  0.49477677  0.36642837  0.68023186  1
  H  H5  1  0.50523001  0.69826492  0.68065488  1
  H  H6  1  0.00312153  0.30154388  0.18021629  1
  H  H7  1  -0.00816102  0.63316832  0.17880144  1
  H  H8  1  0.00246638  0.96768189  0.17849817  1
  H  H9  1  0.50286609  0.30135257  0.18236465  1
  H  H10  1  0.50162772  0.63656969  0.17949466  1
  H  H11  1  0.50798965  0.96665936  0.17802383  1
  H  H12  1  -0.00033105  0.03371620  0.81742188  1
  H  H13  1  0.00130640  0.36543187  0.81999250  1
  H  H14  1  0.00372779  0.69993762  0.81783768  1
  H  H15  1  0.49854691  0.03093560  0.81879736  1
  H  H16  1  0.50721812  0.36615810  0.82235374  1
  H  H17  1  0.49956458  0.69831551  0.81991645  1
  H  H18  1  -0.01010519  0.30032906  0.31973395  1
  H  H19  1  -0.00140691  0.63433602  0.32173748  1
  H  H20  1  0.00048297  0.96887637  0.31916747  1
  H  H21  1  0.50969938  0.30192431  0.32201439  1
  H  H22  1  0.49677707  0.63311865  0.31714844  1
  H  H23  1  0.49995042  0.96746253  0.32095903  1
  H  H24  1  0.24951129  0.19893546  0.67679460  1
  H  H25  1  0.25731134  0.53067856  0.67980178  1
  H  H26  1  0.24920032  0.86541667  0.67961976  1
  H  H27  1  0.74984863  0.19787507  0.68202247  1
  H  H28  1  0.74558944  0.53234759  0.67999491  1
  H  H29  1  0.75528026  0.86627069  0.68297620  1
  H  H30  1  0.23929746  0.13488097  0.18279815  1
  H  H31  1  0.24677485  0.46695575  0.18020822  1
  H  H32  1  0.24874339  0.80115879  0.17963174  1
  H  H33  1  0.75946132  0.13366212  0.18143110  1
  H  H34  1  0.74835146  0.46778148  0.18163303  1
  H  H35  1  0.75267019  0.80267690  0.17895875  1
  H  H36  1  0.24533255  0.19938429  0.81859240  1
  H  H37  1  0.24865342  0.53174254  0.82308582  1
  H  H38  1  0.24573983  0.86542302  0.81966026  1
  H  H39  1  0.74620936  0.19899771  0.82106137  1
  H  H40  1  0.75476777  0.53168905  0.81914960  1
  H  H41  1  0.74549801  0.86500290  0.82198734  1
  H  H42  1  0.24408636  0.13401965  0.32275178  1
  H  H43  1  0.25365206  0.46764730  0.32007781  1
  H  H44  1  0.25494211  0.80172038  0.32010818  1
  H  H45  1  0.74900921  0.13452324  0.31877875  1
  H  H46  1  0.74711965  0.46919195  0.32013279  1
  H  H47  1  0.74155458  0.80078886  0.31690577  1
  H  H48  1  0.11989814  0.05642989  0.60230994  1
  H  H49  1  0.12158868  0.38749443  0.60740657  1
  H  H50  1  0.12564463  0.72088678  0.61283544  1
  H  H51  1  0.61869044  0.05592771  0.60569048  1
  H  H52  1  0.62493266  0.38803045  0.61558388  1
  H  H53  1  0.61965720  0.72273485  0.60118481  1
  H  H54  1  0.37093183  0.28265207  0.11971957  1
  H  H55  1  0.37684184  0.61238570  0.11061362  1
  H  H56  1  0.37210714  0.94815025  0.12140592  1
  H  H57  1  0.87121525  0.27989033  0.11372011  1
  H  H58  1  0.88574202  0.60843328  0.09349495  1
  H  H59  1  0.86720867  0.94940521  0.11734324  1
  H  H60  1  0.37762634  0.05383521  0.89124569  1
  H  H61  1  0.37185120  0.38502947  0.88257220  1
  H  H62  1  0.37511602  0.72121166  0.89292055  1
  H  H63  1  0.87510972  0.05264698  0.88800822  1
  H  H64  1  0.87383246  0.38582423  0.88617583  1
  H  H65  1  0.87141271  0.72040666  0.88331203  1
  H  H66  1  0.12766889  0.28167576  0.37766662  1
  H  H67  1  0.12744170  0.61178903  0.38848070  1
  H  H68  1  0.12828318  0.94733527  0.38808731  1
  H  H69  1  0.61507849  0.27431731  0.40678747  1
  H  H70  1  0.62934580  0.61340998  0.38283718  1
  H  H71  1  0.62339090  0.94304583  0.39178787  1
  H  H72  1  0.37470128  0.22275614  0.60738418  1
  H  H73  1  0.36766826  0.55625055  0.59697665  1
  H  H74  1  0.37304575  0.88882638  0.60761212  1
  H  H75  1  0.87538518  0.22013796  0.61248768  1
  H  H76  1  0.87285632  0.55369910  0.61061553  1
  H  H77  1  0.87373028  0.88918702  0.60734319  1
  H  H78  1  0.12807637  0.11139380  0.10087166  1
  H  H79  1  0.13045813  0.44486242  0.10458110  1
  H  H80  1  0.13003486  0.77648673  0.10383639  1
  H  H81  1  0.62071208  0.11538358  0.12645064  1
  H  H82  1  0.62772029  0.44516087  0.10605124  1
  H  H83  1  0.62574842  0.78133684  0.10966642  1
  H  H84  1  0.12818971  0.22319364  0.89488494  1
  H  H85  1  0.12266462  0.54975657  0.89403067  1
  H  H86  1  0.13504839  0.89222418  0.90149547  1
  H  H87  1  0.63206443  0.22527562  0.89894245  1
  H  H88  1  0.62078694  0.55116760  0.88016475  1
  H  H89  1  0.63132568  0.88993893  0.90036020  1
  H  H90  1  0.37699095  0.11438765  0.38557842  1
  H  H91  1  0.37299578  0.44371739  0.39584103  1
  H  H92  1  0.37665085  0.77833272  0.39271412  1
  H  H93  1  0.87706704  0.11368182  0.38460693  1
  H  H94  1  0.87598269  0.44819076  0.38756317  1
  H  H95  1  0.87748349  0.78086209  0.37772241  1
  H  H96  1  0.37010826  0.28373905  0.37490387  1
  H  H97  1  0.38026949  0.61015114  0.39443144  1
  H  H98  1  0.37507548  0.94875749  0.39193544  1
  H  H99  1  0.88067085  0.27650267  0.40169064  1
  H  H100  1  0.87866278  0.61049408  0.39503778  1
  H  H101  1  0.87996196  0.94509296  0.39375922  1
  H  H102  1  0.12522675  0.05446982  0.88868315  1
  H  H103  1  0.12262980  0.38615153  0.89170746  1
  H  H104  1  0.12042818  0.72264549  0.89540599  1
  H  H105  1  0.62664950  0.05072504  0.88460502  1
  H  H106  1  0.61913585  0.39091683  0.90196703  1
  H  H107  1  0.62382863  0.72171699  0.89244369  1
  H  H108  1  0.11933500  0.27912711  0.10082467  1
  H  H109  1  0.13108492  0.61580022  0.12520118  1
  H  H110  1  0.11459033  0.93959484  0.09940194  1
  H  H111  1  0.61991232  0.27805661  0.10688570  1
  H  H112  1  0.62556360  0.61320237  0.10749940  1
  H  H113  1  0.61841212  0.94345162  0.09850262  1
  H  H114  1  0.37011021  0.05383575  0.61368474  1
  H  H115  1  0.37639380  0.38806716  0.60282453  1
  H  H116  1  0.37101506  0.71925746  0.62043711  1
  H  H117  1  0.87165238  0.05304014  0.61463519  1
  H  H118  1  0.87229207  0.38753017  0.61491658  1
  H  H119  1  0.87613882  0.71958014  0.60749078  1
  H  H120  1  0.12881681  0.10955494  0.39945379  1
  H  H121  1  0.12425598  0.44726752  0.38592913  1
  H  H122  1  0.12787909  0.77898595  0.38877239  1
  H  H123  1  0.62752506  0.11280040  0.39089851  1
  H  H124  1  0.62644058  0.44573748  0.39348153  1
  H  H125  1  0.63012937  0.77700365  0.39788908  1
  H  H126  1  0.37656874  0.22068578  0.88384516  1
  H  H127  1  0.37099101  0.55749458  0.89391583  1
  H  H128  1  0.38255104  0.88392423  0.87723601  1
  H  H129  1  0.87955550  0.21777554  0.88340067  1
  H  H130  1  0.86951174  0.55592654  0.89863302  1
  H  H131  1  0.87899581  0.88574072  0.88444652  1
  H  H132  1  0.37566236  0.11375982  0.12279778  1
  H  H133  1  0.37945469  0.44823633  0.11735786  1
  H  H134  1  0.37924982  0.78077886  0.11495330  1
  H  H135  1  0.86734488  0.11036602  0.09956371  1
  H  H136  1  0.87703403  0.44718669  0.11385943  1
  H  H137  1  0.87503088  0.77752618  0.10723441  1
  H  H138  1  0.12595322  0.22127804  0.60591496  1
  H  H139  1  0.12155883  0.55118560  0.62079981  1
  H  H140  1  0.12424760  0.88854693  0.61074064  1
  H  H141  1  0.62534939  0.22286232  0.61084107  1
  H  H142  1  0.62379873  0.55562130  0.60698500  1
  H  H143  1  0.62515884  0.88690308  0.61593579  1
  H  H144  1  0.53894331  0.24988178  0.50666511  1
  H  H145  1  0.82922672  0.24436535  0.50035495  1
  H  H146  1  0.84103870  0.08438682  0.49640909  1
  H  H147  1  0.07498249  0.08832689  0.99245971  1
  H  H148  1  0.34335845  0.08484300  0.49298175  1
  H  H149  1  0.94845503  0.25143234  0.50858535  1
  H  H150  1  0.18465767  0.41474354  -0.00344872  1
  H  H151  1  0.08580312  0.58243301  0.49441955  1
  H  H152  1  0.55540225  0.74234203  0.49726107  1
  H  H153  1  0.39860874  0.41537126  0.99080264  1
  H  H154  1  0.59328286  0.07981716  0.99678486  1
  H  H155  1  0.69754222  0.74956761  0.50345226  1
  H  H156  1  0.84612732  0.25387887  0.98709493  1
  H  H157  1  0.67600198  0.41869697  0.50261498  1
  H  H158  1  0.83650655  0.41701104  0.00442855  1
  H  H159  1  0.96043311  0.58175420  -0.00582478  1
  H  H160  1  0.04584190  0.92499930  -0.00401509  1
  H  H161  1  0.44135409  0.58157849  0.50150780  1
  H  H162  1  0.56406138  0.25232884  -0.00298164  1
  H  H163  1  0.29554480  0.57966440  0.49589777  1
  H  H164  1  0.79831424  0.08512709  -0.00798138  1
  H  H165  1  0.40210459  0.25394100  0.00734555  1
  H  H166  1  0.05882561  0.74872547  1.00335234  1
  H  H167  1  0.89799232  0.91366064  0.01254148  1
  H  H168  1  0.10375373  0.25445166  0.48598037  1
  H  H169  1  0.19084051  0.74900226  -0.00063108  1
  H  H170  1  0.92472660  0.74887232  0.49877419  1
  H  H171  1  0.83786503  0.42064209  0.49312559  1
  H  H172  1  0.92213796  0.07686099  1.00042705  1
  H  H173  1  0.42314534  0.91065133  0.49155788  1
  H  H174  1  0.20376136  0.91290421  1.00390569  1
  H  H175  1  0.08390314  0.92111668  0.49347951  1
  H  H176  1  0.80647403  0.58188446  1.00123210  1
  H  H177  1  0.69887957  0.23629700  1.00329858  1
  H  H178  1  0.08343266  0.74897873  0.50711422  1
  H  H179  1  0.19787274  0.08770835  -0.00554194  1
  H  H180  1  0.57463212  0.92737959  0.49716458  1
  H  H181  1  0.67531775  0.08339391  0.50029928  1
  H  H182  1  0.65095166  0.58157217  0.99200922  1
  H  H183  1  0.67626863  0.24265313  0.50361428  1
  H  H184  1  0.81645141  0.91672868  0.49957866  1
  H  H185  1  0.36228421  0.91439852  0.99081609  1
  H  H186  1  0.39878772  0.74837180  0.50784669  1
  H  H187  1  0.33147148  0.25072187  0.50162560  1
  H  H188  1  0.16476011  0.58364811  0.99727209  1
  H  H189  1  0.42606246  0.08082491  1.00089185  1
  H  H190  1  0.07259466  0.41718025  0.49762324  1
  H  H191  1  0.31961141  0.57466681  0.99950979  1
  Pb  Pb192  1  0.25050214  0.04602020  0.74712667  1
  Pb  Pb193  1  0.25022409  0.37901927  0.74842813  1
  Pb  Pb194  1  0.25382606  0.71526786  0.75671259  1
  Pb  Pb195  1  0.75411312  0.04822668  0.74813703  1
  Pb  Pb196  1  0.75025601  0.38108175  0.75014036  1
  Pb  Pb197  1  0.74908438  0.71179550  0.74561783  1
  Pb  Pb198  1  0.24919648  0.28922453  0.24971338  1
  Pb  Pb199  1  0.25383819  0.61985922  0.25243310  1
  Pb  Pb200  1  0.24871183  0.94886521  0.24579385  1
  Pb  Pb201  1  0.75078896  0.28334387  0.25323413  1
  Pb  Pb202  1  0.75061778  0.61998710  0.24128159  1
  Pb  Pb203  1  0.74997181  0.95517901  0.25186456  1
  Pb  Pb204  1  0.00416059  0.21455191  0.74674576  1
  Pb  Pb205  1  0.00127447  0.54817525  0.75233041  1
  Pb  Pb206  1  0.00073522  0.87946251  0.75234856  1
  Pb  Pb207  1  0.50118766  0.21394272  0.74924383  1
  Pb  Pb208  1  0.49769095  0.54459023  0.74518456  1
  Pb  Pb209  1  0.50529984  0.88161793  0.74393540  1
  Pb  Pb210  1  0.00526488  0.11866912  0.24321766  1
  Pb  Pb211  1  -0.00014964  0.45488125  0.24936400  1
  Pb  Pb212  1  -0.00271371  0.78418188  0.24917551  1
  Pb  Pb213  1  0.49611642  0.11957874  0.25298524  1
  Pb  Pb214  1  0.50335587  0.45337826  0.24957994  1
  Pb  Pb215  1  0.50514244  0.78598288  0.25804751  1
  C  C216  1  -0.00193043  0.04659830  0.63185973  1
  C  C217  1  -0.00107200  0.38102919  0.63259834  1
  C  C218  1  0.00021289  0.71351418  0.63277960  1
  C  C219  1  0.49585820  0.04702381  0.63281234  1
  C  C220  1  0.49852807  0.38085950  0.63257632  1
  C  C221  1  0.49888891  0.71312228  0.63293312  1
  C  C222  1  -0.00224365  0.28754171  0.13223275  1
  C  C223  1  0.00279709  0.61952547  0.13131989  1
  C  C224  1  -0.00550419  0.95258110  0.13094882  1
  C  C225  1  0.49763983  0.28730703  0.13439080  1
  C  C226  1  0.50167204  0.62082087  0.13231458  1
  C  C227  1  0.49911412  0.95260857  0.13062375  1
  C  C228  1  0.00054700  0.04793370  0.86558458  1
  C  C229  1  -0.00084815  0.37947022  0.86790380  1
  C  C230  1  -0.00173529  0.71448464  0.86558231  1
  C  C231  1  0.50099591  0.04561323  0.86670340  1
  C  C232  1  0.49890537  0.38069449  0.86980830  1
  C  C233  1  0.49928534  0.71340299  0.86759879  1
  C  C234  1  -0.00007123  0.28593236  0.36725457  1
  C  C235  1  0.00204721  0.61928327  0.36929515  1
  C  C236  1  0.00316238  0.95375741  0.36681684  1
  C  C237  1  0.49845691  0.28728277  0.36914688  1
  C  C238  1  0.50242805  0.61915565  0.36501363  1
  C  C239  1  0.49947888  0.95281218  0.36892486  1
  C  C240  1  0.25047418  0.21410821  0.62910817  1
  C  C241  1  0.24917022  0.54533212  0.63231305  1
  C  C242  1  0.24911778  0.88060393  0.63219805  1
  C  C243  1  0.74965298  0.21319548  0.63422029  1
  C  C244  1  0.74763651  0.54705208  0.63236014  1
  C  C245  1  0.75110687  0.88057878  0.63509965  1
  C  C246  1  0.24787151  0.12022637  0.13532233  1
  C  C247  1  0.25192201  0.45296719  0.13237284  1
  C  C248  1  0.25227524  0.78626357  0.13207320  1
  C  C249  1  0.74938567  0.12006800  0.13387995  1
  C  C250  1  0.75098597  0.45305156  0.13387603  1
  C  C251  1  0.75106218  0.78720777  0.13162558  1
  C  C252  1  0.25044714  0.21395608  0.86608170  1
  C  C253  1  0.24728963  0.54691118  0.87090113  1
  C  C254  1  0.25422111  0.87943640  0.86744431  1
  C  C255  1  0.75270857  0.21394020  0.86877581  1
  C  C256  1  0.74856670  0.54609340  0.86696520  1
  C  C257  1  0.75237368  0.87971106  0.86927850  1
  C  C258  1  0.25036167  0.11905912  0.37021736  1
  C  C259  1  0.25048919  0.45294724  0.36764381  1
  C  C260  1  0.25294720  0.78653787  0.36751106  1
  C  C261  1  0.75125922  0.11984846  0.36670734  1
  C  C262  1  0.75024927  0.45374650  0.36781134  1
  C  C263  1  0.75003596  0.78629290  0.36439321  1
  C  C264  1  0.71334998  0.57477726  0.53908187  1
  C  C265  1  0.95931540  0.06994556  0.95967844  1
  C  C266  1  0.22734571  0.09580760  0.03872148  1
  C  C267  1  0.69510445  0.57234914  0.95611060  1
  C  C268  1  0.47509590  0.59332132  0.46003039  1
  C  C269  1  0.54756729  0.06991511  0.95975281  1
  C  C270  1  0.22267987  0.42638871  0.03587592  1
  C  C271  1  0.79318082  0.42711217  0.04217487  1
  C  C272  1  0.31261375  0.90501051  0.95525487  1
  C  C273  1  0.06669825  0.59563908  0.04438522  1
  C  C274  1  0.44475751  0.73912488  0.54379680  1
  C  C275  1  0.43360051  0.26128748  0.45514709  1
  C  C276  1  0.45255820  0.07457639  0.54119227  1
  C  C277  1  0.52498272  0.40970691  0.96631811  1
  C  C278  1  0.96554705  0.59027885  0.46368698  1
  C  C279  1  0.02546355  0.73910806  0.96110714  1
  C  C280  1  0.44671202  0.26334069  0.04299707  1
  C  C281  1  0.96285136  0.73902644  0.53839198  1
  C  C282  1  0.46543626  0.07088932  0.96199003  1
  C  C283  1  0.72848642  0.76038902  0.46039060  1
  C  C284  1  0.52866552  0.26221222  0.03812109  1
  C  C285  1  0.30419071  0.42853248  0.04176715  1
  C  C286  1  0.79169972  0.23858204  0.54124732  1
  C  C287  1  0.71461694  0.09397814  0.46160187  1
  C  C288  1  0.30269640  0.75863263  0.04109928  1
  C  C289  1  0.20956240  0.90832282  0.53970226  1
  C  C290  1  0.03266534  0.40689655  0.53670181  1
  C  C291  1  0.78091537  0.90628052  0.54042298  1
  C  C292  1  0.78566125  0.75765942  0.03919333  1
  C  C293  1  0.21994725  0.09025147  0.46599395  1
  C  C294  1  0.22104280  0.24193998  0.96055239  1
  C  C295  1  0.20975012  0.24171820  0.53513713  1
  C  C296  1  0.52190736  0.92566651  0.03495720  1
  C  C297  1  0.20615989  0.42585181  0.45860325  1
  C  C298  1  0.72645613  0.90750798  0.96453973  1
  C  C299  1  0.79691868  0.09440895  0.45954845  1
  C  C300  1  0.03550584  0.40528218  0.96182433  1
  C  C301  1  0.97780936  0.26076850  0.46463113  1
  C  C302  1  0.54393701  0.40821048  0.54201944  1
  C  C303  1  0.95202886  0.07385561  0.54107042  1
  C  C304  1  0.71466892  0.42804392  0.46253191  1
  C  C305  1  0.44177691  0.92752552  0.04240150  1
  C  C306  1  0.76796190  0.09486627  0.03550172  1
  C  C307  1  0.46243787  0.59077815  0.04058151  1
  C  C308  1  0.28816097  0.75895783  0.46121936  1
  C  C309  1  0.95413076  0.40512829  0.95980070  1
  C  C310  1  0.68742132  0.09656225  0.04652760  1
  C  C311  1  0.95097800  0.40641544  0.54088974  1
  N  N312  1  0.55421320  0.59517731  0.45651556  1
  N  N313  1  0.46111068  0.74109445  0.96101195  1
  N  N314  1  0.04457260  0.59176840  0.46034822  1
  N  N315  1  0.80736926  0.76161998  0.45381631  1
  N  N316  1  0.28749874  0.90831709  0.53748335  1
  N  N317  1  0.53723378  0.74147815  0.96097877  1
  N  N318  1  0.30598015  0.09523614  0.04636048  1
  N  N319  1  0.28908769  0.24157374  0.53682038  1
  N  N320  1  0.79063471  0.57368993  0.53865095  1
  N  N321  1  0.05638652  0.26203497  0.45485843  1
  N  N322  1  0.03907670  0.06965083  0.95924815  1
  N  N323  1  0.01913781  0.91920714  0.03865166  1
  N  N324  1  0.26820991  0.57440364  0.53838017  1
  N  N325  1  0.51171893  0.25798262  0.46476472  1
  N  N326  1  0.28358781  0.42473605  0.46308290  1
  N  N327  1  0.54027532  0.59103434  0.03852559  1
  N  N328  1  0.23340165  0.90817477  0.96223220  1
  N  N329  1  0.02658780  0.26332373  0.03586413  1
  N  N330  1  0.71214303  0.24107500  0.54208549  1
  N  N331  1  0.46659823  0.40822079  0.53657743  1
  N  N332  1  0.02942378  0.07523516  0.53588119  1
  N  N333  1  0.53035798  0.07549523  0.53731136  1
  N  N334  1  0.80424785  0.23401105  0.95840438  1
  N  N335  1  0.44667669  0.40691954  0.95841811  1
  N  N336  1  0.52433484  0.74068683  0.53829827  1
  N  N337  1  0.29844091  0.24075666  0.95824705  1
  N  N338  1  0.70152253  0.90566258  0.54291506  1
  N  N339  1  0.21004640  0.75881700  0.46110143  1
  N  N340  1  0.77442987  0.57454742  0.96121675  1
  N  N341  1  0.45956166  0.93506683  0.46274717  1
  N  N342  1  0.94118550  0.93148832  0.04217896  1
  N  N343  1  0.53795460  0.92148023  0.45921443  1
  N  N344  1  0.72567718  0.24551280  0.96153951  1
  N  N345  1  0.29870617  0.09264484  0.45991309  1
  N  N346  1  0.28379952  0.58054655  0.96098965  1
  N  N347  1  0.98856372  0.59318720  0.03493372  1
  N  N348  1  0.20618240  0.56643145  0.96403078  1
  N  N349  1  0.94637050  0.73827288  0.95724715  1
  N  N350  1  0.22376317  0.75812631  0.03837148  1
  N  N351  1  0.04380687  0.92860023  0.45768534  1
  N  N352  1  0.80382739  0.90571144  0.96046428  1
  N  N353  1  0.95040847  0.26447050  0.03994495  1
  N  N354  1  0.71378557  0.42641547  0.03885870  1
  N  N355  1  0.79438742  0.42859282  0.45910048  1
  N  N356  1  0.70831341  0.75881917  0.03866684  1
  N  N357  1  0.19051029  0.57157742  0.54484569  1
  N  N358  1  0.04251813  0.73969578  0.54137350  1
  N  N359  1  0.96542191  0.92761903  0.46109121  1
  N  N360  1  0.05821881  0.05780980  0.59376369  1
  N  N361  1  0.06125519  0.39085705  0.59512928  1
  N  N362  1  0.06533674  0.72420046  0.59955638  1
  N  N363  1  0.55731004  0.05808518  0.59586839  1
  N  N364  1  0.56615247  0.39165928  0.60005183  1
  N  N365  1  0.55753290  0.72194853  0.59255938  1
  N  N366  1  0.42904675  0.27884410  0.10287542  1
  N  N367  1  0.43672502  0.60867844  0.09718242  1
  N  N368  1  0.42810813  0.94386939  0.10161113  1
  N  N369  1  0.93113470  0.27927118  0.09989113  1
  N  N370  1  0.94827291  0.60900228  0.08826466  1
  N  N371  1  0.92574830  0.94251292  0.10191955  1
  N  N372  1  0.43786542  0.05593346  0.90375902  1
  N  N373  1  0.43023939  0.38912266  0.89903072  1
  N  N374  1  0.43595357  0.72365909  0.90325045  1
  N  N375  1  0.93517943  0.05535677  0.90199840  1
  N  N376  1  0.93262059  0.38959957  0.90211598  1
  N  N377  1  0.93132700  0.72336229  0.89761688  1
  N  N378  1  0.06948426  0.27749687  0.39517318  1
  N  N379  1  0.06776853  0.60997946  0.40216458  1
  N  N380  1  0.06805599  0.94453096  0.40089909  1
  N  N381  1  0.55275229  0.27600445  0.41222397  1
  N  N382  1  0.56936847  0.61072554  0.39713729  1
  N  N383  1  0.56318735  0.94428043  0.40465740  1
  N  N384  1  0.31446179  0.22414422  0.59467506  1
  N  N385  1  0.30540002  0.55563832  0.59040221  1
  N  N386  1  0.31206573  0.89085277  0.59655710  1
  N  N387  1  0.81536499  0.22317061  0.59887214  1
  N  N388  1  0.81230858  0.55623440  0.59819285  1
  N  N389  1  0.81279232  0.89113875  0.59655690  1
  N  N390  1  0.19000741  0.11036240  0.09314035  1
  N  N391  1  0.19133083  0.44206903  0.09360358  1
  N  N392  1  0.19151958  0.77555221  0.09417458  1
  N  N393  1  0.67708948  0.11162249  0.10607389  1
  N  N394  1  0.68935195  0.44249469  0.09650033  1
  N  N395  1  0.68641633  0.77759721  0.09737057  1
  N  N396  1  0.18912289  0.22580473  0.90524938  1
  N  N397  1  0.18269506  0.55548903  0.90566937  1
  N  N398  1  0.19734206  0.88947335  0.90901788  1
  N  N399  1  0.69362155  0.22227786  0.90897018  1
  N  N400  1  0.67880365  0.55560946  0.89741116  1
  N  N401  1  0.69266650  0.89184337  0.90980702  1
  N  N402  1  0.31796183  0.11022185  0.40084749  1
  N  N403  1  0.31145188  0.44171251  0.40515298  1
  N  N404  1  0.31641490  0.77556793  0.40465091  1
  N  N405  1  0.81797535  0.11043606  0.40011167  1
  N  N406  1  0.81582025  0.44429233  0.40088256  1
  N  N407  1  0.81882476  0.77756092  0.39390557  1
  N  N408  1  0.42566589  0.27838044  0.39561042  1
  N  N409  1  0.44165819  0.60839336  0.40439822  1
  N  N410  1  0.43529183  0.94206867  0.40334731  1
  N  N411  1  0.94214296  0.27537895  0.41011351  1
  N  N412  1  0.93895020  0.60743518  0.40755278  1
  N  N413  1  0.94095962  0.94308358  0.40403032  1
  N  N414  1  0.06426017  0.05942130  0.90007429  1
  N  N415  1  0.06252409  0.38970304  0.90540433  1
  N  N416  1  0.05900798  0.72475640  0.90512295  1
  N  N417  1  0.56774050  0.05430191  0.90006988  1
  N  N418  1  0.55779873  0.39326244  0.91152505  1
  N  N419  1  0.56265392  0.72429342  0.90310042  1
  N  N420  1  0.05732295  0.27766575  0.09273058  1
  N  N421  1  0.07551631  0.61134777  0.10434297  1
  N  N422  1  0.05262661  0.94297811  0.09020718  1
  N  N423  1  0.55903951  0.27716160  0.09552684  1
  N  N424  1  0.56490513  0.61019355  0.09696637  1
  N  N425  1  0.55708905  0.94105211  0.08863274  1
  N  N426  1  0.42933109  0.05757954  0.59908763  1
  N  N427  1  0.43806748  0.39099644  0.59428288  1
  N  N428  1  0.42915101  0.72354505  0.60300575  1
  N  N429  1  0.93036727  0.05673192  0.59920822  1
  N  N430  1  0.93126124  0.39082073  0.59897306  1
  N  N431  1  0.93638461  0.72306801  0.59536751  1
  N  N432  1  0.18967578  0.10680511  0.41052372  1
  N  N433  1  0.18322410  0.44285946  0.40093644  1
  N  N434  1  0.18842288  0.77637421  0.40136496  1
  N  N435  1  0.68777077  0.10970711  0.40351468  1
  N  N436  1  0.68716774  0.44306404  0.40547738  1
  N  N437  1  0.69188242  0.77545686  0.40593478  1
  N  N438  1  0.31706191  0.22284085  0.89806874  1
  N  N439  1  0.31028955  0.55811255  0.90647847  1
  N  N440  1  0.32523042  0.88841905  0.89594411  1
  N  N441  1  0.82078477  0.22456111  0.89849308  1
  N  N442  1  0.80743848  0.55629883  0.90676737  1
  N  N443  1  0.82011187  0.88836534  0.89972764  1
  N  N444  1  0.31679025  0.11060552  0.10645267  1
  N  N445  1  0.32101545  0.44433102  0.10039721  1
  N  N446  1  0.32058623  0.77597922  0.09905732  1
  N  N447  1  0.80580078  0.10963758  0.09126681  1
  N  N448  1  0.81733096  0.44309719  0.10021029  1
  N  N449  1  0.81494508  0.77470363  0.09518938  1
  N  N450  1  0.18580210  0.22474327  0.59242198  1
  N  N451  1  0.17957571  0.55548132  0.60395315  1
  N  N452  1  0.18395550  0.89161224  0.59692465  1
  N  N453  1  0.68623521  0.22231278  0.59854879  1
  N  N454  1  0.68394858  0.55847498  0.59528406  1
  N  N455  1  0.68496725  0.88958670  0.60228244  1
  Cl  Cl456  1  0.24585519  0.05576479  0.61262016  1
  Cl  Cl457  1  0.24989895  0.38285208  0.61752317  1
  Cl  Cl458  1  0.24763238  0.71656716  0.62469492  1
  Cl  Cl459  1  0.74538683  0.05518959  0.61435818  1
  Cl  Cl460  1  0.74870879  0.38689211  0.61412585  1
  Cl  Cl461  1  0.74351352  0.72120324  0.60974993  1
  Cl  Cl462  1  0.24156127  0.28151050  0.11936556  1
  Cl  Cl463  1  0.25580926  0.61283732  0.11273743  1
  Cl  Cl464  1  0.23363555  0.93797624  0.10532068  1
  Cl  Cl465  1  0.74605306  0.27306619  0.11090138  1
  Cl  Cl466  1  0.76089093  0.60854071  0.10170938  1
  Cl  Cl467  1  0.74413235  0.94875630  0.11971245  1
  Cl  Cl468  1  0.24756223  0.05331534  0.88281706  1
  Cl  Cl469  1  0.24756126  0.38658142  0.88306425  1
  Cl  Cl470  1  0.24469259  0.72281956  0.89549300  1
  Cl  Cl471  1  0.75288589  0.05212488  0.88105821  1
  Cl  Cl472  1  0.74519897  0.38455242  0.88152962  1
  Cl  Cl473  1  0.74656561  0.71710141  0.87739307  1
  Cl  Cl474  1  0.24783452  0.27798016  0.38584138  1
  Cl  Cl475  1  0.25631416  0.60912295  0.39108358  1
  Cl  Cl476  1  0.25152416  0.95100672  0.37887839  1
  Cl  Cl477  1  0.74365951  0.27476715  0.39674240  1
  Cl  Cl478  1  0.75372090  0.61441858  0.37285372  1
  Cl  Cl479  1  0.75173599  0.94437774  0.38694464  1
  Cl  Cl480  1  -0.00035973  0.22228395  0.61046220  1
  Cl  Cl481  1  -0.00254928  0.55433006  0.61848916  1
  Cl  Cl482  1  0.00052612  0.88686932  0.61924290  1
  Cl  Cl483  1  0.50239488  0.22551922  0.60701413  1
  Cl  Cl484  1  0.49083080  0.55622272  0.60957746  1
  Cl  Cl485  1  0.49811629  0.88951620  0.60558021  1
  Cl  Cl486  1  0.00148920  0.10725839  0.10368771  1
  Cl  Cl487  1  0.00274568  0.45228388  0.11874546  1
  Cl  Cl488  1  0.00614134  0.77927953  0.11487480  1
  Cl  Cl489  1  0.49749113  0.11255077  0.12127422  1
  Cl  Cl490  1  0.50374774  0.44635532  0.11417960  1
  Cl  Cl491  1  0.50280759  0.78437409  0.12737478  1
  Cl  Cl492  1  0.00271164  0.21516797  0.87863145  1
  Cl  Cl493  1  -0.00598181  0.55556675  0.89549133  1
  Cl  Cl494  1  0.01174821  0.89474138  0.89470366  1
  Cl  Cl495  1  0.50945321  0.22568344  0.88237080  1
  Cl  Cl496  1  0.49246865  0.54929420  0.87788453  1
  Cl  Cl497  1  0.50816892  0.88660217  0.87462037  1
  Cl  Cl498  1  0.00384034  0.11655991  0.37479834  1
  Cl  Cl499  1  -0.00053842  0.44944952  0.38471573  1
  Cl  Cl500  1  0.00443553  0.77766762  0.38608196  1
  Cl  Cl501  1  0.50092247  0.11697510  0.38343147  1
  Cl  Cl502  1  0.49995068  0.44720356  0.38025553  1
  Cl  Cl503  1  0.50422682  0.77651816  0.39702700  1
  Cl  Cl504  1  0.36268130  0.14509267  0.74953228  1
  Cl  Cl505  1  0.35973422  0.47837765  0.75178667  1
  Cl  Cl506  1  0.35882645  0.80951072  0.74938022  1
  Cl  Cl507  1  0.85846121  0.14341950  0.75166324  1
  Cl  Cl508  1  0.86035976  0.47675472  0.74778263  1
  Cl  Cl509  1  0.86436040  0.81076578  0.75481826  1
  Cl  Cl510  1  0.13974157  0.18735956  0.25278478  1
  Cl  Cl511  1  0.13641896  0.52314433  0.25085495  1
  Cl  Cl512  1  0.14021398  0.85779667  0.25219488  1
  Cl  Cl513  1  0.63751690  0.18995543  0.24696145  1
  Cl  Cl514  1  0.63900122  0.52310715  0.24841468  1
  Cl  Cl515  1  0.63871072  0.85439502  0.25250510  1
  Cl  Cl516  1  0.13689828  0.14524983  0.74851247  1
  Cl  Cl517  1  0.13734434  0.47922657  0.74931183  1
  Cl  Cl518  1  0.13592304  0.81182119  0.75163560  1
  Cl  Cl519  1  0.63773278  0.14498174  0.74984718  1
  Cl  Cl520  1  0.63638750  0.47781881  0.75138444  1
  Cl  Cl521  1  0.63766142  0.81217992  0.74472865  1
  Cl  Cl522  1  0.36301260  0.18975773  0.25090965  1
  Cl  Cl523  1  0.36142901  0.52270528  0.24743853  1
  Cl  Cl524  1  0.35925483  0.85736488  0.24992197  1
  Cl  Cl525  1  0.85791833  0.18981936  0.25057856  1
  Cl  Cl526  1  0.86234262  0.52197227  0.25083893  1
  Cl  Cl527  1  0.86512034  0.85544092  0.25167600  1
  Cl  Cl528  1  0.11040392  0.30967082  0.74941352  1
  Cl  Cl529  1  0.10871846  0.64237935  0.74938116  1
  Cl  Cl530  1  0.11327551  0.97843245  0.75194645  1
  Cl  Cl531  1  0.61215697  0.30976951  0.74610637  1
  Cl  Cl532  1  0.61125444  0.64433581  0.74934511  1
  Cl  Cl533  1  0.60946740  0.97639926  0.74527959  1
  Cl  Cl534  1  0.39027531  0.02339901  0.24887318  1
  Cl  Cl535  1  0.38631313  0.35585400  0.24914992  1
  Cl  Cl536  1  0.38604474  0.69002313  0.24967671  1
  Cl  Cl537  1  0.88716300  0.02161053  0.24857150  1
  Cl  Cl538  1  0.88693676  0.35447272  0.25137891  1
  Cl  Cl539  1  0.89288927  0.68916322  0.25081124  1
  Cl  Cl540  1  0.38731812  0.31040477  0.75205845  1
  Cl  Cl541  1  0.38542573  0.64525832  0.74949943  1
  Cl  Cl542  1  0.38473526  0.97701063  0.74849658  1
  Cl  Cl543  1  0.88539473  0.31116401  0.74908481  1
  Cl  Cl544  1  0.88804253  0.64437097  0.75228890  1
  Cl  Cl545  1  0.88803822  0.97800146  0.75094083  1
  Cl  Cl546  1  0.10803906  0.02283952  0.24752045  1
  Cl  Cl547  1  0.11124605  0.35481385  0.25492344  1
  Cl  Cl548  1  0.11627325  0.68794107  0.24806776  1
  Cl  Cl549  1  0.61279644  0.02268138  0.25248746  1
  Cl  Cl550  1  0.61117155  0.35612322  0.25036429  1
  Cl  Cl551  1  0.61181442  0.68895215  0.25217850  1
