# generated using pymatgen
data_H8PbC4(N3Cl2)2
_symmetry_space_group_name_H-M   'P 1'
_cell_length_a   16.62437962
_cell_length_b   22.50738953
_cell_length_c   21.58961832
_cell_angle_alpha   89.99798110
_cell_angle_beta   89.98602360
_cell_angle_gamma   89.99167341
_symmetry_Int_Tables_number   1
_chemical_formula_structural   H8PbC4(N3Cl2)2
_chemical_formula_sum   'H192 Pb24 C96 N144 Cl96'
_cell_volume   8078.21711839
_cell_formula_units_Z   24
loop_
 _symmetry_equiv_pos_site_id
 _symmetry_equiv_pos_as_xyz
  1  'x, y, z'
loop_
 _atom_site_type_symbol
 _atom_site_label
 _atom_site_symmetry_multiplicity
 _atom_site_fract_x
 _atom_site_fract_y
 _atom_site_fract_z
 _atom_site_occupancy
  H  H0  1  0.00717248  0.03132947  0.68225164  1
  H  H1  1  -0.00743717  0.36522301  0.67807138  1
  H  H2  1  -0.00165718  0.69758111  0.68143851  1
  H  H3  1  0.50452638  0.02888550  0.67639840  1
  H  H4  1  0.50475136  0.36585230  0.67644936  1
  H  H5  1  0.50783240  0.69783655  0.68268722  1
  H  H6  1  -0.00603461  0.30328274  0.17788364  1
  H  H7  1  -0.00429323  0.63824895  0.17765205  1
  H  H8  1  -0.00855490  0.96976710  0.17876320  1
  H  H9  1  0.49448603  0.30246803  0.17777943  1
  H  H10  1  0.50260411  0.63506736  0.18223568  1
  H  H11  1  0.49762904  0.97099193  0.18179314  1
  H  H12  1  0.01068900  0.03145514  0.82256012  1
  H  H13  1  0.00514740  0.36430982  0.82134708  1
  H  H14  1  -0.00057998  0.69634435  0.82216715  1
  H  H15  1  0.49858577  0.03333621  0.82037362  1
  H  H16  1  0.50281752  0.36342814  0.81762338  1
  H  H17  1  0.50799037  0.69570936  0.82177685  1
  H  H18  1  0.01395793  0.30265319  0.31937857  1
  H  H19  1  0.00102042  0.63232556  0.31917438  1
  H  H20  1  -0.00484645  0.96892750  0.32141733  1
  H  H21  1  0.48866654  0.29927672  0.32091168  1
  H  H22  1  0.50017984  0.63483207  0.32382809  1
  H  H23  1  0.50673136  0.96802868  0.32137876  1
  H  H24  1  0.24590057  0.19995399  0.68258827  1
  H  H25  1  0.23925539  0.53088369  0.67761167  1
  H  H26  1  0.23864710  0.86360377  0.67912382  1
  H  H27  1  0.75911514  0.19830400  0.67424658  1
  H  H28  1  0.76346014  0.53102501  0.67617156  1
  H  H29  1  0.75522927  0.86466045  0.68122126  1
  H  H30  1  0.25381003  0.13615963  0.17578311  1
  H  H31  1  0.24449130  0.46835708  0.18287237  1
  H  H32  1  0.24994000  0.80229806  0.17979928  1
  H  H33  1  0.74046279  0.13656214  0.18027721  1
  H  H34  1  0.75880097  0.46945571  0.18138037  1
  H  H35  1  0.74929831  0.80088312  0.17960827  1
  H  H36  1  0.24902908  0.19446425  0.82127219  1
  H  H37  1  0.25332993  0.53316767  0.82022228  1
  H  H38  1  0.25911212  0.86412903  0.81830053  1
  H  H39  1  0.75440498  0.19842722  0.82009242  1
  H  H40  1  0.75431846  0.53035982  0.81806362  1
  H  H41  1  0.73937963  0.86277648  0.82186924  1
  H  H42  1  0.24526057  0.13285379  0.32161838  1
  H  H43  1  0.25005293  0.46871372  0.32385840  1
  H  H44  1  0.25036226  0.80352902  0.31936710  1
  H  H45  1  0.74740479  0.13855884  0.31964343  1
  H  H46  1  0.76001959  0.47038549  0.32402554  1
  H  H47  1  0.75440663  0.80212228  0.31930257  1
  H  H48  1  0.11522198  0.05643376  0.59703607  1
  H  H49  1  0.13036315  0.38469478  0.62230023  1
  H  H50  1  0.12613878  0.72108548  0.61185517  1
  H  H51  1  0.61280763  0.05909746  0.59462776  1
  H  H52  1  0.62908905  0.39119539  0.60633544  1
  H  H53  1  0.62647656  0.72112436  0.60717744  1
  H  H54  1  0.38238232  0.27294334  0.09954682  1
  H  H55  1  0.37771692  0.61352315  0.11272887  1
  H  H56  1  0.37400454  0.94793872  0.10938143  1
  H  H57  1  0.88706164  0.27440770  0.09493610  1
  H  H58  1  0.88452956  0.61147986  0.09630449  1
  H  H59  1  0.87594882  0.94242334  0.10181461  1
  H  H60  1  0.36472486  0.05280465  0.88342479  1
  H  H61  1  0.37446682  0.38663638  0.88608062  1
  H  H62  1  0.37032502  0.71669853  0.87733034  1
  H  H63  1  0.87364817  0.04773029  0.87632233  1
  H  H64  1  0.87161078  0.38736931  0.88153534  1
  H  H65  1  0.87256975  0.71993606  0.89085020  1
  H  H66  1  0.12415827  0.27775314  0.40165347  1
  H  H67  1  0.11596480  0.61129026  0.39607921  1
  H  H68  1  0.12880681  0.94689841  0.38175701  1
  H  H69  1  0.63121808  0.28542072  0.37050978  1
  H  H70  1  0.62110471  0.61026968  0.39699718  1
  H  H71  1  0.62701101  0.94394787  0.39482515  1
  H  H72  1  0.37261035  0.21960635  0.61399671  1
  H  H73  1  0.37878914  0.54737280  0.62218953  1
  H  H74  1  0.37304199  0.88543133  0.61821126  1
  H  H75  1  0.86801569  0.22807798  0.59395001  1
  H  H76  1  0.87410246  0.55672282  0.59494071  1
  H  H77  1  0.86910367  0.88912662  0.60177711  1
  H  H78  1  0.12817708  0.11344532  0.10966305  1
  H  H79  1  0.12962736  0.44458184  0.10548277  1
  H  H80  1  0.12956922  0.77916457  0.10434340  1
  H  H81  1  0.63413667  0.10797625  0.09512985  1
  H  H82  1  0.62809586  0.44794788  0.11502220  1
  H  H83  1  0.63253163  0.77706127  0.10534316  1
  H  H84  1  0.12031186  0.21755559  0.88790398  1
  H  H85  1  0.11748442  0.55076618  0.87903647  1
  H  H86  1  0.12306503  0.88374960  0.87482626  1
  H  H87  1  0.61821867  0.21835594  0.88006385  1
  H  H88  1  0.62112837  0.55091872  0.88021047  1
  H  H89  1  0.63010634  0.89091611  0.90485918  1
  H  H90  1  0.38513838  0.11561446  0.37537132  1
  H  H91  1  0.36798841  0.44246289  0.39827861  1
  H  H92  1  0.37277037  0.78038108  0.39112135  1
  H  H93  1  0.88037764  0.11607536  0.37946400  1
  H  H94  1  0.86900327  0.44319540  0.40517841  1
  H  H95  1  0.87525562  0.77804382  0.39445761  1
  H  H96  1  0.38691371  0.27603821  0.40677962  1
  H  H97  1  0.37237429  0.61199395  0.39004569  1
  H  H98  1  0.37821620  0.94772873  0.38545766  1
  H  H99  1  0.87677580  0.28284279  0.37866327  1
  H  H100  1  0.86749505  0.61504782  0.38155138  1
  H  H101  1  0.88066524  0.94242696  0.39979648  1
  H  H102  1  0.11891972  0.05740509  0.90441090  1
  H  H103  1  0.11969204  0.39125648  0.89954921  1
  H  H104  1  0.12127926  0.72250321  0.89348499  1
  H  H105  1  0.61273994  0.05937528  0.90098405  1
  H  H106  1  0.62355030  0.38793995  0.89067438  1
  H  H107  1  0.61709299  0.72350834  0.90356260  1
  H  H108  1  0.13309750  0.28023680  0.12472505  1
  H  H109  1  0.13120766  0.61520470  0.11828924  1
  H  H110  1  0.12399796  0.95087681  0.11410087  1
  H  H111  1  0.62938996  0.28143442  0.11730892  1
  H  H112  1  0.62675321  0.61429505  0.11337015  1
  H  H113  1  0.62369302  0.94465860  0.11483132  1
  H  H114  1  0.36709745  0.04676359  0.61855148  1
  H  H115  1  0.38042883  0.38533436  0.60441381  1
  H  H116  1  0.37788277  0.71998649  0.61597616  1
  H  H117  1  0.87042036  0.05336197  0.62541424  1
  H  H118  1  0.88454450  0.39172788  0.59405512  1
  H  H119  1  0.87796186  0.71951428  0.60528687  1
  H  H120  1  0.13959071  0.10523546  0.40605653  1
  H  H121  1  0.11924914  0.44686174  0.38820987  1
  H  H122  1  0.12311457  0.78068755  0.38805512  1
  H  H123  1  0.63283232  0.10831210  0.39701169  1
  H  H124  1  0.62292347  0.44835223  0.38103665  1
  H  H125  1  0.62670164  0.78077876  0.38765374  1
  H  H126  1  0.36907207  0.21965833  0.89708012  1
  H  H127  1  0.36573607  0.55686533  0.89871110  1
  H  H128  1  0.37055058  0.88873080  0.89815797  1
  H  H129  1  0.86652330  0.22380257  0.89977015  1
  H  H130  1  0.87006333  0.55368655  0.89324994  1
  H  H131  1  0.87639503  0.88375844  0.88015345  1
  H  H132  1  0.37656279  0.11319081  0.10647786  1
  H  H133  1  0.37809409  0.44935917  0.12262069  1
  H  H134  1  0.37849232  0.77839741  0.11310064  1
  H  H135  1  0.87934240  0.11662716  0.12464705  1
  H  H136  1  0.87609455  0.44387877  0.10297413  1
  H  H137  1  0.88158549  0.78315520  0.11566814  1
  H  H138  1  0.12239694  0.22271778  0.60996066  1
  H  H139  1  0.13375500  0.55974465  0.59412717  1
  H  H140  1  0.12541708  0.89190645  0.60077500  1
  H  H141  1  0.62202208  0.21902997  0.61770728  1
  H  H142  1  0.62726102  0.55114956  0.61715472  1
  H  H143  1  0.62093753  0.88652552  0.61922259  1
  H  H144  1  0.21362585  0.07806743  0.50559628  1
  H  H145  1  0.18860375  0.41957651  -0.00353867  1
  H  H146  1  0.58598075  0.58358180  0.00205263  1
  H  H147  1  0.80221028  0.25249688  1.00612780  1
  H  H148  1  0.94682490  0.91542372  0.50289150  1
  H  H149  1  0.34996619  0.42177170  0.00931035  1
  H  H150  1  0.56974616  0.41871969  0.99822612  1
  H  H151  1  0.54400718  0.08583519  1.00220394  1
  H  H152  1  0.35901961  0.58222764  0.51565322  1
  H  H153  1  0.70496570  0.91406562  1.00579901  1
  H  H154  1  0.30504381  0.58477796  1.00616142  1
  H  H155  1  0.41402943  0.91729514  0.49825874  1
  H  H156  1  0.04053831  0.08164189  0.49740549  1
  H  H157  1  0.57941974  0.91719928  0.00300839  1
  H  H158  1  0.39076243  0.08066970  0.51004671  1
  H  H159  1  0.81325492  0.58362592  1.00248020  1
  H  H160  1  0.58413021  0.40906607  0.50150204  1
  H  H161  1  0.33795394  0.74858099  0.00303975  1
  H  H162  1  0.64504110  0.25203945  0.50724017  1
  H  H163  1  0.54472541  0.74765292  1.00542392  1
  H  H164  1  0.46321421  0.25156235  0.51175581  1
  H  H165  1  0.64695080  0.24792392  0.98748506  1
  H  H166  1  0.14651826  0.91462529  0.98816986  1
  H  H167  1  0.32426405  0.75326057  0.50097881  1
  H  H168  1  0.05708946  0.58676143  0.50673725  1
  H  H169  1  0.10447143  0.58545380  0.00980618  1
  H  H170  1  0.32896082  0.24707782  0.50210621  1
  H  H171  1  0.05231345  0.25180980  0.50715877  1
  H  H172  1  0.89301513  0.07648610  -0.00771152  1
  H  H173  1  0.30601307  0.91594966  1.00570250  1
  H  H174  1  0.42725786  0.93010737  0.00226451  1
  H  H175  1  0.43156730  0.42435728  0.50528028  1
  H  H176  1  0.05378714  0.41822648  1.00255101  1
  H  H177  1  0.17476009  0.25089647  0.50493039  1
  H  H178  1  0.56977828  0.75240861  0.50087312  1
  H  H179  1  0.21063581  0.57397489  0.49341766  1
  H  H180  1  0.81687987  0.74402617  0.49535913  1
  H  H181  1  0.69628136  0.08775721  0.50135264  1
  H  H182  1  0.56868686  0.58225464  0.50086630  1
  H  H183  1  0.71184950  0.08434135  -0.00475180  1
  H  H184  1  0.16026897  0.24499433  0.99857542  1
  H  H185  1  0.16627169  0.75392317  0.49336187  1
  H  H186  1  0.80374696  0.91575153  0.49539172  1
  H  H187  1  0.53863031  0.07328013  0.49228768  1
  H  H188  1  0.96131251  0.24767904  -0.00507589  1
  H  H189  1  0.68917244  0.74792512  -0.00514650  1
  H  H190  1  0.15455444  0.41755151  0.49561776  1
  H  H191  1  0.85055159  0.08500058  0.49171777  1
  Pb  Pb192  1  0.24196189  0.04678270  0.74633420  1
  Pb  Pb193  1  0.24853139  0.38475943  0.75108080  1
  Pb  Pb194  1  0.24604680  0.71389740  0.74617807  1
  Pb  Pb195  1  0.74006003  0.05026890  0.74846926  1
  Pb  Pb196  1  0.74617295  0.37894392  0.74373963  1
  Pb  Pb197  1  0.75135675  0.71474363  0.74906539  1
  Pb  Pb198  1  0.25412679  0.28590771  0.25867601  1
  Pb  Pb199  1  0.24768990  0.61718067  0.25740022  1
  Pb  Pb200  1  0.25209210  0.95555294  0.24738958  1
  Pb  Pb201  1  0.75472251  0.28713655  0.24316701  1
  Pb  Pb202  1  0.75079018  0.62137176  0.24692407  1
  Pb  Pb203  1  0.75647527  0.95069922  0.24943293  1
  Pb  Pb204  1  -0.00533216  0.21705946  0.75104362  1
  Pb  Pb205  1  -0.00537316  0.54616184  0.74408785  1
  Pb  Pb206  1  -0.00499373  0.88020351  0.73938768  1
  Pb  Pb207  1  0.49091194  0.21494741  0.75228887  1
  Pb  Pb208  1  0.50154560  0.54918341  0.74961199  1
  Pb  Pb209  1  0.49711474  0.88012616  0.75907591  1
  Pb  Pb210  1  0.00606761  0.12035218  0.26061145  1
  Pb  Pb211  1  -0.00278968  0.45170224  0.24647187  1
  Pb  Pb212  1  0.00398578  0.78761275  0.25114677  1
  Pb  Pb213  1  0.50694542  0.11892204  0.24498084  1
  Pb  Pb214  1  0.50262570  0.45303350  0.25579559  1
  Pb  Pb215  1  0.49894308  0.78562270  0.24696616  1
  C  C216  1  -0.00222779  0.04624781  0.63506003  1
  C  C217  1  0.00242733  0.38035033  0.63111623  1
  C  C218  1  0.00089220  0.71251726  0.63365462  1
  C  C219  1  0.49446099  0.04454346  0.62928593  1
  C  C220  1  0.50469822  0.38090795  0.62850065  1
  C  C221  1  0.50382483  0.71267899  0.63501844  1
  C  C222  1  0.00450916  0.28761703  0.13105811  1
  C  C223  1  0.00428004  0.62188959  0.13084292  1
  C  C224  1  -0.00255736  0.95485218  0.13141615  1
  C  C225  1  0.50254205  0.28656591  0.13096341  1
  C  C226  1  0.50281535  0.62073185  0.13433316  1
  C  C227  1  0.49794885  0.95522138  0.13418288  1
  C  C228  1  0.00019258  0.04555332  0.86976806  1
  C  C229  1  -0.00089177  0.37988114  0.86854215  1
  C  C230  1  -0.00249089  0.71253199  0.86924289  1
  C  C231  1  0.49227553  0.04771620  0.86812171  1
  C  C232  1  0.50002714  0.37908837  0.86511971  1
  C  C233  1  0.49872478  0.71102617  0.86891905  1
  C  C234  1  0.00482318  0.28776421  0.36667953  1
  C  C235  1  -0.00493423  0.61969944  0.36729078  1
  C  C236  1  0.00127775  0.95359165  0.36867707  1
  C  C237  1  0.50238743  0.28658412  0.36829034  1
  C  C238  1  0.49816705  0.61906598  0.37127304  1
  C  C239  1  0.50335712  0.95293140  0.36892975  1
  C  C240  1  0.24651001  0.21447496  0.63447618  1
  C  C241  1  0.25089452  0.54590829  0.63048817  1
  C  C242  1  0.24600739  0.87964939  0.63233554  1
  C  C243  1  0.74913431  0.21459468  0.62760996  1
  C  C244  1  0.75469415  0.54629043  0.62919077  1
  C  C245  1  0.74819813  0.87970856  0.63382148  1
  C  C246  1  0.25288125  0.12044591  0.12831073  1
  C  C247  1  0.25104978  0.45402172  0.13508887  1
  C  C248  1  0.25275742  0.78653056  0.13240741  1
  C  C249  1  0.75093303  0.12105150  0.13334804  1
  C  C250  1  0.75447225  0.45445507  0.13367667  1
  C  C251  1  0.75420413  0.78688004  0.13179768  1
  C  C252  1  0.24618945  0.21040066  0.86858784  1
  C  C253  1  0.24588426  0.54707089  0.86798112  1
  C  C254  1  0.25061957  0.87913537  0.86570124  1
  C  C255  1  0.74569365  0.21362941  0.86746628  1
  C  C256  1  0.74875429  0.54510577  0.86560675  1
  C  C257  1  0.74801175  0.87831865  0.86900741  1
  C  C258  1  0.25654886  0.11903021  0.36903361  1
  C  C259  1  0.24535966  0.45265185  0.37105040  1
  C  C260  1  0.24843557  0.78742636  0.36683627  1
  C  C261  1  0.75344033  0.12240898  0.36688646  1
  C  C262  1  0.75021780  0.45398539  0.37043663  1
  C  C263  1  0.75248311  0.78649228  0.36678535  1
  C  C264  1  0.45127766  0.59338106  0.46391661  1
  C  C265  1  0.31947966  0.09521268  0.45600361  1
  C  C266  1  0.19328134  0.90461047  0.95427343  1
  C  C267  1  0.22278345  0.42926882  0.03822510  1
  C  C268  1  0.54108024  0.92704346  0.04254081  1
  C  C269  1  0.72393613  0.75987765  0.03571644  1
  C  C270  1  0.53390206  0.74061191  0.54111235  1
  C  C271  1  0.76996982  0.42131153  0.46481889  1
  C  C272  1  0.27461569  0.90574962  0.96270038  1
  C  C273  1  0.22117694  0.91155195  0.53837375  1
  C  C274  1  0.02379143  0.26127554  0.46289428  1
  C  C275  1  0.69637970  0.57044446  0.95557786  1
  C  C276  1  0.47896245  0.25584260  0.03634317  1
  C  C277  1  0.77195295  0.90599790  0.53830630  1
  C  C278  1  0.26979063  0.57364811  0.96525360  1
  C  C279  1  0.02310361  0.59646727  0.46488967  1
  C  C280  1  0.97001026  0.92522417  0.03713857  1
  C  C281  1  0.03196792  0.74353431  0.96124839  1
  C  C282  1  0.18891637  0.57117538  0.95687682  1
  C  C283  1  0.29490986  0.75901224  0.04101724  1
  C  C284  1  0.80508510  0.76247873  0.04124358  1
  C  C285  1  0.53895672  0.92604748  0.46330738  1
  C  C286  1  0.77109584  0.24156607  0.96326422  1
  C  C287  1  0.45742501  0.92673913  0.46174658  1
  C  C288  1  0.02160486  0.07227245  0.96659265  1
  C  C289  1  0.53278968  0.40704807  0.95846112  1
  C  C290  1  0.29022201  0.23802786  0.54155293  1
  C  C291  1  0.57013993  0.26528716  0.45362016  1
  C  C292  1  0.06691090  0.25757299  0.04590877  1
  C  C293  1  0.54301996  0.59436268  0.03998005  1
  C  C294  1  0.43787185  0.73823444  0.95611059  1
  C  C295  1  0.94199694  0.59795875  0.45802417  1
  C  C296  1  0.46135341  0.59487761  0.04104339  1
  C  C297  1  0.77619983  0.57630339  0.53410775  1
  C  C298  1  0.30446545  0.43078416  0.04436118  1
  C  C299  1  0.94448495  0.41068895  0.95692172  1
  C  C300  1  0.49053503  0.26190273  0.46728300  1
  C  C301  1  0.21082832  0.09229203  0.03735043  1
  C  C302  1  0.77768023  0.57227641  0.96181679  1
  C  C303  1  0.80686799  0.09419205  0.45545262  1
  C  C304  1  0.05605405  0.92334554  0.45712723  1
  C  C305  1  0.29146551  0.09232315  0.03640233  1
  C  C306  1  0.77186865  0.24782934  0.53219542  1
  C  C307  1  0.94095300  0.06874721  0.95869896  1
  C  C308  1  0.05918659  0.40660652  0.54372641  1
  C  C309  1  0.27865594  0.42311429  0.46610542  1
  C  C310  1  0.28638666  0.76187621  0.46097582  1
  C  C311  1  0.20334706  0.23625661  0.96042001  1
  N  N312  1  0.94532960  0.26192894  0.45486828  1
  N  N313  1  0.45458138  0.73990056  0.54354199  1
  N  N314  1  0.98264671  0.40940470  0.53346910  1
  N  N315  1  0.54434003  0.41193205  0.53831571  1
  N  N316  1  0.97740330  0.92338319  0.46242168  1
  N  N317  1  0.01459385  0.07418701  0.54054000  1
  N  N318  1  0.78343225  0.76065094  0.45949630  1
  N  N319  1  0.69299731  0.90583828  0.54412785  1
  N  N320  1  0.78421744  0.42747333  0.03825233  1
  N  N321  1  0.53063666  0.59220226  0.46494062  1
  N  N322  1  0.93736707  0.07205807  0.54837804  1
  N  N323  1  0.73021042  0.90816918  0.96269391  1
  N  N324  1  0.55612590  0.25897272  0.04101443  1
  N  N325  1  0.51495821  0.07287746  0.96243406  1
  N  N326  1  0.23419142  0.57969014  0.53719550  1
  N  N327  1  0.95460059  0.74257964  0.96178797  1
  N  N328  1  0.05621660  0.59417694  0.04392051  1
  N  N329  1  0.96693114  0.73800319  0.53850788  1
  N  N330  1  0.69399802  0.24328441  0.54066916  1
  N  N331  1  0.51422073  0.07726959  0.53606994  1
  N  N332  1  0.21066032  0.23796627  0.54091741  1
  N  N333  1  0.20674322  0.76033059  0.45810863  1
  N  N334  1  0.97881505  0.59256563  0.03540887  1
  N  N335  1  0.46626212  0.39853726  0.53411972  1
  N  N336  1  0.81276574  0.09425756  0.04813164  1
  N  N337  1  0.21567829  0.75860748  0.03780988  1
  N  N338  1  0.04370689  0.73857007  0.54079670  1
  N  N339  1  0.45355591  0.40640214  0.95736036  1
  N  N340  1  0.69895805  0.57495145  0.54001711  1
  N  N341  1  0.80751447  0.90573814  0.95546280  1
  N  N342  1  0.98882008  0.25577638  0.03676881  1
  N  N343  1  0.31132196  0.56648050  0.54435860  1
  N  N344  1  0.70783666  0.42862121  0.04195495  1
  N  N345  1  0.43712742  0.06527418  0.54206991  1
  N  N346  1  0.69304822  0.42243304  0.45772163  1
  N  N347  1  0.29849610  0.90890852  0.54227815  1
  N  N348  1  0.02309234  0.41055656  0.96210121  1
  N  N349  1  0.28240116  0.23804056  0.96353145  1
  N  N350  1  0.46132705  0.92790452  0.04164817  1
  N  N351  1  0.04710165  0.92816745  0.03983474  1
  N  N352  1  0.24135024  0.09157590  0.46497499  1
  N  N353  1  0.19977577  0.42550558  0.46141618  1
  N  N354  1  0.43739539  0.07060467  0.95799951  1
  N  N355  1  0.72756639  0.09134502  0.46035495  1
  N  N356  1  0.70511639  0.76072606  0.45853714  1
  N  N357  1  0.73600592  0.09149080  0.03914674  1
  N  N358  1  0.69221763  0.24014480  0.95524569  1
  N  N359  1  0.51642694  0.74069187  0.96375570  1
  N  N360  1  0.05273276  0.05626131  0.59209426  1
  N  N361  1  0.07367549  0.38951736  0.60341495  1
  N  N362  1  0.06566999  0.72320134  0.59976598  1
  N  N363  1  0.55063576  0.05483990  0.58700195  1
  N  N364  1  0.56875533  0.39053979  0.59342307  1
  N  N365  1  0.56560395  0.72383567  0.59676986  1
  N  N366  1  0.44380295  0.27240921  0.09028674  1
  N  N367  1  0.43745648  0.61054619  0.09805661  1
  N  N368  1  0.43512113  0.94850180  0.09739127  1
  N  N369  1  0.94930900  0.27703092  0.08844946  1
  N  N370  1  0.94683758  0.60953945  0.08978428  1
  N  N371  1  0.93699363  0.94122923  0.09211203  1
  N  N372  1  0.42361043  0.05524082  0.89901388  1
  N  N373  1  0.43470276  0.38884387  0.89873961  1
  N  N374  1  0.42702726  0.72124663  0.89686666  1
  N  N375  1  0.92888620  0.05252816  0.89719579  1
  N  N376  1  0.92940000  0.39203201  0.89891950  1
  N  N377  1  0.93282414  0.72281590  0.90320004  1
  N  N378  1  0.06220418  0.27645201  0.40886658  1
  N  N379  1  0.05520708  0.61022117  0.40711073  1
  N  N380  1  0.07098978  0.94161955  0.39899260  1
  N  N381  1  0.57666543  0.27998786  0.39329244  1
  N  N382  1  0.55990834  0.60824680  0.40777790  1
  N  N383  1  0.56675563  0.94168756  0.40744712  1
  N  N384  1  0.31291144  0.22306109  0.59950129  1
  N  N385  1  0.32185509  0.55518424  0.60455561  1
  N  N386  1  0.31399729  0.88876676  0.60232404  1
  N  N387  1  0.80661907  0.22968213  0.58561451  1
  N  N388  1  0.81281709  0.55895807  0.58731221  1
  N  N389  1  0.80747132  0.89042514  0.59309226  1
  N  N390  1  0.18695885  0.10909352  0.09353176  1
  N  N391  1  0.19081542  0.44367572  0.09523620  1
  N  N392  1  0.19123364  0.77591868  0.09497064  1
  N  N393  1  0.69655320  0.10984437  0.09008880  1
  N  N394  1  0.68816833  0.44541162  0.10105989  1
  N  N395  1  0.69316984  0.77539513  0.09345577  1
  N  N396  1  0.17966622  0.22022248  0.90206459  1
  N  N397  1  0.17503240  0.55536274  0.89766860  1
  N  N398  1  0.18000435  0.88837785  0.89410504  1
  N  N399  1  0.67682730  0.22311545  0.89621845  1
  N  N400  1  0.67938083  0.55435295  0.89730875  1
  N  N401  1  0.69204877  0.88924199  0.91108512  1
  N  N402  1  0.32943767  0.11201522  0.39633030  1
  N  N403  1  0.30714123  0.43974600  0.40996732  1
  N  N404  1  0.31252766  0.77759964  0.40391859  1
  N  N405  1  0.82311354  0.11189127  0.39702752  1
  N  N406  1  0.80745482  0.44040754  0.41263728  1
  N  N407  1  0.81384024  0.77377302  0.40338286  1
  N  N408  1  0.44884585  0.27534455  0.41279297  1
  N  N409  1  0.43116449  0.60934299  0.40559243  1
  N  N410  1  0.43668497  0.94338546  0.40167903  1
  N  N411  1  0.93546147  0.27855964  0.39527511  1
  N  N412  1  0.92563097  0.61166043  0.39907286  1
  N  N413  1  0.94244795  0.94374651  0.40865367  1
  N  N414  1  0.05715715  0.05826158  0.91299508  1
  N  N415  1  0.05800229  0.38976331  0.90839604  1
  N  N416  1  0.06113803  0.72538329  0.90566485  1
  N  N417  1  0.55027329  0.05872190  0.90836416  1
  N  N418  1  0.56273014  0.39068650  0.90219001  1
  N  N419  1  0.55482391  0.72142518  0.91083008  1
  N  N420  1  0.07675779  0.27632344  0.10462311  1
  N  N421  1  0.07283161  0.61198199  0.10171560  1
  N  N422  1  0.06456810  0.94720821  0.09975829  1
  N  N423  1  0.57099516  0.27834935  0.10128353  1
  N  N424  1  0.56750674  0.61076537  0.09933972  1
  N  N425  1  0.56398122  0.94214299  0.10035219  1
  N  N426  1  0.42430476  0.05450439  0.60218556  1
  N  N427  1  0.44102528  0.39104903  0.59330446  1
  N  N428  1  0.43771442  0.72261407  0.60237036  1
  N  N429  1  0.92749971  0.05655481  0.60770339  1
  N  N430  1  0.94701082  0.39247826  0.58917629  1
  N  N431  1  0.93941713  0.72184282  0.59578128  1
  N  N432  1  0.20202500  0.10713400  0.41155702  1
  N  N433  1  0.17879273  0.44365256  0.40291872  1
  N  N434  1  0.18358450  0.77639110  0.40024943  1
  N  N435  1  0.69461993  0.11186439  0.40657127  1
  N  N436  1  0.68076300  0.44305511  0.39755802  1
  N  N437  1  0.68674198  0.77809203  0.40087921  1
  N  N438  1  0.30735150  0.22150632  0.90617905  1
  N  N439  1  0.30436420  0.55831878  0.90840457  1
  N  N440  1  0.30921822  0.88985522  0.90696637  1
  N  N441  1  0.80467572  0.22520099  0.90880864  1
  N  N442  1  0.80918800  0.55646756  0.90447584  1
  N  N443  1  0.81809610  0.88869730  0.89679833  1
  N  N444  1  0.31754372  0.10927874  0.09190965  1
  N  N445  1  0.32046194  0.44592600  0.10460770  1
  N  N446  1  0.31902088  0.77568192  0.09903314  1
  N  N447  1  0.82184123  0.11108202  0.10694397  1
  N  N448  1  0.81442104  0.44340336  0.09488472  1
  N  N449  1  0.82304470  0.77850541  0.09914227  1
  N  N450  1  0.18358337  0.22475386  0.59860320  1
  N  N451  1  0.19604713  0.55670429  0.58735877  1
  N  N452  1  0.18661972  0.89386791  0.59221145  1
  N  N453  1  0.67952127  0.22292943  0.59966181  1
  N  N454  1  0.68575232  0.55618659  0.60087846  1
  N  N455  1  0.68017176  0.88945492  0.60355270  1
  Cl  Cl456  1  0.23596252  0.05675532  0.60113862  1
  Cl  Cl457  1  0.25749928  0.38662237  0.61232403  1
  Cl  Cl458  1  0.24942595  0.72255063  0.60932504  1
  Cl  Cl459  1  0.73355396  0.06389203  0.60582050  1
  Cl  Cl460  1  0.75452517  0.38863275  0.60867406  1
  Cl  Cl461  1  0.75518250  0.72016749  0.61265847  1
  Cl  Cl462  1  0.25933949  0.27501830  0.12743559  1
  Cl  Cl463  1  0.25420747  0.61368088  0.12511577  1
  Cl  Cl464  1  0.25237526  0.94627424  0.11213777  1
  Cl  Cl465  1  0.76276275  0.27333442  0.10724616  1
  Cl  Cl466  1  0.76134755  0.61475608  0.11290614  1
  Cl  Cl467  1  0.74713692  0.94208077  0.10973252  1
  Cl  Cl468  1  0.23987009  0.05521373  0.87698306  1
  Cl  Cl469  1  0.24369498  0.39067437  0.88462299  1
  Cl  Cl470  1  0.24617602  0.71962899  0.87643647  1
  Cl  Cl471  1  0.73085042  0.06204978  0.89542567  1
  Cl  Cl472  1  0.74680608  0.38335678  0.87498011  1
  Cl  Cl473  1  0.73962967  0.72311576  0.88421491  1
  Cl  Cl474  1  0.25167247  0.27631383  0.39930920  1
  Cl  Cl475  1  0.24426403  0.60531340  0.39501567  1
  Cl  Cl476  1  0.25192922  0.95284397  0.37737104  1
  Cl  Cl477  1  0.75538500  0.28265694  0.37398371  1
  Cl  Cl478  1  0.74259738  0.61493418  0.37979441  1
  Cl  Cl479  1  0.75790843  0.94441447  0.38486808  1
  Cl  Cl480  1  -0.00147684  0.22262723  0.61506845  1
  Cl  Cl481  1  0.00994160  0.55704482  0.60886843  1
  Cl  Cl482  1  -0.00626035  0.89316857  0.60217373  1
  Cl  Cl483  1  0.49594655  0.21829265  0.61658791  1
  Cl  Cl484  1  0.50235846  0.55116336  0.61207518  1
  Cl  Cl485  1  0.49671956  0.88812613  0.62717624  1
  Cl  Cl486  1  0.00364298  0.12160055  0.12994348  1
  Cl  Cl487  1  0.00376949  0.44081184  0.10624671  1
  Cl  Cl488  1  0.00672756  0.78372031  0.11973139  1
  Cl  Cl489  1  0.51439255  0.10810017  0.10593504  1
  Cl  Cl490  1  0.50553309  0.44650735  0.12372925  1
  Cl  Cl491  1  0.50657683  0.77624355  0.10787839  1
  Cl  Cl492  1  -0.01020046  0.22507939  0.89252904  1
  Cl  Cl493  1  -0.00623105  0.54788761  0.87568851  1
  Cl  Cl494  1  -0.00150690  0.88240888  0.86941086  1
  Cl  Cl495  1  0.49340057  0.21835283  0.88501538  1
  Cl  Cl496  1  0.49331496  0.55526060  0.88046413  1
  Cl  Cl497  1  0.50225542  0.89254023  0.89913223  1
  Cl  Cl498  1  0.01755245  0.10486858  0.40098401  1
  Cl  Cl499  1  -0.00411725  0.44852511  0.37771514  1
  Cl  Cl500  1  -0.00161818  0.78427221  0.38531767  1
  Cl  Cl501  1  0.51292429  0.10215535  0.38920143  1
  Cl  Cl502  1  0.49162357  0.44574256  0.39274070  1
  Cl  Cl503  1  0.50152749  0.77972235  0.37937049  1
  Cl  Cl504  1  0.35883711  0.14420978  0.74539592  1
  Cl  Cl505  1  0.36006955  0.47588307  0.74334758  1
  Cl  Cl506  1  0.36054271  0.81262541  0.74839310  1
  Cl  Cl507  1  0.85725542  0.14720652  0.74783965  1
  Cl  Cl508  1  0.85795147  0.47970190  0.74855040  1
  Cl  Cl509  1  0.85587528  0.81278156  0.75123082  1
  Cl  Cl510  1  0.14324969  0.18554527  0.25410093  1
  Cl  Cl511  1  0.14549542  0.52054113  0.25125194  1
  Cl  Cl512  1  0.14297704  0.85369728  0.25294963  1
  Cl  Cl513  1  0.64185878  0.18718834  0.25027333  1
  Cl  Cl514  1  0.63758817  0.52114845  0.25370163  1
  Cl  Cl515  1  0.63964846  0.85403068  0.25031560  1
  Cl  Cl516  1  0.14066591  0.14556852  0.74340274  1
  Cl  Cl517  1  0.14275385  0.47882397  0.74742129  1
  Cl  Cl518  1  0.13605091  0.81519455  0.74668671  1
  Cl  Cl519  1  0.63871958  0.14550038  0.74946150  1
  Cl  Cl520  1  0.63603651  0.47991013  0.74496955  1
  Cl  Cl521  1  0.63545304  0.81366314  0.74698768  1
  Cl  Cl522  1  0.36631492  0.18545324  0.25631388  1
  Cl  Cl523  1  0.36539313  0.52055602  0.25189972  1
  Cl  Cl524  1  0.36311112  0.85458595  0.24803386  1
  Cl  Cl525  1  0.86322085  0.18614790  0.25170239  1
  Cl  Cl526  1  0.86075301  0.51898924  0.25130568  1
  Cl  Cl527  1  0.86141431  0.85519661  0.24670024  1
  Cl  Cl528  1  0.10968266  0.31083583  0.74571126  1
  Cl  Cl529  1  0.11232503  0.64366588  0.75014415  1
  Cl  Cl530  1  0.10484180  0.98109659  0.74993724  1
  Cl  Cl531  1  0.60968450  0.31113459  0.74633062  1
  Cl  Cl532  1  0.60368129  0.64536529  0.75141581  1
  Cl  Cl533  1  0.60873152  0.98092048  0.74875793  1
  Cl  Cl534  1  0.39203911  0.02121602  0.25015533  1
  Cl  Cl535  1  0.39104282  0.35280039  0.25250580  1
  Cl  Cl536  1  0.39203298  0.68827626  0.25243446  1
  Cl  Cl537  1  0.88953203  0.02248221  0.25091914  1
  Cl  Cl538  1  0.89432505  0.35268416  0.24913819  1
  Cl  Cl539  1  0.89120300  0.68711589  0.25184949  1
  Cl  Cl540  1  0.39106620  0.31189014  0.74605750  1
  Cl  Cl541  1  0.38123594  0.64438257  0.74443727  1
  Cl  Cl542  1  0.38746263  0.98109223  0.74942628  1
  Cl  Cl543  1  0.88968780  0.31185552  0.75299325  1
  Cl  Cl544  1  0.88818753  0.64747950  0.75077587  1
  Cl  Cl545  1  0.88179145  0.98004860  0.74937229  1
  Cl  Cl546  1  0.11012080  0.01887724  0.24987957  1
  Cl  Cl547  1  0.11631371  0.35428766  0.24603068  1
  Cl  Cl548  1  0.11354444  0.68629348  0.25097956  1
  Cl  Cl549  1  0.61010792  0.02119232  0.25047941  1
  Cl  Cl550  1  0.61401727  0.35213951  0.25266597  1
  Cl  Cl551  1  0.61186221  0.68706798  0.24951620  1
