# generated using pymatgen
data_H8PbC4(N3Cl2)2
_symmetry_space_group_name_H-M   'P 1'
_cell_length_a   16.62126045
_cell_length_b   22.49755889
_cell_length_c   21.58762520
_cell_angle_alpha   90.00042839
_cell_angle_beta   90.00275984
_cell_angle_gamma   90.00145657
_symmetry_Int_Tables_number   1
_chemical_formula_structural   H8PbC4(N3Cl2)2
_chemical_formula_sum   'H192 Pb24 C96 N144 Cl96'
_cell_volume   8072.42875358
_cell_formula_units_Z   24
loop_
 _symmetry_equiv_pos_site_id
 _symmetry_equiv_pos_as_xyz
  1  'x, y, z'
loop_
 _atom_site_type_symbol
 _atom_site_label
 _atom_site_symmetry_multiplicity
 _atom_site_fract_x
 _atom_site_fract_y
 _atom_site_fract_z
 _atom_site_occupancy
  H  H0  1  -0.00006072  0.03176151  0.68233655  1
  H  H1  1  -0.00229011  0.36688740  0.68062140  1
  H  H2  1  -0.00222303  0.69987014  0.68031853  1
  H  H3  1  0.50463757  0.03257571  0.68102823  1
  H  H4  1  0.50009039  0.36671868  0.68015148  1
  H  H5  1  0.49962731  0.69854112  0.68025087  1
  H  H6  1  -0.00752467  0.30065526  0.18355342  1
  H  H7  1  0.00271542  0.63376920  0.18253861  1
  H  H8  1  -0.00246342  0.96615256  0.17975385  1
  H  H9  1  0.50026774  0.30004228  0.18165753  1
  H  H10  1  0.50240975  0.63254042  0.18109145  1
  H  H11  1  0.50110966  0.96745982  0.18074028  1
  H  H12  1  0.00035244  0.03268716  0.81631191  1
  H  H13  1  0.00847982  0.36708070  0.81639815  1
  H  H14  1  -0.00113773  0.69941915  0.81966562  1
  H  H15  1  0.50429137  0.03261747  0.81775168  1
  H  H16  1  0.49438930  0.36665124  0.81727043  1
  H  H17  1  0.49658890  0.69974992  0.81785810  1
  H  H18  1  -0.00504260  0.30101416  0.31970723  1
  H  H19  1  -0.00181078  0.63369353  0.31779495  1
  H  H20  1  0.00256159  0.96616734  0.31770004  1
  H  H21  1  0.50592968  0.30125830  0.31953480  1
  H  H22  1  0.49916906  0.63314710  0.32016104  1
  H  H23  1  0.49770498  0.96672749  0.31933785  1
  H  H24  1  0.24775888  0.19983556  0.68086882  1
  H  H25  1  0.25497844  0.53415716  0.67793654  1
  H  H26  1  0.24908742  0.86694142  0.68145574  1
  H  H27  1  0.75026585  0.19978006  0.68221964  1
  H  H28  1  0.75540717  0.53226736  0.68105246  1
  H  H29  1  0.75264986  0.86560595  0.68149414  1
  H  H30  1  0.24460214  0.13314074  0.18217155  1
  H  H31  1  0.25020820  0.47007382  0.17990274  1
  H  H32  1  0.25156832  0.80012989  0.18121316  1
  H  H33  1  0.75531546  0.13273608  0.18171416  1
  H  H34  1  0.75202726  0.46634737  0.18285873  1
  H  H35  1  0.75240447  0.80113564  0.18098901  1
  H  H36  1  0.24781783  0.19972582  0.81807900  1
  H  H37  1  0.24879109  0.53427928  0.81898502  1
  H  H38  1  0.24978053  0.86557859  0.81794043  1
  H  H39  1  0.75273457  0.19931247  0.81826143  1
  H  H40  1  0.74702803  0.53342543  0.81728327  1
  H  H41  1  0.74763525  0.86687668  0.81954119  1
  H  H42  1  0.24493870  0.13394252  0.31874949  1
  H  H43  1  0.25596793  0.46547132  0.32126841  1
  H  H44  1  0.24866754  0.80071739  0.31968825  1
  H  H45  1  0.75440816  0.13195939  0.31807202  1
  H  H46  1  0.75003374  0.46714575  0.31871926  1
  H  H47  1  0.75111282  0.80095360  0.31848579  1
  H  H48  1  0.12465778  0.05378914  0.61228538  1
  H  H49  1  0.12539302  0.38562090  0.61481190  1
  H  H50  1  0.12778932  0.71885196  0.61465213  1
  H  H51  1  0.62126387  0.05530633  0.60214258  1
  H  H52  1  0.62381541  0.38861326  0.60902561  1
  H  H53  1  0.62485000  0.72125689  0.61115966  1
  H  H54  1  0.37423738  0.27904015  0.11255540  1
  H  H55  1  0.37175053  0.61375325  0.11545564  1
  H  H56  1  0.37459839  0.94607688  0.10983769  1
  H  H57  1  0.87802978  0.27801850  0.10464651  1
  H  H58  1  0.87431687  0.61290837  0.11295570  1
  H  H59  1  0.87633474  0.94500701  0.10594995  1
  H  H60  1  0.37525841  0.05375075  0.88703769  1
  H  H61  1  0.37914448  0.38896176  0.89473656  1
  H  H62  1  0.38173812  0.72132371  0.89656742  1
  H  H63  1  0.87429505  0.05148923  0.88480957  1
  H  H64  1  0.87388472  0.38546378  0.87965800  1
  H  H65  1  0.87982370  0.72335431  0.89535182  1
  H  H66  1  0.12777393  0.28174967  0.38256165  1
  H  H67  1  0.12979309  0.61444334  0.38061859  1
  H  H68  1  0.11968750  0.94522623  0.39385585  1
  H  H69  1  0.62033310  0.27552793  0.39871812  1
  H  H70  1  0.62627811  0.61165976  0.39044623  1
  H  H71  1  0.62233422  0.94806309  0.38799803  1
  H  H72  1  0.37648922  0.22157144  0.61476783  1
  H  H73  1  0.37034336  0.55395339  0.60100234  1
  H  H74  1  0.38032987  0.88519468  0.61682918  1
  H  H75  1  0.87550045  0.22275437  0.61082806  1
  H  H76  1  0.86928000  0.55602819  0.60030821  1
  H  H77  1  0.87815254  0.88646176  0.61166167  1
  H  H78  1  0.12861778  0.10942634  0.10352306  1
  H  H79  1  0.12524938  0.44639750  0.10992315  1
  H  H80  1  0.12219978  0.78048229  0.11339361  1
  H  H81  1  0.62291426  0.11514175  0.11686481  1
  H  H82  1  0.62256476  0.44760307  0.11608168  1
  H  H83  1  0.62001574  0.78082277  0.11646488  1
  H  H84  1  0.12686698  0.22183248  0.89104305  1
  H  H85  1  0.12636933  0.55602374  0.89124004  1
  H  H86  1  0.12487166  0.88661661  0.89043974  1
  H  H87  1  0.62242288  0.21858983  0.88291844  1
  H  H88  1  0.62857819  0.55383305  0.89237500  1
  H  H89  1  0.62560089  0.88965242  0.89231203  1
  H  H90  1  0.37900853  0.11431720  0.38119307  1
  H  H91  1  0.37216698  0.44620135  0.39748415  1
  H  H92  1  0.37218905  0.78020312  0.39264178  1
  H  H93  1  0.87022698  0.11175457  0.39430285  1
  H  H94  1  0.87463383  0.44494623  0.39171369  1
  H  H95  1  0.87402414  0.77836400  0.39214003  1
  H  H96  1  0.37200625  0.28423647  0.38093877  1
  H  H97  1  0.37745263  0.61117898  0.39428545  1
  H  H98  1  0.37295176  0.94594438  0.39011433  1
  H  H99  1  0.87908258  0.27698448  0.39832201  1
  H  H100  1  0.88079438  0.61240215  0.39348601  1
  H  H101  1  0.87066381  0.94836425  0.38016112  1
  H  H102  1  0.12420203  0.05352451  0.88647822  1
  H  H103  1  0.12205797  0.39007620  0.89641842  1
  H  H104  1  0.12851981  0.71934483  0.88510468  1
  H  H105  1  0.62376036  0.05467365  0.89542883  1
  H  H106  1  0.62755318  0.38403589  0.87823639  1
  H  H107  1  0.63015565  0.72020723  0.88132914  1
  H  H108  1  0.12624542  0.28124698  0.11978493  1
  H  H109  1  0.12274964  0.61207959  0.10538265  1
  H  H110  1  0.12571547  0.94593393  0.11166361  1
  H  H111  1  0.62294562  0.27898054  0.10779254  1
  H  H112  1  0.62089583  0.60997497  0.10450748  1
  H  H113  1  0.62372663  0.94646280  0.10688991  1
  H  H114  1  0.37350237  0.05229551  0.61351066  1
  H  H115  1  0.37458190  0.38780264  0.60887682  1
  H  H116  1  0.37548000  0.72023731  0.60860185  1
  H  H117  1  0.87447844  0.05428473  0.61155517  1
  H  H118  1  0.87614205  0.38777153  0.60744624  1
  H  H119  1  0.87936882  0.72281595  0.60331746  1
  H  H120  1  0.13013299  0.11216788  0.39714020  1
  H  H121  1  0.12419287  0.44870104  0.38395415  1
  H  H122  1  0.12358348  0.77841010  0.39106023  1
  H  H123  1  0.62152191  0.11493855  0.38065270  1
  H  H124  1  0.62555545  0.44553815  0.39188215  1
  H  H125  1  0.62489701  0.78025126  0.38843680  1
  H  H126  1  0.37629205  0.22010094  0.88605354  1
  H  H127  1  0.37547162  0.55428567  0.88975874  1
  H  H128  1  0.37350000  0.88816161  0.89154280  1
  H  H129  1  0.87196213  0.22247063  0.89425465  1
  H  H130  1  0.87790491  0.55232293  0.88093752  1
  H  H131  1  0.87467230  0.88654214  0.89001695  1
  H  H132  1  0.37719649  0.11530075  0.12004300  1
  H  H133  1  0.37415546  0.44639331  0.10939336  1
  H  H134  1  0.37027098  0.77726377  0.10400655  1
  H  H135  1  0.87062249  0.10889495  0.10195166  1
  H  H136  1  0.87181054  0.44600760  0.10973250  1
  H  H137  1  0.86922947  0.77956791  0.10409990  1
  H  H138  1  0.12813915  0.22310563  0.60405451  1
  H  H139  1  0.12248367  0.55093613  0.61616750  1
  H  H140  1  0.13116550  0.88715525  0.60694333  1
  H  H141  1  0.62520951  0.22002617  0.61179005  1
  H  H142  1  0.62189268  0.55152180  0.61848946  1
  H  H143  1  0.62920005  0.88706350  0.60868745  1
  H  H144  1  0.82214956  0.41908986  -0.00072452  1
  H  H145  1  0.44457521  0.74848763  1.00381054  1
  H  H146  1  0.05651605  0.41497285  1.00349041  1
  H  H147  1  0.19168127  0.08836620  0.50656391  1
  H  H148  1  0.68270002  0.57769252  1.00328223  1
  H  H149  1  0.81410841  0.24779597  0.99886034  1
  H  H150  1  0.67282490  0.24301614  0.49898319  1
  H  H151  1  0.17236664  0.74990178  0.49539928  1
  H  H152  1  0.55993226  0.58411804  -0.00041560  1
  H  H153  1  0.18703631  0.91305766  0.49509381  1
  H  H154  1  0.67016216  0.75292457  0.49821060  1
  H  H155  1  0.43828293  0.41318971  1.00429459  1
  H  H156  1  0.18018747  0.42931627  0.00278094  1
  H  H157  1  0.90015084  0.91865051  0.49270104  1
  H  H158  1  0.17641261  0.24902633  1.00065989  1
  H  H159  1  0.31599820  0.43303785  0.00218396  1
  H  H160  1  0.92482351  0.07289105  0.50394505  1
  H  H161  1  0.94231006  0.25338170  -0.00323726  1
  H  H162  1  0.60144979  0.41283363  0.99182175  1
  H  H163  1  0.93717639  0.58615988  0.50359088  1
  H  H164  1  0.34639070  0.08471953  0.48776143  1
  H  H165  1  0.91860032  0.07699549  0.99849666  1
  H  H166  1  0.06367389  0.91791476  0.50324200  1
  H  H167  1  0.57864345  0.58258995  0.49472864  1
  H  H168  1  0.42481846  0.91996821  0.00456109  1
  H  H169  1  0.65558615  0.75400927  0.00922019  1
  H  H170  1  0.42527031  0.74979723  0.50431163  1
  H  H171  1  0.39969406  0.25452311  0.49352213  1
  H  H172  1  0.82505616  0.24528422  0.50380056  1
  H  H173  1  0.84488797  0.57921830  0.99364399  1
  H  H174  1  0.80286284  0.08065659  -0.00008383  1
  H  H175  1  0.57879004  0.91955272  0.50066969  1
  H  H176  1  0.08988270  0.41627769  0.50219399  1
  H  H177  1  0.81117914  0.75411113  -0.00525657  1
  H  H178  1  0.30772531  0.75088040  0.00042818  1
  H  H179  1  0.65808519  0.24688461  0.99492993  1
  H  H180  1  0.80105574  0.57866970  0.49805322  1
  H  H181  1  0.34639595  0.08575934  0.00771256  1
  H  H182  1  0.10147485  0.58446859  0.49298952  1
  H  H183  1  0.19111857  0.08654794  -0.00064686  1
  H  H184  1  0.93980378  0.74899249  1.00038021  1
  H  H185  1  0.08168485  0.91660290  0.00576224  1
  H  H186  1  0.33580696  0.24766712  0.99211339  1
  H  H187  1  0.81041418  0.08549463  0.50567643  1
  H  H188  1  0.94506213  0.25572695  0.50356261  1
  H  H189  1  0.07645479  0.07713116  0.99993067  1
  H  H190  1  0.07693275  0.07898562  0.50000681  1
  H  H191  1  0.55597285  0.25588114  0.50289443  1
  Pb  Pb192  1  0.25199345  0.04795700  0.75055247  1
  Pb  Pb193  1  0.24977595  0.38282926  0.75574907  1
  Pb  Pb194  1  0.25075961  0.71445167  0.75068042  1
  Pb  Pb195  1  0.74703973  0.04650302  0.75102342  1
  Pb  Pb196  1  0.74965533  0.38211772  0.74792559  1
  Pb  Pb197  1  0.75232124  0.71406335  0.75102916  1
  Pb  Pb198  1  0.25158433  0.28618672  0.24643777  1
  Pb  Pb199  1  0.24912533  0.61998097  0.24925812  1
  Pb  Pb200  1  0.25016957  0.95090540  0.25061779  1
  Pb  Pb201  1  0.75040597  0.28479811  0.25026820  1
  Pb  Pb202  1  0.75046109  0.61764786  0.25045138  1
  Pb  Pb203  1  0.74791293  0.95215177  0.24905265  1
  Pb  Pb204  1  -0.00132723  0.21500632  0.74949010  1
  Pb  Pb205  1  0.00036312  0.54826460  0.74775028  1
  Pb  Pb206  1  -0.00031895  0.88049389  0.75113215  1
  Pb  Pb207  1  0.50057440  0.21592225  0.74590699  1
  Pb  Pb208  1  0.49868950  0.54913960  0.75201405  1
  Pb  Pb209  1  0.50158246  0.87858101  0.75289382  1
  Pb  Pb210  1  0.00077608  0.11706749  0.25016916  1
  Pb  Pb211  1  0.00181589  0.45246476  0.24930305  1
  Pb  Pb212  1  -0.00220864  0.78583093  0.24695903  1
  Pb  Pb213  1  0.49957786  0.11909028  0.24850594  1
  Pb  Pb214  1  0.49809025  0.45342534  0.24991967  1
  Pb  Pb215  1  0.49997375  0.78402180  0.25215157  1
  C  C216  1  -0.00082887  0.04661406  0.63440239  1
  C  C217  1  0.00028398  0.38056396  0.63258972  1
  C  C218  1  0.00142521  0.71406555  0.63260282  1
  C  C219  1  0.49975296  0.04663531  0.63306351  1
  C  C220  1  0.49930851  0.38124899  0.63243494  1
  C  C221  1  0.49956074  0.71332929  0.63254917  1
  C  C222  1  -0.00068853  0.28629667  0.13587555  1
  C  C223  1  -0.00013223  0.61977404  0.13448300  1
  C  C224  1  0.00023708  0.95198061  0.13189571  1
  C  C225  1  0.49942015  0.28611693  0.13380368  1
  C  C226  1  0.49872000  0.61885084  0.13313897  1
  C  C227  1  0.49937949  0.95303511  0.13290012  1
  C  C228  1  -0.00043135  0.04656811  0.86448702  1
  C  C229  1  0.00125891  0.38105759  0.86418169  1
  C  C230  1  0.00214456  0.71362434  0.86746272  1
  C  C231  1  0.50113044  0.04655176  0.86576584  1
  C  C232  1  0.50062775  0.38044805  0.86523087  1
  C  C233  1  0.50326625  0.71396463  0.86565698  1
  C  C234  1  0.00019806  0.28702293  0.36747182  1
  C  C235  1  0.00311346  0.61979413  0.36580080  1
  C  C236  1  -0.00264729  0.95268511  0.36586324  1
  C  C237  1  0.49980811  0.28713452  0.36747395  1
  C  C238  1  0.50142131  0.61857206  0.36801463  1
  C  C239  1  0.49815684  0.95304028  0.36738500  1
  C  C240  1  0.25049488  0.21442879  0.63324795  1
  C  C241  1  0.24913578  0.54670885  0.62965268  1
  C  C242  1  0.25326834  0.88029151  0.63340203  1
  C  C243  1  0.75079739  0.21404647  0.63409508  1
  C  C244  1  0.74921400  0.54643450  0.63332666  1
  C  C245  1  0.75319341  0.88002116  0.63379484  1
  C  C246  1  0.24973375  0.11925923  0.13411052  1
  C  C247  1  0.24995718  0.45551419  0.13187644  1
  C  C248  1  0.24817594  0.78607886  0.13324496  1
  C  C249  1  0.75007330  0.11865380  0.13381975  1
  C  C250  1  0.74921322  0.45287354  0.13474819  1
  C  C251  1  0.74655097  0.78653577  0.13319910  1
  C  C252  1  0.25069906  0.21422420  0.86608667  1
  C  C253  1  0.25057705  0.54802258  0.86697416  1
  C  C254  1  0.24945860  0.88016613  0.86580186  1
  C  C255  1  0.74932968  0.21358556  0.86628711  1
  C  C256  1  0.75144419  0.54716457  0.86539497  1
  C  C257  1  0.74958075  0.88099275  0.86738431  1
  C  C258  1  0.25185824  0.11903880  0.36637363  1
  C  C259  1  0.25071024  0.45325814  0.36961401  1
  C  C260  1  0.24780573  0.78617987  0.36761090  1
  C  C261  1  0.74892168  0.11914744  0.36621479  1
  C  C262  1  0.75004200  0.45271776  0.36665880  1
  C  C263  1  0.75012028  0.78623190  0.36625838  1
  C  C264  1  0.71094876  0.76192855  0.45927067  1
  C  C265  1  0.97220267  0.59549667  0.46216956  1
  C  C266  1  0.79288517  0.90625458  0.54089251  1
  C  C267  1  0.95710736  0.06921398  0.95858621  1
  C  C268  1  0.55406081  0.40329614  0.95634746  1
  C  C269  1  0.44820311  0.59409330  0.04123095  1
  C  C270  1  0.96352167  0.40596458  0.53814063  1
  C  C271  1  0.05377918  0.26093863  0.45781547  1
  C  C272  1  0.77726938  0.09543199  0.46350380  1
  C  C273  1  0.30249690  0.09485837  0.04399875  1
  C  C274  1  0.45691377  0.92808803  0.46110342  1
  C  C275  1  0.05191506  0.74025326  0.95892453  1
  C  C276  1  0.05420320  0.59551742  0.45726314  1
  C  C277  1  0.77773799  0.76211900  0.03729399  1
  C  C278  1  0.70149355  0.42897310  0.04244974  1
  C  C279  1  0.28088920  0.43057439  0.46527999  1
  C  C280  1  0.29499612  0.24100150  0.54159949  1
  C  C281  1  0.22334457  0.09499700  0.46293924  1
  C  C282  1  0.21512062  0.57398022  0.96048027  1
  C  C283  1  0.70030816  0.23775312  0.95763560  1
  C  C284  1  0.45855065  0.26042610  0.04089611  1
  C  C285  1  0.54299840  0.74135746  0.53959051  1
  C  C286  1  0.71483478  0.90850802  0.96062723  1
  C  C287  1  0.44552306  0.26249756  0.45702299  1
  C  C288  1  0.53858293  0.92868720  0.46211368  1
  C  C289  1  0.20015285  0.43134720  0.46064421  1
  C  C290  1  0.03925055  0.06958963  0.95924959  1
  C  C291  1  0.19720660  0.56942953  0.53923361  1
  C  C292  1  0.80071998  0.56995938  0.95765410  1
  C  C293  1  0.02819118  0.92792930  0.46232119  1
  C  C294  1  0.04704972  0.73881034  0.54105787  1
  C  C295  1  0.94626075  0.92870131  0.45738788  1
  C  C296  1  0.96235687  0.92594396  0.03684868  1
  C  C297  1  0.02501622  0.40512616  0.96043430  1
  C  C298  1  0.30355836  0.90377154  0.54194594  1
  C  C299  1  0.70932729  0.23773139  0.54044532  1
  C  C300  1  0.69608284  0.09701808  0.45702870  1
  C  C301  1  0.53621285  0.40806338  0.53961256  1
  C  C302  1  0.27761302  0.57020278  0.53410089  1
  C  C303  1  0.04022816  0.07245626  0.54125616  1
  C  C304  1  0.97437671  0.26233261  0.03978742  1
  C  C305  1  0.22217472  0.90424887  0.53661863  1
  C  C306  1  0.78318329  0.42838562  0.03859595  1
  C  C307  1  0.71874610  0.56989577  0.96201467  1
  C  C308  1  0.47216142  0.40435914  0.96223265  1
  C  C309  1  0.04515894  0.40555143  0.53920477  1
  C  C310  1  0.21412901  0.23918570  0.96077553  1
  C  C311  1  0.47764279  0.73866768  0.96141324  1
  N  N312  1  0.03275523  0.59445606  0.03919512  1
  N  N313  1  0.20971711  0.90489609  0.95970072  1
  N  N314  1  0.21084410  0.76208602  0.45978042  1
  N  N315  1  0.27653631  0.76110554  0.03978003  1
  N  N316  1  0.29250650  0.57272835  0.96148343  1
  N  N317  1  0.45710631  0.07158940  0.95847985  1
  N  N318  1  0.19866168  0.76206379  0.04165427  1
  N  N319  1  0.55677389  0.73826913  0.95663704  1
  N  N320  1  0.71196886  0.42797047  0.46083982  1
  N  N321  1  0.05351210  0.26287799  0.04493827  1
  N  N322  1  0.52494731  0.25817416  0.46186356  1
  N  N323  1  0.97512669  0.26055714  0.46235781  1
  N  N324  1  0.53344407  0.07206034  0.96114429  1
  N  N325  1  0.71503693  0.90686828  0.53873646  1
  N  N326  1  0.69837666  0.76174964  0.04304038  1
  N  N327  1  0.95657994  0.59503208  0.04148713  1
  N  N328  1  0.96054887  0.07418804  0.54238716  1
  N  N329  1  0.53647143  0.26085623  0.03815572  1
  N  N330  1  0.28967926  0.41987070  0.04312570  1
  N  N331  1  0.29387911  0.23791311  0.95808671  1
  N  N332  1  0.52706560  0.59346815  0.03845483  1
  N  N333  1  0.77990306  0.23940662  0.96041000  1
  N  N334  1  0.79023592  0.76073871  0.46093822  1
  N  N335  1  0.79216709  0.90702758  0.96138344  1
  N  N336  1  0.28689531  0.90551935  0.96006415  1
  N  N337  1  0.28936851  0.76197205  0.46139727  1
  N  N338  1  0.97303956  0.74071543  0.96140814  1
  N  N339  1  0.78826069  0.42810220  0.46085652  1
  N  N340  1  0.69374897  0.57045455  0.54387632  1
  N  N341  1  0.77430530  0.09506066  0.03923495  1
  N  N342  1  0.69655941  0.09620717  0.04323832  1
  N  N343  1  0.94603589  0.40366730  0.95491836  1
  N  N344  1  0.46228020  0.59354940  0.46221392  1
  N  N345  1  0.78877991  0.24037017  0.54165607  1
  N  N346  1  0.45321093  0.07089024  0.54080636  1
  N  N347  1  0.77175887  0.57328807  0.53936133  1
  N  N348  1  0.52941198  0.07200747  0.53707199  1
  N  N349  1  0.46363148  0.74045078  0.53991933  1
  N  N350  1  0.54039379  0.59415446  0.45938502  1
  N  N351  1  0.53970520  0.92814262  0.03893537  1
  N  N352  1  0.45882399  0.40728341  0.53805627  1
  N  N353  1  0.96956060  0.74029462  0.53605690  1
  N  N354  1  0.20906472  0.41984019  0.04374038  1
  N  N355  1  0.22305830  0.09277039  0.03935675  1
  N  N356  1  0.46167001  0.92777121  0.04158422  1
  N  N357  1  0.21753543  0.24099880  0.53688576  1
  N  N358  1  0.04131928  0.92672969  0.03988811  1
  N  N359  1  0.30237381  0.09444791  0.45564954  1
  N  N360  1  0.06455618  0.05703732  0.59875859  1
  N  N361  1  0.06658295  0.38955489  0.59919137  1
  N  N362  1  0.06889739  0.72294899  0.59944702  1
  N  N363  1  0.55969200  0.05715684  0.59393921  1
  N  N364  1  0.56392687  0.39208289  0.59629703  1
  N  N365  1  0.56525353  0.72462325  0.59688877  1
  N  N366  1  0.43389392  0.27587609  0.09872453  1
  N  N367  1  0.43048442  0.60977091  0.09975715  1
  N  N368  1  0.43522248  0.94318118  0.09818322  1
  N  N369  1  0.93959367  0.27635738  0.09532571  1
  N  N370  1  0.93467515  0.61063330  0.10057257  1
  N  N371  1  0.93660380  0.94172101  0.09364597  1
  N  N372  1  0.43570689  0.05567254  0.89937617  1
  N  N373  1  0.44015842  0.39027349  0.90504424  1
  N  N374  1  0.44346024  0.72398042  0.90599674  1
  N  N375  1  0.93379359  0.05502314  0.89933447  1
  N  N376  1  0.93324577  0.38909947  0.89488197  1
  N  N377  1  0.94118156  0.72324196  0.90542138  1
  N  N378  1  0.06948405  0.27685659  0.39907160  1
  N  N379  1  0.07139209  0.61059878  0.39712046  1
  N  N380  1  0.05869875  0.94290523  0.40492015  1
  N  N381  1  0.55859398  0.27656897  0.40728968  1
  N  N382  1  0.56593201  0.60904773  0.40243349  1
  N  N383  1  0.56294624  0.94414496  0.40261077  1
  N  N384  1  0.31755282  0.22467055  0.59989628  1
  N  N385  1  0.30963030  0.55658429  0.58926678  1
  N  N386  1  0.32171403  0.88927883  0.60043288  1
  N  N387  1  0.81445550  0.22351926  0.59883923  1
  N  N388  1  0.80709058  0.55615029  0.59264986  1
  N  N389  1  0.81844683  0.89005632  0.59833983  1
  N  N390  1  0.19032113  0.10966538  0.09461760  1
  N  N391  1  0.18587137  0.44546640  0.09702658  1
  N  N392  1  0.18150761  0.77720219  0.10033122  1
  N  N393  1  0.68210384  0.11141625  0.10219848  1
  N  N394  1  0.68163474  0.44384313  0.10074697  1
  N  N395  1  0.67942512  0.77696169  0.10204510  1
  N  N396  1  0.18710008  0.22441755  0.90357266  1
  N  N397  1  0.18657804  0.55886140  0.90376397  1
  N  N398  1  0.18573975  0.88952341  0.90141145  1
  N  N399  1  0.68121049  0.22231556  0.89906221  1
  N  N400  1  0.68943986  0.55587955  0.90402123  1
  N  N401  1  0.68581229  0.89251653  0.90422934  1
  N  N402  1  0.31965069  0.10842920  0.39611693  1
  N  N403  1  0.31168247  0.44372424  0.40969048  1
  N  N404  1  0.31140680  0.77767979  0.40404925  1
  N  N405  1  0.80959358  0.10947305  0.40561454  1
  N  N406  1  0.81345121  0.44308405  0.40250301  1
  N  N407  1  0.81290013  0.77593333  0.40259283  1
  N  N408  1  0.43013001  0.27886568  0.39808858  1
  N  N409  1  0.43855117  0.60883511  0.40500217  1
  N  N410  1  0.43277732  0.94280178  0.40386768  1
  N  N411  1  0.94068170  0.27833392  0.40716833  1
  N  N412  1  0.94162861  0.61050042  0.40482746  1
  N  N413  1  0.92890783  0.94415618  0.39714117  1
  N  N414  1  0.06435627  0.05567143  0.90036875  1
  N  N415  1  0.06048706  0.39125843  0.90511015  1
  N  N416  1  0.07024667  0.72371975  0.90087210  1
  N  N417  1  0.56220036  0.05653173  0.90393178  1
  N  N418  1  0.56972355  0.38851727  0.89583215  1
  N  N419  1  0.57095865  0.72289213  0.89643022  1
  N  N420  1  0.06699374  0.27745675  0.10497892  1
  N  N421  1  0.06110522  0.60979155  0.09655671  1
  N  N422  1  0.06559049  0.94243497  0.09866099  1
  N  N423  1  0.56190160  0.27731728  0.09716635  1
  N  N424  1  0.55948369  0.60901497  0.09496514  1
  N  N425  1  0.56276748  0.94325325  0.09640667  1
  N  N426  1  0.43352609  0.05508740  0.60038848  1
  N  N427  1  0.43556533  0.39061559  0.59730156  1
  N  N428  1  0.43624487  0.72264687  0.59703560  1
  N  N429  1  0.93532459  0.05525383  0.59909258  1
  N  N430  1  0.93651548  0.39099506  0.59453937  1
  N  N431  1  0.94093210  0.72466163  0.59448470  1
  N  N432  1  0.19144759  0.10985133  0.40725658  1
  N  N433  1  0.18207563  0.44525861  0.40177867  1
  N  N434  1  0.18434660  0.77584146  0.40285125  1
  N  N435  1  0.67957855  0.11104531  0.39828526  1
  N  N436  1  0.68672032  0.44304982  0.40251513  1
  N  N437  1  0.68479185  0.77713031  0.40137932  1
  N  N438  1  0.31604016  0.22302936  0.89960350  1
  N  N439  1  0.31487490  0.55653960  0.90175654  1
  N  N440  1  0.31233091  0.89035992  0.90191177  1
  N  N441  1  0.81025834  0.22356035  0.90425157  1
  N  N442  1  0.81939825  0.55596622  0.89746804  1
  N  N443  1  0.81408672  0.88986915  0.90186825  1
  N  N444  1  0.31904486  0.11049326  0.10296482  1
  N  N445  1  0.31356642  0.44541686  0.09666421  1
  N  N446  1  0.30865792  0.77607279  0.09484930  1
  N  N447  1  0.80892205  0.10750539  0.09428375  1
  N  N448  1  0.81163675  0.44324266  0.09731663  1
  N  N449  1  0.80794233  0.77685919  0.09340819  1
  N  N450  1  0.18964129  0.22409402  0.59531419  1
  N  N451  1  0.17986243  0.55495350  0.59813564  1
  N  N452  1  0.19166045  0.88973476  0.59489801  1
  N  N453  1  0.68526707  0.22256798  0.59807425  1
  N  N454  1  0.68067842  0.55567495  0.60304877  1
  N  N455  1  0.69039011  0.89034915  0.59805945  1
  Cl  Cl456  1  0.24876293  0.05496611  0.61405015  1
  Cl  Cl457  1  0.25208533  0.38435632  0.62521469  1
  Cl  Cl458  1  0.25140935  0.72024223  0.61632458  1
  Cl  Cl459  1  0.74999699  0.05404789  0.61629397  1
  Cl  Cl460  1  0.75076992  0.38208290  0.62039223  1
  Cl  Cl461  1  0.75031394  0.71874230  0.61885284  1
  Cl  Cl462  1  0.25157719  0.27935143  0.11053055  1
  Cl  Cl463  1  0.24642198  0.61372092  0.11669294  1
  Cl  Cl464  1  0.25066483  0.94948222  0.11784439  1
  Cl  Cl465  1  0.75223876  0.27525725  0.10887722  1
  Cl  Cl466  1  0.74637735  0.61295978  0.11536580  1
  Cl  Cl467  1  0.74876738  0.94848713  0.11620391  1
  Cl  Cl468  1  0.24961051  0.05799409  0.88902515  1
  Cl  Cl469  1  0.24918269  0.39315670  0.89921508  1
  Cl  Cl470  1  0.25879079  0.72065035  0.88735116  1
  Cl  Cl471  1  0.74976887  0.05480514  0.88787596  1
  Cl  Cl472  1  0.75147859  0.38274783  0.88074327  1
  Cl  Cl473  1  0.75697384  0.72405801  0.88882987  1
  Cl  Cl474  1  0.25020152  0.28342384  0.37575560  1
  Cl  Cl475  1  0.25527685  0.61570365  0.38130487  1
  Cl  Cl476  1  0.24519400  0.94781581  0.38404440  1
  Cl  Cl477  1  0.75174541  0.27326101  0.39455337  1
  Cl  Cl478  1  0.75298580  0.61043364  0.38842910  1
  Cl  Cl479  1  0.74661049  0.95067415  0.37668537  1
  Cl  Cl480  1  -0.00233684  0.22364915  0.60651692  1
  Cl  Cl481  1  -0.01001427  0.55403977  0.61294571  1
  Cl  Cl482  1  0.00421648  0.88714311  0.61875425  1
  Cl  Cl483  1  0.50289366  0.22507114  0.60825928  1
  Cl  Cl484  1  0.49821617  0.55328290  0.61886405  1
  Cl  Cl485  1  0.50606385  0.88207993  0.61962043  1
  Cl  Cl486  1  -0.00107968  0.11003491  0.11386386  1
  Cl  Cl487  1  0.00377388  0.44477513  0.11432683  1
  Cl  Cl488  1  -0.00741449  0.78005857  0.10832273  1
  Cl  Cl489  1  0.50012513  0.11760477  0.12031665  1
  Cl  Cl490  1  0.49551909  0.44839779  0.11419432  1
  Cl  Cl491  1  0.49268956  0.77856953  0.11434758  1
  Cl  Cl492  1  -0.00427549  0.22062825  0.88348067  1
  Cl  Cl493  1  0.00306474  0.55117194  0.87549351  1
  Cl  Cl494  1  0.00168404  0.88558412  0.88781620  1
  Cl  Cl495  1  0.49809395  0.21952025  0.87694461  1
  Cl  Cl496  1  0.50445946  0.55661562  0.88863536  1
  Cl  Cl497  1  0.49708621  0.88674391  0.88698376  1
  Cl  Cl498  1  0.00181466  0.11217635  0.39051338  1
  Cl  Cl499  1  -0.00270634  0.44514826  0.38108611  1
  Cl  Cl500  1  0.00134171  0.78082431  0.37835252  1
  Cl  Cl501  1  0.49808391  0.11803345  0.38071522  1
  Cl  Cl502  1  0.50161761  0.44728168  0.38067748  1
  Cl  Cl503  1  0.49600629  0.77841509  0.38692326  1
  Cl  Cl504  1  0.36039156  0.14253851  0.75061891  1
  Cl  Cl505  1  0.36213885  0.47534498  0.75295178  1
  Cl  Cl506  1  0.36269188  0.80924141  0.74854853  1
  Cl  Cl507  1  0.86408543  0.14338496  0.74915728  1
  Cl  Cl508  1  0.86285717  0.47472213  0.75183359  1
  Cl  Cl509  1  0.86379437  0.80944491  0.75230151  1
  Cl  Cl510  1  0.13805988  0.19028967  0.24836734  1
  Cl  Cl511  1  0.13716411  0.52274188  0.25120911  1
  Cl  Cl512  1  0.13769855  0.85759943  0.24827592  1
  Cl  Cl513  1  0.63787969  0.19107448  0.25088364  1
  Cl  Cl514  1  0.63754119  0.52438239  0.24789445  1
  Cl  Cl515  1  0.63810277  0.85702950  0.24780171  1
  Cl  Cl516  1  0.13710635  0.14285219  0.75026005  1
  Cl  Cl517  1  0.13811021  0.47534676  0.74927210  1
  Cl  Cl518  1  0.13800535  0.80844333  0.75066890  1
  Cl  Cl519  1  0.63923223  0.14342195  0.75011387  1
  Cl  Cl520  1  0.64056726  0.47509819  0.74958035  1
  Cl  Cl521  1  0.63636302  0.80881339  0.75084798  1
  Cl  Cl522  1  0.36201766  0.19041634  0.24932573  1
  Cl  Cl523  1  0.36379534  0.52313485  0.24822562  1
  Cl  Cl524  1  0.35939406  0.85801582  0.25129274  1
  Cl  Cl525  1  0.86114106  0.19135116  0.25009960  1
  Cl  Cl526  1  0.86223176  0.52508508  0.25030568  1
  Cl  Cl527  1  0.86200278  0.85769282  0.25030578  1
  Cl  Cl528  1  0.11228414  0.30871296  0.75095867  1
  Cl  Cl529  1  0.11162467  0.64287379  0.75005986  1
  Cl  Cl530  1  0.11245649  0.97715131  0.75062669  1
  Cl  Cl531  1  0.61283244  0.30844374  0.75050773  1
  Cl  Cl532  1  0.61329951  0.64263684  0.75084987  1
  Cl  Cl533  1  0.61312395  0.97626449  0.74969382  1
  Cl  Cl534  1  0.38744084  0.02509837  0.25021480  1
  Cl  Cl535  1  0.38674052  0.35679440  0.24875171  1
  Cl  Cl536  1  0.38831510  0.69050924  0.24881448  1
  Cl  Cl537  1  0.88791877  0.02414172  0.25018755  1
  Cl  Cl538  1  0.88658552  0.35568975  0.24936365  1
  Cl  Cl539  1  0.88732329  0.69139474  0.24918317  1
  Cl  Cl540  1  0.38789036  0.30869921  0.75106802  1
  Cl  Cl541  1  0.38967962  0.64197133  0.74947733  1
  Cl  Cl542  1  0.38505166  0.97629474  0.74901150  1
  Cl  Cl543  1  0.88746867  0.30830012  0.74945264  1
  Cl  Cl544  1  0.88688245  0.64223059  0.75078915  1
  Cl  Cl545  1  0.88901203  0.97568771  0.75052996  1
  Cl  Cl546  1  0.11138111  0.02522119  0.24816106  1
  Cl  Cl547  1  0.11301762  0.35716670  0.24732302  1
  Cl  Cl548  1  0.11359531  0.69128005  0.25056141  1
  Cl  Cl549  1  0.61169593  0.02495266  0.24953889  1
  Cl  Cl550  1  0.61402640  0.35591960  0.24748900  1
  Cl  Cl551  1  0.61046923  0.69185606  0.24973112  1
