# generated using pymatgen
data_H8PbC4(N3Cl2)2
_symmetry_space_group_name_H-M   'P 1'
_cell_length_a   16.62934773
_cell_length_b   22.52287050
_cell_length_c   21.59814848
_cell_angle_alpha   90.00365407
_cell_angle_beta   90.01435472
_cell_angle_gamma   90.00307229
_symmetry_Int_Tables_number   1
_chemical_formula_structural   H8PbC4(N3Cl2)2
_chemical_formula_sum   'H192 Pb24 C96 N144 Cl96'
_cell_volume   8089.38419142
_cell_formula_units_Z   24
loop_
 _symmetry_equiv_pos_site_id
 _symmetry_equiv_pos_as_xyz
  1  'x, y, z'
loop_
 _atom_site_type_symbol
 _atom_site_label
 _atom_site_symmetry_multiplicity
 _atom_site_fract_x
 _atom_site_fract_y
 _atom_site_fract_z
 _atom_site_occupancy
  H  H0  1  -0.00104419  0.02848661  0.67715343  1
  H  H1  1  0.00504296  0.36225123  0.68152783  1
  H  H2  1  -0.00784020  0.69623193  0.67837936  1
  H  H3  1  0.49774434  0.02209271  0.67800090  1
  H  H4  1  0.50317608  0.35405681  0.67935369  1
  H  H5  1  0.49303599  0.69356577  0.68214353  1
  H  H6  1  0.00751893  0.30806384  0.17422930  1
  H  H7  1  -0.01700262  0.63950775  0.17431549  1
  H  H8  1  -0.00578111  0.97436330  0.17417723  1
  H  H9  1  0.49333350  0.30318313  0.18295641  1
  H  H10  1  0.51750928  0.63220521  0.17984928  1
  H  H11  1  0.51240889  0.96978433  0.17588280  1
  H  H12  1  0.01125244  0.03043149  0.82526728  1
  H  H13  1  0.00333101  0.35967685  0.82783720  1
  H  H14  1  0.01957852  0.69701358  0.82707245  1
  H  H15  1  0.50260898  0.03286607  0.81881014  1
  H  H16  1  0.50311777  0.36160951  0.81811789  1
  H  H17  1  0.48915032  0.70130612  0.81967639  1
  H  H18  1  -0.00770782  0.30375006  0.31676931  1
  H  H19  1  0.00296412  0.64355193  0.32433431  1
  H  H20  1  -0.00095339  0.97021752  0.31957170  1
  H  H21  1  0.48792727  0.30602753  0.32553763  1
  H  H22  1  0.49432965  0.63884518  0.32446417  1
  H  H23  1  0.49081912  0.97228166  0.31788389  1
  H  H24  1  0.26413619  0.19419441  0.67516958  1
  H  H25  1  0.23741992  0.52497596  0.67557561  1
  H  H26  1  0.24746700  0.86287198  0.67936162  1
  H  H27  1  0.74292146  0.19366203  0.68173308  1
  H  H28  1  0.75875266  0.52798361  0.67719428  1
  H  H29  1  0.75309980  0.86266390  0.67923405  1
  H  H30  1  0.24928582  0.13555071  0.18143422  1
  H  H31  1  0.27260364  0.47487989  0.17192715  1
  H  H32  1  0.25436773  0.80780247  0.17553066  1
  H  H33  1  0.73973068  0.13959913  0.17753713  1
  H  H34  1  0.72566361  0.46309411  0.17817711  1
  H  H35  1  0.74544990  0.80477392  0.17302275  1
  H  H36  1  0.27132391  0.19919875  0.81902512  1
  H  H37  1  0.24518346  0.53307176  0.82555630  1
  H  H38  1  0.24592733  0.86361990  0.82682869  1
  H  H39  1  0.73421156  0.19648537  0.82372642  1
  H  H40  1  0.75475762  0.52823673  0.81748566  1
  H  H41  1  0.74796417  0.86045183  0.82352008  1
  H  H42  1  0.25487189  0.14152813  0.32056874  1
  H  H43  1  0.24446628  0.46803886  0.31950346  1
  H  H44  1  0.26181551  0.80376013  0.32052051  1
  H  H45  1  0.74371946  0.13858024  0.32145701  1
  H  H46  1  0.75382879  0.47729052  0.32533157  1
  H  H47  1  0.74484737  0.80620861  0.32268113  1
  H  H48  1  0.12518586  0.05362251  0.60921286  1
  H  H49  1  0.11839017  0.38860696  0.60296817  1
  H  H50  1  0.12580136  0.71942436  0.61659414  1
  H  H51  1  0.62391220  0.05156814  0.61113367  1
  H  H52  1  0.61873192  0.38793069  0.60344151  1
  H  H53  1  0.62865749  0.71795344  0.62335935  1
  H  H54  1  0.37199114  0.27732616  0.11181935  1
  H  H55  1  0.37365029  0.61620901  0.12965333  1
  H  H56  1  0.36737608  0.95100123  0.13047175  1
  H  H57  1  0.87847706  0.27963984  0.11006401  1
  H  H58  1  0.88033646  0.61113426  0.08669016  1
  H  H59  1  0.86963379  0.94433391  0.10504819  1
  H  H60  1  0.36429070  0.04753742  0.87413925  1
  H  H61  1  0.38013545  0.38469175  0.88977312  1
  H  H62  1  0.38641712  0.72705325  0.90610789  1
  H  H63  1  0.87484456  0.04780336  0.87937811  1
  H  H64  1  0.87740233  0.38698736  0.89348381  1
  H  H65  1  0.88309563  0.71535180  0.88130473  1
  H  H66  1  0.12853500  0.28415720  0.37820853  1
  H  H67  1  0.11165019  0.60920088  0.40438017  1
  H  H68  1  0.12923341  0.94921402  0.38300620  1
  H  H69  1  0.62677214  0.28795762  0.37619400  1
  H  H70  1  0.61726572  0.60947206  0.39389456  1
  H  H71  1  0.62610695  0.94820955  0.37837770  1
  H  H72  1  0.37241466  0.22428121  0.59596388  1
  H  H73  1  0.38149689  0.54555025  0.62955519  1
  H  H74  1  0.36369540  0.88995045  0.60239453  1
  H  H75  1  0.86135093  0.21900749  0.60466207  1
  H  H76  1  0.88028358  0.55868288  0.60520310  1
  H  H77  1  0.86625048  0.88718660  0.60057840  1
  H  H78  1  0.13228606  0.11041133  0.10378451  1
  H  H79  1  0.12475714  0.45445313  0.13559936  1
  H  H80  1  0.11913977  0.78411259  0.11594646  1
  H  H81  1  0.63529668  0.10682158  0.09458963  1
  H  H82  1  0.63384394  0.43625957  0.08699202  1
  H  H83  1  0.62042711  0.77749129  0.10436067  1
  H  H84  1  0.12931234  0.21161727  0.86809804  1
  H  H85  1  0.12990210  0.56205285  0.90254571  1
  H  H86  1  0.13157623  0.89177621  0.90289755  1
  H  H87  1  0.63655043  0.22731833  0.90984564  1
  H  H88  1  0.62888350  0.55499562  0.88508572  1
  H  H89  1  0.63829585  0.89247602  0.90483235  1
  H  H90  1  0.37147919  0.11496317  0.39843184  1
  H  H91  1  0.38085584  0.44866881  0.37390669  1
  H  H92  1  0.36659448  0.77790462  0.40384233  1
  H  H93  1  0.87304737  0.11387881  0.38711812  1
  H  H94  1  0.88029792  0.44920725  0.39126669  1
  H  H95  1  0.87018271  0.78104658  0.39109188  1
  H  H96  1  0.38223737  0.27694997  0.40780884  1
  H  H97  1  0.36929024  0.60950871  0.39367658  1
  H  H98  1  0.37900803  0.94421277  0.39957631  1
  H  H99  1  0.88062663  0.27854499  0.39694847  1
  H  H100  1  0.86573114  0.61641625  0.37706943  1
  H  H101  1  0.88029550  0.94316287  0.39193974  1
  H  H102  1  0.11995728  0.05477237  0.90654209  1
  H  H103  1  0.12578768  0.39174479  0.89740834  1
  H  H104  1  0.12905609  0.72657684  0.90759359  1
  H  H105  1  0.61126059  0.05883598  0.90002116  1
  H  H106  1  0.62779946  0.38941981  0.88517935  1
  H  H107  1  0.63124194  0.71622696  0.87336911  1
  H  H108  1  0.12679065  0.27629735  0.10293144  1
  H  H109  1  0.12366609  0.61595872  0.12364532  1
  H  H110  1  0.11800289  0.94790871  0.10485553  1
  H  H111  1  0.62169697  0.27923642  0.11520491  1
  H  H112  1  0.61694629  0.60549843  0.09156174  1
  H  H113  1  0.60912694  0.93790154  0.08745959  1
  H  H114  1  0.37451609  0.05252790  0.60854223  1
  H  H115  1  0.37083427  0.38026321  0.61496834  1
  H  H116  1  0.38147478  0.72375389  0.60372661  1
  H  H117  1  0.87586675  0.05353096  0.60680713  1
  H  H118  1  0.87079052  0.38582352  0.62037507  1
  H  H119  1  0.87786287  0.72525549  0.60094573  1
  H  H120  1  0.12372678  0.11492911  0.38457986  1
  H  H121  1  0.13450216  0.44432778  0.40115013  1
  H  H122  1  0.12151959  0.78514083  0.37124693  1
  H  H123  1  0.62425932  0.11249036  0.39648134  1
  H  H124  1  0.63227741  0.44759167  0.39508668  1
  H  H125  1  0.62106782  0.78072136  0.39017944  1
  H  H126  1  0.37250819  0.22509135  0.90546543  1
  H  H127  1  0.37713400  0.55295937  0.89049327  1
  H  H128  1  0.37863742  0.88854281  0.88746657  1
  H  H129  1  0.87862471  0.21016750  0.86911139  1
  H  H130  1  0.87649386  0.55058074  0.89028685  1
  H  H131  1  0.88455949  0.88472973  0.88128843  1
  H  H132  1  0.38062059  0.11189692  0.11824085  1
  H  H133  1  0.36099024  0.43813894  0.08052224  1
  H  H134  1  0.36570989  0.77549151  0.09605676  1
  H  H135  1  0.88052382  0.11676636  0.12629054  1
  H  H136  1  0.87314431  0.45169900  0.13645498  1
  H  H137  1  0.86948082  0.78054812  0.10363878  1
  H  H138  1  0.12743971  0.21136551  0.62133559  1
  H  H139  1  0.14135780  0.55925657  0.58700334  1
  H  H140  1  0.11558925  0.88497811  0.61623441  1
  H  H141  1  0.61245681  0.21890272  0.61846018  1
  H  H142  1  0.63230745  0.55403145  0.60782782  1
  H  H143  1  0.61893880  0.88278824  0.62186776  1
  H  H144  1  0.08018980  0.08362944  0.50459573  1
  H  H145  1  0.26793760  0.41585929  -0.01229315  1
  H  H146  1  0.22777117  0.58337273  0.49175672  1
  H  H147  1  0.57174160  0.44353473  0.97591445  1
  H  H148  1  0.35952005  0.41623853  0.48804690  1
  H  H149  1  0.53648276  0.57858969  -0.00849396  1
  H  H150  1  0.93285302  0.91027173  0.49986958  1
  H  H151  1  0.43791998  0.39655691  0.99549883  1
  H  H152  1  0.34700593  0.91724002  0.99723286  1
  H  H153  1  0.42304880  0.24272887  0.00375148  1
  H  H154  1  0.13764310  0.23684825  0.98381002  1
  H  H155  1  0.29382333  0.74785588  -0.00491738  1
  H  H156  1  0.29424993  0.75421345  0.51005472  1
  H  H157  1  0.52508129  0.91496092  -0.00969202  1
  H  H158  1  0.61256380  0.25349895  0.49081078  1
  H  H159  1  0.87321736  0.24047379  -0.01658864  1
  H  H160  1  0.29616496  0.24777224  1.00970070  1
  H  H161  1  0.81621929  0.55563831  0.99625637  1
  H  H162  1  0.38217651  0.07869870  0.98770236  1
  H  H163  1  0.41757022  0.58069568  0.49759724  1
  H  H164  1  0.66715810  0.74852659  -0.00065136  1
  H  H165  1  0.72088677  0.41053038  -0.01239837  1
  H  H166  1  0.54346886  0.08570825  1.00625614  1
  H  H167  1  0.71337286  0.08178049  -0.00593261  1
  H  H168  1  0.46347959  0.75226088  1.00831295  1
  H  H169  1  0.03958538  0.58136968  0.50447283  1
  H  H170  1  0.68933688  0.40106539  0.48968184  1
  H  H171  1  0.05441994  0.42158145  0.49879635  1
  H  H172  1  0.83216280  0.08068570  0.49578290  1
  H  H173  1  0.33908488  0.58365899  0.99657402  1
  H  H174  1  0.89380073  0.07811318  -0.00481000  1
  H  H175  1  0.90312611  0.75206541  0.99461023  1
  H  H176  1  0.94731427  0.24659433  0.50111451  1
  H  H177  1  0.96324948  0.58712695  -0.01048936  1
  H  H178  1  0.13582978  0.75768815  0.48585352  1
  H  H179  1  0.71606296  0.25432512  1.01165079  1
  H  H180  1  0.66513711  0.75013497  0.50150377  1
  H  H181  1  0.44943372  0.75591360  0.49916028  1
  H  H182  1  0.14676873  0.24804787  0.50789443  1
  H  H183  1  0.09774405  0.91741480  0.49433612  1
  H  H184  1  0.64475001  0.91371490  0.50777755  1
  H  H185  1  0.91546084  0.41962280  1.00398782  1
  H  H186  1  0.71216081  0.92011766  1.00470073  1
  H  H187  1  0.83750358  0.42678741  0.49644087  1
  H  H188  1  0.07911976  0.41780677  1.00302754  1
  H  H189  1  0.57532279  0.25777170  0.00723873  1
  H  H190  1  0.42681757  0.09125263  0.50385607  1
  H  H191  1  0.68535690  0.60721992  0.97697358  1
  Pb  Pb192  1  0.24642069  0.04736603  0.74881913  1
  Pb  Pb193  1  0.25293241  0.38506759  0.75286763  1
  Pb  Pb194  1  0.25765665  0.71831818  0.75567765  1
  Pb  Pb195  1  0.75304504  0.05059574  0.75658620  1
  Pb  Pb196  1  0.75086424  0.38058220  0.74401235  1
  Pb  Pb197  1  0.75669409  0.71734003  0.74892899  1
  Pb  Pb198  1  0.24832403  0.28445321  0.24895386  1
  Pb  Pb199  1  0.24702535  0.61870263  0.26045551  1
  Pb  Pb200  1  0.24762833  0.95232184  0.25051194  1
  Pb  Pb201  1  0.75336413  0.28585055  0.25229854  1
  Pb  Pb202  1  0.74792190  0.61908037  0.23516613  1
  Pb  Pb203  1  0.74436413  0.94930563  0.24106159  1
  Pb  Pb204  1  0.00150581  0.21635206  0.74087135  1
  Pb  Pb205  1  0.00786921  0.55236408  0.74510251  1
  Pb  Pb206  1  0.00309577  0.88266143  0.74786436  1
  Pb  Pb207  1  0.49833621  0.21432729  0.76287003  1
  Pb  Pb208  1  0.50775717  0.54985196  0.75252104  1
  Pb  Pb209  1  0.50364318  0.88432851  0.75597037  1
  Pb  Pb210  1  -0.00237952  0.11698965  0.25165341  1
  Pb  Pb211  1  0.00045243  0.45400537  0.25807115  1
  Pb  Pb212  1  -0.00341602  0.78515785  0.24643414  1
  Pb  Pb213  1  0.50125453  0.11936812  0.24960771  1
  Pb  Pb214  1  0.50097281  0.45116854  0.23526711  1
  Pb  Pb215  1  0.49295664  0.78293418  0.25020465  1
  C  C216  1  0.00040410  0.04501585  0.63007857  1
  C  C217  1  -0.00226718  0.37862307  0.63457436  1
  C  C218  1  -0.00100836  0.71260945  0.63162512  1
  C  C219  1  0.49873599  0.04131935  0.63206734  1
  C  C220  1  0.49759790  0.37253265  0.63317089  1
  C  C221  1  0.50129790  0.71051818  0.63554656  1
  C  C222  1  0.00392537  0.28857189  0.12866609  1
  C  C223  1  -0.00482186  0.62323272  0.12799822  1
  C  C224  1  -0.00653035  0.95630239  0.12782258  1
  C  C225  1  0.49644226  0.28775728  0.13528842  1
  C  C226  1  0.50230349  0.61809933  0.13316516  1
  C  C227  1  0.49639236  0.95412676  0.12994494  1
  C  C228  1  0.00101983  0.04477226  0.87249464  1
  C  C229  1  0.00271367  0.37849941  0.87419398  1
  C  C230  1  0.00976534  0.71321110  0.87366954  1
  C  C231  1  0.49206180  0.04679767  0.86633851  1
  C  C232  1  0.50356251  0.37810980  0.86540626  1
  C  C233  1  0.50270134  0.71497582  0.86677485  1
  C  C234  1  0.00081617  0.28883552  0.36415406  1
  C  C235  1  -0.00622190  0.62481205  0.36989972  1
  C  C236  1  0.00306224  0.95437893  0.36703535  1
  C  C237  1  0.49998228  0.29022044  0.37197542  1
  C  C238  1  0.49299279  0.62060712  0.37088061  1
  C  C239  1  0.49850687  0.95606343  0.36484143  1
  C  C240  1  0.25359514  0.20988449  0.62846000  1
  C  C241  1  0.25338087  0.54170040  0.63011564  1
  C  C242  1  0.24229586  0.87859107  0.63221748  1
  C  C243  1  0.73921621  0.20997136  0.63473698  1
  C  C244  1  0.75730422  0.54580903  0.63056677  1
  C  C245  1  0.74522067  0.87748666  0.63192171  1
  C  C246  1  0.25404030  0.11964712  0.13432655  1
  C  C247  1  0.25284717  0.45745542  0.12761622  1
  C  C248  1  0.24684420  0.79012259  0.12922832  1
  C  C249  1  0.75153926  0.12261388  0.13140360  1
  C  C250  1  0.74425244  0.45075283  0.13175662  1
  C  C251  1  0.74459439  0.78787877  0.12607175  1
  C  C252  1  0.25718919  0.21174583  0.86639797  1
  C  C253  1  0.25122226  0.54944017  0.87250957  1
  C  C254  1  0.25280119  0.88009435  0.87359607  1
  C  C255  1  0.75061712  0.21089355  0.87005768  1
  C  C256  1  0.75318854  0.54424903  0.86495946  1
  C  C257  1  0.75644943  0.87795583  0.86981475  1
  C  C258  1  0.25001612  0.12481800  0.36757152  1
  C  C259  1  0.25419859  0.45370993  0.36672979  1
  C  C260  1  0.24932433  0.78949090  0.36767641  1
  C  C261  1  0.74699167  0.12195668  0.36844834  1
  C  C262  1  0.75552782  0.45873496  0.37176349  1
  C  C263  1  0.74485396  0.79034698  0.37000505  1
  C  C264  1  0.42528121  0.92781046  0.04786953  1
  C  C265  1  0.93349238  0.59048825  0.45429367  1
  C  C266  1  0.95907003  0.40913112  0.96548072  1
  C  C267  1  0.82123156  0.43065462  0.05116054  1
  C  C268  1  0.26971825  0.23606387  0.96542022  1
  C  C269  1  0.51091360  0.59113758  0.03616580  1
  C  C270  1  0.49068567  0.74085038  0.96383832  1
  C  C271  1  0.17376463  0.42905357  0.05056288  1
  C  C272  1  0.30053847  0.09189031  0.04425752  1
  C  C273  1  0.46442021  0.07684019  0.54217508  1
  C  C274  1  0.97293130  0.74441392  0.53798266  1
  C  C275  1  0.48162557  0.25915590  0.46774344  1
  C  C276  1  0.51285788  0.07407495  0.96337823  1
  C  C277  1  0.26597000  0.76405215  0.46583976  1
  C  C278  1  0.27562631  0.24149384  0.53335494  1
  C  C279  1  0.18960376  0.23072304  0.95261352  1
  C  C280  1  0.03067917  0.92344740  0.03709192  1
  C  C281  1  0.97858328  0.25986826  0.45899079  1
  C  C282  1  0.56219689  0.26265965  0.45848139  1
  C  C283  1  0.81566079  0.09131434  0.04797328  1
  C  C284  1  0.69357681  0.23907387  0.54495301  1
  C  C285  1  0.19470960  0.90664166  0.54229270  1
  C  C286  1  0.05207564  0.92690702  0.45810002  1
  C  C287  1  0.22329736  0.91266871  0.96795323  1
  C  C288  1  0.02313233  0.07208385  0.96891109  1
  C  C289  1  0.82123520  0.23384480  0.95343162  1
  C  C290  1  0.03252724  0.74541279  0.96870687  1
  C  C291  1  0.70538286  0.76144384  0.46362789  1
  C  C292  1  0.74357526  0.42422717  0.03265044  1
  C  C293  1  0.47983713  0.74260661  0.54162797  1
  C  C294  1  0.96028807  0.07482106  0.53672954  1
  C  C295  1  0.18530551  0.76605518  0.45392270  1
  C  C296  1  0.96996218  0.92407348  0.46108845  1
  C  C297  1  0.94240442  0.06977643  0.96127796  1
  C  C298  1  0.77236447  0.90524466  0.53623378  1
  C  C299  1  0.23085231  0.42536542  0.46297822  1
  C  C300  1  0.03633497  0.25191558  0.03775383  1
  C  C301  1  0.78678169  0.76266700  0.46249809  1
  C  C302  1  0.95153597  0.74213346  0.96130849  1
  C  C303  1  0.19485803  0.23810222  0.54078155  1
  C  C304  1  0.02166160  0.40982017  0.54072375  1
  C  C305  1  0.78978165  0.09192136  0.45860536  1
  C  C306  1  0.74173065  0.24048543  0.96757822  1
  C  C307  1  0.69120563  0.90416814  0.54207247  1
  C  C308  1  0.43155270  0.07039603  0.95425188  1
  C  C309  1  0.31173762  0.42638083  0.45503127  1
  C  C310  1  0.45886241  0.25667581  0.04324629  1
  C  C311  1  0.78628967  0.75766270  0.03350640  1
  N  N312  1  0.79933622  0.42322642  0.45881727  1
  N  N313  1  0.71069009  0.09055237  0.46211354  1
  N  N314  1  0.55111398  0.92679102  0.45297317  1
  N  N315  1  0.55846070  0.74025761  0.54798958  1
  N  N316  1  0.45566692  0.58891381  0.46042374  1
  N  N317  1  0.22348871  0.09099085  0.03827202  1
  N  N318  1  0.70713323  0.75702849  0.03502443  1
  N  N319  1  0.52582779  0.40655644  0.54000600  1
  N  N320  1  0.98450011  0.59214315  0.03423900  1
  N  N321  1  0.47552780  0.92547974  0.46001025  1
  N  N322  1  0.18985073  0.75795491  0.04355332  1
  N  N323  1  0.54586024  0.40678017  0.95605630  1
  N  N324  1  0.44996679  0.40341311  0.54390957  1
  N  N325  1  0.77077726  0.24002037  0.53934088  1
  N  N326  1  0.54364738  0.07691447  0.54252396  1
  N  N327  1  0.71994128  0.43221948  0.46444669  1
  N  N328  1  0.30165223  0.90978960  0.96211339  1
  N  N329  1  0.27880242  0.09470505  0.46209817  1
  N  N330  1  0.73802480  0.08850200  0.03768832  1
  N  N331  1  0.24839843  0.57538570  0.53682553  1
  N  N332  1  0.24932440  0.42345118  0.03330061  1
  N  N333  1  0.53385971  0.58881888  0.46227881  1
  N  N334  1  0.79191334  0.57317170  0.95652682  1
  N  N335  1  0.43347241  0.59531937  0.04832729  1
  N  N336  1  0.03881460  0.41090918  0.96532513  1
  N  N337  1  0.06111374  0.59349047  0.04521804  1
  N  N338  1  0.95350126  0.92188203  0.03607393  1
  N  N339  1  0.32444778  0.56985195  0.54931866  1
  N  N340  1  0.81523462  0.90992534  0.95478157  1
  N  N341  1  0.94276554  0.41012146  0.54659715  1
  N  N342  1  0.05009026  0.74232878  0.54193706  1
  N  N343  1  0.27187528  0.90819391  0.53631812  1
  N  N344  1  0.50222016  0.92316916  0.03459227  1
  N  N345  1  0.21952367  0.57824542  0.96713406  1
  N  N346  1  0.01167190  0.58934854  0.46244409  1
  N  N347  1  0.20236921  0.09466414  0.45744447  1
  N  N348  1  0.03948084  0.07451740  0.53894149  1
  N  N349  1  0.29737387  0.57491072  0.96178924  1
  N  N350  1  0.70988926  0.57033706  0.95630420  1
  N  N351  1  0.73802949  0.91231530  0.96158675  1
  N  N352  1  0.53850728  0.25790161  0.04520317  1
  N  N353  1  0.71650854  0.57802687  0.53946298  1
  N  N354  1  0.46401444  0.41090079  0.95503994  1
  N  N355  1  0.05729233  0.26280147  0.45300910  1
  N  N356  1  0.95871599  0.25351693  0.03901494  1
  N  N357  1  0.26738410  0.75516782  0.03788341  1
  N  N358  1  0.79267516  0.57997222  0.53882837  1
  N  N359  1  0.56863785  0.73761979  0.95304211  1
  N  N360  1  0.06482649  0.05602317  0.59637214  1
  N  N361  1  0.05682274  0.39098755  0.59428343  1
  N  N362  1  0.06671985  0.72245155  0.60134326  1
  N  N363  1  0.56346272  0.05458873  0.59886405  1
  N  N364  1  0.55687188  0.38788109  0.59541712  1
  N  N365  1  0.57016314  0.72010205  0.60664821  1
  N  N366  1  0.43248669  0.27402470  0.09940463  1
  N  N367  1  0.42986942  0.61178516  0.10898738  1
  N  N368  1  0.42138356  0.94527964  0.10763000  1
  N  N369  1  0.93824915  0.27668309  0.09666751  1
  N  N370  1  0.94265391  0.61248539  0.08328975  1
  N  N371  1  0.92991369  0.94268678  0.09398869  1
  N  N372  1  0.42051954  0.05364200  0.89376596  1
  N  N373  1  0.44058740  0.38338902  0.90244858  1
  N  N374  1  0.44895699  0.72702955  0.91136028  1
  N  N375  1  0.93013042  0.05299073  0.89993600  1
  N  N376  1  0.93676964  0.39028157  0.90828963  1
  N  N377  1  0.93906367  0.72204930  0.90109244  1
  N  N378  1  0.06960572  0.28057176  0.39375067  1
  N  N379  1  0.04988272  0.61235701  0.41131043  1
  N  N380  1  0.07075945  0.94547904  0.39922954  1
  N  N381  1  0.57186580  0.28189441  0.39759840  1
  N  N382  1  0.55661696  0.60774276  0.40593936  1
  N  N383  1  0.56709375  0.94553264  0.39408276  1
  N  N384  1  0.31096495  0.22461013  0.58608866  1
  N  N385  1  0.32676372  0.55120052  0.60821544  1
  N  N386  1  0.30179099  0.89009668  0.59361521  1
  N  N387  1  0.79928416  0.22134040  0.59673221  1
  N  N388  1  0.81960425  0.56006116  0.59528390  1
  N  N389  1  0.80479841  0.88935447  0.59040910  1
  N  N390  1  0.19433076  0.10877981  0.09568765  1
  N  N391  1  0.17608928  0.44809280  0.10959070  1
  N  N392  1  0.17762953  0.77830857  0.10091583  1
  N  N393  1  0.69743403  0.11080781  0.08831044  1
  N  N394  1  0.69599069  0.43765247  0.08435913  1
  N  N395  1  0.68075053  0.77621041  0.09196722  1
  N  N396  1  0.18374469  0.21582246  0.89106336  1
  N  N397  1  0.19123198  0.56252104  0.91120886  1
  N  N398  1  0.19269325  0.89417609  0.91347525  1
  N  N399  1  0.69884630  0.22585979  0.91512340  1
  N  N400  1  0.68911066  0.56148431  0.89629843  1
  N  N401  1  0.70041628  0.89081272  0.91112935  1
  N  N402  1  0.30957235  0.11362656  0.40664987  1
  N  N403  1  0.32475340  0.44412274  0.39420909  1
  N  N404  1  0.30458656  0.77868755  0.41165218  1
  N  N405  1  0.81358882  0.11071306  0.40129359  1
  N  N406  1  0.82088593  0.44995493  0.40554237  1
  N  N407  1  0.81041588  0.77970702  0.40595614  1
  N  N408  1  0.44411326  0.27577721  0.41575796  1
  N  N409  1  0.42929350  0.60939311  0.40557883  1
  N  N410  1  0.44131168  0.94389632  0.40561274  1
  N  N411  1  0.94255287  0.27581753  0.40490002  1
  N  N412  1  0.92220767  0.61159605  0.39676674  1
  N  N413  1  0.94082659  0.94137100  0.40422904  1
  N  N414  1  0.05833626  0.05714623  0.91553174  1
  N  N415  1  0.06542915  0.39038403  0.90962599  1
  N  N416  1  0.06758115  0.72804683  0.91590725  1
  N  N417  1  0.54916752  0.05937474  0.90838764  1
  N  N418  1  0.56744650  0.39559534  0.89674731  1
  N  N419  1  0.57420962  0.72213874  0.89219893  1
  N  N420  1  0.06611731  0.27313727  0.09199530  1
  N  N421  1  0.06710311  0.61124490  0.10411168  1
  N  N422  1  0.05800535  0.94424053  0.09215269  1
  N  N423  1  0.56151454  0.28007747  0.10103434  1
  N  N424  1  0.55467329  0.60500353  0.08780252  1
  N  N425  1  0.54668304  0.94217152  0.08438834  1
  N  N426  1  0.43515985  0.05560756  0.59693465  1
  N  N427  1  0.43078432  0.38180974  0.60120423  1
  N  N428  1  0.44320048  0.72457061  0.59501609  1
  N  N429  1  0.93599269  0.05665960  0.59324871  1
  N  N430  1  0.92963163  0.39024192  0.60542390  1
  N  N431  1  0.93930572  0.72645978  0.59181865  1
  N  N432  1  0.18342402  0.11286426  0.39872463  1
  N  N433  1  0.19615252  0.44183330  0.40973529  1
  N  N434  1  0.17664115  0.78156664  0.39307600  1
  N  N435  1  0.68565385  0.10962366  0.40550293  1
  N  N436  1  0.69328744  0.44329549  0.40611951  1
  N  N437  1  0.68036411  0.77874161  0.40475941  1
  N  N438  1  0.31073610  0.22420902  0.91120946  1
  N  N439  1  0.31799984  0.55777449  0.90441506  1
  N  N440  1  0.32059634  0.88872947  0.90399717  1
  N  N441  1  0.82510449  0.21584863  0.89297691  1
  N  N442  1  0.81577250  0.54812124  0.90260551  1
  N  N443  1  0.82629878  0.88982647  0.89736344  1
  N  N444  1  0.32218012  0.10876077  0.10248644  1
  N  N445  1  0.29905015  0.44404195  0.07989461  1
  N  N446  1  0.30388875  0.77682832  0.08874480  1
  N  N447  1  0.82451888  0.11101897  0.10636221  1
  N  N448  1  0.82082722  0.44628123  0.11108185  1
  N  N449  1  0.80961490  0.77614866  0.08999784  1
  N  N450  1  0.18261635  0.21846361  0.60115859  1
  N  N451  1  0.20380624  0.55535017  0.58438935  1
  N  N452  1  0.17403607  0.88902168  0.60052055  1
  N  N453  1  0.67143928  0.22137417  0.60265212  1
  N  N454  1  0.69307004  0.55652608  0.59608112  1
  N  N455  1  0.67572754  0.88681117  0.60276131  1
  Cl  Cl456  1  0.24928983  0.05319642  0.61695895  1
  Cl  Cl457  1  0.24429840  0.38726534  0.62118547  1
  Cl  Cl458  1  0.25727492  0.72111931  0.62120260  1
  Cl  Cl459  1  0.75305243  0.05198563  0.62461506  1
  Cl  Cl460  1  0.74237433  0.39021566  0.60692176  1
  Cl  Cl461  1  0.75564975  0.72655811  0.61690995  1
  Cl  Cl462  1  0.24939967  0.28082548  0.11323723  1
  Cl  Cl463  1  0.24829076  0.61385815  0.12966745  1
  Cl  Cl464  1  0.24071038  0.94360898  0.11537054  1
  Cl  Cl465  1  0.74628352  0.27655125  0.11687227  1
  Cl  Cl466  1  0.75170991  0.60867437  0.09368724  1
  Cl  Cl467  1  0.73120572  0.93878947  0.09989451  1
  Cl  Cl468  1  0.23774560  0.04860702  0.88006299  1
  Cl  Cl469  1  0.25747492  0.39733327  0.89590549  1
  Cl  Cl470  1  0.26271193  0.72714234  0.89823218  1
  Cl  Cl471  1  0.73200593  0.06058344  0.89754405  1
  Cl  Cl472  1  0.75049966  0.38827342  0.87893078  1
  Cl  Cl473  1  0.75478739  0.71451070  0.88378523  1
  Cl  Cl474  1  0.25922047  0.28070847  0.38158958  1
  Cl  Cl475  1  0.23647567  0.60410095  0.40009713  1
  Cl  Cl476  1  0.25724217  0.94537410  0.38031320  1
  Cl  Cl477  1  0.75894242  0.28656093  0.38016702  1
  Cl  Cl478  1  0.73946369  0.60994151  0.36657736  1
  Cl  Cl479  1  0.75427235  0.94471827  0.37209039  1
  Cl  Cl480  1  -0.01570295  0.21790933  0.60574522  1
  Cl  Cl481  1  0.01922341  0.56247034  0.60170412  1
  Cl  Cl482  1  -0.01110456  0.88788668  0.61358758  1
  Cl  Cl483  1  0.48932125  0.22282412  0.63085471  1
  Cl  Cl484  1  0.50949679  0.55364444  0.62140957  1
  Cl  Cl485  1  0.48569965  0.88776843  0.62758595  1
  Cl  Cl486  1  0.00954037  0.11384379  0.11987712  1
  Cl  Cl487  1  -0.00011098  0.44776389  0.12443267  1
  Cl  Cl488  1  -0.00742106  0.78100260  0.11174011  1
  Cl  Cl489  1  0.51327522  0.10819813  0.11395582  1
  Cl  Cl490  1  0.49285578  0.43643577  0.09372398  1
  Cl  Cl491  1  0.49121941  0.77721339  0.11100726  1
  Cl  Cl492  1  0.00434026  0.21811403  0.86798972  1
  Cl  Cl493  1  -0.00105261  0.56216136  0.89032865  1
  Cl  Cl494  1  0.01114139  0.88575781  0.87913351  1
  Cl  Cl495  1  0.51085859  0.23115796  0.90233905  1
  Cl  Cl496  1  0.50496059  0.54956160  0.89105032  1
  Cl  Cl497  1  0.51565712  0.89372029  0.89857233  1
  Cl  Cl498  1  -0.00063143  0.11011818  0.38752439  1
  Cl  Cl499  1  0.00816313  0.44638544  0.39318240  1
  Cl  Cl500  1  -0.00827244  0.77387420  0.37624853  1
  Cl  Cl501  1  0.49498780  0.11553725  0.38361164  1
  Cl  Cl502  1  0.51326844  0.44985023  0.36709589  1
  Cl  Cl503  1  0.48809677  0.77340178  0.38467066  1
  Cl  Cl504  1  0.36097046  0.14612741  0.75205644  1
  Cl  Cl505  1  0.35801734  0.48088578  0.75011599  1
  Cl  Cl506  1  0.35718581  0.81354486  0.76229700  1
  Cl  Cl507  1  0.85733583  0.14550221  0.75526115  1
  Cl  Cl508  1  0.86129734  0.48088421  0.74606707  1
  Cl  Cl509  1  0.85254296  0.81731516  0.75378246  1
  Cl  Cl510  1  0.14589746  0.18646642  0.25503300  1
  Cl  Cl511  1  0.14146551  0.51623253  0.24946977  1
  Cl  Cl512  1  0.13434975  0.85205416  0.25501192  1
  Cl  Cl513  1  0.64371992  0.18402985  0.25123466  1
  Cl  Cl514  1  0.63712168  0.51872825  0.24127405  1
  Cl  Cl515  1  0.64306663  0.85108850  0.24555476  1
  Cl  Cl516  1  0.13817130  0.15043452  0.74139078  1
  Cl  Cl517  1  0.13767495  0.48387085  0.76203770  1
  Cl  Cl518  1  0.13924498  0.81489166  0.74772627  1
  Cl  Cl519  1  0.63747305  0.14966166  0.75506184  1
  Cl  Cl520  1  0.64170993  0.48229151  0.75551998  1
  Cl  Cl521  1  0.63258858  0.81085888  0.74854317  1
  Cl  Cl522  1  0.36636636  0.18796464  0.23691515  1
  Cl  Cl523  1  0.36297832  0.51974019  0.25152448  1
  Cl  Cl524  1  0.35688405  0.85001800  0.24473672  1
  Cl  Cl525  1  0.86763229  0.18714102  0.24379775  1
  Cl  Cl526  1  0.85845462  0.51773822  0.24948881  1
  Cl  Cl527  1  0.85982151  0.85120677  0.24434458  1
  Cl  Cl528  1  0.10561411  0.31627784  0.75381330  1
  Cl  Cl529  1  0.10907053  0.64802487  0.74843919  1
  Cl  Cl530  1  0.10522587  0.98285622  0.74366785  1
  Cl  Cl531  1  0.60792662  0.31569687  0.74990100  1
  Cl  Cl532  1  0.61171626  0.64511047  0.75904822  1
  Cl  Cl533  1  0.60366152  0.98175026  0.75004617  1
  Cl  Cl534  1  0.38659777  0.02024864  0.24183642  1
  Cl  Cl535  1  0.39593396  0.35098726  0.25232791  1
  Cl  Cl536  1  0.38982734  0.68430294  0.24574024  1
  Cl  Cl537  1  0.89065205  0.02186856  0.24295143  1
  Cl  Cl538  1  0.88980216  0.35366596  0.24289814  1
  Cl  Cl539  1  0.88724161  0.68306116  0.24820085  1
  Cl  Cl540  1  0.38290264  0.31315433  0.76505686  1
  Cl  Cl541  1  0.39037492  0.64751109  0.75252096  1
  Cl  Cl542  1  0.38172307  0.97846893  0.76105535  1
  Cl  Cl543  1  0.88709000  0.31493125  0.74964900  1
  Cl  Cl544  1  0.89191767  0.65007454  0.75536042  1
  Cl  Cl545  1  0.88742333  0.98202577  0.76071973  1
  Cl  Cl546  1  0.11028901  0.01712509  0.25529713  1
  Cl  Cl547  1  0.10938646  0.35141404  0.24803161  1
  Cl  Cl548  1  0.10941082  0.68416042  0.24815081  1
  Cl  Cl549  1  0.60900234  0.01595328  0.25071748  1
  Cl  Cl550  1  0.61706129  0.35306239  0.24744307  1
  Cl  Cl551  1  0.60946553  0.68492776  0.24861874  1
