# generated using pymatgen
data_H8PbC4(N3Cl2)2
_symmetry_space_group_name_H-M   'P 1'
_cell_length_a   16.62671861
_cell_length_b   22.51130593
_cell_length_c   21.59297012
_cell_angle_alpha   90.00166651
_cell_angle_beta   89.99150492
_cell_angle_gamma   90.00114327
_symmetry_Int_Tables_number   1
_chemical_formula_structural   H8PbC4(N3Cl2)2
_chemical_formula_sum   'H192 Pb24 C96 N144 Cl96'
_cell_volume   8082.01431964
_cell_formula_units_Z   24
loop_
 _symmetry_equiv_pos_site_id
 _symmetry_equiv_pos_as_xyz
  1  'x, y, z'
loop_
 _atom_site_type_symbol
 _atom_site_label
 _atom_site_symmetry_multiplicity
 _atom_site_fract_x
 _atom_site_fract_y
 _atom_site_fract_z
 _atom_site_occupancy
  H  H0  1  0.00595266  0.03106801  0.67656239  1
  H  H1  1  0.01560972  0.36169270  0.67684721  1
  H  H2  1  0.00695663  0.69487776  0.67781027  1
  H  H3  1  0.50186455  0.02911830  0.68137771  1
  H  H4  1  0.48935083  0.36616807  0.67603980  1
  H  H5  1  0.49057136  0.69660330  0.67629268  1
  H  H6  1  -0.00378666  0.30361312  0.17785891  1
  H  H7  1  -0.00794728  0.63555162  0.17798508  1
  H  H8  1  -0.00031643  0.96698919  0.17212523  1
  H  H9  1  0.50973540  0.30338715  0.18175862  1
  H  H10  1  0.50414855  0.63624028  0.18061451  1
  H  H11  1  0.49875057  0.97357611  0.18292555  1
  H  H12  1  -0.00552957  0.03118525  0.82165712  1
  H  H13  1  -0.00150335  0.36314813  0.82231768  1
  H  H14  1  -0.00954647  0.69925622  0.81549667  1
  H  H15  1  0.50793255  0.03312186  0.81966134  1
  H  H16  1  0.49864719  0.36360535  0.82039910  1
  H  H17  1  0.51057018  0.69696942  0.82031438  1
  H  H18  1  0.01138202  0.30124967  0.31994189  1
  H  H19  1  -0.00542388  0.63690128  0.32194580  1
  H  H20  1  0.01026807  0.97218336  0.32204990  1
  H  H21  1  0.49294583  0.30339211  0.31937629  1
  H  H22  1  0.50361925  0.63528205  0.32113815  1
  H  H23  1  0.49786203  0.96838376  0.32066082  1
  H  H24  1  0.25575697  0.19532744  0.68051391  1
  H  H25  1  0.25121381  0.53095660  0.68413175  1
  H  H26  1  0.23953688  0.86413841  0.68004385  1
  H  H27  1  0.74273673  0.19946464  0.67790955  1
  H  H28  1  0.74711252  0.52666258  0.67493134  1
  H  H29  1  0.74562928  0.86312583  0.67751333  1
  H  H30  1  0.25369981  0.13706707  0.18017448  1
  H  H31  1  0.25941983  0.46906534  0.17622261  1
  H  H32  1  0.23903906  0.80049927  0.17779177  1
  H  H33  1  0.75230195  0.13337954  0.17389192  1
  H  H34  1  0.74460658  0.47019381  0.18164463  1
  H  H35  1  0.76070313  0.79900257  0.18469262  1
  H  H36  1  0.25631035  0.19506399  0.82122847  1
  H  H37  1  0.24332491  0.52920048  0.82111698  1
  H  H38  1  0.26519837  0.86391473  0.82689606  1
  H  H39  1  0.73864440  0.19563670  0.82409806  1
  H  H40  1  0.75956388  0.53299454  0.81843606  1
  H  H41  1  0.73287220  0.86352527  0.82615896  1
  H  H42  1  0.25504191  0.13680978  0.32026768  1
  H  H43  1  0.24388631  0.47279398  0.31855466  1
  H  H44  1  0.25287965  0.80254997  0.32128385  1
  H  H45  1  0.74413696  0.13745905  0.32152146  1
  H  H46  1  0.75733289  0.47102850  0.32660984  1
  H  H47  1  0.75395724  0.80389750  0.32574700  1
  H  H48  1  0.11744622  0.05924617  0.59743098  1
  H  H49  1  0.12238258  0.39013945  0.59302138  1
  H  H50  1  0.12934365  0.72160712  0.60446899  1
  H  H51  1  0.61653465  0.05303892  0.60250931  1
  H  H52  1  0.63224786  0.38164994  0.62898712  1
  H  H53  1  0.63337314  0.71536541  0.62707922  1
  H  H54  1  0.37110547  0.28409369  0.12388219  1
  H  H55  1  0.38161432  0.61166570  0.10998633  1
  H  H56  1  0.37599582  0.94443102  0.11186468  1
  H  H57  1  0.86790316  0.27630793  0.11093318  1
  H  H58  1  0.88507435  0.60716654  0.09457176  1
  H  H59  1  0.87605242  0.94899763  0.10106521  1
  H  H60  1  0.37426838  0.05373439  0.88354750  1
  H  H61  1  0.38152726  0.39124068  0.89623084  1
  H  H62  1  0.37108025  0.71732364  0.87568849  1
  H  H63  1  0.86944589  0.05332408  0.89196321  1
  H  H64  1  0.88150591  0.38806026  0.89806032  1
  H  H65  1  0.87236663  0.71900605  0.89120410  1
  H  H66  1  0.12134315  0.27417614  0.40342993  1
  H  H67  1  0.12261636  0.61670436  0.38694888  1
  H  H68  1  0.11396570  0.94146169  0.40692819  1
  H  H69  1  0.62668338  0.28106482  0.38198533  1
  H  H70  1  0.62757826  0.61386223  0.39191827  1
  H  H71  1  0.62377506  0.94580221  0.38853328  1
  H  H72  1  0.37131324  0.22137050  0.60321915  1
  H  H73  1  0.37307995  0.55483547  0.60951103  1
  H  H74  1  0.37907708  0.88312320  0.62519095  1
  H  H75  1  0.87533286  0.22092759  0.61387239  1
  H  H76  1  0.87363104  0.55304734  0.60738771  1
  H  H77  1  0.87465838  0.88411026  0.61457638  1
  H  H78  1  0.13007264  0.11094802  0.10928447  1
  H  H79  1  0.12166091  0.44878277  0.11954260  1
  H  H80  1  0.13165613  0.77586382  0.09510426  1
  H  H81  1  0.62788155  0.11223011  0.10615156  1
  H  H82  1  0.61849835  0.44722021  0.11199903  1
  H  H83  1  0.62880638  0.77918979  0.12339604  1
  H  H84  1  0.12963728  0.22043884  0.88955236  1
  H  H85  1  0.12135077  0.55352255  0.89093754  1
  H  H86  1  0.11846303  0.88005626  0.87039504  1
  H  H87  1  0.63794328  0.22585321  0.91036543  1
  H  H88  1  0.61735300  0.54759128  0.87017524  1
  H  H89  1  0.64280984  0.90119451  0.91558024  1
  H  H90  1  0.37800830  0.11105201  0.39384376  1
  H  H91  1  0.37271873  0.44892865  0.38308008  1
  H  H92  1  0.36406525  0.77512502  0.40350180  1
  H  H93  1  0.88111885  0.11344497  0.37867496  1
  H  H94  1  0.86549235  0.44124958  0.40945332  1
  H  H95  1  0.86749971  0.77531640  0.40222078  1
  H  H96  1  0.37838511  0.27760168  0.39764531  1
  H  H97  1  0.37816077  0.61385972  0.38846145  1
  H  H98  1  0.37484189  0.94674422  0.39069843  1
  H  H99  1  0.87519236  0.28186154  0.38013724  1
  H  H100  1  0.87355426  0.61351763  0.39442739  1
  H  H101  1  0.86930445  0.94973298  0.37227715  1
  H  H102  1  0.11903575  0.05272907  0.89001531  1
  H  H103  1  0.13083119  0.38825359  0.88509377  1
  H  H104  1  0.12142045  0.71911634  0.87836220  1
  H  H105  1  0.62181804  0.05704829  0.90022059  1
  H  H106  1  0.62963633  0.38491403  0.88474133  1
  H  H107  1  0.61703331  0.72396222  0.90370260  1
  H  H108  1  0.11580005  0.27730664  0.10364809  1
  H  H109  1  0.13106118  0.61468705  0.12421134  1
  H  H110  1  0.12450630  0.94498741  0.10381154  1
  H  H111  1  0.61740525  0.27461915  0.09966415  1
  H  H112  1  0.63065965  0.61349313  0.11426978  1
  H  H113  1  0.62484428  0.95029368  0.11513976  1
  H  H114  1  0.36806242  0.05141521  0.61833093  1
  H  H115  1  0.38929690  0.39276037  0.59053810  1
  H  H116  1  0.38960066  0.72671316  0.58982004  1
  H  H117  1  0.87031440  0.05055623  0.61635132  1
  H  H118  1  0.87722377  0.38557272  0.62492372  1
  H  H119  1  0.88112679  0.71972944  0.60750594  1
  H  H120  1  0.12937698  0.11101774  0.39079795  1
  H  H121  1  0.12339459  0.44557393  0.39306065  1
  H  H122  1  0.11733090  0.78188359  0.38128412  1
  H  H123  1  0.63364954  0.10954013  0.40126394  1
  H  H124  1  0.62028393  0.44969648  0.38449663  1
  H  H125  1  0.62032925  0.78082834  0.38678445  1
  H  H126  1  0.37907781  0.22280456  0.89077662  1
  H  H127  1  0.37025513  0.55036786  0.88827947  1
  H  H128  1  0.35730608  0.89921791  0.91637680  1
  H  H129  1  0.88116415  0.21238458  0.87356933  1
  H  H130  1  0.86274507  0.55669908  0.90364515  1
  H  H131  1  0.88026547  0.87958991  0.86963383  1
  H  H132  1  0.37873747  0.11189294  0.10977640  1
  H  H133  1  0.36767272  0.44263440  0.09380675  1
  H  H134  1  0.37839053  0.78075217  0.12264429  1
  H  H135  1  0.87658012  0.11127583  0.10561272  1
  H  H136  1  0.86757510  0.44570702  0.10930194  1
  H  H137  1  0.87733629  0.78211923  0.10650365  1
  H  H138  1  0.12288519  0.21772453  0.61729795  1
  H  H139  1  0.12452081  0.55299458  0.61319847  1
  H  H140  1  0.13457174  0.89296250  0.59419568  1
  H  H141  1  0.62752345  0.22443467  0.59954866  1
  H  H142  1  0.62493089  0.55646779  0.60504537  1
  H  H143  1  0.62680091  0.88853904  0.60457938  1
  H  H144  1  0.04580710  0.41529745  0.49284204  1
  H  H145  1  0.20292783  0.74991699  -0.01114597  1
  H  H146  1  0.30773101  0.24775573  0.49581330  1
  H  H147  1  0.08422000  0.58613645  0.49990750  1
  H  H148  1  0.64066731  0.41686634  0.49649817  1
  H  H149  1  0.78854732  0.58363191  1.00829271  1
  H  H150  1  0.93809899  0.42028843  1.00490796  1
  H  H151  1  0.32867196  0.08410167  0.00550655  1
  H  H152  1  0.71717152  0.24799606  1.00928306  1
  H  H153  1  0.18138260  0.42941293  0.49942382  1
  H  H154  1  0.46755659  0.42030786  0.48712390  1
  H  H155  1  0.09508605  0.41547084  0.99225215  1
  H  H156  1  0.44290714  0.24912139  0.50403013  1
  H  H157  1  0.69996941  0.07849187  0.50656875  1
  H  H158  1  0.42777522  0.57923909  0.00157065  1
  H  H159  1  0.26655571  0.91463933  1.01231612  1
  H  H160  1  0.08627834  0.74447510  0.99303842  1
  H  H161  1  0.16586820  0.58182640  1.00224660  1
  H  H162  1  0.42056774  0.91817171  0.50208450  1
  H  H163  1  0.85441894  0.08725499  0.48727724  1
  H  H164  1  0.81893109  0.76767747  -0.00492522  1
  H  H165  1  0.54311197  0.74774034  1.00867613  1
  H  H166  1  0.33344244  0.42021657  0.49516923  1
  H  H167  1  0.29229146  0.74993019  0.50432267  1
  H  H168  1  0.66129632  0.75155616  0.00902969  1
  H  H169  1  0.65076162  0.75020426  0.49535674  1
  H  H170  1  0.42096248  0.58223222  0.50028157  1
  H  H171  1  0.92757762  0.73714482  1.00326959  1
  H  H172  1  0.33196567  0.25520745  0.99918298  1
  H  H173  1  0.42873703  0.92972342  0.00388098  1
  H  H174  1  0.46909103  0.75133706  0.49149081  1
  H  H175  1  0.84198572  0.91442107  0.50108070  1
  H  H176  1  0.83742707  0.25143881  0.50828002  1
  H  H177  1  0.66264127  0.41905015  0.00273769  1
  H  H178  1  0.11872425  0.91659851  0.97876628  1
  H  H179  1  0.55260737  0.07991056  0.49609300  1
  H  H180  1  0.90843048  0.24770496  0.00506277  1
  H  H181  1  0.59520946  0.58203213  0.00339566  1
  H  H182  1  0.21190380  0.91565451  0.49555514  1
  H  H183  1  0.03561072  0.91625586  0.50594279  1
  H  H184  1  0.17528395  0.24683705  0.99539867  1
  H  H185  1  0.54652713  0.24679098  -0.00390479  1
  H  H186  1  0.58153709  0.92376781  0.00359730  1
  H  H187  1  0.73279270  0.91936271  1.01022233  1
  H  H188  1  0.07481132  0.08194019  1.00208256  1
  H  H189  1  0.95958153  0.58105703  -0.00555309  1
  H  H190  1  0.35498827  0.74974459  0.01393577  1
  H  H191  1  0.87982807  0.91793709  0.97667310  1
  Pb  Pb192  1  0.24871690  0.04628151  0.75154251  1
  Pb  Pb193  1  0.24665083  0.38120441  0.74031172  1
  Pb  Pb194  1  0.25026282  0.71422575  0.74182583  1
  Pb  Pb195  1  0.74442139  0.04942874  0.74688254  1
  Pb  Pb196  1  0.75244220  0.37895662  0.75882019  1
  Pb  Pb197  1  0.75021907  0.71365328  0.75542999  1
  Pb  Pb198  1  0.25119004  0.28567094  0.25099127  1
  Pb  Pb199  1  0.24964887  0.62061448  0.25069128  1
  Pb  Pb200  1  0.24929108  0.95243647  0.25564725  1
  Pb  Pb201  1  0.74808817  0.28574224  0.24394767  1
  Pb  Pb202  1  0.75505290  0.61792379  0.24704397  1
  Pb  Pb203  1  0.74888795  0.95424275  0.24239447  1
  Pb  Pb204  1  0.00089787  0.21203401  0.75186620  1
  Pb  Pb205  1  -0.00183502  0.54658913  0.75588428  1
  Pb  Pb206  1  -0.00100409  0.88131559  0.73639893  1
  Pb  Pb207  1  0.49689342  0.21670228  0.75060975  1
  Pb  Pb208  1  0.49865707  0.54625656  0.74560072  1
  Pb  Pb209  1  0.49971497  0.87985094  0.76410537  1
  Pb  Pb210  1  0.00102292  0.11873732  0.24819211  1
  Pb  Pb211  1  0.00191825  0.45107618  0.25372108  1
  Pb  Pb212  1  -0.00054796  0.78782293  0.24429328  1
  Pb  Pb213  1  0.50116381  0.12045996  0.25517157  1
  Pb  Pb214  1  0.49841082  0.45420494  0.24453400  1
  Pb  Pb215  1  0.49984081  0.78585797  0.25610700  1
  C  C216  1  -0.00250802  0.04679848  0.62974606  1
  C  C217  1  0.00533765  0.37767068  0.63028591  1
  C  C218  1  0.00606795  0.71109372  0.63053920  1
  C  C219  1  0.49527396  0.04455868  0.63408317  1
  C  C220  1  0.50408080  0.38017706  0.62914914  1
  C  C221  1  0.50433577  0.71179305  0.62976329  1
  C  C222  1  -0.00732831  0.28673958  0.13088122  1
  C  C223  1  0.00246017  0.62004191  0.13107173  1
  C  C224  1  0.00016804  0.95401067  0.12396533  1
  C  C225  1  0.49906208  0.28801898  0.13479712  1
  C  C226  1  0.50550510  0.62020983  0.13315273  1
  C  C227  1  0.49924668  0.95761641  0.13542982  1
  C  C228  1  -0.00517510  0.04591890  0.86935729  1
  C  C229  1  0.00418268  0.37970444  0.86948085  1
  C  C230  1  -0.00505355  0.71219515  0.86382200  1
  C  C231  1  0.50135448  0.04776828  0.86733588  1
  C  C232  1  0.50320737  0.37960567  0.86741948  1
  C  C233  1  0.49909835  0.71235840  0.86722562  1
  C  C234  1  0.00292481  0.28664601  0.36743251  1
  C  C235  1  -0.00242546  0.62165255  0.36948596  1
  C  C236  1  -0.00194348  0.95596053  0.36843650  1
  C  C237  1  0.49954417  0.28749797  0.36652681  1
  C  C238  1  0.50256001  0.62053868  0.36883879  1
  C  C239  1  0.49827019  0.95342736  0.36831627  1
  C  C240  1  0.24988003  0.21152158  0.63341669  1
  C  C241  1  0.24955135  0.54626314  0.63647432  1
  C  C242  1  0.25069459  0.87890985  0.63297252  1
  C  C243  1  0.74892389  0.21462727  0.63050074  1
  C  C244  1  0.74875834  0.54509584  0.62874641  1
  C  C245  1  0.74971670  0.87869263  0.63016123  1
  C  C246  1  0.25447774  0.12012142  0.13317605  1
  C  C247  1  0.24918879  0.45384239  0.12943961  1
  C  C248  1  0.25044996  0.78537773  0.13069784  1
  C  C249  1  0.75224529  0.11857296  0.12611434  1
  C  C250  1  0.74363781  0.45427894  0.13424586  1
  C  C251  1  0.75540530  0.78647162  0.13626307  1
  C  C252  1  0.25459068  0.21211586  0.86832335  1
  C  C253  1  0.24455973  0.54446973  0.86867613  1
  C  C254  1  0.24681460  0.88011209  0.87235510  1
  C  C255  1  0.75243973  0.21016547  0.87087275  1
  C  C256  1  0.74668078  0.54597136  0.86576871  1
  C  C257  1  0.75190495  0.88033529  0.87118515  1
  C  C258  1  0.25423306  0.12064137  0.36759194  1
  C  C259  1  0.24603266  0.45672753  0.36603684  1
  C  C260  1  0.24525731  0.78717557  0.36852434  1
  C  C261  1  0.75368064  0.12152287  0.36850694  1
  C  C262  1  0.74720792  0.45473366  0.37331325  1
  C  C263  1  0.74665372  0.78742446  0.37253851  1
  C  C264  1  0.95318870  0.07231507  0.96270429  1
  C  C265  1  0.96073085  0.59370275  0.46319148  1
  C  C266  1  0.97253323  0.40882405  0.96377923  1
  C  C267  1  0.51686020  0.25928085  0.03922939  1
  C  C268  1  0.96232309  0.73263340  0.96086791  1
  C  C269  1  0.75994545  0.57194660  0.96451636  1
  C  C270  1  0.04228057  0.59510850  0.46244653  1
  C  C271  1  0.54967528  0.40841340  0.95748105  1
  C  C272  1  0.02041086  0.07939664  0.53575095  1
  C  C273  1  0.29372860  0.24331794  0.96030375  1
  C  C274  1  0.54284143  0.93101582  0.04343644  1
  C  C275  1  0.72996291  0.09107103  0.46373689  1
  C  C276  1  0.20717584  0.57162528  0.96355362  1
  C  C277  1  0.94247298  0.40898947  0.54562660  1
  C  C278  1  0.47517795  0.25983680  0.46154922  1
  C  C279  1  0.71173448  0.09182646  0.03430021  1
  C  C280  1  0.79704577  0.90547539  0.53772651  1
  C  C281  1  0.82024419  0.23514989  0.95506034  1
  C  C282  1  0.55021852  0.59279620  0.04062890  1
  C  C283  1  0.03491457  0.07246868  0.96351490  1
  C  C284  1  0.57429734  0.40357243  0.54467949  1
  C  C285  1  0.04406291  0.73415957  0.95613990  1
  C  C286  1  0.77536442  0.75515471  0.46731326  1
  C  C287  1  0.23037466  0.75880787  0.03370419  1
  C  C288  1  0.57177289  0.73784272  0.54573822  1
  C  C289  1  0.78552041  0.76859931  0.03821464  1
  C  C290  1  0.54181640  0.92683312  0.46083992  1
  C  C291  1  0.71395943  0.58015295  0.53837876  1
  C  C292  1  0.70418582  0.76436050  0.04461805  1
  C  C293  1  0.29325215  0.42888282  0.45655451  1
  C  C294  1  0.51526010  0.73815710  0.96403314  1
  C  C295  1  0.71553881  0.90733294  0.53606324  1
  C  C296  1  0.27526812  0.23863470  0.53856334  1
  C  C297  1  0.70453655  0.42850165  0.04147060  1
  C  C298  1  0.68029972  0.56818750  0.95112407  1
  C  C299  1  0.06541728  0.59179487  0.04514664  1
  C  C300  1  0.46033281  0.92745539  0.46332248  1
  C  C301  1  0.46817761  0.59168477  0.03936173  1
  C  C302  1  0.93258938  0.92582633  0.45205517  1
  C  C303  1  0.04222316  0.93066309  0.02971835  1
  C  C304  1  0.54308566  0.59337145  0.46207775  1
  C  C305  1  0.28871566  0.57010770  0.96123812  1
  C  C306  1  0.51997175  0.07047789  0.53871984  1
  C  C307  1  0.96054265  0.93184385  0.02939857  1
  C  C308  1  0.79243901  0.09159844  0.03418846  1
  C  C309  1  0.46134266  0.59316457  0.46240506  1
  C  C310  1  0.26834658  0.42474492  0.03362577  1
  C  C311  1  0.49413188  0.40748472  0.53124035  1
  N  N312  1  0.05189507  0.40876741  0.95828792  1
  N  N313  1  0.47228860  0.41053878  0.96260259  1
  N  N314  1  0.69706652  0.75867512  0.46122383  1
  N  N315  1  0.79551064  0.24218621  0.54213206  1
  N  N316  1  0.19634349  0.23888274  0.54347581  1
  N  N317  1  0.94805943  0.26139847  0.45646154  1
  N  N318  1  0.74278345  0.23969921  0.96653062  1
  N  N319  1  0.17412756  0.90217467  0.95251345  1
  N  N320  1  0.02902156  0.25754188  0.03759474  1
  N  N321  1  0.74994796  0.91883258  0.96361676  1
  N  N322  1  0.31414407  0.90465454  0.54749688  1
  N  N323  1  0.46317055  0.92857446  0.04323842  1
  N  N324  1  0.01019688  0.92354857  0.46282734  1
  N  N325  1  0.71750871  0.24282903  0.53565469  1
  N  N326  1  0.24943931  0.91634281  0.96574981  1
  N  N327  1  0.19141382  0.42686862  0.04089487  1
  N  N328  1  0.69219311  0.42642870  0.46007393  1
  N  N329  1  0.21402824  0.24304944  0.95866551  1
  N  N330  1  0.02032705  0.40898190  0.53576780  1
  N  N331  1  0.43710241  0.73610069  0.95468404  1
  N  N332  1  0.52748583  0.07402979  0.96352018  1
  N  N333  1  0.55400761  0.26057877  0.45621980  1
  N  N334  1  0.79127490  0.57902815  0.53764368  1
  N  N335  1  0.95068327  0.25711867  0.04152452  1
  N  N336  1  0.21359015  0.42777201  0.45901200  1
  N  N337  1  0.23709955  0.90867285  0.53881630  1
  N  N338  1  0.21433653  0.09205303  0.46020609  1
  N  N339  1  0.18754999  0.76120652  0.45640701  1
  N  N340  1  0.98720099  0.58946086  0.03622660  1
  N  N341  1  0.20850364  0.57217791  0.54320724  1
  N  N342  1  0.44117033  0.07079499  0.54405976  1
  N  N343  1  0.94325915  0.07606037  0.54077707  1
  N  N344  1  0.28530029  0.57265543  0.54200491  1
  N  N345  1  0.82483278  0.90393258  0.95067959  1
  N  N346  1  0.78403301  0.42772330  0.03999288  1
  N  N347  1  0.21275121  0.09160441  0.04073433  1
  N  N348  1  0.96600009  0.73961058  0.53790800  1
  N  N349  1  0.04207670  0.74010186  0.53696738  1
  N  N350  1  0.02382478  0.25837230  0.46381699  1
  N  N351  1  0.45104275  0.07283674  0.95803910  1
  N  N352  1  0.80866596  0.09251853  0.45480495  1
  N  N353  1  0.49427510  0.74209008  0.53438901  1
  N  N354  1  0.29114190  0.09131295  0.04255491  1
  N  N355  1  0.26503802  0.75866861  0.46222000  1
  N  N356  1  0.43843954  0.26239950  0.04701885  1
  N  N357  1  0.30856459  0.75965760  0.04456327  1
  N  N358  1  0.76969243  0.42309089  0.46829383  1
  N  N359  1  0.29049561  0.09211753  0.46112022  1
  N  N360  1  0.05588571  0.06139810  0.58895838  1
  N  N361  1  0.06027851  0.38759233  0.58719417  1
  N  N362  1  0.06859785  0.72255721  0.59440737  1
  N  N363  1  0.55490708  0.05487100  0.59362786  1
  N  N364  1  0.57859724  0.38714647  0.60505102  1
  N  N365  1  0.57827015  0.72043045  0.60535600  1
  N  N366  1  0.42904859  0.28020340  0.10684370  1
  N  N367  1  0.44187234  0.60875195  0.09721497  1
  N  N368  1  0.43638079  0.94875434  0.09916476  1
  N  N369  1  0.92759075  0.27598316  0.09766611  1
  N  N370  1  0.94749917  0.60917774  0.08840365  1
  N  N371  1  0.93587386  0.94624055  0.08753241  1
  N  N372  1  0.43380546  0.05705176  0.89821554  1
  N  N373  1  0.44314297  0.39219291  0.90523606  1
  N  N374  1  0.42859672  0.71998628  0.89426786  1
  N  N375  1  0.92941506  0.05648523  0.90565985  1
  N  N376  1  0.94255351  0.39161467  0.90842526  1
  N  N377  1  0.93282901  0.71936157  0.90302431  1
  N  N378  1  0.05929212  0.27403923  0.40883854  1
  N  N379  1  0.06395558  0.61226417  0.40270139  1
  N  N380  1  0.05158207  0.94516644  0.41217851  1
  N  N381  1  0.56731771  0.27774141  0.39709915  1
  N  N382  1  0.56756543  0.60975529  0.40555819  1
  N  N383  1  0.56431727  0.94228619  0.40359288  1
  N  N384  1  0.30992012  0.22290612  0.59360573  1
  N  N385  1  0.31171598  0.55674463  0.59963459  1
  N  N386  1  0.32191274  0.88816881  0.60671670  1
  N  N387  1  0.81583899  0.22487719  0.59944674  1
  N  N388  1  0.81328027  0.55693627  0.59521357  1
  N  N389  1  0.81693046  0.88775126  0.59790588  1
  N  N390  1  0.19083717  0.10828323  0.09790309  1
  N  N391  1  0.17943109  0.44512460  0.10187791  1
  N  N392  1  0.19363793  0.77472489  0.08713886  1
  N  N393  1  0.68686157  0.10810452  0.09037879  1
  N  N394  1  0.67859074  0.44419840  0.09920920  1
  N  N395  1  0.68674005  0.77582064  0.10569248  1
  N  N396  1  0.19015648  0.22159589  0.90267086  1
  N  N397  1  0.18093529  0.55579023  0.90440143  1
  N  N398  1  0.17267463  0.88819335  0.89260674  1
  N  N399  1  0.70017408  0.22182722  0.91516525  1
  N  N400  1  0.67276847  0.55292805  0.89139713  1
  N  N401  1  0.70396925  0.89446107  0.91822132  1
  N  N402  1  0.31689941  0.10975056  0.40377596  1
  N  N403  1  0.31354579  0.44486434  0.39851523  1
  N  N404  1  0.30199033  0.77620876  0.40988166  1
  N  N405  1  0.82308186  0.11312493  0.39681403  1
  N  N406  1  0.80345476  0.44076616  0.41480980  1
  N  N407  1  0.80645682  0.77301181  0.41264356  1
  N  N408  1  0.43992849  0.27605631  0.40674306  1
  N  N409  1  0.43738916  0.61021924  0.40324898  1
  N  N410  1  0.43424588  0.94388434  0.40424837  1
  N  N411  1  0.93377118  0.27888241  0.39673584  1
  N  N412  1  0.93390470  0.60953418  0.40728821  1
  N  N413  1  0.92486759  0.94450661  0.39321957  1
  N  N414  1  0.05964947  0.05594142  0.90435676  1
  N  N415  1  0.07122318  0.38975568  0.90053400  1
  N  N416  1  0.06302309  0.72121535  0.89569024  1
  N  N417  1  0.55980066  0.05862443  0.90757209  1
  N  N418  1  0.57095285  0.38993392  0.89973854  1
  N  N419  1  0.55486372  0.72416328  0.91053431  1
  N  N420  1  0.05440018  0.27515921  0.09353280  1
  N  N421  1  0.07482424  0.60957572  0.10428869  1
  N  N422  1  0.06519216  0.94422448  0.08886136  1
  N  N423  1  0.55540762  0.27482246  0.09259922  1
  N  N424  1  0.57165219  0.61046491  0.09933149  1
  N  N425  1  0.56535901  0.94703354  0.10098214  1
  N  N426  1  0.42750913  0.05477910  0.60353025  1
  N  N427  1  0.45126644  0.39260701  0.58458484  1
  N  N428  1  0.45204260  0.72352869  0.58550671  1
  N  N429  1  0.92879503  0.05553547  0.60059647  1
  N  N430  1  0.93312953  0.39042520  0.60422673  1
  N  N431  1  0.94197434  0.72131573  0.59565686  1
  N  N432  1  0.19024068  0.10985656  0.40239913  1
  N  N433  1  0.18460616  0.44850590  0.40394733  1
  N  N434  1  0.17570687  0.77754051  0.39744574  1
  N  N435  1  0.69537375  0.10838677  0.41000779  1
  N  N436  1  0.67805664  0.44592596  0.40182389  1
  N  N437  1  0.67866303  0.77943478  0.40288205  1
  N  N438  1  0.31912039  0.22535356  0.90384267  1
  N  N439  1  0.31095108  0.55401981  0.90397594  1
  N  N440  1  0.29526529  0.89323743  0.91930314  1
  N  N441  1  0.82642488  0.21798133  0.89544896  1
  N  N442  1  0.80048361  0.55752543  0.90984486  1
  N  N443  1  0.82599765  0.88825156  0.89136218  1
  N  N444  1  0.31795946  0.10970482  0.09796783  1
  N  N445  1  0.30592683  0.44100740  0.08668892  1
  N  N446  1  0.32081366  0.77541706  0.10443155  1
  N  N447  1  0.81742679  0.10758633  0.09040343  1
  N  N448  1  0.80644030  0.44374701  0.09814340  1
  N  N449  1  0.81640701  0.78158720  0.09575863  1
  N  N450  1  0.18238084  0.22182269  0.60262447  1
  N  N451  1  0.18529554  0.55628695  0.60172631  1
  N  N452  1  0.19696582  0.89020788  0.58947118  1
  N  N453  1  0.68898480  0.22593298  0.59113426  1
  N  N454  1  0.68503352  0.55987924  0.59326698  1
  N  N455  1  0.68717574  0.89127050  0.59166178  1
  Cl  Cl456  1  0.24032030  0.05056431  0.62124318  1
  Cl  Cl457  1  0.24979826  0.39512742  0.59976347  1
  Cl  Cl458  1  0.26613431  0.72835294  0.60266459  1
  Cl  Cl459  1  0.74062954  0.05476245  0.61019736  1
  Cl  Cl460  1  0.75608386  0.38398437  0.62917104  1
  Cl  Cl461  1  0.75857429  0.72258035  0.62123041  1
  Cl  Cl462  1  0.23881670  0.27797128  0.11297469  1
  Cl  Cl463  1  0.25639055  0.61474729  0.11664075  1
  Cl  Cl464  1  0.25447889  0.93500037  0.10912070  1
  Cl  Cl465  1  0.74081366  0.27116324  0.10406554  1
  Cl  Cl466  1  0.76246580  0.60965432  0.11167777  1
  Cl  Cl467  1  0.74754755  0.94092648  0.10413214  1
  Cl  Cl468  1  0.25064221  0.05451590  0.88671066  1
  Cl  Cl469  1  0.25495677  0.38690095  0.87461362  1
  Cl  Cl470  1  0.24505020  0.72537407  0.87680722  1
  Cl  Cl471  1  0.74374383  0.05087946  0.87955886  1
  Cl  Cl472  1  0.75547744  0.38288975  0.89104782  1
  Cl  Cl473  1  0.74244047  0.72662172  0.88983963  1
  Cl  Cl474  1  0.25188470  0.27963240  0.38644951  1
  Cl  Cl475  1  0.25097067  0.61578855  0.37826439  1
  Cl  Cl476  1  0.23655167  0.93734754  0.39401970  1
  Cl  Cl477  1  0.75169091  0.27929737  0.37559699  1
  Cl  Cl478  1  0.75071965  0.62034775  0.37800255  1
  Cl  Cl479  1  0.74505784  0.95020241  0.37344309  1
  Cl  Cl480  1  -0.00235657  0.21719904  0.62147737  1
  Cl  Cl481  1  0.00096554  0.54871902  0.62217053  1
  Cl  Cl482  1  0.01399326  0.89607182  0.59982349  1
  Cl  Cl483  1  0.49804500  0.22296754  0.61499382  1
  Cl  Cl484  1  0.49726820  0.55659298  0.61203287  1
  Cl  Cl485  1  0.50394042  0.88100824  0.63068924  1
  Cl  Cl486  1  0.00549359  0.11209103  0.11523473  1
  Cl  Cl487  1  -0.00806199  0.44694831  0.11781900  1
  Cl  Cl488  1  0.00583716  0.77498513  0.10936554  1
  Cl  Cl489  1  0.50082635  0.11454152  0.12359671  1
  Cl  Cl490  1  0.49317922  0.44599116  0.11679226  1
  Cl  Cl491  1  0.50310719  0.78115008  0.12154600  1
  Cl  Cl492  1  0.00673032  0.22118780  0.88519842  1
  Cl  Cl493  1  -0.01241291  0.55609237  0.89464684  1
  Cl  Cl494  1  -0.00069792  0.88026607  0.86751828  1
  Cl  Cl495  1  0.51354796  0.22671492  0.88748069  1
  Cl  Cl496  1  0.49181262  0.55163351  0.87728381  1
  Cl  Cl497  1  0.48999951  0.89823926  0.90373421  1
  Cl  Cl498  1  0.00581605  0.10709834  0.38163898  1
  Cl  Cl499  1  -0.00108053  0.44026602  0.39614010  1
  Cl  Cl500  1  -0.00931142  0.78427835  0.37589371  1
  Cl  Cl501  1  0.50735451  0.10910990  0.39055792  1
  Cl  Cl502  1  0.49592009  0.44830513  0.38026309  1
  Cl  Cl503  1  0.48713630  0.77424836  0.39737686  1
  Cl  Cl504  1  0.36047743  0.14793078  0.75253986  1
  Cl  Cl505  1  0.35902714  0.48166873  0.74875121  1
  Cl  Cl506  1  0.35954479  0.81583416  0.75287193  1
  Cl  Cl507  1  0.86537969  0.14435854  0.75571717  1
  Cl  Cl508  1  0.85977210  0.48177265  0.75099132  1
  Cl  Cl509  1  0.86311285  0.81382535  0.75379046  1
  Cl  Cl510  1  0.13823515  0.18553374  0.24818788  1
  Cl  Cl511  1  0.13570626  0.52027356  0.24322011  1
  Cl  Cl512  1  0.14371596  0.84905743  0.24969592  1
  Cl  Cl513  1  0.64202491  0.18241084  0.25030048  1
  Cl  Cl514  1  0.63540644  0.52180454  0.25374108  1
  Cl  Cl515  1  0.63518352  0.85438884  0.25015744  1
  Cl  Cl516  1  0.14029738  0.14870637  0.75128367  1
  Cl  Cl517  1  0.13809957  0.47739578  0.75280610  1
  Cl  Cl518  1  0.13762173  0.81383205  0.75082555  1
  Cl  Cl519  1  0.64720203  0.14845175  0.74787235  1
  Cl  Cl520  1  0.63687892  0.47810805  0.75274262  1
  Cl  Cl521  1  0.64258560  0.81685491  0.75126277  1
  Cl  Cl522  1  0.35706818  0.18953955  0.24651824  1
  Cl  Cl523  1  0.35738157  0.51760214  0.25043984  1
  Cl  Cl524  1  0.36420380  0.85440485  0.24385079  1
  Cl  Cl525  1  0.86289050  0.18662799  0.24927188  1
  Cl  Cl526  1  0.85219468  0.51914927  0.25412930  1
  Cl  Cl527  1  0.85531797  0.85135760  0.25243618  1
  Cl  Cl528  1  0.11163783  0.31366237  0.75072256  1
  Cl  Cl529  1  0.11424405  0.64507163  0.75202028  1
  Cl  Cl530  1  0.11084076  0.97964561  0.75398923  1
  Cl  Cl531  1  0.61628969  0.31308602  0.74518731  1
  Cl  Cl532  1  0.61014940  0.64763001  0.74805187  1
  Cl  Cl533  1  0.60760434  0.98245067  0.75053418  1
  Cl  Cl534  1  0.38443667  0.02158650  0.24886461  1
  Cl  Cl535  1  0.38767773  0.35248346  0.24805761  1
  Cl  Cl536  1  0.38890916  0.68613424  0.24853678  1
  Cl  Cl537  1  0.88904687  0.01768499  0.25156955  1
  Cl  Cl538  1  0.88228276  0.35488802  0.24630581  1
  Cl  Cl539  1  0.89256561  0.68403110  0.24734317  1
  Cl  Cl540  1  0.39679677  0.31457014  0.74977654  1
  Cl  Cl541  1  0.38738759  0.64769771  0.75266591  1
  Cl  Cl542  1  0.38696805  0.97950158  0.74915110  1
  Cl  Cl543  1  0.89198385  0.31439421  0.75155233  1
  Cl  Cl544  1  0.89013938  0.64840654  0.74937956  1
  Cl  Cl545  1  0.89095628  0.97796446  0.74335637  1
  Cl  Cl546  1  0.11303737  0.01738344  0.24319725  1
  Cl  Cl547  1  0.10161426  0.35435496  0.24651908  1
  Cl  Cl548  1  0.11160715  0.68671334  0.24955006  1
  Cl  Cl549  1  0.60723406  0.01773573  0.24980356  1
  Cl  Cl550  1  0.60988841  0.35285495  0.25407064  1
  Cl  Cl551  1  0.60833050  0.68790107  0.24892222  1
