# generated using pymatgen
data_H8PbC4(N3Cl2)2
_symmetry_space_group_name_H-M   'P 1'
_cell_length_a   16.63101866
_cell_length_b   22.52420947
_cell_length_c   21.59864303
_cell_angle_alpha   90.00092477
_cell_angle_beta   90.00388979
_cell_angle_gamma   89.99545957
_symmetry_Int_Tables_number   1
_chemical_formula_structural   H8PbC4(N3Cl2)2
_chemical_formula_sum   'H192 Pb24 C96 N144 Cl96'
_cell_volume   8090.86346772
_cell_formula_units_Z   24
loop_
 _symmetry_equiv_pos_site_id
 _symmetry_equiv_pos_as_xyz
  1  'x, y, z'
loop_
 _atom_site_type_symbol
 _atom_site_label
 _atom_site_symmetry_multiplicity
 _atom_site_fract_x
 _atom_site_fract_y
 _atom_site_fract_z
 _atom_site_occupancy
  H  H0  1  0.01671776  0.03218945  0.68047184  1
  H  H1  1  0.00361045  0.36273170  0.67901177  1
  H  H2  1  0.00388261  0.69862091  0.68307123  1
  H  H3  1  0.48918715  0.01703225  0.67389455  1
  H  H4  1  0.49326052  0.36450632  0.67769061  1
  H  H5  1  0.49864761  0.69604147  0.67767738  1
  H  H6  1  -0.00828039  0.31101983  0.17449293  1
  H  H7  1  0.00173074  0.63872985  0.17573403  1
  H  H8  1  0.00838157  0.97508087  0.17257150  1
  H  H9  1  0.51639268  0.30183551  0.17089471  1
  H  H10  1  0.49928172  0.64251779  0.18166761  1
  H  H11  1  0.48731126  0.97351803  0.18163781  1
  H  H12  1  0.00056592  0.02997184  0.83120482  1
  H  H13  1  0.00537939  0.36091529  0.82104670  1
  H  H14  1  -0.00224736  0.69494930  0.81998782  1
  H  H15  1  0.50133139  0.02739532  0.82270397  1
  H  H16  1  0.49049594  0.36119962  0.82520804  1
  H  H17  1  0.49548550  0.69830015  0.81901471  1
  H  H18  1  0.01478697  0.30329221  0.32212641  1
  H  H19  1  -0.01972221  0.63339753  0.31619473  1
  H  H20  1  0.01729210  0.97355292  0.32467818  1
  H  H21  1  0.47711447  0.30716357  0.32178967  1
  H  H22  1  0.51788570  0.63662787  0.32243114  1
  H  H23  1  0.49244107  0.96797418  0.31811385  1
  H  H24  1  0.25308030  0.20125020  0.68566702  1
  H  H25  1  0.23807334  0.52914354  0.67994938  1
  H  H26  1  0.25900011  0.86100720  0.67602468  1
  H  H27  1  0.74424165  0.19747631  0.67958687  1
  H  H28  1  0.75565861  0.52528455  0.67981871  1
  H  H29  1  0.75010349  0.86079806  0.68172358  1
  H  H30  1  0.24058199  0.14323110  0.17386015  1
  H  H31  1  0.26783450  0.46326314  0.17398522  1
  H  H32  1  0.24571280  0.80311678  0.17795851  1
  H  H33  1  0.76289211  0.13929992  0.17265858  1
  H  H34  1  0.74555484  0.47408539  0.17436231  1
  H  H35  1  0.74076963  0.80850767  0.18086163  1
  H  H36  1  0.25174469  0.18913316  0.82211371  1
  H  H37  1  0.26770471  0.52486012  0.82381415  1
  H  H38  1  0.24854332  0.86032200  0.82592159  1
  H  H39  1  0.75749604  0.18836836  0.82732548  1
  H  H40  1  0.73062217  0.53115703  0.82275955  1
  H  H41  1  0.76342672  0.86485889  0.82350908  1
  H  H42  1  0.26191368  0.13262342  0.31906475  1
  H  H43  1  0.23413963  0.47082870  0.32417027  1
  H  H44  1  0.24383320  0.80226593  0.32401474  1
  H  H45  1  0.73244459  0.14051918  0.32487140  1
  H  H46  1  0.76021260  0.46897411  0.32730397  1
  H  H47  1  0.74574681  0.80623308  0.32128346  1
  H  H48  1  0.12248576  0.05253143  0.59543976  1
  H  H49  1  0.12615432  0.38872262  0.60569375  1
  H  H50  1  0.11128315  0.72438879  0.60086519  1
  H  H51  1  0.61921216  0.05332172  0.61705926  1
  H  H52  1  0.62594283  0.38834637  0.61525063  1
  H  H53  1  0.61155226  0.72394510  0.59965315  1
  H  H54  1  0.37204931  0.28864588  0.12752793  1
  H  H55  1  0.37725799  0.61150798  0.11318767  1
  H  H56  1  0.38112974  0.94386724  0.09903268  1
  H  H57  1  0.87577103  0.27715868  0.09957005  1
  H  H58  1  0.87414079  0.61250759  0.11067437  1
  H  H59  1  0.87991308  0.94932348  0.10612331  1
  H  H60  1  0.38371613  0.05688523  0.89737064  1
  H  H61  1  0.37638565  0.38896903  0.90186962  1
  H  H62  1  0.36042250  0.71838327  0.87770732  1
  H  H63  1  0.87820873  0.05402100  0.89999676  1
  H  H64  1  0.88105606  0.38705295  0.89147007  1
  H  H65  1  0.86504632  0.71648198  0.87850838  1
  H  H66  1  0.11340656  0.27740707  0.41045456  1
  H  H67  1  0.12114372  0.61635673  0.37127897  1
  H  H68  1  0.12727824  0.94065784  0.40367395  1
  H  H69  1  0.61943326  0.28677482  0.37031170  1
  H  H70  1  0.61776611  0.60675789  0.40852633  1
  H  H71  1  0.62908946  0.95047469  0.37475382  1
  H  H72  1  0.37536383  0.22032185  0.61307676  1
  H  H73  1  0.37325208  0.55171659  0.61939293  1
  H  H74  1  0.36765358  0.89104132  0.59375366  1
  H  H75  1  0.87350320  0.22143527  0.61245577  1
  H  H76  1  0.87454714  0.54793933  0.60419172  1
  H  H77  1  0.87288714  0.88620470  0.61058180  1
  H  H78  1  0.12809557  0.10751081  0.09681845  1
  H  H79  1  0.12425542  0.45040368  0.12780406  1
  H  H80  1  0.13387902  0.77852978  0.09804525  1
  H  H81  1  0.62009828  0.12042495  0.12174816  1
  H  H82  1  0.62347206  0.44349800  0.10479290  1
  H  H83  1  0.62940014  0.77917160  0.10168849  1
  H  H84  1  0.13002491  0.21683022  0.89432348  1
  H  H85  1  0.12477759  0.54652499  0.87119066  1
  H  H86  1  0.11497978  0.88739677  0.88452992  1
  H  H87  1  0.62645277  0.21952425  0.88747832  1
  H  H88  1  0.63640359  0.55765543  0.91221114  1
  H  H89  1  0.62658786  0.88272852  0.87661462  1
  H  H90  1  0.37627502  0.10572050  0.39631058  1
  H  H91  1  0.36967283  0.45132620  0.37975253  1
  H  H92  1  0.38208523  0.78269595  0.38039375  1
  H  H93  1  0.87537666  0.11606596  0.36940650  1
  H  H94  1  0.86878277  0.43858994  0.40728618  1
  H  H95  1  0.87726005  0.78255643  0.38532081  1
  H  H96  1  0.37728613  0.27897382  0.40921210  1
  H  H97  1  0.37490674  0.61915652  0.36808086  1
  H  H98  1  0.38182411  0.94150539  0.39723083  1
  H  H99  1  0.87112858  0.28762199  0.36744305  1
  H  H100  1  0.87561862  0.60963344  0.40270516  1
  H  H101  1  0.88028620  0.95027286  0.38204289  1
  H  H102  1  0.12670322  0.05295396  0.89688540  1
  H  H103  1  0.12996990  0.38662783  0.89021649  1
  H  H104  1  0.11239999  0.72257562  0.89617197  1
  H  H105  1  0.63208686  0.05313928  0.88476629  1
  H  H106  1  0.62378537  0.37947651  0.88443654  1
  H  H107  1  0.60752577  0.72579277  0.89961886  1
  H  H108  1  0.12376940  0.28188113  0.11355772  1
  H  H109  1  0.12206719  0.61171687  0.10156836  1
  H  H110  1  0.12863470  0.94512238  0.10120348  1
  H  H111  1  0.61205969  0.27379784  0.08117350  1
  H  H112  1  0.62627835  0.61540884  0.11402844  1
  H  H113  1  0.62716375  0.95121748  0.12657369  1
  H  H114  1  0.37178278  0.05579910  0.60416201  1
  H  H115  1  0.37792303  0.39188815  0.60121574  1
  H  H116  1  0.36433863  0.71796091  0.61693971  1
  H  H117  1  0.87774087  0.05106067  0.62906051  1
  H  H118  1  0.87767031  0.38823241  0.60855486  1
  H  H119  1  0.86542982  0.71326615  0.62887558  1
  H  H120  1  0.12954796  0.11528727  0.38211066  1
  H  H121  1  0.12286589  0.44378610  0.40394985  1
  H  H122  1  0.13601223  0.77447830  0.40622797  1
  H  H123  1  0.63396844  0.10760491  0.41251687  1
  H  H124  1  0.62261524  0.44757754  0.38283624  1
  H  H125  1  0.62907621  0.77463115  0.39548021  1
  H  H126  1  0.37893664  0.21907274  0.88659821  1
  H  H127  1  0.36658205  0.55549009  0.91128661  1
  H  H128  1  0.36298045  0.89335061  0.90178413  1
  H  H129  1  0.87486816  0.21955221  0.90120696  1
  H  H130  1  0.87710751  0.54767301  0.86522068  1
  H  H131  1  0.87168100  0.89142203  0.90503460  1
  H  H132  1  0.37491696  0.11735375  0.11420708  1
  H  H133  1  0.36557070  0.43974629  0.08577558  1
  H  H134  1  0.38194414  0.78019780  0.11953297  1
  H  H135  1  0.86273748  0.10611755  0.08533534  1
  H  H136  1  0.87279834  0.44546103  0.10870817  1
  H  H137  1  0.87702635  0.78692502  0.12087523  1
  H  H138  1  0.12608027  0.22248951  0.61634885  1
  H  H139  1  0.12680272  0.55613710  0.59723016  1
  H  H140  1  0.12176597  0.88516699  0.61968794  1
  H  H141  1  0.62577005  0.22714108  0.60404034  1
  H  H142  1  0.62752346  0.55626433  0.61782615  1
  H  H143  1  0.62396105  0.88588396  0.61225234  1
  H  H144  1  0.60656802  0.91593906  0.48651891  1
  H  H145  1  0.45492815  0.91599246  -0.00431613  1
  H  H146  1  0.87703758  0.25805915  0.48206994  1
  H  H147  1  0.59732070  0.40975860  0.99861850  1
  H  H148  1  0.82773490  0.41371652  0.00379708  1
  H  H149  1  0.29653702  0.92183739  1.00444025  1
  H  H150  1  0.08910105  0.41906761  0.99913068  1
  H  H151  1  0.64886760  0.41725680  0.49167664  1
  H  H152  1  0.89315355  0.75024689  -0.00865808  1
  H  H153  1  0.04281248  0.75079538  0.49508613  1
  H  H154  1  0.38275443  0.58580951  0.48198485  1
  H  H155  1  0.42595093  0.57598221  0.00567698  1
  H  H156  1  0.17610752  0.11416017  0.49204226  1
  H  H157  1  0.69681671  0.74894884  -0.00298951  1
  H  H158  1  0.64592716  0.91528329  -0.00802533  1
  H  H159  1  0.63559978  0.08972575  0.01222039  1
  H  H160  1  0.68308369  0.61592510  0.52991066  1
  H  H161  1  0.29169710  0.91549937  0.49302845  1
  H  H162  1  0.13924280  0.58306394  0.97706603  1
  H  H163  1  0.95168150  0.58461891  0.50500993  1
  H  H164  1  0.72093684  0.58471125  1.01307132  1
  H  H165  1  0.91165008  0.58316487  -0.00077405  1
  H  H166  1  0.46100880  0.26570259  0.50607960  1
  H  H167  1  0.33784392  0.08637698  0.00761757  1
  H  H168  1  0.32629770  0.24476764  0.50208805  1
  H  H169  1  0.44642380  0.91074631  0.50356599  1
  H  H170  1  0.37387827  0.25909271  1.01100762  1
  H  H171  1  0.34707535  0.42129342  0.49483800  1
  H  H172  1  0.28236836  0.56852559  1.00835529  1
  H  H173  1  0.89231055  0.07551268  0.51243252  1
  H  H174  1  0.08252204  0.24837759  0.00818543  1
  H  H175  1  0.57016858  0.07508992  0.50977269  1
  H  H176  1  0.21068467  0.75797922  0.50800929  1
  H  H177  1  0.80817960  0.55900407  0.50071265  1
  H  H178  1  0.05075719  0.07414047  0.48913565  1
  H  H179  1  0.71876920  0.08440111  0.50990000  1
  H  H180  1  0.82273278  0.91569116  0.50242809  1
  H  H181  1  0.30540954  0.05617383  0.48466666  1
  H  H182  1  0.88323633  0.74371577  0.51514274  1
  H  H183  1  0.57751675  0.59559040  0.00572152  1
  H  H184  1  0.44101833  0.08008532  0.50216339  1
  H  H185  1  0.19894193  0.74847952  -0.00797106  1
  H  H186  1  0.35584945  0.75366971  0.00963454  1
  H  H187  1  0.53969283  0.57643241  0.50954895  1
  H  H188  1  0.60046749  0.24146384  0.47129513  1
  H  H189  1  0.03372489  0.25055947  0.51195352  1
  H  H190  1  0.17515827  0.26375512  0.51530158  1
  H  H191  1  0.35771755  0.74879574  0.48712941  1
  Pb  Pb192  1  0.24338258  0.05199371  0.74605359  1
  Pb  Pb193  1  0.24750282  0.38122586  0.74689643  1
  Pb  Pb194  1  0.23825463  0.71796422  0.74685757  1
  Pb  Pb195  1  0.74596074  0.04752148  0.74443358  1
  Pb  Pb196  1  0.74580920  0.38329051  0.75141165  1
  Pb  Pb197  1  0.73697606  0.71776230  0.75269460  1
  Pb  Pb198  1  0.24512938  0.28287636  0.26688645  1
  Pb  Pb199  1  0.24961289  0.61651501  0.23963515  1
  Pb  Pb200  1  0.24801560  0.94842667  0.24905225  1
  Pb  Pb201  1  0.74968607  0.28483051  0.23644147  1
  Pb  Pb202  1  0.74679029  0.61463514  0.26254238  1
  Pb  Pb203  1  0.75577686  0.95287979  0.24935814  1
  Pb  Pb204  1  -0.00651488  0.21545422  0.75619858  1
  Pb  Pb205  1  -0.00325392  0.54890951  0.74013805  1
  Pb  Pb206  1  -0.00858122  0.88402652  0.75138869  1
  Pb  Pb207  1  0.50049564  0.21667825  0.74243718  1
  Pb  Pb208  1  0.49310811  0.54977032  0.76246670  1
  Pb  Pb209  1  0.48937848  0.88425104  0.75074792  1
  Pb  Pb210  1  -0.00170100  0.11794128  0.23990538  1
  Pb  Pb211  1  -0.00141852  0.45117896  0.25562436  1
  Pb  Pb212  1  0.00056079  0.78288289  0.25100107  1
  Pb  Pb213  1  0.50262088  0.11761512  0.26221366  1
  Pb  Pb214  1  0.49556767  0.44832479  0.24149285  1
  Pb  Pb215  1  0.50452448  0.78479389  0.25246052  1
  C  C216  1  0.00491036  0.04488543  0.63274516  1
  C  C217  1  0.00247123  0.37901802  0.63171495  1
  C  C218  1  -0.00699802  0.71181701  0.63542845  1
  C  C219  1  0.49348518  0.04031919  0.62998151  1
  C  C220  1  0.49946035  0.38125712  0.63109966  1
  C  C221  1  0.49094684  0.71180699  0.63081781  1
  C  C222  1  -0.00263180  0.29113869  0.12898666  1
  C  C223  1  -0.00057274  0.62216266  0.12862060  1
  C  C224  1  0.00548912  0.95714353  0.12622764  1
  C  C225  1  0.49898114  0.28797540  0.12469648  1
  C  C226  1  0.50159236  0.62491588  0.13480738  1
  C  C227  1  0.49897630  0.95685306  0.13530556  1
  C  C228  1  0.00195530  0.04553156  0.87884164  1
  C  C229  1  0.00527987  0.37735751  0.86816197  1
  C  C230  1  -0.00901173  0.71120056  0.86684705  1
  C  C231  1  0.50552816  0.04506291  0.86917625  1
  C  C232  1  0.49765937  0.37635443  0.87251825  1
  C  C233  1  0.48784963  0.71375987  0.86606335  1
  C  C234  1  -0.00088205  0.28896983  0.36865743  1
  C  C235  1  -0.00750648  0.61972733  0.36344061  1
  C  C236  1  0.00796840  0.95511927  0.37030145  1
  C  C237  1  0.49137396  0.29077221  0.36792923  1
  C  C238  1  0.50284103  0.62073332  0.36851792  1
  C  C239  1  0.50158354  0.95293275  0.36536556  1
  C  C240  1  0.25106556  0.21530118  0.63753682  1
  C  C241  1  0.24587419  0.54496643  0.63286386  1
  C  C242  1  0.24992545  0.87824538  0.62964379  1
  C  C243  1  0.74778320  0.21441388  0.63264760  1
  C  C244  1  0.75247963  0.54258515  0.63300236  1
  C  C245  1  0.74877046  0.87728918  0.63453434  1
  C  C246  1  0.24813417  0.12398835  0.12820114  1
  C  C247  1  0.25198351  0.45117038  0.12711563  1
  C  C248  1  0.25455158  0.78751035  0.13071989  1
  C  C249  1  0.74822412  0.12336368  0.12658501  1
  C  C250  1  0.74777322  0.45555511  0.12806042  1
  C  C251  1  0.74930079  0.79206229  0.13405568  1
  C  C252  1  0.25334401  0.20764805  0.86819978  1
  C  C253  1  0.25288120  0.54150449  0.86975894  1
  C  C254  1  0.24255636  0.87865441  0.87202783  1
  C  C255  1  0.75273509  0.20872498  0.87245610  1
  C  C256  1  0.74813440  0.54521580  0.86893024  1
  C  C257  1  0.75287859  0.87982030  0.87048543  1
  C  C258  1  0.25583071  0.11783389  0.36673139  1
  C  C259  1  0.24308349  0.45562146  0.37126795  1
  C  C260  1  0.25427857  0.78701920  0.37121188  1
  C  C261  1  0.74697996  0.12366582  0.37058237  1
  C  C262  1  0.74994912  0.45298343  0.37395071  1
  C  C263  1  0.75111657  0.78835775  0.36749399  1
  C  C264  1  0.55945183  0.92619489  0.45324666  1
  C  C265  1  0.92880151  0.26564418  0.45205178  1
  C  C266  1  0.46268259  0.59162847  0.04393332  1
  C  C267  1  0.21835699  0.42668377  0.46710352  1
  C  C268  1  0.93161082  0.73533198  0.54802771  1
  C  C269  1  0.18765140  0.91378794  0.95842634  1
  C  C270  1  0.02871607  0.91873080  0.46292721  1
  C  C271  1  0.22979597  0.75925224  0.03502808  1
  C  C272  1  0.77279933  0.41864124  0.46886197  1
  C  C273  1  0.47800655  0.92347082  0.46149143  1
  C  C274  1  0.82273028  0.56847912  0.94976335  1
  C  C275  1  0.51376300  0.59002116  0.46559135  1
  C  C276  1  0.43551785  0.74055409  0.95452578  1
  C  C277  1  0.81714947  0.09260778  0.45178844  1
  C  C278  1  0.95665555  0.59453347  0.03717671  1
  C  C279  1  0.02223991  0.06662504  0.53380329  1
  C  C280  1  0.55064678  0.40171778  0.96335010  1
  C  C281  1  0.72757058  0.76104471  0.03974371  1
  C  C282  1  0.77432808  0.90893516  0.96646672  1
  C  C283  1  0.51587803  0.74144943  0.53602893  1
  C  C284  1  0.72222009  0.75337644  0.45945473  1
  C  C285  1  0.00849950  0.26201302  0.46704907  1
  C  C286  1  0.78406927  0.90492923  0.54163384  1
  C  C287  1  0.69364781  0.90631503  0.95849375  1
  C  C288  1  0.03805064  0.92253281  0.03522682  1
  C  C289  1  0.43380133  0.59442780  0.45158056  1
  C  C290  1  0.01989255  0.74165341  0.96123440  1
  C  C291  1  0.94150406  0.06657846  0.54541336  1
  C  C292  1  0.55210769  0.07544422  0.95857466  1
  C  C293  1  0.04455604  0.07306997  0.96972905  1
  C  C294  1  0.96413724  0.07336879  0.97090290  1
  C  C295  1  0.29472714  0.24260289  0.95712992  1
  C  C296  1  0.46941421  0.40491102  0.96772912  1
  C  C297  1  0.74469675  0.57253210  0.96782523  1
  C  C298  1  0.78117455  0.24780530  0.96221970  1
  C  C299  1  0.42757643  0.26535090  0.04087209  1
  C  C300  1  0.50674362  0.25964945  0.02711823  1
  C  C301  1  0.48304849  0.92723713  0.03977630  1
  C  C302  1  0.70880518  0.42063260  0.03654854  1
  C  C303  1  0.28979653  0.23775990  0.54316385  1
  C  C304  1  0.04359385  0.40709704  0.95989033  1
  C  C305  1  0.47159980  0.41245167  0.53708889  1
  C  C306  1  0.29945145  0.42965383  0.46054172  1
  C  C307  1  0.01257321  0.73880899  0.53803710  1
  C  C308  1  0.26065294  0.42686118  0.02926696  1
  C  C309  1  0.97915830  0.59468058  0.46041187  1
  C  C310  1  0.93880595  0.73995796  0.95655640  1
  C  C311  1  0.18253440  0.43051855  0.04332432  1
  N  N312  1  0.51253353  0.74337470  0.96273931  1
  N  N313  1  0.18976064  0.90794903  0.54424630  1
  N  N314  1  0.54227980  0.59433477  0.04448624  1
  N  N315  1  0.79212024  0.24189917  0.54122726  1
  N  N316  1  0.03591230  0.59478430  0.03369729  1
  N  N317  1  0.96408468  0.40774236  0.96106010  1
  N  N318  1  0.26349692  0.57584313  0.96339999  1
  N  N319  1  0.78778821  0.42260213  0.03853754  1
  N  N320  1  0.18634167  0.56460602  0.95235143  1
  N  N321  1  0.78783045  0.57583585  0.54213750  1
  N  N322  1  0.69474738  0.42361168  0.46000823  1
  N  N323  1  0.54324157  0.08847443  0.55051393  1
  N  N324  1  0.95165588  0.92185508  0.45729374  1
  N  N325  1  0.96238662  0.40730050  0.53907619  1
  N  N326  1  0.56109729  0.92860675  0.04954178  1
  N  N327  1  0.05707502  0.59619108  0.45013694  1
  N  N328  1  0.26711362  0.90999540  0.53668755  1
  N  N329  1  0.21951516  0.08810617  0.03565999  1
  N  N330  1  0.23474373  0.75365095  0.46408096  1
  N  N331  1  0.54935818  0.41074493  0.54047520  1
  N  N332  1  0.26634256  0.91421888  0.96372385  1
  N  N333  1  0.28635157  0.09392636  0.46220856  1
  N  N334  1  0.29860251  0.57215683  0.54398890  1
  N  N335  1  0.22324015  0.57426628  0.53712001  1
  N  N336  1  0.30870195  0.75994817  0.04349972  1
  N  N337  1  0.70399051  0.24802765  0.95899738  1
  N  N338  1  0.20359514  0.09256117  0.45579427  1
  N  N339  1  0.71579309  0.24237588  0.53795890  1
  N  N340  1  0.55740065  0.26782332  0.45104988  1
  N  N341  1  0.04276142  0.25537475  0.04366504  1
  N  N342  1  0.21704215  0.24224246  0.96084492  1
  N  N343  1  0.21005141  0.23972734  0.54526676  1
  N  N344  1  0.96501199  0.25368635  0.03787696  1
  N  N345  1  0.31225789  0.76562960  0.45787248  1
  N  N346  1  0.74018867  0.09081479  0.46523366  1
  N  N347  1  0.70480192  0.90465207  0.54166083  1
  N  N348  1  0.80615347  0.76264371  0.04667130  1
  N  N349  1  0.79945374  0.75633626  0.45718533  1
  N  N350  1  0.47918804  0.25607182  0.46149108  1
  N  N351  1  0.68583904  0.09678623  0.04357403  1
  N  N352  1  0.46070025  0.09001517  0.54642662  1
  N  N353  1  0.03861416  0.40767510  0.53825177  1
  N  N354  1  0.29704822  0.09126739  0.04267820  1
  N  N355  1  0.96096984  0.92370320  0.03553855  1
  N  N356  1  0.47433010  0.07726758  0.96394058  1
  N  N357  1  0.70561577  0.57599917  0.54514729  1
  N  N358  1  0.43860951  0.73812537  0.54022340  1
  N  N359  1  0.76188046  0.09081154  0.03088086  1
  N  N360  1  0.06053361  0.05324308  0.58864411  1
  N  N361  1  0.06500967  0.39061749  0.59562751  1
  N  N362  1  0.04949585  0.72377478  0.59284108  1
  N  N363  1  0.56028075  0.05541536  0.60117184  1
  N  N364  1  0.56658471  0.39137094  0.60041062  1
  N  N365  1  0.55000646  0.72563327  0.59039124  1
  N  N366  1  0.42458503  0.28272371  0.10269492  1
  N  N367  1  0.43729514  0.60931116  0.10025982  1
  N  N368  1  0.44338337  0.94420368  0.09221001  1
  N  N369  1  0.93729921  0.27450916  0.09196976  1
  N  N370  1  0.93329309  0.61096280  0.09527054  1
  N  N371  1  0.94034032  0.94583860  0.09334047  1
  N  N372  1  0.44555240  0.05789883  0.90677786  1
  N  N373  1  0.43755164  0.38981955  0.91305060  1
  N  N374  1  0.41778068  0.72278005  0.89563620  1
  N  N375  1  0.93749963  0.05667959  0.91539447  1
  N  N376  1  0.94203666  0.38890850  0.90326805  1
  N  N377  1  0.92209382  0.72098028  0.89669510  1
  N  N378  1  0.05119233  0.27661550  0.41442928  1
  N  N379  1  0.06358649  0.61152572  0.38980522  1
  N  N380  1  0.06573207  0.93888427  0.41100161  1
  N  N381  1  0.56347561  0.27733953  0.38960290  1
  N  N382  1  0.55558808  0.60654654  0.41326520  1
  N  N383  1  0.57238013  0.94435526  0.39358184  1
  N  N384  1  0.31536875  0.22128084  0.59982820  1
  N  N385  1  0.31449143  0.55438972  0.60329183  1
  N  N386  1  0.30543242  0.88952151  0.58739275  1
  N  N387  1  0.81343113  0.22474008  0.59956388  1
  N  N388  1  0.81322419  0.54738561  0.59375620  1
  N  N389  1  0.81236346  0.88878537  0.59842556  1
  N  N390  1  0.18969038  0.10680432  0.08997235  1
  N  N391  1  0.17742369  0.44516842  0.10364890  1
  N  N392  1  0.19557887  0.77566841  0.08924953  1
  N  N393  1  0.67637692  0.11731455  0.10137516  1
  N  N394  1  0.68377716  0.44045990  0.09212512  1
  N  N395  1  0.69118331  0.77845108  0.09330050  1
  N  N396  1  0.19141006  0.21955257  0.90421189  1
  N  N397  1  0.18052126  0.55306512  0.89185310  1
  N  N398  1  0.17294774  0.89250802  0.90141454  1
  N  N399  1  0.68601842  0.22342744  0.90194442  1
  N  N400  1  0.69856385  0.55743808  0.91575742  1
  N  N401  1  0.68167405  0.88829102  0.89757037  1
  N  N402  1  0.31496660  0.10062428  0.40344724  1
  N  N403  1  0.31331881  0.44742449  0.39970246  1
  N  N404  1  0.32446293  0.77670428  0.39779856  1
  N  N405  1  0.82170981  0.11176614  0.39281936  1
  N  N406  1  0.80727605  0.43695930  0.41579589  1
  N  N407  1  0.81787198  0.77830837  0.39897078  1
  N  N408  1  0.43932522  0.28186072  0.41339222  1
  N  N409  1  0.42872379  0.61305024  0.39135603  1
  N  N410  1  0.44333300  0.94024391  0.40627894  1
  N  N411  1  0.92472668  0.28176879  0.39109055  1
  N  N412  1  0.93779655  0.60892978  0.40774903  1
  N  N413  1  0.93883018  0.94438291  0.39805236  1
  N  N414  1  0.06837176  0.05642259  0.91340417  1
  N  N415  1  0.06983355  0.38888185  0.90323380  1
  N  N416  1  0.05127978  0.72438026  0.90714792  1
  N  N417  1  0.57329888  0.05637088  0.90090821  1
  N  N418  1  0.56670597  0.38408324  0.90269914  1
  N  N419  1  0.54497265  0.72651772  0.90616925  1
  N  N420  1  0.06415779  0.28037309  0.09776825  1
  N  N421  1  0.06102973  0.61209105  0.09138143  1
  N  N422  1  0.06836934  0.94249032  0.08982137  1
  N  N423  1  0.54992658  0.27333591  0.07746039  1
  N  N424  1  0.56605540  0.61779936  0.09975576  1
  N  N425  1  0.56947002  0.94689027  0.10904786  1
  N  N426  1  0.43297450  0.05603810  0.59369751  1
  N  N427  1  0.43916670  0.39473010  0.59166980  1
  N  N428  1  0.42275616  0.71957261  0.60070806  1
  N  N429  1  0.93248864  0.05319224  0.60701683  1
  N  N430  1  0.93844183  0.38917025  0.59676063  1
  N  N431  1  0.92105643  0.71872916  0.60839692  1
  N  N432  1  0.18852881  0.11609809  0.39910050  1
  N  N433  1  0.18444072  0.44220725  0.41326948  1
  N  N434  1  0.19829537  0.77710123  0.41366324  1
  N  N435  1  0.69587415  0.11298566  0.41611256  1
  N  N436  1  0.68007869  0.44590745  0.40189393  1
  N  N437  1  0.69021278  0.77263827  0.40537998  1
  N  N438  1  0.31936798  0.22241679  0.90086933  1
  N  N439  1  0.30454657  0.55133214  0.91538721  1
  N  N440  1  0.30133174  0.89050815  0.91140828  1
  N  N441  1  0.81407967  0.22403210  0.91031032  1
  N  N442  1  0.82419003  0.55246144  0.89001719  1
  N  N443  1  0.80990109  0.89299615  0.91356374  1
  N  N444  1  0.31604344  0.11514624  0.09778716  1
  N  N445  1  0.30351122  0.43919256  0.08037938  1
  N  N446  1  0.32355330  0.77833570  0.10209125  1
  N  N447  1  0.80049266  0.10742789  0.08271731  1
  N  N448  1  0.81251788  0.44530843  0.09447497  1
  N  N449  1  0.81824337  0.78211944  0.10538420  1
  N  N450  1  0.18664600  0.22890707  0.60470426  1
  N  N451  1  0.18881945  0.55715988  0.59193120  1
  N  N452  1  0.17971701  0.89024475  0.60283155  1
  N  N453  1  0.68706384  0.22590712  0.59476187  1
  N  N454  1  0.68744626  0.56213763  0.60462218  1
  N  N455  1  0.68430743  0.88725259  0.60004517  1
  Cl  Cl456  1  0.24847729  0.05761075  0.60257102  1
  Cl  Cl457  1  0.25230265  0.38662325  0.61054494  1
  Cl  Cl458  1  0.23498342  0.73156626  0.60797960  1
  Cl  Cl459  1  0.74063658  0.06171670  0.60592538  1
  Cl  Cl460  1  0.75307190  0.39293410  0.61591782  1
  Cl  Cl461  1  0.73258099  0.71639262  0.61912474  1
  Cl  Cl462  1  0.24128784  0.27870139  0.13567270  1
  Cl  Cl463  1  0.25109301  0.60488535  0.10213305  1
  Cl  Cl464  1  0.25860068  0.93993636  0.10902086  1
  Cl  Cl465  1  0.74737509  0.27788224  0.10347977  1
  Cl  Cl466  1  0.74774038  0.60778055  0.12618121  1
  Cl  Cl467  1  0.75639306  0.94737771  0.11787506  1
  Cl  Cl468  1  0.26034110  0.05583957  0.87930141  1
  Cl  Cl469  1  0.25436249  0.39036389  0.87921818  1
  Cl  Cl470  1  0.23459238  0.72110367  0.88397995  1
  Cl  Cl471  1  0.75462267  0.05711792  0.87387637  1
  Cl  Cl472  1  0.75646523  0.38852394  0.88516075  1
  Cl  Cl473  1  0.73006626  0.72274466  0.88828683  1
  Cl  Cl474  1  0.24482925  0.27572931  0.40687695  1
  Cl  Cl475  1  0.24563246  0.61999139  0.36665420  1
  Cl  Cl476  1  0.25678851  0.94267897  0.39506387  1
  Cl  Cl477  1  0.74220558  0.28669829  0.36930116  1
  Cl  Cl478  1  0.74729093  0.60578131  0.40127891  1
  Cl  Cl479  1  0.75619446  0.95310982  0.38145187  1
  Cl  Cl480  1  0.00268917  0.21985950  0.61983437  1
  Cl  Cl481  1  -0.00229658  0.55744268  0.60458867  1
  Cl  Cl482  1  -0.00293600  0.88582794  0.61998207  1
  Cl  Cl483  1  0.50064510  0.23484078  0.60403835  1
  Cl  Cl484  1  0.50387530  0.55397755  0.62687464  1
  Cl  Cl485  1  0.48977611  0.89017849  0.61314414  1
  Cl  Cl486  1  -0.00370091  0.10598720  0.10336354  1
  Cl  Cl487  1  -0.00730668  0.44213902  0.12249478  1
  Cl  Cl488  1  0.00901066  0.78312713  0.11889691  1
  Cl  Cl489  1  0.49624725  0.11555867  0.13091193  1
  Cl  Cl490  1  0.49672787  0.44489211  0.10564045  1
  Cl  Cl491  1  0.50619608  0.77801125  0.12090715  1
  Cl  Cl492  1  0.00580660  0.21778050  0.88979910  1
  Cl  Cl493  1  0.00334760  0.55340871  0.87099152  1
  Cl  Cl494  1  -0.00791911  0.88740470  0.88300328  1
  Cl  Cl495  1  0.50285061  0.21715388  0.87303709  1
  Cl  Cl496  1  0.49865883  0.56110053  0.90187157  1
  Cl  Cl497  1  0.48408452  0.89556879  0.88577373  1
  Cl  Cl498  1  0.00880446  0.10757748  0.37358911  1
  Cl  Cl499  1  -0.00448706  0.44517308  0.38640069  1
  Cl  Cl500  1  0.01453758  0.77731466  0.38683696  1
  Cl  Cl501  1  0.50511037  0.10393436  0.40652748  1
  Cl  Cl502  1  0.49923253  0.44181376  0.37287208  1
  Cl  Cl503  1  0.50583796  0.77505715  0.38572832  1
  Cl  Cl504  1  0.36773689  0.14502323  0.73754619  1
  Cl  Cl505  1  0.36034296  0.48150596  0.74686004  1
  Cl  Cl506  1  0.35900743  0.81238116  0.75082207  1
  Cl  Cl507  1  0.85960518  0.14709617  0.74034176  1
  Cl  Cl508  1  0.86757205  0.47710480  0.75442042  1
  Cl  Cl509  1  0.85850908  0.81260466  0.74997574  1
  Cl  Cl510  1  0.15064083  0.18158082  0.25470659  1
  Cl  Cl511  1  0.14122113  0.51481960  0.24337861  1
  Cl  Cl512  1  0.15213952  0.84979623  0.25080594  1
  Cl  Cl513  1  0.63950527  0.18385128  0.24903641  1
  Cl  Cl514  1  0.64440608  0.51732029  0.25316130  1
  Cl  Cl515  1  0.64153127  0.85359027  0.25283153  1
  Cl  Cl516  1  0.14638156  0.15023377  0.74836088  1
  Cl  Cl517  1  0.13843660  0.48397130  0.75148863  1
  Cl  Cl518  1  0.14183784  0.81757916  0.74899461  1
  Cl  Cl519  1  0.63718510  0.14899916  0.74429327  1
  Cl  Cl520  1  0.64523901  0.48528420  0.74746717  1
  Cl  Cl521  1  0.63931627  0.81708587  0.75815655  1
  Cl  Cl522  1  0.36978697  0.18933084  0.26222186  1
  Cl  Cl523  1  0.36136163  0.51692594  0.25282611  1
  Cl  Cl524  1  0.37191051  0.85607802  0.25742261  1
  Cl  Cl525  1  0.86173595  0.18399902  0.25508593  1
  Cl  Cl526  1  0.86104863  0.51654463  0.25445491  1
  Cl  Cl527  1  0.86457142  0.85073445  0.25498307  1
  Cl  Cl528  1  0.10934213  0.31438367  0.74805403  1
  Cl  Cl529  1  0.10303914  0.65211095  0.75221797  1
  Cl  Cl530  1  0.10962010  0.98192467  0.75414414  1
  Cl  Cl531  1  0.60800386  0.31947953  0.74896867  1
  Cl  Cl532  1  0.60107456  0.65194346  0.75076051  1
  Cl  Cl533  1  0.60972517  0.98015095  0.74096481  1
  Cl  Cl534  1  0.38981480  0.02126700  0.25576953  1
  Cl  Cl535  1  0.39179460  0.35179185  0.24469888  1
  Cl  Cl536  1  0.38570999  0.68837211  0.24933436  1
  Cl  Cl537  1  0.89499221  0.01905554  0.25224673  1
  Cl  Cl538  1  0.88761779  0.35018181  0.24984197  1
  Cl  Cl539  1  0.89254426  0.68637084  0.24615303  1
  Cl  Cl540  1  0.38757225  0.31555282  0.74840663  1
  Cl  Cl541  1  0.38361863  0.64455795  0.74877460  1
  Cl  Cl542  1  0.38992507  0.98070116  0.74807677  1
  Cl  Cl543  1  0.89140956  0.31128604  0.75121725  1
  Cl  Cl544  1  0.87855725  0.64283255  0.74511347  1
  Cl  Cl545  1  0.88861555  0.98370927  0.74555943  1
  Cl  Cl546  1  0.11489204  0.01787764  0.24655759  1
  Cl  Cl547  1  0.10820294  0.34850632  0.25381308  1
  Cl  Cl548  1  0.11280267  0.68233378  0.24332025  1
  Cl  Cl549  1  0.61526081  0.01805299  0.24822332  1
  Cl  Cl550  1  0.61116881  0.35001821  0.24529595  1
  Cl  Cl551  1  0.61068820  0.68136993  0.25133967  1
