# generated using pymatgen
data_H8PbC4(N3Cl2)2
_symmetry_space_group_name_H-M   'P 1'
_cell_length_a   16.61777990
_cell_length_b   22.50232807
_cell_length_c   21.58912208
_cell_angle_alpha   89.99911127
_cell_angle_beta   90.01450973
_cell_angle_gamma   89.99645179
_symmetry_Int_Tables_number   1
_chemical_formula_structural   H8PbC4(N3Cl2)2
_chemical_formula_sum   'H192 Pb24 C96 N144 Cl96'
_cell_volume   8073.00872799
_cell_formula_units_Z   24
loop_
 _symmetry_equiv_pos_site_id
 _symmetry_equiv_pos_as_xyz
  1  'x, y, z'
loop_
 _atom_site_type_symbol
 _atom_site_label
 _atom_site_symmetry_multiplicity
 _atom_site_fract_x
 _atom_site_fract_y
 _atom_site_fract_z
 _atom_site_occupancy
  H  H0  1  0.00156467  0.03286075  0.68209881  1
  H  H1  1  0.00151308  0.36377765  0.68122263  1
  H  H2  1  0.00082151  0.69875641  0.68213838  1
  H  H3  1  0.50570079  0.03224424  0.67760898  1
  H  H4  1  0.49974192  0.36521845  0.67912981  1
  H  H5  1  0.50126113  0.69764874  0.68007204  1
  H  H6  1  0.00086891  0.30148325  0.18051480  1
  H  H7  1  -0.00653098  0.63486083  0.17781775  1
  H  H8  1  0.00322786  0.96881723  0.17887283  1
  H  H9  1  0.50149305  0.30147423  0.18095057  1
  H  H10  1  0.50364375  0.63516076  0.17998978  1
  H  H11  1  0.50590511  0.96873896  0.18034229  1
  H  H12  1  0.00120510  0.03034730  0.81932859  1
  H  H13  1  -0.00815773  0.36569015  0.81737661  1
  H  H14  1  0.00414675  0.69998420  0.82127299  1
  H  H15  1  0.50699606  0.03085804  0.81843271  1
  H  H16  1  0.50002118  0.36439802  0.82309769  1
  H  H17  1  0.49064077  0.69948747  0.81830193  1
  H  H18  1  -0.00191787  0.30067331  0.31873862  1
  H  H19  1  -0.00636850  0.63324247  0.32121005  1
  H  H20  1  -0.00602682  0.96718412  0.31889546  1
  H  H21  1  0.49577159  0.30093645  0.31999018  1
  H  H22  1  0.50070926  0.63582732  0.32158089  1
  H  H23  1  0.50953880  0.96648215  0.32208676  1
  H  H24  1  0.25472577  0.19861400  0.68165126  1
  H  H25  1  0.25028043  0.53371860  0.67817708  1
  H  H26  1  0.25057938  0.86569980  0.68146576  1
  H  H27  1  0.74255554  0.19658304  0.68062875  1
  H  H28  1  0.75566755  0.53333850  0.67966806  1
  H  H29  1  0.75025383  0.86733725  0.68002995  1
  H  H30  1  0.25087047  0.13434210  0.18199800  1
  H  H31  1  0.24701976  0.46791143  0.18041623  1
  H  H32  1  0.25478310  0.80214285  0.18197987  1
  H  H33  1  0.74898698  0.13473420  0.18144123  1
  H  H34  1  0.75862080  0.46540528  0.18004774  1
  H  H35  1  0.74279745  0.80185983  0.18021635  1
  H  H36  1  0.25257249  0.19703369  0.81691897  1
  H  H37  1  0.24930455  0.53145111  0.82211287  1
  H  H38  1  0.24696671  0.86646558  0.82013385  1
  H  H39  1  0.74674899  0.19751018  0.82032107  1
  H  H40  1  0.75767270  0.53216906  0.81846333  1
  H  H41  1  0.74603835  0.86596956  0.82139816  1
  H  H42  1  0.24629854  0.13489297  0.32202098  1
  H  H43  1  0.24462804  0.46804995  0.31906648  1
  H  H44  1  0.25551507  0.80232437  0.31684283  1
  H  H45  1  0.74994026  0.13599595  0.32129881  1
  H  H46  1  0.75109537  0.46729315  0.31943752  1
  H  H47  1  0.74777261  0.80263778  0.32027314  1
  H  H48  1  0.11828449  0.05706481  0.60540054  1
  H  H49  1  0.12371977  0.38821521  0.60690080  1
  H  H50  1  0.12418846  0.72059902  0.61096800  1
  H  H51  1  0.61899004  0.05496304  0.59782906  1
  H  H52  1  0.62510291  0.38848962  0.61039479  1
  H  H53  1  0.62732345  0.72135663  0.61266386  1
  H  H54  1  0.37454296  0.28016292  0.11270292  1
  H  H55  1  0.37913222  0.61135040  0.11067487  1
  H  H56  1  0.37356070  0.94706659  0.11460916  1
  H  H57  1  0.87259717  0.28039772  0.11216806  1
  H  H58  1  0.88550637  0.60861909  0.09492044  1
  H  H59  1  0.87197659  0.94740860  0.11490418  1
  H  H60  1  0.37627216  0.05297751  0.88514661  1
  H  H61  1  0.37895791  0.39245918  0.89421379  1
  H  H62  1  0.37864223  0.72329022  0.90059459  1
  H  H63  1  0.87694176  0.05377346  0.89113538  1
  H  H64  1  0.88143196  0.38786504  0.89700511  1
  H  H65  1  0.87406155  0.72052461  0.88463199  1
  H  H66  1  0.12932808  0.28139536  0.38319587  1
  H  H67  1  0.13169563  0.61458772  0.37669553  1
  H  H68  1  0.12902035  0.94800348  0.38044553  1
  H  H69  1  0.62883854  0.28066657  0.38358419  1
  H  H70  1  0.63290374  0.61343117  0.38586097  1
  H  H71  1  0.62549622  0.94587750  0.39798948  1
  H  H72  1  0.36826396  0.22197763  0.60350977  1
  H  H73  1  0.36792690  0.55800419  0.60241776  1
  H  H74  1  0.37220568  0.88729502  0.60801000  1
  H  H75  1  0.87234435  0.21952103  0.61375054  1
  H  H76  1  0.86203178  0.55761737  0.59685482  1
  H  H77  1  0.86777141  0.88808875  0.60519555  1
  H  H78  1  0.12410585  0.11314435  0.11490470  1
  H  H79  1  0.12628379  0.44610063  0.10835068  1
  H  H80  1  0.12029706  0.78364764  0.12248574  1
  H  H81  1  0.62545950  0.11348162  0.10812773  1
  H  H82  1  0.61847560  0.44935416  0.12732745  1
  H  H83  1  0.62862496  0.77817757  0.10124242  1
  H  H84  1  0.12721746  0.22070880  0.88852138  1
  H  H85  1  0.11994073  0.55442053  0.88814457  1
  H  H86  1  0.12672858  0.88731324  0.89528367  1
  H  H87  1  0.62734529  0.22199932  0.89394404  1
  H  H88  1  0.62090608  0.55166865  0.87828621  1
  H  H89  1  0.62776492  0.88852262  0.89721854  1
  H  H90  1  0.38048188  0.11503353  0.38361361  1
  H  H91  1  0.37281251  0.44643024  0.38690403  1
  H  H92  1  0.37680575  0.78102973  0.39029198  1
  H  H93  1  0.87608135  0.11313731  0.39114789  1
  H  H94  1  0.87608444  0.44619586  0.39113578  1
  H  H95  1  0.87094152  0.77877400  0.39253066  1
  H  H96  1  0.38087413  0.27631939  0.39979374  1
  H  H97  1  0.38521046  0.60977639  0.40014466  1
  H  H98  1  0.37780360  0.94839590  0.38382369  1
  H  H99  1  0.88011454  0.27894439  0.39295483  1
  H  H100  1  0.88567824  0.60769782  0.40421352  1
  H  H101  1  0.88026593  0.94586056  0.39797156  1
  H  H102  1  0.12582557  0.05332251  0.88878331  1
  H  H103  1  0.12889689  0.38447179  0.87464712  1
  H  H104  1  0.12222456  0.72091648  0.89608303  1
  H  H105  1  0.62474293  0.05455619  0.89698996  1
  H  H106  1  0.62725398  0.38313731  0.89290779  1
  H  H107  1  0.62573918  0.71999652  0.87913728  1
  H  H108  1  0.12245849  0.27954495  0.10766384  1
  H  H109  1  0.13178623  0.61607033  0.12243084  1
  H  H110  1  0.12033068  0.94337069  0.10138505  1
  H  H111  1  0.62411646  0.28020134  0.11073394  1
  H  H112  1  0.62878979  0.61116951  0.10924458  1
  H  H113  1  0.62167124  0.94377250  0.10119046  1
  H  H114  1  0.37138678  0.05246511  0.61581813  1
  H  H115  1  0.37601332  0.38925500  0.60758296  1
  H  H116  1  0.37876030  0.72102868  0.60698619  1
  H  H117  1  0.86915100  0.05178985  0.61558040  1
  H  H118  1  0.87533211  0.38765517  0.61089965  1
  H  H119  1  0.87429626  0.72062047  0.61205933  1
  H  H120  1  0.13284653  0.10894323  0.40068367  1
  H  H121  1  0.12439349  0.44444136  0.39449438  1
  H  H122  1  0.12792378  0.77827598  0.38587246  1
  H  H123  1  0.62715866  0.11180432  0.39284227  1
  H  H124  1  0.62617199  0.44558941  0.38923664  1
  H  H125  1  0.62244771  0.78098397  0.39154904  1
  H  H126  1  0.37638691  0.22092508  0.88769966  1
  H  H127  1  0.36865271  0.55501024  0.89642507  1
  H  H128  1  0.37581208  0.88697975  0.88923263  1
  H  H129  1  0.87601472  0.21981140  0.88745670  1
  H  H130  1  0.86810754  0.55733953  0.89975352  1
  H  H131  1  0.87655830  0.88485020  0.88377306  1
  H  H132  1  0.37377978  0.11387194  0.11055368  1
  H  H133  1  0.37551904  0.44650053  0.11450186  1
  H  H134  1  0.36865950  0.77769236  0.10430598  1
  H  H135  1  0.87506291  0.11265755  0.11193414  1
  H  H136  1  0.86401140  0.44357648  0.09626739  1
  H  H137  1  0.87709082  0.78198272  0.11868350  1
  H  H138  1  0.12016729  0.21816038  0.62308968  1
  H  H139  1  0.11962704  0.55153239  0.61162344  1
  H  H140  1  0.12302312  0.88768256  0.61208694  1
  H  H141  1  0.62402253  0.22141368  0.60275923  1
  H  H142  1  0.61555676  0.55000141  0.62618301  1
  H  H143  1  0.61860170  0.88600387  0.61563229  1
  H  H144  1  0.17273540  0.41610068  -0.00168219  1
  H  H145  1  0.57828139  0.24972864  -0.00013823  1
  H  H146  1  0.42351456  0.58223485  0.00058904  1
  H  H147  1  0.05720738  0.08430993  0.49773867  1
  H  H148  1  0.84510181  0.91574452  0.99736234  1
  H  H149  1  0.14483456  0.75494259  0.00965519  1
  H  H150  1  0.94644672  0.41576398  1.00537689  1
  H  H151  1  0.07717713  0.74921746  0.50113094  1
  H  H152  1  0.30706776  0.57594278  0.49809890  1
  H  H153  1  0.09759684  0.91890458  0.48778577  1
  H  H154  1  0.66899985  0.41724289  0.49960877  1
  H  H155  1  0.79982814  0.58253668  1.00537317  1
  H  H156  1  0.42838942  0.41050865  0.99900222  1
  H  H157  1  0.82826946  0.41477397  0.49457953  1
  H  H158  1  0.32427547  0.75267862  0.49862305  1
  H  H159  1  0.67094704  0.75432936  0.49616480  1
  H  H160  1  0.58260212  0.58386942  0.00441796  1
  H  H161  1  0.15559733  0.58205939  0.50560829  1
  H  H162  1  0.81184959  0.91634381  0.49432484  1
  H  H163  1  0.44854226  0.24958571  0.50174270  1
  H  H164  1  0.32819849  0.24846570  0.99709161  1
  H  H165  1  0.91413043  0.25137989  0.00713788  1
  H  H166  1  0.91959078  0.75033689  0.50782354  1
  H  H167  1  0.95715143  0.58145116  0.50502199  1
  H  H168  1  0.32817944  0.08508896  0.00074274  1
  H  H169  1  0.60021788  0.58393500  0.49343669  1
  H  H170  1  0.34854189  0.08003588  0.48809190  1
  H  H171  1  0.14302808  0.24786001  0.50984966  1
  H  H172  1  0.82784416  0.08324341  0.00278023  1
  H  H173  1  0.79270510  0.41647181  -0.00943519  1
  H  H174  1  0.30817225  0.75185733  -0.00444528  1
  H  H175  1  0.20073100  0.09555600  0.50448092  1
  H  H176  1  0.32983870  0.91655298  0.99383145  1
  H  H177  1  0.94271497  0.92173208  0.50689426  1
  H  H178  1  0.30731924  0.24842351  0.49514174  1
  H  H179  1  0.42619452  0.41744784  0.50314552  1
  H  H180  1  0.95733946  0.58447094  -0.00645563  1
  H  H181  1  0.15756279  0.58212829  0.99519376  1
  H  H182  1  0.32210684  0.91596953  0.50023483  1
  H  H183  1  0.93275358  0.24981286  0.50226055  1
  H  H184  1  0.68863325  0.75299789  -0.00609237  1
  H  H185  1  0.07290520  0.25118090  -0.00150262  1
  H  H186  1  0.18298876  0.41492811  0.49697481  1
  H  H187  1  0.84879682  0.75422140  0.01109593  1
  H  H188  1  0.16193508  0.08428789  0.00359667  1
  H  H189  1  0.58851688  0.41653639  0.99737313  1
  H  H190  1  0.44967349  0.75132131  1.00089564  1
  H  H191  1  0.79223017  0.58382579  0.49081298  1
  Pb  Pb192  1  0.25100910  0.04888756  0.74589579  1
  Pb  Pb193  1  0.24985285  0.37891089  0.74552140  1
  Pb  Pb194  1  0.24868948  0.71676607  0.75168354  1
  Pb  Pb195  1  0.74770287  0.04473943  0.75168760  1
  Pb  Pb196  1  0.74803067  0.38348718  0.74933895  1
  Pb  Pb197  1  0.74808494  0.71443187  0.74781568  1
  Pb  Pb198  1  0.24770060  0.28458521  0.25075458  1
  Pb  Pb199  1  0.25347801  0.62100064  0.25312314  1
  Pb  Pb200  1  0.25043442  0.95430432  0.24614275  1
  Pb  Pb201  1  0.75113722  0.28831232  0.24831760  1
  Pb  Pb202  1  0.75374193  0.61891380  0.24802487  1
  Pb  Pb203  1  0.74959040  0.95481332  0.25047866  1
  Pb  Pb204  1  -0.00369356  0.21304401  0.75541772  1
  Pb  Pb205  1  -0.00007112  0.54889232  0.75030964  1
  Pb  Pb206  1  -0.00183166  0.88244554  0.74585317  1
  Pb  Pb207  1  0.50414764  0.21456235  0.74514655  1
  Pb  Pb208  1  0.49308607  0.54829267  0.75207793  1
  Pb  Pb209  1  0.49684438  0.87917840  0.75059425  1
  Pb  Pb210  1  -0.00332057  0.11892669  0.25448993  1
  Pb  Pb211  1  0.00114035  0.45428189  0.24734599  1
  Pb  Pb212  1  0.00006797  0.78764977  0.25702278  1
  Pb  Pb213  1  0.50098043  0.12132019  0.25062268  1
  Pb  Pb214  1  0.49821120  0.45227103  0.25277232  1
  Pb  Pb215  1  0.50152450  0.78766949  0.24447087  1
  C  C216  1  -0.00389054  0.04700900  0.63427304  1
  C  C217  1  0.00023315  0.37924164  0.63367322  1
  C  C218  1  -0.00065174  0.71354654  0.63421284  1
  C  C219  1  0.49826325  0.04631669  0.63010739  1
  C  C220  1  0.49982120  0.38036434  0.63152100  1
  C  C221  1  0.50220127  0.71312968  0.63276932  1
  C  C222  1  -0.00172352  0.28658770  0.13261036  1
  C  C223  1  0.00327494  0.62067617  0.13034717  1
  C  C224  1  -0.00123154  0.95348783  0.13156969  1
  C  C225  1  0.50051516  0.28710293  0.13308026  1
  C  C226  1  0.50434204  0.61949892  0.13231976  1
  C  C227  1  0.50029770  0.95381217  0.13273488  1
  C  C228  1  0.00107477  0.04574712  0.86669137  1
  C  C229  1  0.00064507  0.37959445  0.86491500  1
  C  C230  1  0.00006699  0.71383165  0.86917877  1
  C  C231  1  0.50262469  0.04569246  0.86609978  1
  C  C232  1  0.50223505  0.38010571  0.87072674  1
  C  C233  1  0.49813248  0.71392885  0.86594167  1
  C  C234  1  0.00212619  0.28681639  0.36666866  1
  C  C235  1  0.00359633  0.61918510  0.36870173  1
  C  C236  1  0.00171462  0.95271387  0.36662891  1
  C  C237  1  0.50152187  0.28624429  0.36762748  1
  C  C238  1  0.50669588  0.62005953  0.36887870  1
  C  C239  1  0.50412654  0.95313760  0.37001872  1
  C  C240  1  0.24735911  0.21330249  0.63408764  1
  C  C241  1  0.24578277  0.54727840  0.62996822  1
  C  C242  1  0.24830368  0.88053700  0.63364578  1
  C  C243  1  0.74620840  0.21209770  0.63312446  1
  C  C244  1  0.74453055  0.54700922  0.63227620  1
  C  C245  1  0.74586061  0.88071650  0.63198320  1
  C  C246  1  0.24958260  0.11983377  0.13400726  1
  C  C247  1  0.24922024  0.45330706  0.13264579  1
  C  C248  1  0.24759820  0.78754559  0.13433800  1
  C  C249  1  0.74980285  0.12004208  0.13365974  1
  C  C250  1  0.74696410  0.45292259  0.13233249  1
  C  C251  1  0.74991233  0.78692720  0.13256299  1
  C  C252  1  0.25179735  0.21280115  0.86437648  1
  C  C253  1  0.24547928  0.54665440  0.86961670  1
  C  C254  1  0.25029615  0.88085267  0.86801721  1
  C  C255  1  0.75041857  0.21281405  0.86763681  1
  C  C256  1  0.74841092  0.54662128  0.86594140  1
  C  C257  1  0.75075881  0.88024556  0.86913835  1
  C  C258  1  0.25338273  0.11958950  0.36950290  1
  C  C259  1  0.24704200  0.45261992  0.36660320  1
  C  C260  1  0.25305305  0.78683997  0.36439133  1
  C  C261  1  0.75140469  0.12050322  0.36860688  1
  C  C262  1  0.75152353  0.45260086  0.36745867  1
  C  C263  1  0.74682221  0.78732680  0.36789800  1
  C  C264  1  0.71805866  0.90721926  0.96408841  1
  C  C265  1  0.03278805  0.73959375  0.96404718  1
  C  C266  1  0.06472543  0.59427151  0.45614591  1
  C  C267  1  0.28249826  0.90599369  0.53969923  1
  C  C268  1  0.21390069  0.42661012  0.03730653  1
  C  C269  1  0.76140072  0.57297498  0.53399043  1
  C  C270  1  0.02356247  0.07294924  0.53934189  1
  C  C271  1  0.28667029  0.76175309  0.45847585  1
  C  C272  1  0.70972309  0.42743001  0.46075957  1
  C  C273  1  0.78822784  0.09385409  0.04125029  1
  C  C274  1  0.77664838  0.90576522  0.53538772  1
  C  C275  1  0.06458168  0.59532144  0.04301316  1
  C  C276  1  0.29566494  0.42704905  0.04072747  1
  C  C277  1  0.19186691  0.23811752  0.54419820  1
  C  C278  1  0.76256670  0.42813003  0.03362684  1
  C  C279  1  0.45342954  0.92904226  0.46042058  1
  C  C280  1  0.53811790  0.26050094  0.03841308  1
  C  C281  1  0.28850353  0.23850971  0.95764573  1
  C  C282  1  0.79959984  0.90613165  0.96116993  1
  C  C283  1  0.97434672  0.92920106  0.46342033  1
  C  C284  1  0.95103671  0.73928616  0.96025510  1
  C  C285  1  0.54338977  0.74196706  0.54115322  1
  C  C286  1  0.45646330  0.26089137  0.04059176  1
  C  C287  1  0.20553674  0.09432182  0.04069512  1
  C  C288  1  0.76880157  0.57224268  0.96218988  1
  C  C289  1  0.52306646  0.07202350  0.53405778  1
  C  C290  1  0.72246983  0.76192491  0.03604450  1
  C  C291  1  0.05249057  0.26218381  0.45797397  1
  C  C292  1  0.97831695  0.40525981  0.96264695  1
  C  C293  1  0.71790522  0.24169059  0.96139605  1
  C  C294  1  0.05913620  0.40356758  0.95310941  1
  C  C295  1  0.04018935  0.07375027  0.95919147  1
  C  C296  1  0.95186598  0.92607211  0.04118789  1
  C  C297  1  0.69527902  0.90491832  0.54089707  1
  C  C298  1  0.27453104  0.76195602  0.03743684  1
  C  C299  1  0.53457435  0.92814951  0.46529459  1
  C  C300  1  0.27366331  0.23897553  0.53721778  1
  C  C301  1  0.19277005  0.76386083  0.04409695  1
  C  C302  1  0.68103806  0.57011866  0.54563341  1
  C  C303  1  0.03881932  0.73894236  0.54042988  1
  C  C304  1  0.28077019  0.57392919  0.96507365  1
  C  C305  1  0.97088176  0.26068704  0.46299778  1
  C  C306  1  0.68219905  0.43102997  0.04567014  1
  C  C307  1  0.28786712  0.09467612  0.03920776  1
  C  C308  1  0.03513971  0.26120307  0.03822348  1
  C  C309  1  0.71595724  0.09081435  0.46081094  1
  C  C310  1  0.46333746  0.59255228  0.03939745  1
  C  C311  1  0.54377521  0.40855471  0.53862988  1
  N  N312  1  0.53271985  0.07352429  0.96120937  1
  N  N313  1  0.05345521  0.92931655  0.45593146  1
  N  N314  1  0.98620310  0.59258087  0.03477872  1
  N  N315  1  0.21279590  0.90557930  0.96256690  1
  N  N316  1  0.96231578  0.07431922  0.96088365  1
  N  N317  1  0.54471706  0.39981222  0.96361721  1
  N  N318  1  0.95885914  0.40480223  0.54028336  1
  N  N319  1  0.02917995  0.92406812  0.03575016  1
  N  N320  1  0.20179510  0.57286850  0.96082782  1
  N  N321  1  0.54311003  0.59233789  0.04018709  1
  N  N322  1  0.71517146  0.24105719  0.53861619  1
  N  N323  1  0.78818633  0.76154946  0.46128416  1
  N  N324  1  0.52855702  0.92630350  0.03721007  1
  N  N325  1  0.55398583  0.59335123  0.45779381  1
  N  N326  1  0.46443085  0.40832399  0.53893775  1
  N  N327  1  0.70964016  0.76137160  0.45940629  1
  N  N328  1  0.30581650  0.09869059  0.45871314  1
  N  N329  1  0.27618541  0.58111823  0.53896338  1
  N  N330  1  0.29497715  0.42866545  0.45871456  1
  N  N331  1  0.03581245  0.40547837  0.53912592  1
  N  N332  1  0.46557913  0.74190300  0.53796551  1
  N  N333  1  0.95547077  0.26159690  0.04098450  1
  N  N334  1  0.55541901  0.26079715  0.45722477  1
  N  N335  1  0.22740087  0.08780695  0.46229295  1
  N  N336  1  0.68998028  0.57083736  0.95519447  1
  N  N337  1  0.95910203  0.73734231  0.54159863  1
  N  N338  1  0.70890485  0.09382850  0.03951510  1
  N  N339  1  0.79161249  0.24037522  0.54190235  1
  N  N340  1  0.79593761  0.24126669  0.95998318  1
  N  N341  1  0.78956597  0.42898651  0.46066330  1
  N  N342  1  0.45210586  0.92752813  0.04163220  1
  N  N343  1  0.47628898  0.59208071  0.46397427  1
  N  N344  1  0.47764995  0.25953147  0.46126799  1
  N  N345  1  0.98644812  0.59193254  0.46452817  1
  N  N346  1  0.80173783  0.76286358  0.04318280  1
  N  N347  1  0.45633117  0.07307001  0.95735017  1
  N  N348  1  0.20907334  0.23868009  0.95811949  1
  N  N349  1  0.46712601  0.41322088  0.96131989  1
  N  N350  1  0.29086164  0.90458669  0.95906073  1
  N  N351  1  0.55541054  0.73813285  0.95457789  1
  N  N352  1  0.79342071  0.09094774  0.46152775  1
  N  N353  1  0.47760342  0.73908146  0.96053562  1
  N  N354  1  0.20290910  0.90624224  0.54030006  1
  N  N355  1  0.44576171  0.07066026  0.53880970  1
  N  N356  1  0.21653014  0.42871361  0.45988311  1
  N  N357  1  0.19878373  0.56636342  0.53863419  1
  N  N358  1  0.20725947  0.76020255  0.45715172  1
  N  N359  1  0.94452964  0.07098641  0.54270063  1
  N  N360  1  0.05697556  0.05816969  0.59515724  1
  N  N361  1  0.06241271  0.38963633  0.59685097  1
  N  N362  1  0.06410781  0.72354918  0.59779514  1
  N  N363  1  0.55746312  0.05741539  0.58889783  1
  N  N364  1  0.56567320  0.39162929  0.59598866  1
  N  N365  1  0.56793307  0.72459767  0.59839410  1
  N  N366  1  0.43410097  0.27701705  0.09784269  1
  N  N367  1  0.43919097  0.60883375  0.09676482  1
  N  N368  1  0.43348787  0.94441970  0.10099148  1
  N  N369  1  0.93304856  0.27688762  0.09916429  1
  N  N370  1  0.94762262  0.60999755  0.08818687  1
  N  N371  1  0.93067204  0.94358527  0.09933634  1
  N  N372  1  0.43639038  0.05586559  0.89847302  1
  N  N373  1  0.43978162  0.39194627  0.90676177  1
  N  N374  1  0.44095661  0.72445447  0.90710373  1
  N  N375  1  0.93798252  0.05654549  0.90194312  1
  N  N376  1  0.94276127  0.39023813  0.90631123  1
  N  N377  1  0.93240363  0.72364531  0.90169000  1
  N  N378  1  0.07075555  0.27781862  0.39954745  1
  N  N379  1  0.07563710  0.61057505  0.39666531  1
  N  N380  1  0.07003751  0.94252264  0.39599066  1
  N  N381  1  0.56971311  0.27681835  0.39847295  1
  N  N382  1  0.57367295  0.61041537  0.40027426  1
  N  N383  1  0.56506924  0.94278019  0.40997257  1
  N  N384  1  0.30691972  0.22370099  0.59363319  1
  N  N385  1  0.30660155  0.55737888  0.59167738  1
  N  N386  1  0.31138194  0.89064926  0.59652444  1
  N  N387  1  0.81209098  0.22280344  0.60056634  1
  N  N388  1  0.80006715  0.55819000  0.58931416  1
  N  N389  1  0.80722739  0.89034998  0.59333814  1
  N  N390  1  0.18348934  0.10992678  0.10003274  1
  N  N391  1  0.18625464  0.44310940  0.09582073  1
  N  N392  1  0.17792082  0.77942575  0.10445970  1
  N  N393  1  0.68669438  0.11015367  0.09748677  1
  N  N394  1  0.67385500  0.44577209  0.10567172  1
  N  N395  1  0.68990453  0.77641891  0.09175424  1
  N  N396  1  0.18812195  0.22274734  0.89972060  1
  N  N397  1  0.17954770  0.55584960  0.90221235  1
  N  N398  1  0.18804291  0.88996554  0.90571306  1
  N  N399  1  0.68802173  0.22453575  0.90565581  1
  N  N400  1  0.67916681  0.55476696  0.89487065  1
  N  N401  1  0.68859980  0.89154544  0.90867760  1
  N  N402  1  0.32169649  0.10864825  0.39885174  1
  N  N403  1  0.31293842  0.44402895  0.40038922  1
  N  N404  1  0.31619840  0.77764179  0.40188139  1
  N  N405  1  0.81571954  0.10996214  0.40288834  1
  N  N406  1  0.81517327  0.44285146  0.40270114  1
  N  N407  1  0.81027131  0.77655066  0.40382809  1
  N  N408  1  0.44290854  0.27582119  0.40758254  1
  N  N409  1  0.44717782  0.60862121  0.40836914  1
  N  N410  1  0.43556966  0.94415302  0.40199057  1
  N  N411  1  0.94078478  0.27624852  0.40474348  1
  N  N412  1  0.94778593  0.60850226  0.41074322  1
  N  N413  1  0.94181354  0.94359146  0.40794549  1
  N  N414  1  0.06611789  0.05663826  0.90224269  1
  N  N415  1  0.07202261  0.38839215  0.89398695  1
  N  N416  1  0.06190141  0.72393190  0.90811304  1
  N  N417  1  0.56285008  0.05651898  0.90482586  1
  N  N418  1  0.56712658  0.38819456  0.90530801  1
  N  N419  1  0.56728347  0.72252944  0.89557294  1
  N  N420  1  0.06197874  0.27677477  0.09517901  1
  N  N421  1  0.07527963  0.61189824  0.10250319  1
  N  N422  1  0.05856187  0.94181935  0.09329444  1
  N  N423  1  0.56428683  0.27716114  0.09709575  1
  N  N424  1  0.56821014  0.60959312  0.09730084  1
  N  N425  1  0.55972535  0.94248437  0.09338693  1
  N  N426  1  0.43016204  0.05447344  0.59995631  1
  N  N427  1  0.43659623  0.39004107  0.59594911  1
  N  N428  1  0.43988833  0.72347087  0.59644972  1
  N  N429  1  0.92916803  0.05516024  0.60193434  1
  N  N430  1  0.93589355  0.38902034  0.59890212  1
  N  N431  1  0.93494115  0.72290362  0.59971298  1
  N  N432  1  0.19475486  0.11114041  0.41011683  1
  N  N433  1  0.18580853  0.44132904  0.40388170  1
  N  N434  1  0.18819474  0.77565522  0.39811461  1
  N  N435  1  0.68741421  0.10842542  0.40488021  1
  N  N436  1  0.68602560  0.44308569  0.40304753  1
  N  N437  1  0.68327894  0.77805247  0.40334109  1
  N  N438  1  0.31607810  0.22308884  0.90036055  1
  N  N439  1  0.30798632  0.55780780  0.90841623  1
  N  N440  1  0.31538461  0.89108640  0.90152797  1
  N  N441  1  0.81592241  0.22313131  0.90045353  1
  N  N442  1  0.80603194  0.55766980  0.90788703  1
  N  N443  1  0.81848959  0.88919463  0.90081767  1
  N  N444  1  0.31363955  0.11046278  0.09759180  1
  N  N445  1  0.31623653  0.44322127  0.09845614  1
  N  N446  1  0.30739364  0.77651806  0.09420631  1
  N  N447  1  0.81492899  0.10957212  0.09875232  1
  N  N448  1  0.80202507  0.44231932  0.08880180  1
  N  N449  1  0.81793917  0.77799538  0.10251627  1
  N  N450  1  0.17758622  0.22231750  0.60469252  1
  N  N451  1  0.17898152  0.55569563  0.59771681  1
  N  N452  1  0.18337263  0.89043111  0.59971568  1
  N  N453  1  0.68567468  0.22328251  0.59487886  1
  N  N454  1  0.67154750  0.55475247  0.60544601  1
  N  N455  1  0.67730875  0.88994247  0.59921775  1
  Cl  Cl456  1  0.24261842  0.06007757  0.60748103  1
  Cl  Cl457  1  0.24767864  0.39167177  0.60881627  1
  Cl  Cl458  1  0.25270055  0.71745060  0.61843836  1
  Cl  Cl459  1  0.74244675  0.04975288  0.61972715  1
  Cl  Cl460  1  0.75098706  0.39147640  0.61249430  1
  Cl  Cl461  1  0.75060517  0.72145908  0.61441112  1
  Cl  Cl462  1  0.24929311  0.28028346  0.11916214  1
  Cl  Cl463  1  0.25577596  0.61147649  0.12042336  1
  Cl  Cl464  1  0.24868708  0.94441980  0.11251463  1
  Cl  Cl465  1  0.75043378  0.28198128  0.11636636  1
  Cl  Cl466  1  0.75902205  0.61148093  0.11165187  1
  Cl  Cl467  1  0.74576182  0.94436429  0.11653858  1
  Cl  Cl468  1  0.25158434  0.05276426  0.87913918  1
  Cl  Cl469  1  0.25768005  0.38872530  0.87802254  1
  Cl  Cl470  1  0.25578145  0.71941725  0.88770328  1
  Cl  Cl471  1  0.74972227  0.05275140  0.88589562  1
  Cl  Cl472  1  0.75166058  0.38525276  0.88341381  1
  Cl  Cl473  1  0.74926846  0.72193240  0.88232848  1
  Cl  Cl474  1  0.25873951  0.27828132  0.38686300  1
  Cl  Cl475  1  0.26182731  0.60700104  0.39321475  1
  Cl  Cl476  1  0.25226057  0.95008990  0.37955685  1
  Cl  Cl477  1  0.75329884  0.28504950  0.37883807  1
  Cl  Cl478  1  0.76012568  0.61181887  0.38537138  1
  Cl  Cl479  1  0.75559256  0.94630567  0.38411276  1
  Cl  Cl480  1  -0.00490199  0.21811780  0.62377666  1
  Cl  Cl481  1  -0.00950639  0.55829957  0.60842042  1
  Cl  Cl482  1  -0.00428863  0.88736706  0.60887751  1
  Cl  Cl483  1  0.49485569  0.22338541  0.60705914  1
  Cl  Cl484  1  0.48865805  0.55017664  0.61977979  1
  Cl  Cl485  1  0.49465698  0.88337592  0.61935427  1
  Cl  Cl486  1  -0.00063521  0.11719709  0.12365997  1
  Cl  Cl487  1  -0.00806621  0.44777879  0.11298445  1
  Cl  Cl488  1  -0.00329771  0.78251113  0.12637964  1
  Cl  Cl489  1  0.50060369  0.11803295  0.12063368  1
  Cl  Cl490  1  0.49428143  0.44563836  0.11711464  1
  Cl  Cl491  1  0.49588367  0.77392796  0.10729898  1
  Cl  Cl492  1  0.00116155  0.22232849  0.89115313  1
  Cl  Cl493  1  -0.00833309  0.55850200  0.89147716  1
  Cl  Cl494  1  0.00499858  0.88315811  0.87597372  1
  Cl  Cl495  1  0.50211433  0.22343847  0.87856380  1
  Cl  Cl496  1  0.49263188  0.55419873  0.88901113  1
  Cl  Cl497  1  0.49931635  0.88241910  0.88278375  1
  Cl  Cl498  1  0.01047904  0.10968240  0.38996761  1
  Cl  Cl499  1  0.00075026  0.45054674  0.38111908  1
  Cl  Cl500  1  -0.00372978  0.77751915  0.39354028  1
  Cl  Cl501  1  0.50241882  0.11457928  0.38527354  1
  Cl  Cl502  1  0.49753178  0.44469958  0.38724980  1
  Cl  Cl503  1  0.50210608  0.78266650  0.37715302  1
  Cl  Cl504  1  0.35640302  0.14386041  0.74676589  1
  Cl  Cl505  1  0.35970542  0.47950599  0.75003363  1
  Cl  Cl506  1  0.36157708  0.80963343  0.75286982  1
  Cl  Cl507  1  0.86310725  0.14335217  0.75250128  1
  Cl  Cl508  1  0.85835621  0.47870746  0.74893513  1
  Cl  Cl509  1  0.86073216  0.81051275  0.74941187  1
  Cl  Cl510  1  0.14264826  0.19018463  0.25337143  1
  Cl  Cl511  1  0.13792519  0.52294997  0.25196645  1
  Cl  Cl512  1  0.13558942  0.85552741  0.25365437  1
  Cl  Cl513  1  0.63726146  0.18946270  0.25061548  1
  Cl  Cl514  1  0.63689284  0.52165334  0.24754277  1
  Cl  Cl515  1  0.64067379  0.85280229  0.24950022  1
  Cl  Cl516  1  0.13646927  0.14426621  0.74931333  1
  Cl  Cl517  1  0.13658486  0.47938614  0.75000208  1
  Cl  Cl518  1  0.14137093  0.80989976  0.74685280  1
  Cl  Cl519  1  0.63810895  0.14570309  0.75053891  1
  Cl  Cl520  1  0.63834942  0.47557801  0.74932904  1
  Cl  Cl521  1  0.63731410  0.80952554  0.74990021  1
  Cl  Cl522  1  0.36368171  0.18901214  0.25280599  1
  Cl  Cl523  1  0.36166780  0.52055048  0.25137946  1
  Cl  Cl524  1  0.35903946  0.85270947  0.24868428  1
  Cl  Cl525  1  0.86353807  0.18851901  0.25140776  1
  Cl  Cl526  1  0.86002894  0.52116194  0.25211961  1
  Cl  Cl527  1  0.86215137  0.85390458  0.25064081  1
  Cl  Cl528  1  0.11450619  0.30990383  0.75316106  1
  Cl  Cl529  1  0.10809511  0.64251887  0.74972686  1
  Cl  Cl530  1  0.11168503  0.97549630  0.74742083  1
  Cl  Cl531  1  0.60865814  0.31137363  0.74889716  1
  Cl  Cl532  1  0.61435534  0.64339809  0.75256710  1
  Cl  Cl533  1  0.61151003  0.97684889  0.74986852  1
  Cl  Cl534  1  0.38512078  0.02321874  0.25189295  1
  Cl  Cl535  1  0.39124064  0.35673143  0.24886458  1
  Cl  Cl536  1  0.38972727  0.68676030  0.25005388  1
  Cl  Cl537  1  0.89265852  0.02176080  0.25100010  1
  Cl  Cl538  1  0.88743668  0.35541105  0.24926817  1
  Cl  Cl539  1  0.88973792  0.68669849  0.25101677  1
  Cl  Cl540  1  0.38749737  0.31281848  0.74831417  1
  Cl  Cl541  1  0.39170146  0.64403230  0.74985574  1
  Cl  Cl542  1  0.38515539  0.97785348  0.74791159  1
  Cl  Cl543  1  0.89148249  0.31138158  0.75148807  1
  Cl  Cl544  1  0.88755611  0.64429566  0.75024626  1
  Cl  Cl545  1  0.88930346  0.97664451  0.74866331  1
  Cl  Cl546  1  0.11523002  0.02204809  0.25192670  1
  Cl  Cl547  1  0.11247075  0.35499078  0.25261017  1
  Cl  Cl548  1  0.11475835  0.68844193  0.25271114  1
  Cl  Cl549  1  0.61151189  0.02052132  0.25083301  1
  Cl  Cl550  1  0.61345754  0.35677127  0.25148032  1
  Cl  Cl551  1  0.61244306  0.68761079  0.24936241  1
