# generated using pymatgen
data_H8PbC4(N3Cl2)2
_symmetry_space_group_name_H-M   'P 1'
_cell_length_a   16.62418046
_cell_length_b   22.51324782
_cell_length_c   21.59511039
_cell_angle_alpha   89.99916559
_cell_angle_beta   90.02673031
_cell_angle_gamma   89.99924261
_symmetry_Int_Tables_number   1
_chemical_formula_structural   H8PbC4(N3Cl2)2
_chemical_formula_sum   'H192 Pb24 C96 N144 Cl96'
_cell_volume   8082.27787262
_cell_formula_units_Z   24
loop_
 _symmetry_equiv_pos_site_id
 _symmetry_equiv_pos_as_xyz
  1  'x, y, z'
loop_
 _atom_site_type_symbol
 _atom_site_label
 _atom_site_symmetry_multiplicity
 _atom_site_fract_x
 _atom_site_fract_y
 _atom_site_fract_z
 _atom_site_occupancy
  H  H0  1  -0.00824355  0.03227475  0.68137668  1
  H  H1  1  0.00525796  0.36374835  0.68030426  1
  H  H2  1  -0.00368136  0.69465447  0.67783498  1
  H  H3  1  0.50432395  0.02976119  0.67980732  1
  H  H4  1  0.49111260  0.36211624  0.67980065  1
  H  H5  1  0.50200218  0.69333522  0.68123816  1
  H  H6  1  0.00385648  0.30525264  0.17718407  1
  H  H7  1  -0.00012371  0.63502310  0.18199632  1
  H  H8  1  0.00713646  0.97288865  0.17882126  1
  H  H9  1  0.49129411  0.30656527  0.17871123  1
  H  H10  1  0.50096372  0.63506220  0.17672346  1
  H  H11  1  0.50421245  0.97109329  0.17789150  1
  H  H12  1  -0.00569315  0.02875684  0.81788786  1
  H  H13  1  -0.00306289  0.36136153  0.82419875  1
  H  H14  1  0.00440822  0.69739887  0.81734266  1
  H  H15  1  0.49959530  0.03187385  0.82759538  1
  H  H16  1  0.49402516  0.35958148  0.82187910  1
  H  H17  1  0.49320091  0.69521729  0.82042774  1
  H  H18  1  0.00086744  0.30243136  0.31875673  1
  H  H19  1  -0.00137814  0.63828374  0.32274466  1
  H  H20  1  0.01238689  0.96604008  0.31601899  1
  H  H21  1  0.49962089  0.30369116  0.32141056  1
  H  H22  1  0.49196699  0.63603333  0.32204541  1
  H  H23  1  0.48839300  0.96826554  0.32193313  1
  H  H24  1  0.25174367  0.19652029  0.67897127  1
  H  H25  1  0.25666060  0.53209894  0.67831080  1
  H  H26  1  0.23796852  0.86161512  0.68223241  1
  H  H27  1  0.75718976  0.19564704  0.67579376  1
  H  H28  1  0.75335898  0.52839080  0.67971775  1
  H  H29  1  0.75979897  0.86371613  0.67852804  1
  H  H30  1  0.25700573  0.13578821  0.17788422  1
  H  H31  1  0.25941309  0.46986838  0.17657895  1
  H  H32  1  0.25265906  0.80694205  0.17858097  1
  H  H33  1  0.74234827  0.13666994  0.18001176  1
  H  H34  1  0.75180128  0.46879874  0.17822410  1
  H  H35  1  0.75872342  0.80638276  0.17926306  1
  H  H36  1  0.25698148  0.19519249  0.82392408  1
  H  H37  1  0.23472408  0.53138779  0.81994359  1
  H  H38  1  0.25186822  0.86133280  0.81892408  1
  H  H39  1  0.74122243  0.19746686  0.82264931  1
  H  H40  1  0.76496592  0.53157458  0.82024079  1
  H  H41  1  0.74729417  0.86465432  0.82211929  1
  H  H42  1  0.24481598  0.13631471  0.31783178  1
  H  H43  1  0.24165360  0.47065534  0.32214215  1
  H  H44  1  0.25975092  0.80022154  0.32275519  1
  H  H45  1  0.75588741  0.13662604  0.31901326  1
  H  H46  1  0.74823794  0.47320515  0.32358793  1
  H  H47  1  0.73917860  0.80183395  0.31879549  1
  H  H48  1  0.12587905  0.05085350  0.62031877  1
  H  H49  1  0.11551941  0.38956184  0.59934998  1
  H  H50  1  0.13047361  0.71869756  0.61831277  1
  H  H51  1  0.62778134  0.05548418  0.60875574  1
  H  H52  1  0.61874167  0.38642351  0.61201780  1
  H  H53  1  0.62698627  0.71822448  0.61009050  1
  H  H54  1  0.37294783  0.27772799  0.10217350  1
  H  H55  1  0.37672554  0.61227023  0.10762352  1
  H  H56  1  0.37617452  0.95061097  0.11316750  1
  H  H57  1  0.86781265  0.28376623  0.11789563  1
  H  H58  1  0.87576909  0.60994914  0.11123583  1
  H  H59  1  0.87848164  0.94743795  0.11342491  1
  H  H60  1  0.37388963  0.05471316  0.89412621  1
  H  H61  1  0.37854999  0.38834107  0.89773665  1
  H  H62  1  0.38578714  0.72228406  0.90245720  1
  H  H63  1  0.87341160  0.05463394  0.89076535  1
  H  H64  1  0.88140020  0.38893058  0.90128001  1
  H  H65  1  0.88748419  0.72465454  0.89339834  1
  H  H66  1  0.13197671  0.28014345  0.38474668  1
  H  H67  1  0.13473734  0.61417050  0.38090291  1
  H  H68  1  0.12880866  0.94801083  0.39409601  1
  H  H69  1  0.63118571  0.27940070  0.38567822  1
  H  H70  1  0.62960166  0.61972874  0.37524701  1
  H  H71  1  0.62809397  0.94800855  0.37622417  1
  H  H72  1  0.36937109  0.22130975  0.60383410  1
  H  H73  1  0.36208829  0.55774654  0.59529041  1
  H  H74  1  0.36899297  0.88736778  0.61851021  1
  H  H75  1  0.86754911  0.22351067  0.59486204  1
  H  H76  1  0.86949339  0.55734346  0.60500808  1
  H  H77  1  0.86692861  0.89050724  0.59407518  1
  H  H78  1  0.13005894  0.11390291  0.11251162  1
  H  H79  1  0.12169102  0.44855100  0.11980256  1
  H  H80  1  0.11967377  0.78158480  0.11741543  1
  H  H81  1  0.62598301  0.11007298  0.10156102  1
  H  H82  1  0.62373934  0.44947685  0.11264056  1
  H  H83  1  0.62103752  0.78463620  0.12269203  1
  H  H84  1  0.12967073  0.22156083  0.89052267  1
  H  H85  1  0.13329830  0.55574404  0.90598259  1
  H  H86  1  0.12522250  0.88671094  0.88864311  1
  H  H87  1  0.63418692  0.22121855  0.90477468  1
  H  H88  1  0.62280495  0.54711599  0.86828921  1
  H  H89  1  0.62649058  0.88979483  0.89592325  1
  H  H90  1  0.37282261  0.11417964  0.38463085  1
  H  H91  1  0.38127904  0.45097702  0.37546086  1
  H  H92  1  0.36574948  0.77321146  0.40467564  1
  H  H93  1  0.87250902  0.11068969  0.39658963  1
  H  H94  1  0.87785494  0.44728773  0.38771442  1
  H  H95  1  0.87047082  0.78047870  0.38169265  1
  H  H96  1  0.38391331  0.27662402  0.39861764  1
  H  H97  1  0.38461438  0.61028811  0.40354362  1
  H  H98  1  0.38396860  0.94070400  0.40838739  1
  H  H99  1  0.88428177  0.27575462  0.39691448  1
  H  H100  1  0.88698312  0.61023759  0.40173577  1
  H  H101  1  0.88014511  0.94607495  0.37776143  1
  H  H102  1  0.12265489  0.05360871  0.88510042  1
  H  H103  1  0.12927927  0.38532395  0.88768454  1
  H  H104  1  0.13606947  0.71953386  0.88299308  1
  H  H105  1  0.62293911  0.05313381  0.89692924  1
  H  H106  1  0.62671242  0.38387729  0.88418262  1
  H  H107  1  0.63183125  0.71368080  0.87389223  1
  H  H108  1  0.11376974  0.27527349  0.09653973  1
  H  H109  1  0.12589450  0.61502016  0.11252052  1
  H  H110  1  0.12646460  0.94447970  0.10447127  1
  H  H111  1  0.62099178  0.28131142  0.11329600  1
  H  H112  1  0.62553973  0.61227979  0.10828935  1
  H  H113  1  0.62520616  0.94737029  0.10448610  1
  H  H114  1  0.37796287  0.05374713  0.61212076  1
  H  H115  1  0.36998336  0.38862464  0.60709755  1
  H  H116  1  0.37849717  0.71907743  0.60928764  1
  H  H117  1  0.87729657  0.05606533  0.60477928  1
  H  H118  1  0.86799394  0.38472220  0.62243878  1
  H  H119  1  0.88241724  0.72218709  0.60009269  1
  H  H120  1  0.12370618  0.11316122  0.38883791  1
  H  H121  1  0.13589496  0.44078657  0.40625053  1
  H  H122  1  0.11958113  0.78342474  0.37563456  1
  H  H123  1  0.62462869  0.11391503  0.38507084  1
  H  H124  1  0.63041216  0.44482298  0.39917969  1
  H  H125  1  0.62154615  0.77893409  0.39326657  1
  H  H126  1  0.37902240  0.21909491  0.89619950  1
  H  H127  1  0.37668830  0.54661846  0.86843008  1
  H  H128  1  0.37373399  0.88938925  0.89203387  1
  H  H129  1  0.88071544  0.21661608  0.87588634  1
  H  H130  1  0.86659133  0.55609980  0.90668847  1
  H  H131  1  0.87506983  0.88871228  0.89074127  1
  H  H132  1  0.37923169  0.11247011  0.10551493  1
  H  H133  1  0.36846230  0.44210066  0.09529288  1
  H  H134  1  0.36650012  0.77840981  0.09942674  1
  H  H135  1  0.87403267  0.11493682  0.11467490  1
  H  H136  1  0.87271611  0.44466887  0.10590180  1
  H  H137  1  0.86613373  0.77661112  0.09580344  1
  H  H138  1  0.11992954  0.21846590  0.61439872  1
  H  H139  1  0.11603507  0.55009708  0.62641504  1
  H  H140  1  0.11986013  0.88733678  0.60714215  1
  H  H141  1  0.62100328  0.21771349  0.62002353  1
  H  H142  1  0.62111190  0.55087627  0.61533906  1
  H  H143  1  0.62213910  0.88466596  0.62145700  1
  H  H144  1  0.79045499  0.91262490  0.49354924  1
  H  H145  1  0.46405592  0.91706878  0.50701823  1
  H  H146  1  0.93600863  0.08595755  0.49646108  1
  H  H147  1  0.07939515  0.59204289  -0.00032859  1
  H  H148  1  0.95274803  0.58047450  0.50777213  1
  H  H149  1  0.69185383  0.41771030  0.50174380  1
  H  H150  1  0.29038669  0.58831579  0.49140821  1
  H  H151  1  0.31326674  0.24962045  0.49528821  1
  H  H152  1  0.89357217  0.25256131  0.00946679  1
  H  H153  1  0.37072875  0.57600359  0.98314610  1
  H  H154  1  0.16952466  0.08268039  0.00013873  1
  H  H155  1  0.61389990  0.74253282  -0.01217023  1
  H  H156  1  0.07080525  0.93483351  0.50588145  1
  H  H157  1  0.09133951  0.41391816  0.99386459  1
  H  H158  1  0.67624346  0.74895901  0.50241709  1
  H  H159  1  0.59562467  0.25307737  0.49251148  1
  H  H160  1  0.29759870  0.75109595  -0.00185927  1
  H  H161  1  0.94359527  0.75406646  0.49444351  1
  H  H162  1  0.79067761  0.75456845  -0.00492006  1
  H  H163  1  0.45513692  0.74956256  1.00791195  1
  H  H164  1  0.21196371  0.41538366  0.50585549  1
  H  H165  1  0.06755295  0.91823656  0.00148697  1
  H  H166  1  0.17800648  0.90704610  0.49618262  1
  H  H167  1  0.89433885  0.41273043  0.51448163  1
  H  H168  1  0.41891750  0.08608740  0.50294900  1
  H  H169  1  0.62916668  0.57600041  0.98316931  1
  H  H170  1  0.82745591  0.91902525  0.99506180  1
  H  H171  1  0.15647593  0.24501374  0.50773400  1
  H  H172  1  0.91234697  0.92642566  0.49353728  1
  H  H173  1  0.20927750  0.57976685  1.01033392  1
  H  H174  1  0.32893800  0.90470658  0.50878703  1
  H  H175  1  0.79899810  0.25019503  0.49418950  1
  H  H176  1  0.11230109  0.58531250  0.49243988  1
  H  H177  1  0.29559035  0.74257394  0.50942218  1
  H  H178  1  0.57864956  0.08055387  0.50388904  1
  H  H179  1  0.92588467  0.58555775  0.00506970  1
  H  H180  1  0.92733633  0.08564689  0.99771066  1
  H  H181  1  0.70236315  0.25095670  1.01009250  1
  H  H182  1  0.94881794  0.75121982  1.00114042  1
  H  H183  1  0.10479260  0.74804359  0.50918925  1
  H  H184  1  0.66131490  0.41840514  0.00059263  1
  H  H185  1  0.61122943  0.58990122  0.49096295  1
  H  H186  1  0.17612445  0.25030356  0.99697526  1
  H  H187  1  0.78995459  0.57979869  1.01085790  1
  H  H188  1  0.04890758  0.41698177  0.49345354  1
  H  H189  1  0.16998193  0.08261554  0.49909179  1
  H  H190  1  0.42099889  0.41979435  0.50001558  1
  H  H191  1  0.41428928  0.92275989  -0.00055403  1
  Pb  Pb192  1  0.25124696  0.04747123  0.74976721  1
  Pb  Pb193  1  0.24942366  0.38051467  0.74570704  1
  Pb  Pb194  1  0.25745015  0.71452046  0.75689268  1
  Pb  Pb195  1  0.75246474  0.04825153  0.74918224  1
  Pb  Pb196  1  0.74951266  0.37862818  0.75043391  1
  Pb  Pb197  1  0.75204928  0.71379488  0.75050964  1
  Pb  Pb198  1  0.25600760  0.28430185  0.24578523  1
  Pb  Pb199  1  0.25257673  0.62009697  0.25087631  1
  Pb  Pb200  1  0.25008287  0.95281118  0.25901491  1
  Pb  Pb201  1  0.74963129  0.28824468  0.25612126  1
  Pb  Pb202  1  0.75300377  0.61974926  0.25217269  1
  Pb  Pb203  1  0.75161830  0.95282504  0.24914248  1
  Pb  Pb204  1  0.00066150  0.21356957  0.74719589  1
  Pb  Pb205  1  -0.00207006  0.54731144  0.75836236  1
  Pb  Pb206  1  0.00052370  0.88005586  0.74757263  1
  Pb  Pb207  1  0.50013673  0.21294424  0.75125215  1
  Pb  Pb208  1  0.50019230  0.54497851  0.74026111  1
  Pb  Pb209  1  0.50410788  0.88307928  0.75058184  1
  Pb  Pb210  1  -0.00095669  0.12086152  0.25088075  1
  Pb  Pb211  1  0.00311925  0.45151473  0.25444144  1
  Pb  Pb212  1  -0.00187157  0.78648457  0.24478206  1
  Pb  Pb213  1  0.50435030  0.11768829  0.25268893  1
  Pb  Pb214  1  0.50073714  0.45497776  0.24823372  1
  Pb  Pb215  1  0.49793505  0.78598860  0.25196422  1
  C  C216  1  -0.00191169  0.04679304  0.63380506  1
  C  C217  1  -0.00446582  0.37932561  0.63321460  1
  C  C218  1  0.00365611  0.71166044  0.63096622  1
  C  C219  1  0.50371944  0.04629165  0.63246046  1
  C  C220  1  0.49336997  0.37878225  0.63275742  1
  C  C221  1  0.50253354  0.70949992  0.63390166  1
  C  C222  1  -0.00524572  0.28904760  0.13038787  1
  C  C223  1  0.00022386  0.61955424  0.13429084  1
  C  C224  1  0.00425726  0.95573387  0.13198062  1
  C  C225  1  0.49484858  0.28937366  0.13183294  1
  C  C226  1  0.50114411  0.61973729  0.12922170  1
  C  C227  1  0.50128420  0.95667915  0.13013273  1
  C  C228  1  -0.00311258  0.04528926  0.86498110  1
  C  C229  1  0.00292575  0.37831294  0.87097763  1
  C  C230  1  0.00964089  0.71253532  0.86490858  1
  C  C231  1  0.49880452  0.04682852  0.87549921  1
  C  C232  1  0.50001895  0.37676479  0.86834210  1
  C  C233  1  0.50418873  0.70992751  0.86761460  1
  C  C234  1  0.00566798  0.28688007  0.36626309  1
  C  C235  1  0.00761342  0.62160002  0.36962599  1
  C  C236  1  0.00691801  0.95338808  0.36437495  1
  C  C237  1  0.50540830  0.28713415  0.36834270  1
  C  C238  1  0.50306373  0.62227911  0.36931022  1
  C  C239  1  0.49995346  0.95366159  0.36898605  1
  C  C240  1  0.24640588  0.21199547  0.63142936  1
  C  C241  1  0.24470489  0.54664972  0.63119799  1
  C  C242  1  0.24290643  0.87758804  0.63487514  1
  C  C243  1  0.74881891  0.21167134  0.62890135  1
  C  C244  1  0.74762149  0.54500107  0.63308670  1
  C  C245  1  0.74985459  0.87840254  0.63127665  1
  C  C246  1  0.25481256  0.12094798  0.13024768  1
  C  C247  1  0.24941967  0.45364864  0.13012518  1
  C  C248  1  0.24639370  0.79003405  0.13183369  1
  C  C249  1  0.74742466  0.12140749  0.13247247  1
  C  C250  1  0.74884865  0.45396543  0.13056077  1
  C  C251  1  0.74891807  0.79031738  0.13248955  1
  C  C252  1  0.25481356  0.21151029  0.87104147  1
  C  C253  1  0.24881929  0.54508769  0.86701093  1
  C  C254  1  0.25020397  0.87790732  0.86609977  1
  C  C255  1  0.75183114  0.21188737  0.86983002  1
  C  C256  1  0.75079862  0.54536932  0.86728831  1
  C  C257  1  0.74998715  0.88077010  0.86937955  1
  C  C258  1  0.24675562  0.12094997  0.36536394  1
  C  C259  1  0.25255291  0.45497081  0.36891184  1
  C  C260  1  0.24846834  0.78571026  0.36990698  1
  C  C261  1  0.75080167  0.12086598  0.36637492  1
  C  C262  1  0.75201721  0.45562077  0.37028259  1
  C  C263  1  0.74345248  0.78722440  0.36643907  1
  C  C264  1  0.46058144  0.59189784  0.03640846  1
  C  C265  1  0.26919952  0.42190873  0.03533479  1
  C  C266  1  0.48230866  0.59513595  0.46606226  1
  C  C267  1  0.26500859  0.75644707  0.46722432  1
  C  C268  1  0.56569352  0.73373296  0.95488958  1
  C  C269  1  0.77626213  0.57773354  0.54013959  1
  C  C270  1  0.29376446  0.24145121  0.96442514  1
  C  C271  1  0.01883981  0.40687964  0.53694799  1
  C  C272  1  0.96455417  0.07391316  0.95810490  1
  C  C273  1  0.23645292  0.57006976  0.96577305  1
  C  C274  1  0.21017612  0.90285436  0.53973530  1
  C  C275  1  0.54187005  0.59183275  0.03659292  1
  C  C276  1  0.04230230  0.59628599  0.04084410  1
  C  C277  1  0.46055989  0.07516452  0.54088113  1
  C  C278  1  0.31684227  0.42715191  0.45458020  1
  C  C279  1  0.45713378  0.07424861  0.96649089  1
  C  C280  1  0.27863697  0.23893893  0.53659012  1
  C  C281  1  0.05199899  0.07174901  0.54424509  1
  C  C282  1  0.97095024  0.07423452  0.53727960  1
  C  C283  1  0.73391775  0.23936676  0.96755465  1
  C  C284  1  0.81436899  0.23707038  0.95609567  1
  C  C285  1  0.68268705  0.56778090  0.95244397  1
  C  C286  1  0.31675193  0.56766063  0.95235387  1
  C  C287  1  0.17978009  0.57169907  0.54509681  1
  C  C288  1  0.47279807  0.41082474  0.96090014  1
  C  C289  1  0.95567722  0.93445080  0.45676347  1
  C  C290  1  0.03715829  0.93678745  0.46275101  1
  C  C291  1  0.98223158  0.73977781  0.95940698  1
  C  C292  1  0.45622713  0.93144435  0.03690290  1
  C  C293  1  0.46021069  0.40831330  0.53978697  1
  C  C294  1  0.71263759  0.76018885  0.46238427  1
  C  C295  1  0.76291577  0.57027993  0.96606770  1
  C  C296  1  0.21082166  0.09351356  0.46028734  1
  C  C297  1  0.21113535  0.09351467  0.03728265  1
  C  C298  1  0.26046733  0.57524925  0.53402282  1
  C  C299  1  0.68963950  0.24030644  0.54185288  1
  C  C300  1  0.18463463  0.76132856  0.45605734  1
  C  C301  1  0.29241327  0.09419048  0.45729242  1
  C  C302  1  0.98366610  0.59190897  0.46491892  1
  C  C303  1  0.70399980  0.42779534  0.03749592  1
  C  C304  1  0.48484965  0.73736271  0.96484612  1
  C  C305  1  0.29274706  0.09402863  0.03631606  1
  C  C306  1  0.53739060  0.07364157  0.96737887  1
  C  C307  1  0.56293749  0.59813725  0.45762594  1
  C  C308  1  0.79401894  0.76120434  0.45697473  1
  C  C309  1  0.78543461  0.42630369  0.03674667  1
  C  C310  1  0.97699339  0.74175729  0.53608651  1
  C  C311  1  0.53778045  0.93061896  0.03565316  1
  N  N312  1  0.76834580  0.24217091  0.53458107  1
  N  N313  1  0.76579408  0.90675581  0.53683690  1
  N  N314  1  0.28585970  0.90793110  0.95913181  1
  N  N315  1  0.96293399  0.59186253  0.04228954  1
  N  N316  1  0.78949723  0.90583632  0.96031966  1
  N  N317  1  0.56424126  0.92742501  0.45405035  1
  N  N318  1  0.46513035  0.73941866  0.54117225  1
  N  N319  1  0.95536010  0.92711036  0.04169446  1
  N  N320  1  0.68864735  0.76244534  0.04690358  1
  N  N321  1  0.79527761  0.09470422  0.04147410  1
  N  N322  1  0.19920186  0.23780544  0.54152378  1
  N  N323  1  0.78048680  0.09187118  0.46116775  1
  N  N324  1  0.97119442  0.40736238  0.96552069  1
  N  N325  1  0.05620286  0.74011561  0.54320469  1
  N  N326  1  0.76566805  0.76023317  0.03868136  1
  N  N327  1  0.06131425  0.73799371  0.95608408  1
  N  N328  1  0.53954452  0.40762883  0.54081735  1
  N  N329  1  0.23870264  0.42379356  0.46368624  1
  N  N330  1  0.94009512  0.40646634  0.54633799  1
  N  N331  1  0.68865390  0.90400476  0.54463526  1
  N  N332  1  0.47355456  0.25944550  0.46324478  1
  N  N333  1  0.69899152  0.57556809  0.54288936  1
  N  N334  1  0.70375609  0.09266957  0.45723400  1
  N  N335  1  0.21498120  0.24140926  0.96161205  1
  N  N336  1  0.04918328  0.40672823  0.95920305  1
  N  N337  1  0.03383120  0.92459546  0.04060052  1
  N  N338  1  0.72389395  0.42327027  0.46159579  1
  N  N339  1  0.46444904  0.25610541  0.03878460  1
  N  N340  1  0.94209967  0.26215023  0.04351635  1
  N  N341  1  0.71892248  0.09320937  0.03731228  1
  N  N342  1  0.19141297  0.76026581  0.04409054  1
  N  N343  1  0.54037657  0.07653946  0.54096414  1
  N  N344  1  0.55166444  0.26061174  0.45741162  1
  N  N345  1  0.48728632  0.92433319  0.46326411  1
  N  N346  1  0.80219152  0.42582389  0.45959286  1
  N  N347  1  0.54178871  0.73941621  0.54155831  1
  N  N348  1  0.28937868  0.90429174  0.54502322  1
  N  N349  1  0.55010518  0.40933123  0.95767080  1
  N  N350  1  0.06276335  0.59343440  0.45699031  1
  N  N351  1  0.97654147  0.25836839  0.46128739  1
  N  N352  1  0.54045078  0.25725477  0.04208467  1
  N  N353  1  0.01950749  0.25868099  0.03526949  1
  N  N354  1  0.71140539  0.90684966  0.96331480  1
  N  N355  1  0.19221226  0.42444432  0.04211744  1
  N  N356  1  0.26902903  0.75926782  0.03936828  1
  N  N357  1  0.05295881  0.25989834  0.45740693  1
  N  N358  1  0.04392732  0.07322149  0.95686385  1
  N  N359  1  0.20910020  0.90712301  0.95817163  1
  N  N360  1  0.06805421  0.05546381  0.60264232  1
  N  N361  1  0.05356471  0.39096680  0.59109974  1
  N  N362  1  0.07191585  0.72129824  0.60146212  1
  N  N363  1  0.56678599  0.05682441  0.59690771  1
  N  N364  1  0.55827759  0.38929308  0.59908523  1
  N  N365  1  0.56617781  0.72087709  0.59900232  1
  N  N366  1  0.43447492  0.27631220  0.09409804  1
  N  N367  1  0.43635769  0.60900497  0.09357511  1
  N  N368  1  0.43475729  0.94758816  0.09690164  1
  N  N369  1  0.92598892  0.28095179  0.10097918  1
  N  N370  1  0.93686256  0.60731875  0.09960899  1
  N  N371  1  0.93807085  0.94433843  0.09955392  1
  N  N372  1  0.43277638  0.05794844  0.91024952  1
  N  N373  1  0.43962541  0.39119587  0.90733628  1
  N  N374  1  0.44783356  0.72230139  0.91005808  1
  N  N375  1  0.93430514  0.05719227  0.90204707  1
  N  N376  1  0.94291792  0.39072614  0.90988520  1
  N  N377  1  0.94892187  0.72417216  0.90395792  1
  N  N378  1  0.07224899  0.27776199  0.39851198  1
  N  N379  1  0.07667707  0.61246290  0.39835076  1
  N  N380  1  0.06804894  0.94798596  0.40477967  1
  N  N381  1  0.57206622  0.27812938  0.40017616  1
  N  N382  1  0.57437212  0.61487520  0.39634267  1
  N  N383  1  0.57145909  0.94407934  0.39476316  1
  N  N384  1  0.30826860  0.22351429  0.59266753  1
  N  N385  1  0.29986178  0.55914930  0.58844707  1
  N  N386  1  0.30960850  0.88544060  0.60273371  1
  N  N387  1  0.80550880  0.22278518  0.58780882  1
  N  N388  1  0.80836178  0.55915198  0.59441699  1
  N  N389  1  0.80486159  0.88861305  0.58830008  1
  N  N390  1  0.18879813  0.11042093  0.09683416  1
  N  N391  1  0.17983172  0.44410941  0.10259308  1
  N  N392  1  0.17795797  0.77813672  0.10237216  1
  N  N393  1  0.68793104  0.10994447  0.09334130  1
  N  N394  1  0.68237509  0.44513226  0.09712304  1
  N  N395  1  0.67852578  0.77992231  0.10541024  1
  N  N396  1  0.18982764  0.22240449  0.90427873  1
  N  N397  1  0.19517269  0.55600701  0.91210941  1
  N  N398  1  0.18582595  0.88851888  0.90051668  1
  N  N399  1  0.69597119  0.22329194  0.91236926  1
  N  N400  1  0.67728524  0.55266877  0.89107047  1
  N  N401  1  0.68732123  0.89072183  0.90653115  1
  N  N402  1  0.31367008  0.11053876  0.39983864  1
  N  N403  1  0.32530713  0.44525910  0.39551763  1
  N  N404  1  0.30378893  0.77223527  0.41227728  1
  N  N405  1  0.81063392  0.10912687  0.40507040  1
  N  N406  1  0.81876579  0.44348484  0.40166002  1
  N  N407  1  0.81208726  0.77718398  0.39897475  1
  N  N408  1  0.44547433  0.27521226  0.40738365  1
  N  N409  1  0.44629621  0.60968773  0.41280260  1
  N  N410  1  0.44639538  0.94301397  0.41291123  1
  N  N411  1  0.94603457  0.27493963  0.40503289  1
  N  N412  1  0.94905973  0.60901367  0.41090855  1
  N  N413  1  0.93828487  0.94469696  0.39546654  1
  N  N414  1  0.06227405  0.05554795  0.89838517  1
  N  N415  1  0.06974954  0.38849912  0.90226824  1
  N  N416  1  0.07661056  0.72128791  0.89709580  1
  N  N417  1  0.56364152  0.05715110  0.91193380  1
  N  N418  1  0.56732960  0.38762106  0.89873573  1
  N  N419  1  0.57623044  0.71696718  0.89457419  1
  N  N420  1  0.05182552  0.27516462  0.08969125  1
  N  N421  1  0.06597536  0.61212238  0.09834354  1
  N  N422  1  0.06501904  0.94443237  0.09429330  1
  N  N423  1  0.56089913  0.27784522  0.09978322  1
  N  N424  1  0.56605767  0.60878581  0.09386197  1
  N  N425  1  0.56482820  0.94559939  0.09197187  1
  N  N426  1  0.43778116  0.05770571  0.59811205  1
  N  N427  1  0.43050871  0.39092165  0.59601847  1
  N  N428  1  0.43958661  0.72100849  0.59820202  1
  N  N429  1  0.93839597  0.05832875  0.59434056  1
  N  N430  1  0.92612636  0.38895237  0.60540054  1
  N  N431  1  0.94388754  0.72440991  0.59063170  1
  N  N432  1  0.18369542  0.11021576  0.40176343  1
  N  N433  1  0.19814042  0.44298289  0.41162908  1
  N  N434  1  0.17538589  0.77865658  0.39676154  1
  N  N435  1  0.68445487  0.11064081  0.39846958  1
  N  N436  1  0.69203016  0.44406247  0.40855614  1
  N  N437  1  0.68220790  0.77639366  0.40473019  1
  N  N438  1  0.31884522  0.22325889  0.90837660  1
  N  N439  1  0.32216311  0.55251743  0.89098029  1
  N  N440  1  0.31250205  0.88983829  0.90238376  1
  N  N441  1  0.82453210  0.22076175  0.89664159  1
  N  N442  1  0.80437075  0.55637338  0.91242900  1
  N  N443  1  0.81470159  0.89145980  0.90311045  1
  N  N444  1  0.31892051  0.11027739  0.09250835  1
  N  N445  1  0.30646005  0.43979752  0.08794617  1
  N  N446  1  0.30438896  0.77889711  0.09158579  1
  N  N447  1  0.81416316  0.11206356  0.10054588  1
  N  N448  1  0.81232042  0.44198425  0.09281532  1
  N  N449  1  0.80392743  0.77929023  0.08979158  1
  N  N450  1  0.17958714  0.22054757  0.59961665  1
  N  N451  1  0.17134624  0.55461087  0.60478735  1
  N  N452  1  0.18076005  0.88823070  0.59596907  1
  N  N453  1  0.67756829  0.22257558  0.60063133  1
  N  N454  1  0.68072011  0.55512789  0.60182125  1
  N  N455  1  0.67933767  0.88805847  0.60395193  1
  Cl  Cl456  1  0.25311933  0.05087021  0.61727684  1
  Cl  Cl457  1  0.23934193  0.39051407  0.60396327  1
  Cl  Cl458  1  0.25603588  0.71993548  0.62260784  1
  Cl  Cl459  1  0.75093394  0.05328905  0.61655027  1
  Cl  Cl460  1  0.74277072  0.38634796  0.61246345  1
  Cl  Cl461  1  0.75481920  0.71916031  0.61763722  1
  Cl  Cl462  1  0.24122813  0.27541775  0.10673074  1
  Cl  Cl463  1  0.24943022  0.61312683  0.11772904  1
  Cl  Cl464  1  0.24664933  0.94629546  0.12763797  1
  Cl  Cl465  1  0.74393767  0.28182356  0.12326922  1
  Cl  Cl466  1  0.75421555  0.61361589  0.11595244  1
  Cl  Cl467  1  0.75403407  0.94355265  0.11611362  1
  Cl  Cl468  1  0.24720659  0.05704867  0.88177961  1
  Cl  Cl469  1  0.25263864  0.38382516  0.87888851  1
  Cl  Cl470  1  0.26491979  0.72604451  0.89424552  1
  Cl  Cl471  1  0.74938028  0.05147292  0.87997319  1
  Cl  Cl472  1  0.75582036  0.38722766  0.88234128  1
  Cl  Cl473  1  0.76635659  0.73288133  0.89310210  1
  Cl  Cl474  1  0.25838972  0.27842185  0.38700162  1
  Cl  Cl475  1  0.26282872  0.60935592  0.38549491  1
  Cl  Cl476  1  0.26121032  0.93865289  0.39903084  1
  Cl  Cl477  1  0.75967219  0.27619571  0.39418784  1
  Cl  Cl478  1  0.76506538  0.61086231  0.38290313  1
  Cl  Cl479  1  0.75684737  0.93902732  0.38564943  1
  Cl  Cl480  1  -0.00630340  0.22147232  0.61513070  1
  Cl  Cl481  1  -0.01108315  0.55579331  0.62022674  1
  Cl  Cl482  1  -0.00787064  0.88992011  0.61136223  1
  Cl  Cl483  1  0.49420882  0.21968261  0.61624303  1
  Cl  Cl484  1  0.48930464  0.55563487  0.60684129  1
  Cl  Cl485  1  0.49113686  0.89521464  0.61011860  1
  Cl  Cl486  1  -0.00179687  0.11329167  0.11882541  1
  Cl  Cl487  1  -0.00356507  0.44904974  0.12242544  1
  Cl  Cl488  1  -0.01368085  0.77576187  0.10926678  1
  Cl  Cl489  1  0.50438840  0.10982175  0.12091321  1
  Cl  Cl490  1  0.49099468  0.44713800  0.11690872  1
  Cl  Cl491  1  0.48839156  0.77968955  0.11588280  1
  Cl  Cl492  1  0.00736666  0.22297657  0.87892684  1
  Cl  Cl493  1  -0.00381741  0.55861834  0.89669621  1
  Cl  Cl494  1  0.00010947  0.88940137  0.88441178  1
  Cl  Cl495  1  0.50582824  0.21647106  0.88099517  1
  Cl  Cl496  1  0.49950521  0.54459403  0.86748679  1
  Cl  Cl497  1  0.49884297  0.89129648  0.88336658  1
  Cl  Cl498  1  -0.00496180  0.11244346  0.38466080  1
  Cl  Cl499  1  0.00946987  0.44383127  0.39307225  1
  Cl  Cl500  1  -0.00620586  0.77740533  0.37775008  1
  Cl  Cl501  1  0.50008750  0.11177428  0.38917948  1
  Cl  Cl502  1  0.50813964  0.44727231  0.38309928  1
  Cl  Cl503  1  0.49200136  0.78001730  0.38284497  1
  Cl  Cl504  1  0.35738101  0.15001899  0.74763772  1
  Cl  Cl505  1  0.35812274  0.48298900  0.74849395  1
  Cl  Cl506  1  0.35499577  0.81414407  0.74465814  1
  Cl  Cl507  1  0.86015145  0.14922698  0.75393320  1
  Cl  Cl508  1  0.85805115  0.48191304  0.74670188  1
  Cl  Cl509  1  0.86021475  0.81617318  0.74996785  1
  Cl  Cl510  1  0.13914566  0.18615720  0.24782000  1
  Cl  Cl511  1  0.13705088  0.52138269  0.24740480  1
  Cl  Cl512  1  0.13520803  0.85365706  0.25504773  1
  Cl  Cl513  1  0.63829967  0.18692373  0.25859421  1
  Cl  Cl514  1  0.64202990  0.51880251  0.25117888  1
  Cl  Cl515  1  0.63604505  0.85412989  0.24269225  1
  Cl  Cl516  1  0.13877115  0.14754107  0.74674886  1
  Cl  Cl517  1  0.13651765  0.48111410  0.74761414  1
  Cl  Cl518  1  0.13576871  0.80952066  0.75129062  1
  Cl  Cl519  1  0.63988719  0.14840427  0.74189240  1
  Cl  Cl520  1  0.63784710  0.47951241  0.74666472  1
  Cl  Cl521  1  0.63878426  0.81401850  0.74831470  1
  Cl  Cl522  1  0.35668482  0.18751680  0.25426162  1
  Cl  Cl523  1  0.35640747  0.51493785  0.25261434  1
  Cl  Cl524  1  0.35599859  0.84904850  0.25128281  1
  Cl  Cl525  1  0.85924750  0.18638662  0.24767216  1
  Cl  Cl526  1  0.86121558  0.51764124  0.24997122  1
  Cl  Cl527  1  0.85776168  0.84964323  0.25316919  1
  Cl  Cl528  1  0.11111227  0.31526058  0.74806534  1
  Cl  Cl529  1  0.10980117  0.64600933  0.74787932  1
  Cl  Cl530  1  0.11357248  0.97975651  0.74610747  1
  Cl  Cl531  1  0.60935799  0.31524256  0.74607539  1
  Cl  Cl532  1  0.61624674  0.64402334  0.75656100  1
  Cl  Cl533  1  0.60671920  0.97897815  0.74813029  1
  Cl  Cl534  1  0.38844070  0.01909698  0.25293365  1
  Cl  Cl535  1  0.39109030  0.35190522  0.25780793  1
  Cl  Cl536  1  0.39495359  0.68018624  0.24929199  1
  Cl  Cl537  1  0.88954392  0.01801339  0.24891000  1
  Cl  Cl538  1  0.88681370  0.35368636  0.25010709  1
  Cl  Cl539  1  0.89402631  0.68243698  0.25077062  1
  Cl  Cl540  1  0.38767038  0.31416243  0.74749535  1
  Cl  Cl541  1  0.39509365  0.64890121  0.75467750  1
  Cl  Cl542  1  0.38874724  0.98160937  0.74905681  1
  Cl  Cl543  1  0.89186857  0.31653111  0.75058815  1
  Cl  Cl544  1  0.89113972  0.65061948  0.75109040  1
  Cl  Cl545  1  0.89059986  0.98183135  0.75015525  1
  Cl  Cl546  1  0.11097277  0.01985671  0.25136655  1
  Cl  Cl547  1  0.10596666  0.35225601  0.24754173  1
  Cl  Cl548  1  0.11303117  0.68768249  0.25238011  1
  Cl  Cl549  1  0.61092791  0.01967977  0.25751491  1
  Cl  Cl550  1  0.61008250  0.35243786  0.25316544  1
  Cl  Cl551  1  0.61440588  0.68707209  0.25216255  1
