# generated using pymatgen
data_H8PbC4(N3Cl2)2
_symmetry_space_group_name_H-M   'P 1'
_cell_length_a   16.62736201
_cell_length_b   22.51650064
_cell_length_c   21.59441912
_cell_angle_alpha   90.00031087
_cell_angle_beta   89.98955116
_cell_angle_gamma   90.00189768
_symmetry_Int_Tables_number   1
_chemical_formula_structural   H8PbC4(N3Cl2)2
_chemical_formula_sum   'H192 Pb24 C96 N144 Cl96'
_cell_volume   8084.73459284
_cell_formula_units_Z   24
loop_
 _symmetry_equiv_pos_site_id
 _symmetry_equiv_pos_as_xyz
  1  'x, y, z'
loop_
 _atom_site_type_symbol
 _atom_site_label
 _atom_site_symmetry_multiplicity
 _atom_site_fract_x
 _atom_site_fract_y
 _atom_site_fract_z
 _atom_site_occupancy
  H  H0  1  -0.00441756  0.03074748  0.68411137  1
  H  H1  1  0.01605030  0.36642414  0.68207743  1
  H  H2  1  -0.01419437  0.69793235  0.67803638  1
  H  H3  1  0.48861846  0.02567651  0.68053282  1
  H  H4  1  0.48696953  0.36222230  0.67467180  1
  H  H5  1  0.51154290  0.69742843  0.67801958  1
  H  H6  1  0.00618681  0.30330712  0.17889309  1
  H  H7  1  0.01412728  0.63996718  0.17683222  1
  H  H8  1  0.00801095  0.97059320  0.17988523  1
  H  H9  1  0.49401329  0.30245330  0.18087111  1
  H  H10  1  0.50068467  0.64074101  0.17761144  1
  H  H11  1  0.49436409  0.95807870  0.18397509  1
  H  H12  1  -0.00255659  0.02660909  0.82916295  1
  H  H13  1  0.00776618  0.36343064  0.82127619  1
  H  H14  1  -0.00470947  0.69362559  0.82065721  1
  H  H15  1  0.50318813  0.03433609  0.81504865  1
  H  H16  1  0.48648133  0.36499870  0.82219202  1
  H  H17  1  0.51637353  0.69768089  0.82713724  1
  H  H18  1  -0.00856041  0.30230672  0.31770151  1
  H  H19  1  0.01312899  0.63928798  0.31911489  1
  H  H20  1  0.00985952  0.97200312  0.32152976  1
  H  H21  1  0.51048239  0.30354945  0.32159566  1
  H  H22  1  0.48458067  0.63777370  0.32476015  1
  H  H23  1  0.49500883  0.97595154  0.32161077  1
  H  H24  1  0.23841957  0.19490550  0.67240331  1
  H  H25  1  0.24057274  0.53185871  0.67976472  1
  H  H26  1  0.24250525  0.86279417  0.68211903  1
  H  H27  1  0.76200722  0.19721457  0.68264313  1
  H  H28  1  0.76343924  0.53272387  0.68183386  1
  H  H29  1  0.75004948  0.85820840  0.67192928  1
  H  H30  1  0.26754401  0.13428743  0.17803186  1
  H  H31  1  0.24938910  0.46983804  0.17880019  1
  H  H32  1  0.25140709  0.80391116  0.18147782  1
  H  H33  1  0.73312478  0.13735811  0.17939660  1
  H  H34  1  0.74812952  0.47002007  0.17738101  1
  H  H35  1  0.75320726  0.80211202  0.17261818  1
  H  H36  1  0.26229872  0.19976871  0.81919239  1
  H  H37  1  0.25140583  0.52818890  0.82405661  1
  H  H38  1  0.26989817  0.86301782  0.81982686  1
  H  H39  1  0.73722061  0.19981891  0.82365034  1
  H  H40  1  0.74612143  0.53138709  0.82280448  1
  H  H41  1  0.73570234  0.86307783  0.82221730  1
  H  H42  1  0.24250597  0.14051807  0.31954084  1
  H  H43  1  0.24899126  0.46864081  0.32006396  1
  H  H44  1  0.26093270  0.80104730  0.32168940  1
  H  H45  1  0.75468306  0.13407692  0.32087743  1
  H  H46  1  0.75811816  0.46830472  0.32629386  1
  H  H47  1  0.73330082  0.80392397  0.32074545  1
  H  H48  1  0.12617174  0.05372743  0.61822620  1
  H  H49  1  0.12218468  0.38946400  0.59735614  1
  H  H50  1  0.12286401  0.71572353  0.61965703  1
  H  H51  1  0.62490684  0.04813880  0.62049926  1
  H  H52  1  0.62758109  0.38316292  0.62421613  1
  H  H53  1  0.62953457  0.72375266  0.60305936  1
  H  H54  1  0.38082357  0.28138636  0.10241547  1
  H  H55  1  0.37368875  0.61218880  0.11162425  1
  H  H56  1  0.37276764  0.94579940  0.10876262  1
  H  H57  1  0.87458234  0.27954056  0.11777613  1
  H  H58  1  0.87556962  0.62074386  0.12003853  1
  H  H59  1  0.87525686  0.94603101  0.11717180  1
  H  H60  1  0.37671618  0.05202744  0.88425320  1
  H  H61  1  0.37171358  0.39233981  0.89945395  1
  H  H62  1  0.37487427  0.71264805  0.87663573  1
  H  H63  1  0.87790833  0.05686154  0.90149971  1
  H  H64  1  0.86943275  0.38659888  0.87656741  1
  H  H65  1  0.87211138  0.72024209  0.89379046  1
  H  H66  1  0.12738884  0.28223972  0.37859568  1
  H  H67  1  0.12903920  0.61023953  0.39646812  1
  H  H68  1  0.11313832  0.93997222  0.40694558  1
  H  H69  1  0.62246958  0.27633552  0.40145703  1
  H  H70  1  0.62439715  0.61615434  0.37655411  1
  H  H71  1  0.61952276  0.94856489  0.39162068  1
  H  H72  1  0.37478221  0.21920390  0.61639236  1
  H  H73  1  0.37253047  0.54739405  0.61490810  1
  H  H74  1  0.38191206  0.88202547  0.62575242  1
  H  H75  1  0.86939801  0.22063643  0.59813363  1
  H  H76  1  0.86965640  0.55905043  0.59780330  1
  H  H77  1  0.87877829  0.88627389  0.60773900  1
  H  H78  1  0.12312213  0.11638755  0.12973765  1
  H  H79  1  0.13364531  0.44670727  0.10336540  1
  H  H80  1  0.13209444  0.77550631  0.10693132  1
  H  H81  1  0.63302456  0.11022957  0.09157772  1
  H  H82  1  0.63032922  0.44560094  0.10156224  1
  H  H83  1  0.62639052  0.78142705  0.10714122  1
  H  H84  1  0.12306165  0.21547174  0.87350997  1
  H  H85  1  0.13246788  0.55615248  0.89651789  1
  H  H86  1  0.13002144  0.88559956  0.87430211  1
  H  H87  1  0.63048043  0.22619447  0.90853278  1
  H  H88  1  0.63135290  0.55633686  0.89964056  1
  H  H89  1  0.63457088  0.88636511  0.91003324  1
  H  H90  1  0.36979075  0.11298395  0.38603660  1
  H  H91  1  0.37950572  0.44851018  0.38447170  1
  H  H92  1  0.36880734  0.77446998  0.40346528  1
  H  H93  1  0.86600814  0.10972177  0.40133174  1
  H  H94  1  0.87042548  0.44520792  0.40728187  1
  H  H95  1  0.86511496  0.78024121  0.38526697  1
  H  H96  1  0.37519617  0.28292737  0.38142416  1
  H  H97  1  0.37973836  0.60962242  0.40959111  1
  H  H98  1  0.37060479  0.94533356  0.38966777  1
  H  H99  1  0.87966185  0.27626731  0.39812649  1
  H  H100  1  0.88021165  0.61455272  0.37905035  1
  H  H101  1  0.86964083  0.95241852  0.37455229  1
  H  H102  1  0.12618708  0.05298873  0.89247041  1
  H  H103  1  0.11631603  0.39056992  0.90200762  1
  H  H104  1  0.12178265  0.71761277  0.88892626  1
  H  H105  1  0.62633924  0.05453103  0.88882022  1
  H  H106  1  0.61982773  0.38602251  0.88503019  1
  H  H107  1  0.61851039  0.72409657  0.91123087  1
  H  H108  1  0.12215213  0.27794930  0.10083057  1
  H  H109  1  0.12158111  0.60623232  0.09632028  1
  H  H110  1  0.12247434  0.94249968  0.10022089  1
  H  H111  1  0.62882819  0.28327277  0.12106476  1
  H  H112  1  0.62131920  0.61610639  0.10283994  1
  H  H113  1  0.62139490  0.94476290  0.11364603  1
  H  H114  1  0.37822182  0.05841387  0.59959693  1
  H  H115  1  0.38373368  0.39432446  0.58967854  1
  H  H116  1  0.38088173  0.71624588  0.61564876  1
  H  H117  1  0.87751143  0.05344403  0.60801325  1
  H  H118  1  0.87624968  0.38336842  0.62556971  1
  H  H119  1  0.87728122  0.72779185  0.59542700  1
  H  H120  1  0.12054597  0.11426263  0.39207258  1
  H  H121  1  0.13052286  0.44475314  0.39303583  1
  H  H122  1  0.12336735  0.78512141  0.37528071  1
  H  H123  1  0.61905557  0.11593278  0.37670890  1
  H  H124  1  0.62355308  0.44665129  0.38552894  1
  H  H125  1  0.61726788  0.77631098  0.39953713  1
  H  H126  1  0.36902013  0.22530584  0.90397675  1
  H  H127  1  0.38101692  0.55305563  0.88912978  1
  H  H128  1  0.37604565  0.88671966  0.90536846  1
  H  H129  1  0.87568503  0.21795830  0.88065537  1
  H  H130  1  0.87900908  0.55127334  0.88155379  1
  H  H131  1  0.87802754  0.88046842  0.86927805  1
  H  H132  1  0.36621698  0.10836655  0.08972595  1
  H  H133  1  0.38243544  0.44854347  0.11710278  1
  H  H134  1  0.38059514  0.78226963  0.11588497  1
  H  H135  1  0.87634049  0.11746761  0.12979757  1
  H  H136  1  0.87920722  0.44740649  0.11190632  1
  H  H137  1  0.87503753  0.77739665  0.10296867  1
  H  H138  1  0.12822557  0.22567308  0.59306532  1
  H  H139  1  0.12553196  0.55954248  0.60281577  1
  H  H140  1  0.13574415  0.88897372  0.59821979  1
  H  H141  1  0.62320190  0.21787309  0.62619252  1
  H  H142  1  0.62391433  0.55357721  0.62584025  1
  H  H143  1  0.63083687  0.88907595  0.60159851  1
  H  H144  1  0.71345420  0.08214595  -0.00834644  1
  H  H145  1  0.03340130  0.91538224  0.50514558  1
  H  H146  1  0.07535609  0.75190231  0.99677903  1
  H  H147  1  0.80294190  0.40719095  0.50296250  1
  H  H148  1  0.42035745  0.07577852  0.99690957  1
  H  H149  1  0.20775534  0.91584517  0.49514131  1
  H  H150  1  0.64211494  0.08545692  0.49154321  1
  H  H151  1  0.83796589  0.91919734  0.50241927  1
  H  H152  1  0.14219935  0.75496978  0.49047241  1
  H  H153  1  0.71142467  0.91494953  1.01180527  1
  H  H154  1  0.14198374  0.24627172  0.98664959  1
  H  H155  1  0.06519507  0.58973944  0.50066129  1
  H  H156  1  0.79449241  0.58557644  0.49389744  1
  H  H157  1  0.68710729  0.41491559  -0.00440582  1
  H  H158  1  0.43530333  0.90316248  0.01179817  1
  H  H159  1  0.04728892  0.42018024  1.00768669  1
  H  H160  1  0.30063787  0.91852785  1.00670686  1
  H  H161  1  0.93123739  0.08618857  1.00445077  1
  H  H162  1  0.57276046  0.09027694  0.99056738  1
  H  H163  1  0.95028991  0.74980133  0.49484266  1
  H  H164  1  0.85004753  0.58354556  -0.00450049  1
  H  H165  1  0.56356575  0.58664210  0.00000245  1
  H  H166  1  0.55788101  0.24534682  0.50485597  1
  H  H167  1  0.19757438  0.60586312  0.51237891  1
  H  H168  1  0.34568294  0.74765096  0.00531276  1
  H  H169  1  0.91337738  0.58387409  0.49165900  1
  H  H170  1  0.41916615  0.91247061  0.49707523  1
  H  H171  1  0.34078100  0.58270754  0.99472537  1
  H  H172  1  0.04692841  0.41363435  0.49266412  1
  H  H173  1  0.65078161  0.42281373  0.49535642  1
  H  H174  1  0.41420657  0.75114825  0.50351619  1
  H  H175  1  0.44232379  0.25420756  -0.00658794  1
  H  H176  1  0.34667976  0.25128854  0.50823189  1
  H  H177  1  0.19220055  0.41689033  -0.00645780  1
  H  H178  1  0.18445189  0.41315634  0.50296503  1
  H  H179  1  0.93570306  0.08507751  0.50154740  1
  H  H180  1  0.86898540  0.90789212  -0.01534527  1
  H  H181  1  0.56493801  0.90169020  0.01507272  1
  H  H182  1  0.13329547  0.08857709  0.01961886  1
  H  H183  1  0.17342799  0.08196050  0.49824444  1
  H  H184  1  0.28623454  0.08005117  -0.01130157  1
  H  H185  1  0.85084755  0.24605785  0.98982414  1
  H  H186  1  0.79671947  0.24556961  0.49421335  1
  H  H187  1  0.89371976  0.41516375  0.98489579  1
  H  H188  1  0.29579510  0.26054235  1.00016571  1
  H  H189  1  0.32463023  0.54585217  0.50552857  1
  H  H190  1  0.94676214  0.24667350  0.50253047  1
  H  H191  1  0.45708381  0.58641064  0.50935832  1
  Pb  Pb192  1  0.25181662  0.04802631  0.74796756  1
  Pb  Pb193  1  0.25027906  0.38015319  0.74720021  1
  Pb  Pb194  1  0.25192441  0.71535992  0.75016473  1
  Pb  Pb195  1  0.75574489  0.04834649  0.75356215  1
  Pb  Pb196  1  0.74927007  0.38202023  0.74690399  1
  Pb  Pb197  1  0.75237539  0.71445408  0.75075436  1
  Pb  Pb198  1  0.25008814  0.28777558  0.24050063  1
  Pb  Pb199  1  0.24755423  0.61599968  0.24946685  1
  Pb  Pb200  1  0.24245769  0.94915370  0.25218154  1
  Pb  Pb201  1  0.74596131  0.28228525  0.25771614  1
  Pb  Pb202  1  0.74783148  0.61961752  0.24981825  1
  Pb  Pb203  1  0.74645021  0.95349252  0.25164974  1
  Pb  Pb204  1  -0.00004451  0.21373079  0.74062685  1
  Pb  Pb205  1  0.00326385  0.54795887  0.74249154  1
  Pb  Pb206  1  0.00327463  0.88141705  0.73867939  1
  Pb  Pb207  1  0.50089922  0.21442595  0.75878355  1
  Pb  Pb208  1  0.49986882  0.54795190  0.75307466  1
  Pb  Pb209  1  0.50758652  0.88162399  0.76279496  1
  Pb  Pb210  1  -0.00100639  0.11975281  0.25744719  1
  Pb  Pb211  1  -0.00505296  0.45052158  0.25218211  1
  Pb  Pb212  1  -0.00720047  0.78321885  0.25053060  1
  Pb  Pb213  1  0.49342294  0.11683935  0.23332072  1
  Pb  Pb214  1  0.50316387  0.45313647  0.24706992  1
  Pb  Pb215  1  0.49902305  0.78576825  0.25700914  1
  C  C216  1  0.00003093  0.04584433  0.63650456  1
  C  C217  1  0.00445424  0.38001859  0.63469180  1
  C  C218  1  -0.00508177  0.71322381  0.63093041  1
  C  C219  1  0.49702065  0.04311776  0.63416454  1
  C  C220  1  0.49936373  0.37988996  0.62904375  1
  C  C221  1  0.50667652  0.71258399  0.63064164  1
  C  C222  1  0.00117029  0.28728415  0.13187578  1
  C  C223  1  0.00346199  0.62301967  0.13080338  1
  C  C224  1  0.00202647  0.95386854  0.13301081  1
  C  C225  1  0.50108555  0.28881507  0.13311924  1
  C  C226  1  0.49890773  0.62415112  0.13045462  1
  C  C227  1  0.49628374  0.94852303  0.13464673  1
  C  C228  1  0.00002099  0.04491114  0.87561155  1
  C  C229  1  -0.00292172  0.37958051  0.86802359  1
  C  C230  1  -0.00376418  0.71043429  0.86772694  1
  C  C231  1  0.50259957  0.04772641  0.86342966  1
  C  C232  1  0.49297495  0.38054251  0.86929693  1
  C  C233  1  0.50270792  0.71167403  0.87395496  1
  C  C234  1  -0.00021333  0.28726241  0.36498603  1
  C  C235  1  0.00796205  0.62290602  0.36633169  1
  C  C236  1  -0.00214636  0.95570952  0.36791857  1
  C  C237  1  0.50249354  0.28811149  0.36882318  1
  C  C238  1  0.49621413  0.62253538  0.37145800  1
  C  C239  1  0.49497219  0.95717063  0.36778105  1
  C  C240  1  0.24765068  0.21238780  0.62619171  1
  C  C241  1  0.24643784  0.54557136  0.63172484  1
  C  C242  1  0.25371394  0.87742952  0.63499613  1
  C  C243  1  0.75125246  0.21124681  0.63527515  1
  C  C244  1  0.75201224  0.54748913  0.63484140  1
  C  C245  1  0.75374068  0.87689147  0.62582828  1
  C  C246  1  0.25159842  0.11984776  0.13151354  1
  C  C247  1  0.25491715  0.45476594  0.13138425  1
  C  C248  1  0.25450541  0.78722031  0.13448279  1
  C  C249  1  0.74789419  0.12209922  0.13306021  1
  C  C250  1  0.75287288  0.45446163  0.12987849  1
  C  C251  1  0.75157832  0.78641257  0.12501257  1
  C  C252  1  0.25162508  0.21481355  0.86643204  1
  C  C253  1  0.25550913  0.54477329  0.87101736  1
  C  C254  1  0.25850565  0.87856201  0.86658252  1
  C  C255  1  0.74807556  0.21471583  0.87073283  1
  C  C256  1  0.75290426  0.54599836  0.87026884  1
  C  C257  1  0.75006413  0.87714747  0.86910389  1
  C  C258  1  0.24417803  0.12314790  0.36629697  1
  C  C259  1  0.25266270  0.45363341  0.36761186  1
  C  C260  1  0.24997831  0.78696427  0.36888415  1
  C  C261  1  0.74569070  0.12008538  0.36832221  1
  C  C262  1  0.75070176  0.45279150  0.37373889  1
  C  C263  1  0.73854766  0.78809903  0.36804641  1
  C  C264  1  0.03571904  0.74037191  0.95867500  1
  C  C265  1  0.45795542  0.74055689  0.53947109  1
  C  C266  1  0.22304634  0.24712582  0.53164394  1
  C  C267  1  0.29864288  0.75861060  0.04389091  1
  C  C268  1  0.95571637  0.59318991  0.45444725  1
  C  C269  1  0.19048320  0.76307580  0.45739102  1
  C  C270  1  0.23705748  0.90459937  0.53882590  1
  C  C271  1  0.51622286  0.73952412  0.97021777  1
  C  C272  1  0.72321019  0.42620302  0.03597198  1
  C  C273  1  0.26208382  0.09186097  0.03395944  1
  C  C274  1  0.97082553  0.07337531  0.54237365  1
  C  C275  1  0.30190088  0.42651174  0.45812112  1
  C  C276  1  0.21105659  0.09329634  0.45881462  1
  C  C277  1  0.70806699  0.75777755  0.03479039  1
  C  C278  1  0.47531284  0.26422280  0.03557809  1
  C  C279  1  0.43699524  0.73566690  0.95861820  1
  C  C280  1  0.30758680  0.42788490  0.04177359  1
  C  C281  1  0.27327241  0.90731303  0.96241441  1
  C  C282  1  0.77047214  0.09265516  0.46461541  1
  C  C283  1  0.76749676  0.57488403  0.53846395  1
  C  C284  1  0.56037946  0.41032253  0.54506674  1
  C  C285  1  0.22030125  0.57677141  0.96469677  1
  C  C286  1  0.18978172  0.23790601  0.95316812  1
  C  C287  1  0.71779046  0.91290684  0.53410727  1
  C  C288  1  0.72359087  0.57422587  0.96546367  1
  C  C289  1  0.46670981  0.41152398  0.96322342  1
  C  C290  1  0.22059740  0.42492702  0.46287399  1
  C  C291  1  0.68944013  0.09462800  0.45772273  1
  C  C292  1  0.95236995  0.25858829  0.04213363  1
  C  C293  1  0.56070536  0.59373427  0.45654675  1
  C  C294  1  0.01962734  0.40397337  0.53738608  1
  C  C295  1  0.02161471  0.58836755  0.03709606  1
  C  C296  1  0.45826843  0.92480836  0.45876656  1
  C  C297  1  0.27110131  0.75936400  0.46563195  1
  C  C298  1  0.78838096  0.75672730  0.03343685  1
  C  C299  1  0.73910193  0.09402085  0.03650146  1
  C  C300  1  0.55610065  0.26521247  0.04369624  1
  C  C301  1  0.04799705  0.07547994  0.96606295  1
  C  C302  1  0.22631118  0.42733585  0.03513802  1
  C  C303  1  0.76775817  0.23592723  0.53840945  1
  C  C304  1  0.81814988  0.90045343  0.95357686  1
  C  C305  1  0.01866914  0.40915281  0.96386685  1
  C  C306  1  0.80479580  0.57316411  0.96052255  1
  C  C307  1  0.45895475  0.06872556  0.95694415  1
  C  C308  1  0.53941610  0.74221542  0.53654986  1
  C  C309  1  0.97812745  0.25904729  0.46011532  1
  C  C310  1  0.52494979  0.25840388  0.46351443  1
  C  C311  1  0.73808280  0.90348853  0.96743407  1
  N  N312  1  0.18491323  0.09461272  0.04877344  1
  N  N313  1  0.45830682  0.93736801  0.03825942  1
  N  N314  1  0.68938766  0.23549059  0.54766489  1
  N  N315  1  0.80405625  0.23944714  0.95705631  1
  N  N316  1  0.03515416  0.59140228  0.45927134  1
  N  N317  1  0.05690153  0.26149157  0.45402652  1
  N  N318  1  0.94129685  0.40212083  0.54690145  1
  N  N319  1  0.96883149  0.07716694  0.96778169  1
  N  N320  1  0.95652127  0.74147380  0.96053256  1
  N  N321  1  0.03011405  0.25788878  0.03567154  1
  N  N322  1  0.71043512  0.75700526  0.46229431  1
  N  N323  1  0.21587599  0.56867228  0.53625916  1
  N  N324  1  0.81666877  0.09641827  0.04883199  1
  N  N325  1  0.05013437  0.07279570  0.54538873  1
  N  N326  1  0.97742676  0.74351076  0.53730919  1
  N  N327  1  0.94506384  0.59327316  0.04384060  1
  N  N328  1  0.68936619  0.57341626  0.54805501  1
  N  N329  1  0.93283386  0.92855724  0.45213046  1
  N  N330  1  0.02831512  0.92314681  0.03828672  1
  N  N331  1  0.54394989  0.40946127  0.95990267  1
  N  N332  1  0.55097513  0.07241739  0.54647810  1
  N  N333  1  0.54086976  0.93650066  0.04006395  1
  N  N334  1  0.48296581  0.59269050  0.46665781  1
  N  N335  1  0.44599685  0.26133358  0.45794930  1
  N  N336  1  0.48441423  0.41469822  0.53293936  1
  N  N337  1  0.00971600  0.92323780  0.46129854  1
  N  N338  1  0.53742312  0.92512662  0.45962988  1
  N  N339  1  0.52994486  0.59409578  0.03903675  1
  N  N340  1  0.45175848  0.59350266  0.04045085  1
  N  N341  1  0.05463991  0.73838630  0.54403800  1
  N  N342  1  0.69687758  0.42347862  0.45994902  1
  N  N343  1  0.26849392  0.24111206  0.96248784  1
  N  N344  1  0.77445059  0.43318743  0.47037945  1
  N  N345  1  0.19532488  0.90752293  0.95217282  1
  N  N346  1  0.29908599  0.57437245  0.96084051  1
  N  N347  1  0.80251483  0.42659917  0.03884217  1
  N  N348  1  0.29024757  0.09232405  0.45750422  1
  N  N349  1  0.31539233  0.90245179  0.54759522  1
  N  N350  1  0.47548407  0.07615568  0.53957120  1
  N  N351  1  0.95257638  0.92408212  0.04397430  1
  N  N352  1  0.30120766  0.24353674  0.53996360  1
  N  N353  1  0.94020963  0.40871820  0.95348920  1
  N  N354  1  0.72678983  0.24189878  0.96766509  1
  N  N355  1  0.53864620  0.06966350  0.95747809  1
  N  N356  1  0.79670842  0.91061166  0.53723974  1
  N  N357  1  0.29786201  0.56796033  0.54172367  1
  N  N358  1  0.21948302  0.75633599  0.04029532  1
  N  N359  1  0.78649213  0.75842533  0.45795702  1
  N  N360  1  0.06636697  0.05597600  0.60428232  1
  N  N361  1  0.05996827  0.39085266  0.59088496  1
  N  N362  1  0.06507901  0.72191488  0.60284830  1
  N  N363  1  0.56601781  0.05216860  0.60495725  1
  N  N364  1  0.57204535  0.38972394  0.60391738  1
  N  N365  1  0.56872770  0.72541885  0.59152698  1
  N  N366  1  0.44186635  0.27889730  0.09263828  1
  N  N367  1  0.43338972  0.61088209  0.09797426  1
  N  N368  1  0.43359675  0.94144168  0.09780772  1
  N  N369  1  0.93288971  0.27593969  0.10077682  1
  N  N370  1  0.93345403  0.61492387  0.10326118  1
  N  N371  1  0.93456239  0.94274956  0.10255729  1
  N  N372  1  0.43633062  0.05398350  0.89899021  1
  N  N373  1  0.43274574  0.39419847  0.90896442  1
  N  N374  1  0.42916605  0.71891730  0.89915987  1
  N  N375  1  0.93884967  0.05728602  0.91213590  1
  N  N376  1  0.92717476  0.38946126  0.89488002  1
  N  N377  1  0.93355383  0.72262434  0.90360571  1
  N  N378  1  0.06845051  0.27894460  0.39475714  1
  N  N379  1  0.06739542  0.61334365  0.40586329  1
  N  N380  1  0.05076459  0.94246953  0.41149164  1
  N  N381  1  0.56086515  0.27454027  0.40928486  1
  N  N382  1  0.56907231  0.61140305  0.39742540  1
  N  N383  1  0.55848854  0.94536917  0.40270027  1
  N  N384  1  0.31698537  0.22156335  0.59818974  1
  N  N385  1  0.31331462  0.54537218  0.59867512  1
  N  N386  1  0.32398691  0.88560611  0.60771381  1
  N  N387  1  0.80728622  0.22136122  0.59176833  1
  N  N388  1  0.80777707  0.55918407  0.59139835  1
  N  N389  1  0.81955623  0.88754297  0.59355920  1
  N  N390  1  0.17900400  0.11215261  0.10852587  1
  N  N391  1  0.19444151  0.44409416  0.09222825  1
  N  N392  1  0.19369999  0.77422386  0.09737464  1
  N  N393  1  0.69544837  0.10961290  0.08768343  1
  N  N394  1  0.69163450  0.44290131  0.09139189  1
  N  N395  1  0.68494291  0.77590230  0.09071600  1
  N  N396  1  0.17925698  0.22090268  0.89381061  1
  N  N397  1  0.19299546  0.55837848  0.90906268  1
  N  N398  1  0.18793782  0.88960321  0.89260709  1
  N  N399  1  0.69248407  0.22684487  0.91342093  1
  N  N400  1  0.69246202  0.55788816  0.91092665  1
  N  N401  1  0.69679093  0.88883793  0.91424159  1
  N  N402  1  0.30923810  0.11100106  0.39947259  1
  N  N403  1  0.32078388  0.44360680  0.40063326  1
  N  N404  1  0.30692607  0.77381709  0.41213710  1
  N  N405  1  0.80439503  0.10811715  0.41075244  1
  N  N406  1  0.80863567  0.44071675  0.41388718  1
  N  N407  1  0.80533467  0.77789649  0.39958752  1
  N  N408  1  0.43381279  0.28000463  0.39836256  1
  N  N409  1  0.44194412  0.61249387  0.41498248  1
  N  N410  1  0.43053939  0.94359384  0.40238557  1
  N  N411  1  0.94144737  0.27464087  0.40593034  1
  N  N412  1  0.93856642  0.61091749  0.39633295  1
  N  N413  1  0.92618306  0.94644125  0.39323857  1
  N  N414  1  0.06751609  0.05665828  0.90858891  1
  N  N415  1  0.05449634  0.39168745  0.91065756  1
  N  N416  1  0.06166747  0.72180849  0.90198413  1
  N  N417  1  0.56527861  0.05982121  0.89885187  1
  N  N418  1  0.56043056  0.38958840  0.90002298  1
  N  N419  1  0.55658187  0.72495621  0.91868965  1
  N  N420  1  0.06041764  0.27632226  0.09294357  1
  N  N421  1  0.05980904  0.60631979  0.08923841  1
  N  N422  1  0.06061763  0.94177572  0.09330030  1
  N  N423  1  0.57121904  0.27980881  0.10255467  1
  N  N424  1  0.55996129  0.61466153  0.09265273  1
  N  N425  1  0.56132462  0.94107752  0.10041972  1
  N  N426  1  0.44042440  0.05802390  0.59383416  1
  N  N427  1  0.44614415  0.39521679  0.58660018  1
  N  N428  1  0.43888147  0.72193853  0.59906687  1
  N  N429  1  0.93865047  0.05688080  0.59785180  1
  N  N430  1  0.93397324  0.38760671  0.60763336  1
  N  N431  1  0.93941890  0.72525328  0.58894150  1
  N  N432  1  0.18110443  0.11172951  0.40307783  1
  N  N433  1  0.19073022  0.44211060  0.40515751  1
  N  N434  1  0.17873979  0.77996691  0.39616328  1
  N  N435  1  0.67549017  0.11174615  0.39678195  1
  N  N436  1  0.68187208  0.44397531  0.40294973  1
  N  N437  1  0.67915781  0.77549218  0.40691572  1
  N  N438  1  0.30659759  0.22941718  0.90804614  1
  N  N439  1  0.32157729  0.55388167  0.90348297  1
  N  N440  1  0.31393368  0.88989107  0.91025578  1
  N  N441  1  0.81798322  0.22297538  0.89842677  1
  N  N442  1  0.82185141  0.55539986  0.90025790  1
  N  N443  1  0.82389593  0.88464720  0.89262111  1
  N  N444  1  0.30410092  0.10746088  0.08525849  1
  N  N445  1  0.32421877  0.44416878  0.09999847  1
  N  N446  1  0.32127822  0.77705119  0.10147378  1
  N  N447  1  0.82013798  0.11364425  0.10914885  1
  N  N448  1  0.81942585  0.44441079  0.09798480  1
  N  N449  1  0.81565729  0.77405966  0.08842961  1
  N  N450  1  0.18953134  0.22794785  0.58485305  1
  N  N451  1  0.18740763  0.56282786  0.59490920  1
  N  N452  1  0.19786786  0.88953062  0.59199134  1
  N  N453  1  0.68109270  0.22014497  0.60789320  1
  N  N454  1  0.68144669  0.55640265  0.60786600  1
  N  N455  1  0.69092157  0.89224501  0.58875242  1
  Cl  Cl456  1  0.25342273  0.05789392  0.61563937  1
  Cl  Cl457  1  0.24948813  0.38826838  0.61142371  1
  Cl  Cl458  1  0.25042211  0.71145207  0.61848453  1
  Cl  Cl459  1  0.75344401  0.04772351  0.62187993  1
  Cl  Cl460  1  0.75325036  0.38682551  0.61098827  1
  Cl  Cl461  1  0.75695962  0.72713773  0.61763534  1
  Cl  Cl462  1  0.25219908  0.27816813  0.10213052  1
  Cl  Cl463  1  0.24817749  0.60554063  0.11371553  1
  Cl  Cl464  1  0.24959487  0.94443690  0.11341559  1
  Cl  Cl465  1  0.75273221  0.28070673  0.12645097  1
  Cl  Cl466  1  0.74292037  0.61625561  0.11767543  1
  Cl  Cl467  1  0.74507948  0.94581030  0.11755689  1
  Cl  Cl468  1  0.25245021  0.05648006  0.88397379  1
  Cl  Cl469  1  0.24199420  0.38970207  0.88338447  1
  Cl  Cl470  1  0.24468790  0.71388645  0.88093632  1
  Cl  Cl471  1  0.75046597  0.05696953  0.89033334  1
  Cl  Cl472  1  0.74432796  0.38761014  0.87969971  1
  Cl  Cl473  1  0.74502065  0.72030864  0.88418846  1
  Cl  Cl474  1  0.25169498  0.27851238  0.37294519  1
  Cl  Cl475  1  0.25421463  0.60584820  0.39689349  1
  Cl  Cl476  1  0.23573063  0.94142383  0.38873068  1
  Cl  Cl477  1  0.75345648  0.27897151  0.39388724  1
  Cl  Cl478  1  0.75651049  0.60748015  0.38453227  1
  Cl  Cl479  1  0.74370224  0.94870120  0.38578483  1
  Cl  Cl480  1  -0.00360301  0.22293769  0.60557093  1
  Cl  Cl481  1  0.00200543  0.56171554  0.59956155  1
  Cl  Cl482  1  0.01099547  0.89198760  0.59880909  1
  Cl  Cl483  1  0.49801855  0.22236988  0.62596596  1
  Cl  Cl484  1  0.49232918  0.56256715  0.61517335  1
  Cl  Cl485  1  0.50862790  0.88406357  0.63081067  1
  Cl  Cl486  1  -0.00010795  0.11248308  0.12201655  1
  Cl  Cl487  1  0.00735877  0.44554304  0.11527711  1
  Cl  Cl488  1  0.00627477  0.77590722  0.11875241  1
  Cl  Cl489  1  0.50282124  0.10875006  0.09404848  1
  Cl  Cl490  1  0.50762446  0.44927357  0.11527932  1
  Cl  Cl491  1  0.50278317  0.79026034  0.12436853  1
  Cl  Cl492  1  -0.00251193  0.21449338  0.87306446  1
  Cl  Cl493  1  0.01041192  0.55174762  0.87319605  1
  Cl  Cl494  1  0.00648036  0.88581579  0.86577404  1
  Cl  Cl495  1  0.49702587  0.22090311  0.89503171  1
  Cl  Cl496  1  0.50963753  0.55811105  0.88941678  1
  Cl  Cl497  1  0.50505436  0.88539148  0.90679009  1
  Cl  Cl498  1  -0.00921131  0.10944925  0.39074606  1
  Cl  Cl499  1  -0.00341867  0.44663066  0.38814962  1
  Cl  Cl500  1  -0.01133034  0.77470549  0.38829768  1
  Cl  Cl501  1  0.49111220  0.11441179  0.36431233  1
  Cl  Cl502  1  0.50314308  0.45316045  0.37812796  1
  Cl  Cl503  1  0.49249513  0.77379179  0.39206648  1
  Cl  Cl504  1  0.36095783  0.15010657  0.75050961  1
  Cl  Cl505  1  0.36175851  0.48166428  0.74732260  1
  Cl  Cl506  1  0.36028536  0.81146936  0.74828988  1
  Cl  Cl507  1  0.85727529  0.14794345  0.75478388  1
  Cl  Cl508  1  0.86181635  0.48149102  0.75273669  1
  Cl  Cl509  1  0.86737911  0.81407534  0.74951543  1
  Cl  Cl510  1  0.13661384  0.18770218  0.24163782  1
  Cl  Cl511  1  0.14480523  0.51962281  0.25357157  1
  Cl  Cl512  1  0.14124381  0.85244915  0.25543731  1
  Cl  Cl513  1  0.64101958  0.18616101  0.25239261  1
  Cl  Cl514  1  0.64452392  0.51521476  0.25406004  1
  Cl  Cl515  1  0.63871277  0.85113521  0.24558641  1
  Cl  Cl516  1  0.14079727  0.14983948  0.74777775  1
  Cl  Cl517  1  0.14143611  0.48283382  0.74659030  1
  Cl  Cl518  1  0.13910772  0.81396385  0.74933225  1
  Cl  Cl519  1  0.63806190  0.14599526  0.75101812  1
  Cl  Cl520  1  0.63832118  0.48287216  0.74382690  1
  Cl  Cl521  1  0.64682776  0.81897577  0.75028174  1
  Cl  Cl522  1  0.35750562  0.18453324  0.24548479  1
  Cl  Cl523  1  0.36427391  0.51879698  0.24638354  1
  Cl  Cl524  1  0.36022361  0.85218700  0.25398213  1
  Cl  Cl525  1  0.86336201  0.18585380  0.24739106  1
  Cl  Cl526  1  0.86107675  0.51889614  0.24790782  1
  Cl  Cl527  1  0.85988514  0.85306831  0.25330850  1
  Cl  Cl528  1  0.10716784  0.31585180  0.75395834  1
  Cl  Cl529  1  0.11107547  0.64762142  0.74087116  1
  Cl  Cl530  1  0.11209010  0.98380236  0.74753578  1
  Cl  Cl531  1  0.61561775  0.31293388  0.74671833  1
  Cl  Cl532  1  0.60862352  0.65053591  0.74794921  1
  Cl  Cl533  1  0.60688410  0.98022923  0.75624285  1
  Cl  Cl534  1  0.39004177  0.01946970  0.23823515  1
  Cl  Cl535  1  0.39038133  0.35253720  0.25219393  1
  Cl  Cl536  1  0.39031349  0.68399174  0.24642242  1
  Cl  Cl537  1  0.88518456  0.02015480  0.24930114  1
  Cl  Cl538  1  0.89222928  0.35416219  0.24893674  1
  Cl  Cl539  1  0.89275887  0.68314836  0.24975298  1
  Cl  Cl540  1  0.39182011  0.31652758  0.75058790  1
  Cl  Cl541  1  0.38486791  0.64648306  0.75554862  1
  Cl  Cl542  1  0.38787741  0.97809052  0.75307163  1
  Cl  Cl543  1  0.88473489  0.31299754  0.74921766  1
  Cl  Cl544  1  0.89146241  0.64809942  0.74771544  1
  Cl  Cl545  1  0.89286836  0.98213618  0.75473588  1
  Cl  Cl546  1  0.10753427  0.01752878  0.24611519  1
  Cl  Cl547  1  0.11266207  0.35293582  0.25408915  1
  Cl  Cl548  1  0.11401959  0.68703965  0.24945093  1
  Cl  Cl549  1  0.60845228  0.01853689  0.24742561  1
  Cl  Cl550  1  0.61136064  0.35066472  0.24953481  1
  Cl  Cl551  1  0.60918957  0.68384353  0.25710560  1
