# generated using pymatgen
data_H8PbC4(N3Cl2)2
_symmetry_space_group_name_H-M   'P 1'
_cell_length_a   16.62386262
_cell_length_b   22.51156969
_cell_length_c   21.59060847
_cell_angle_alpha   89.99992999
_cell_angle_beta   89.99628508
_cell_angle_gamma   90.00169091
_symmetry_Int_Tables_number   1
_chemical_formula_structural   H8PbC4(N3Cl2)2
_chemical_formula_sum   'H192 Pb24 C96 N144 Cl96'
_cell_volume   8079.83702160
_cell_formula_units_Z   24
loop_
 _symmetry_equiv_pos_site_id
 _symmetry_equiv_pos_as_xyz
  1  'x, y, z'
loop_
 _atom_site_type_symbol
 _atom_site_label
 _atom_site_symmetry_multiplicity
 _atom_site_fract_x
 _atom_site_fract_y
 _atom_site_fract_z
 _atom_site_occupancy
  H  H0  1  -0.00109625  0.02734082  0.67788537  1
  H  H1  1  0.00850427  0.36560792  0.67916811  1
  H  H2  1  -0.01497337  0.69843799  0.67899184  1
  H  H3  1  0.49324167  0.03478399  0.67978619  1
  H  H4  1  0.50303103  0.36329064  0.67863979  1
  H  H5  1  0.51589024  0.69818367  0.68071909  1
  H  H6  1  0.00705503  0.30387404  0.17831244  1
  H  H7  1  0.01582776  0.63354881  0.17429350  1
  H  H8  1  -0.00358066  0.97338209  0.17627720  1
  H  H9  1  0.49163598  0.30067803  0.18056182  1
  H  H10  1  0.49659830  0.63550152  0.17920618  1
  H  H11  1  0.50265569  0.97286458  0.18091709  1
  H  H12  1  -0.00485034  0.02893362  0.82108977  1
  H  H13  1  0.00220638  0.36427518  0.82202054  1
  H  H14  1  -0.00872765  0.69293178  0.82391208  1
  H  H15  1  0.49140511  0.02872924  0.82443885  1
  H  H16  1  0.49239482  0.36176996  0.81943113  1
  H  H17  1  0.51269033  0.69790231  0.82470302  1
  H  H18  1  0.00653934  0.30151595  0.32154935  1
  H  H19  1  -0.00589765  0.63635996  0.31928358  1
  H  H20  1  0.01412545  0.96695511  0.32291017  1
  H  H21  1  0.49193754  0.30366079  0.32164614  1
  H  H22  1  0.50003211  0.63497322  0.32313095  1
  H  H23  1  0.49609896  0.97010457  0.31831285  1
  H  H24  1  0.24828413  0.19639444  0.67668847  1
  H  H25  1  0.25311410  0.52980071  0.67452575  1
  H  H26  1  0.26390462  0.86167454  0.67662290  1
  H  H27  1  0.75269817  0.19471707  0.67825847  1
  H  H28  1  0.75958412  0.52873927  0.67473558  1
  H  H29  1  0.72955130  0.86348028  0.67822996  1
  H  H30  1  0.26301591  0.13307850  0.17689350  1
  H  H31  1  0.25887265  0.47154759  0.17594863  1
  H  H32  1  0.23767943  0.80397141  0.17321504  1
  H  H33  1  0.75168381  0.13623281  0.17718330  1
  H  H34  1  0.74721142  0.47261268  0.17933403  1
  H  H35  1  0.75680624  0.80199574  0.17752850  1
  H  H36  1  0.25687744  0.19720989  0.81982260  1
  H  H37  1  0.25440031  0.52922898  0.82428872  1
  H  H38  1  0.23504775  0.86652578  0.82583209  1
  H  H39  1  0.74850702  0.19670451  0.82156214  1
  H  H40  1  0.73698838  0.53197754  0.82444908  1
  H  H41  1  0.75570097  0.86345186  0.81810239  1
  H  H42  1  0.25371986  0.13462187  0.31846526  1
  H  H43  1  0.24708776  0.47062745  0.32053700  1
  H  H44  1  0.25004217  0.80121837  0.32328023  1
  H  H45  1  0.75219276  0.13687692  0.31991954  1
  H  H46  1  0.74953272  0.46961548  0.32478997  1
  H  H47  1  0.75063925  0.80363793  0.32183679  1
  H  H48  1  0.13089423  0.04984348  0.61435843  1
  H  H49  1  0.11262009  0.39360500  0.59279325  1
  H  H50  1  0.12655452  0.71424241  0.63015600  1
  H  H51  1  0.63211890  0.05166427  0.62526351  1
  H  H52  1  0.61551313  0.39053994  0.59724907  1
  H  H53  1  0.61873878  0.72456971  0.59557142  1
  H  H54  1  0.38378018  0.27241961  0.09918142  1
  H  H55  1  0.38254529  0.61181268  0.10195819  1
  H  H56  1  0.37361252  0.94987926  0.11538063  1
  H  H57  1  0.88509638  0.27830109  0.10537960  1
  H  H58  1  0.87645349  0.61785281  0.12191108  1
  H  H59  1  0.88310764  0.94304796  0.09805306  1
  H  H60  1  0.38213651  0.05643173  0.90482349  1
  H  H61  1  0.38242629  0.39228528  0.90035415  1
  H  H62  1  0.37321178  0.71699558  0.87776285  1
  H  H63  1  0.88085943  0.05922014  0.89770363  1
  H  H64  1  0.88074746  0.38940832  0.89385488  1
  H  H65  1  0.88046616  0.72103312  0.90592297  1
  H  H66  1  0.11191254  0.27414690  0.40518355  1
  H  H67  1  0.13012647  0.61627643  0.38121073  1
  H  H68  1  0.12382271  0.94120800  0.40504057  1
  H  H69  1  0.61829784  0.28353007  0.38813826  1
  H  H70  1  0.63037915  0.61145427  0.38975886  1
  H  H71  1  0.62184441  0.94843226  0.38770357  1
  H  H72  1  0.38368005  0.22047086  0.61888342  1
  H  H73  1  0.36871384  0.55900524  0.59963522  1
  H  H74  1  0.36810205  0.89255413  0.59169102  1
  H  H75  1  0.88440574  0.21649062  0.61536083  1
  H  H76  1  0.86720397  0.55995937  0.59354671  1
  H  H77  1  0.87212306  0.88309753  0.62894498  1
  H  H78  1  0.12344024  0.11698348  0.12676881  1
  H  H79  1  0.11778617  0.45538455  0.12285150  1
  H  H80  1  0.13123962  0.77480980  0.08848238  1
  H  H81  1  0.61633899  0.11334333  0.11925012  1
  H  H82  1  0.62684201  0.44716949  0.10502584  1
  H  H83  1  0.62085258  0.77992448  0.12021054  1
  H  H84  1  0.11797135  0.21728666  0.87578257  1
  H  H85  1  0.11979845  0.55230522  0.88288396  1
  H  H86  1  0.13047395  0.89114045  0.90918046  1
  H  H87  1  0.61918535  0.22019096  0.88832347  1
  H  H88  1  0.62517541  0.55927199  0.90371398  1
  H  H89  1  0.62039762  0.88238609  0.87569258  1
  H  H90  1  0.36374627  0.11196718  0.39954808  1
  H  H91  1  0.38465678  0.44703523  0.37693055  1
  H  H92  1  0.37201888  0.77776223  0.39405088  1
  H  H93  1  0.86715420  0.10873370  0.39768743  1
  H  H94  1  0.87928338  0.44744019  0.39040575  1
  H  H95  1  0.87566763  0.78163601  0.39115248  1
  H  H96  1  0.36938358  0.27786398  0.39265540  1
  H  H97  1  0.38216936  0.61111484  0.39966050  1
  H  H98  1  0.37388804  0.94312910  0.38984580  1
  H  H99  1  0.86564569  0.28412184  0.37569879  1
  H  H100  1  0.88321597  0.61011432  0.40213530  1
  H  H101  1  0.87830496  0.95244354  0.37846193  1
  H  H102  1  0.12909752  0.04859530  0.88438372  1
  H  H103  1  0.12904889  0.38975373  0.88946816  1
  H  H104  1  0.12701073  0.71672664  0.88246209  1
  H  H105  1  0.62824479  0.05250162  0.88081620  1
  H  H106  1  0.62914768  0.38530644  0.87455470  1
  H  H107  1  0.61774551  0.72492362  0.91047239  1
  H  H108  1  0.13343715  0.27678992  0.10989779  1
  H  H109  1  0.12137470  0.60857319  0.09161026  1
  H  H110  1  0.13081264  0.94802245  0.11865029  1
  H  H111  1  0.62984377  0.28216279  0.12277913  1
  H  H112  1  0.63111112  0.61690884  0.11863353  1
  H  H113  1  0.62191922  0.94373242  0.10675563  1
  H  H114  1  0.38569406  0.05868690  0.59499368  1
  H  H115  1  0.36850471  0.38613634  0.61679525  1
  H  H116  1  0.37446054  0.71248455  0.63084757  1
  H  H117  1  0.88248303  0.05594521  0.60160480  1
  H  H118  1  0.86891917  0.38542891  0.62546993  1
  H  H119  1  0.88264313  0.72210918  0.59285831  1
  H  H120  1  0.11640995  0.11529129  0.37383150  1
  H  H121  1  0.13713061  0.44328225  0.40122430  1
  H  H122  1  0.12333190  0.78034313  0.39049710  1
  H  H123  1  0.61884461  0.11668120  0.38266925  1
  H  H124  1  0.63129855  0.44249812  0.39793973  1
  H  H125  1  0.62738741  0.77813016  0.39189019  1
  H  H126  1  0.36390204  0.22042239  0.90391627  1
  H  H127  1  0.36753266  0.55946980  0.90249685  1
  H  H128  1  0.37501684  0.88313821  0.87710118  1
  H  H129  1  0.86871266  0.22151616  0.89426308  1
  H  H130  1  0.87209162  0.54932802  0.88131880  1
  H  H131  1  0.86830108  0.88982175  0.89673729  1
  H  H132  1  0.36708400  0.10776234  0.09265094  1
  H  H133  1  0.36186643  0.43916247  0.09165292  1
  H  H134  1  0.37625765  0.78260579  0.11696001  1
  H  H135  1  0.86413894  0.10760129  0.09801010  1
  H  H136  1  0.87434152  0.44909266  0.11101293  1
  H  H137  1  0.86791753  0.77374708  0.09671240  1
  H  H138  1  0.13624646  0.22403826  0.59694007  1
  H  H139  1  0.12031587  0.55295669  0.61223891  1
  H  H140  1  0.12319698  0.88239072  0.62476387  1
  H  H141  1  0.63630813  0.22336999  0.60202518  1
  H  H142  1  0.62101475  0.55021154  0.61951005  1
  H  H143  1  0.63028122  0.89304742  0.58914133  1
  H  H144  1  0.44363743  0.58447115  -0.00749062  1
  H  H145  1  0.81651628  0.25302293  1.00280537  1
  H  H146  1  0.82864368  0.42189966  0.00518480  1
  H  H147  1  0.35847693  0.41920738  0.48549904  1
  H  H148  1  0.56777653  0.94233635  0.49513246  1
  H  H149  1  0.28281077  0.42283658  -0.00805931  1
  H  H150  1  0.03941372  0.24349820  0.50824963  1
  H  H151  1  0.95466054  0.74575376  1.00701924  1
  H  H152  1  0.11943083  0.74515957  0.51576839  1
  H  H153  1  0.08726516  0.24857457  0.00486047  1
  H  H154  1  0.29010986  0.91675284  0.49256030  1
  H  H155  1  0.89931946  0.92387388  0.49467380  1
  H  H156  1  0.79742396  0.08084991  -0.00397859  1
  H  H157  1  0.29985603  0.58779387  1.00454405  1
  H  H158  1  0.20382152  0.41416605  0.50649917  1
  H  H159  1  0.83959668  0.41799582  0.49713019  1
  H  H160  1  0.60520848  0.42072302  0.98579607  1
  H  H161  1  0.35282470  0.75442050  0.00749177  1
  H  H162  1  0.40876266  0.91683784  0.00531860  1
  H  H163  1  0.13678422  0.41805671  0.01707971  1
  H  H164  1  0.43401315  0.89377550  0.48161676  1
  H  H165  1  0.38223253  0.74264129  0.51663083  1
  H  H166  1  0.71537104  0.91464450  0.49220387  1
  H  H167  1  0.54388224  0.75082971  0.49172919  1
  H  H168  1  0.79763220  0.74613068  -0.00460162  1
  H  H169  1  0.65946847  0.24940330  0.99406208  1
  H  H170  1  0.03353462  0.41975077  0.49444196  1
  H  H171  1  0.81947910  0.77534079  0.49869438  1
  H  H172  1  0.80623901  0.91801383  1.00378852  1
  H  H173  1  0.15623915  0.58725096  0.50702358  1
  H  H174  1  0.13579382  0.08609916  0.48741049  1
  H  H175  1  0.95845391  0.74654102  0.48844004  1
  H  H176  1  0.64504583  0.91219933  0.98905832  1
  H  H177  1  0.85185523  0.58245928  0.99527884  1
  H  H178  1  0.29167311  0.24556396  1.00826298  1
  H  H179  1  0.57713204  0.25252795  0.50065118  1
  H  H180  1  0.61370420  0.08191000  0.51136341  1
  H  H181  1  0.29763283  0.08351149  0.50610541  1
  H  H182  1  0.58913402  0.58342665  0.49478590  1
  H  H183  1  0.95150724  0.91428094  -0.00390531  1
  H  H184  1  0.68599244  0.72651837  0.48378122  1
  H  H185  1  0.45183094  0.41510488  1.00222176  1
  H  H186  1  0.20496270  0.25110422  0.49482168  1
  H  H187  1  0.60398995  0.07973021  0.99094968  1
  H  H188  1  0.45798514  0.09204890  0.49765817  1
  H  H189  1  0.13743207  0.08657167  1.01069798  1
  H  H190  1  0.88365389  0.25194986  0.48492853  1
  H  H191  1  0.45442011  0.24240337  -0.00452020  1
  Pb  Pb192  1  0.24886728  0.04876177  0.74799131  1
  Pb  Pb193  1  0.25072056  0.38290080  0.75023527  1
  Pb  Pb194  1  0.24979356  0.71301253  0.75461957  1
  Pb  Pb195  1  0.75322975  0.04645456  0.75666154  1
  Pb  Pb196  1  0.74619152  0.38097048  0.74775030  1
  Pb  Pb197  1  0.75383219  0.71845857  0.74718434  1
  Pb  Pb198  1  0.24733173  0.28487879  0.25341149  1
  Pb  Pb199  1  0.25539150  0.61694668  0.24597159  1
  Pb  Pb200  1  0.24813495  0.95337535  0.26109377  1
  Pb  Pb201  1  0.75199370  0.28628990  0.24419900  1
  Pb  Pb202  1  0.75091217  0.61965615  0.25742797  1
  Pb  Pb203  1  0.75251223  0.94944316  0.24832705  1
  Pb  Pb204  1  -0.00305964  0.21576154  0.74809222  1
  Pb  Pb205  1  -0.00173261  0.54653309  0.74492375  1
  Pb  Pb206  1  0.00483003  0.88043311  0.76315258  1
  Pb  Pb207  1  0.50044310  0.21292744  0.75355078  1
  Pb  Pb208  1  0.50185470  0.54976419  0.75325343  1
  Pb  Pb209  1  0.49617304  0.88325333  0.73457232  1
  Pb  Pb210  1  -0.00603251  0.11832812  0.24634404  1
  Pb  Pb211  1  0.00013046  0.45372703  0.25860980  1
  Pb  Pb212  1  0.00384789  0.78414563  0.24083180  1
  Pb  Pb213  1  0.49810656  0.11976862  0.25036027  1
  Pb  Pb214  1  0.50400272  0.44997621  0.23924968  1
  Pb  Pb215  1  0.49868353  0.78580900  0.25504885  1
  C  C216  1  0.00393618  0.04418350  0.63114911  1
  C  C217  1  -0.00302747  0.38056498  0.63224616  1
  C  C218  1  -0.00131449  0.71198781  0.63179535  1
  C  C219  1  0.50354343  0.04920199  0.63234007  1
  C  C220  1  0.49557361  0.37872103  0.63126947  1
  C  C221  1  0.50242731  0.71206702  0.63362161  1
  C  C222  1  0.00892036  0.28686092  0.13133430  1
  C  C223  1  0.00425951  0.61971492  0.12716844  1
  C  C224  1  0.00304704  0.95591272  0.12988669  1
  C  C225  1  0.50226576  0.28539378  0.13355170  1
  C  C226  1  0.50323320  0.62126872  0.13156252  1
  C  C227  1  0.49955106  0.95591018  0.13397265  1
  C  C228  1  0.00193387  0.04509832  0.86784497  1
  C  C229  1  0.00440141  0.38004490  0.86918362  1
  C  C230  1  -0.00061512  0.70927434  0.87073188  1
  C  C231  1  0.50132599  0.04495594  0.87105810  1
  C  C232  1  0.50118866  0.37798924  0.86644709  1
  C  C233  1  0.50136430  0.71315626  0.87144702  1
  C  C234  1  -0.00609154  0.28646922  0.36848041  1
  C  C235  1  0.00246082  0.62143303  0.36673214  1
  C  C236  1  0.00449530  0.95368591  0.37051106  1
  C  C237  1  0.49367969  0.28807954  0.36903492  1
  C  C238  1  0.50460483  0.61922196  0.37047584  1
  C  C239  1  0.49707880  0.95465763  0.36608678  1
  C  C240  1  0.25592910  0.21247941  0.62975468  1
  C  C241  1  0.24699701  0.54658118  0.62770434  1
  C  C242  1  0.25215984  0.87718369  0.63002067  1
  C  C243  1  0.75767075  0.21137716  0.63140435  1
  C  C244  1  0.74886890  0.54591595  0.62875412  1
  C  C245  1  0.74349244  0.87885305  0.63180744  1
  C  C246  1  0.25006248  0.11954462  0.12973623  1
  C  C247  1  0.24588272  0.45572616  0.12936203  1
  C  C248  1  0.24860906  0.78805088  0.12652194  1
  C  C249  1  0.74429610  0.12009179  0.13013272  1
  C  C250  1  0.74963253  0.45643434  0.13202618  1
  C  C251  1  0.74880405  0.78672194  0.13038363  1
  C  C252  1  0.24586072  0.21189275  0.86697508  1
  C  C253  1  0.24760974  0.54587926  0.87103578  1
  C  C254  1  0.24725214  0.88036361  0.87304128  1
  C  C255  1  0.74480345  0.21328340  0.86885156  1
  C  C256  1  0.74540770  0.54690578  0.87169949  1
  C  C257  1  0.74782324  0.87849882  0.86556444  1
  C  C258  1  0.24411508  0.12028118  0.36597375  1
  C  C259  1  0.25693801  0.45428049  0.36734237  1
  C  C260  1  0.24846071  0.78620359  0.37085719  1
  C  C261  1  0.74616205  0.12053043  0.36676599  1
  C  C262  1  0.75385395  0.45407660  0.37216435  1
  C  C263  1  0.75120758  0.78735770  0.36919152  1
  C  C264  1  0.51623037  0.73866957  0.53550626  1
  C  C265  1  0.72033913  0.57654245  0.96716146  1
  C  C266  1  0.18503107  0.09523120  0.45407540  1
  C  C267  1  0.23389405  0.42507218  0.46314186  1
  C  C268  1  0.71915272  0.42301254  0.46617546  1
  C  C269  1  0.55805933  0.59695100  0.04193435  1
  C  C270  1  0.18690062  0.09540209  0.04275613  1
  C  C271  1  0.48422374  0.25576144  0.03826032  1
  C  C272  1  0.94671549  0.93159937  0.46051849  1
  C  C273  1  0.06604722  0.73601682  0.54672628  1
  C  C274  1  0.68750417  0.09148871  0.04218895  1
  C  C275  1  0.76694571  0.58037469  0.53489879  1
  C  C276  1  0.47694101  0.59496782  0.03449576  1
  C  C277  1  0.78039482  0.24239072  0.96223310  1
  C  C278  1  0.45549808  0.92763059  0.04307488  1
  C  C279  1  0.19126140  0.57831645  0.95810643  1
  C  C280  1  0.26259195  0.23693741  0.96391388  1
  C  C281  1  0.02161104  0.59170349  0.03130193  1
  C  C282  1  0.43559033  0.73464005  0.54784642  1
  C  C283  1  0.31319950  0.24390182  0.54240764  1
  C  C284  1  0.01138763  0.25647673  0.46463073  1
  C  C285  1  0.23055569  0.90742536  0.96915937  1
  C  C286  1  0.02762825  0.92769045  0.46763758  1
  C  C287  1  0.69054723  0.75614305  0.04331253  1
  C  C288  1  0.27821154  0.58093118  0.53404682  1
  C  C289  1  0.26648111  0.09435913  0.46325435  1
  C  C290  1  0.96928876  0.40873057  0.96253454  1
  C  C291  1  0.69170404  0.90336217  0.95484168  1
  C  C292  1  0.26711437  0.09285483  0.03246882  1
  C  C293  1  0.18712414  0.90607472  0.54519215  1
  C  C294  1  0.80482838  0.23865443  0.54126622  1
  C  C295  1  0.94225167  0.59475784  0.04121383  1
  C  C296  1  0.56505778  0.07341008  0.54562291  1
  C  C297  1  0.53612249  0.26167897  0.46263658  1
  C  C298  1  0.44217009  0.74038515  0.95738818  1
  C  C299  1  0.55930235  0.40919376  0.95195511  1
  C  C300  1  0.80148748  0.57330193  0.96112011  1
  C  C301  1  0.28632029  0.75786377  0.46424102  1
  C  C302  1  0.45448928  0.25986280  0.46247735  1
  C  C303  1  0.47786079  0.07647604  0.96708890  1
  C  C304  1  0.97599284  0.07861287  0.96091037  1
  C  C305  1  0.98563644  0.73747817  0.53328371  1
  C  C306  1  0.77327919  0.90626778  0.96201776  1
  C  C307  1  0.05094938  0.07277247  0.54140198  1
  C  C308  1  0.69753581  0.09346329  0.45646205  1
  C  C309  1  0.05922854  0.92206702  0.04341739  1
  C  C310  1  0.20507970  0.75934648  0.46311249  1
  C  C311  1  0.31052794  0.90453863  0.95884255  1
  N  N312  1  0.26493910  0.90867395  0.53541901  1
  N  N313  1  0.45863453  0.92951004  0.45891621  1
  N  N314  1  0.26981876  0.57904394  0.96398569  1
  N  N315  1  0.73597889  0.90910314  0.53731886  1
  N  N316  1  0.93258496  0.40594203  0.54708881  1
  N  N317  1  0.69005821  0.57657758  0.54204013  1
  N  N318  1  0.23451674  0.24402400  0.53601900  1
  N  N319  1  0.70076145  0.24294275  0.95870830  1
  N  N320  1  0.71161031  0.42954265  0.03795642  1
  N  N321  1  0.97975907  0.59432918  0.46324667  1
  N  N322  1  0.93315484  0.25923804  0.45328980  1
  N  N323  1  0.51840009  0.74329292  0.96904147  1
  N  N324  1  0.54048507  0.92565568  0.45621453  1
  N  N325  1  0.44386991  0.40546439  0.54184986  1
  N  N326  1  0.97387396  0.07547225  0.53586090  1
  N  N327  1  0.79329835  0.75773473  0.45971142  1
  N  N328  1  0.55592559  0.07323247  0.95815073  1
  N  N329  1  0.05561560  0.59696754  0.45661612  1
  N  N330  1  0.72746952  0.24199666  0.53588558  1
  N  N331  1  0.48622814  0.07513940  0.53627023  1
  N  N332  1  0.05746876  0.73863061  0.95718640  1
  N  N333  1  0.96964082  0.25840740  0.03829864  1
  N  N334  1  0.78977383  0.42917082  0.04142232  1
  N  N335  1  0.26028925  0.42009573  0.03667413  1
  N  N336  1  0.22777109  0.75955176  0.03011288  1
  N  N337  1  0.79796960  0.42585022  0.46239888  1
  N  N338  1  0.56277647  0.25931397  0.04588388  1
  N  N339  1  0.71122058  0.76236318  0.46172772  1
  N  N340  1  0.18367609  0.43453347  0.04424694  1
  N  N341  1  0.00947492  0.40931244  0.53755651  1
  N  N342  1  0.05297864  0.07456635  0.95731050  1
  N  N343  1  0.51966305  0.40657809  0.53530323  1
  N  N344  1  0.54791219  0.59125050  0.45965536  1
  N  N345  1  0.04800625  0.25786718  0.04110124  1
  N  N346  1  0.76869447  0.75534596  0.03640124  1
  N  N347  1  0.76620540  0.08954083  0.03609504  1
  N  N348  1  0.77454585  0.08944269  0.46246996  1
  N  N349  1  0.48032830  0.41061242  0.95997089  1
  N  N350  1  0.53488259  0.92532780  0.03980357  1
  N  N351  1  0.98012265  0.73972895  0.96385634  1
  N  N352  1  0.04721174  0.40798273  0.96228646  1
  N  N353  1  0.31251712  0.42588621  0.45356249  1
  N  N354  1  0.81217091  0.90518741  0.54918696  1
  N  N355  1  0.98064651  0.92181842  0.03741229  1
  N  N356  1  0.18423681  0.23690100  0.95443487  1
  N  N357  1  0.19964038  0.57764923  0.53955202  1
  N  N358  1  0.46994303  0.59181731  0.46503734  1
  N  N359  1  0.30477104  0.76233493  0.04043304  1
  N  N360  1  0.07224459  0.05446647  0.59933331  1
  N  N361  1  0.05021051  0.39205613  0.58834271  1
  N  N362  1  0.07193792  0.72038511  0.60792146  1
  N  N363  1  0.57572444  0.05659385  0.60510870  1
  N  N364  1  0.55322778  0.38978551  0.59042171  1
  N  N365  1  0.55665607  0.72463135  0.58945071  1
  N  N366  1  0.44571943  0.27185855  0.09155187  1
  N  N367  1  0.44366197  0.61019257  0.09164523  1
  N  N368  1  0.43303103  0.94607914  0.10064995  1
  N  N369  1  0.94614495  0.27576776  0.09486075  1
  N  N370  1  0.93177051  0.61169639  0.10046047  1
  N  N371  1  0.94487183  0.94450751  0.08979317  1
  N  N372  1  0.44373830  0.05884669  0.91334580  1
  N  N373  1  0.44446971  0.38818168  0.90816907  1
  N  N374  1  0.42930274  0.72264047  0.89769586  1
  N  N375  1  0.94226289  0.06042659  0.90704460  1
  N  N376  1  0.94114904  0.39161881  0.90638487  1
  N  N377  1  0.94293527  0.71963074  0.91261650  1
  N  N378  1  0.04955568  0.27337720  0.41206361  1
  N  N379  1  0.07106004  0.61388132  0.39678672  1
  N  N380  1  0.06224581  0.94089417  0.41320824  1
  N  N381  1  0.55922207  0.27903147  0.40335541  1
  N  N382  1  0.57043677  0.60789761  0.40265069  1
  N  N383  1  0.56153773  0.95114702  0.40180499  1
  N  N384  1  0.32646485  0.22517970  0.60078231  1
  N  N385  1  0.30795078  0.56144666  0.58849459  1
  N  N386  1  0.30622815  0.88856259  0.58653096  1
  N  N387  1  0.82603558  0.22060204  0.59949722  1
  N  N388  1  0.80530748  0.56192806  0.58684048  1
  N  N389  1  0.81632559  0.88852422  0.60850325  1
  N  N390  1  0.17772981  0.11205739  0.10430131  1
  N  N391  1  0.17425052  0.44710389  0.10434687  1
  N  N392  1  0.19313754  0.77483294  0.08400537  1
  N  N393  1  0.67363289  0.10925675  0.10097397  1
  N  N394  1  0.68736211  0.44546939  0.09494729  1
  N  N395  1  0.67790875  0.77515330  0.10158765  1
  N  N396  1  0.17564662  0.22118396  0.89379626  1
  N  N397  1  0.17736049  0.55814579  0.90050923  1
  N  N398  1  0.19190444  0.89267352  0.91709836  1
  N  N399  1  0.67911106  0.22416608  0.90137090  1
  N  N400  1  0.68644814  0.56062272  0.91320447  1
  N  N401  1  0.67758094  0.88649250  0.89487284  1
  N  N402  1  0.30200873  0.10991134  0.40807187  1
  N  N403  1  0.32652223  0.44500064  0.39506530  1
  N  N404  1  0.31230319  0.77426953  0.40725820  1
  N  N405  1  0.80498777  0.10646319  0.40505952  1
  N  N406  1  0.82010426  0.44600591  0.40476606  1
  N  N407  1  0.81527642  0.78259650  0.40513013  1
  N  N408  1  0.42921061  0.27559707  0.40574276  1
  N  N409  1  0.44348268  0.60890275  0.40898659  1
  N  N410  1  0.43470647  0.93778954  0.39963240  1
  N  N411  1  0.92285838  0.27772455  0.39416805  1
  N  N412  1  0.94540723  0.60915286  0.40775847  1
  N  N413  1  0.93382103  0.94768208  0.39905496  1
  N  N414  1  0.06974328  0.05357513  0.89864041  1
  N  N415  1  0.06916847  0.38998080  0.90286824  1
  N  N416  1  0.06875180  0.72139544  0.89861301  1
  N  N417  1  0.57094797  0.05299439  0.89905704  1
  N  N418  1  0.57235144  0.39009145  0.89361385  1
  N  N419  1  0.55549065  0.72544384  0.91426469  1
  N  N420  1  0.07320645  0.27564294  0.09721316  1
  N  N421  1  0.05989786  0.60694017  0.08358004  1
  N  N422  1  0.07325926  0.94251961  0.10087087  1
  N  N423  1  0.57220019  0.27744218  0.10566701  1
  N  N424  1  0.57320183  0.61255238  0.10057915  1
  N  N425  1  0.56073316  0.94294813  0.09709787  1
  N  N426  1  0.44829507  0.06211168  0.59036607  1
  N  N427  1  0.42731638  0.38835787  0.60132402  1
  N  N428  1  0.42929510  0.71855648  0.60893761  1
  N  N429  1  0.94433963  0.05708004  0.59313280  1
  N  N430  1  0.92534235  0.38924196  0.60634058  1
  N  N431  1  0.94475797  0.72252048  0.58680464  1
  N  N432  1  0.17306775  0.11108738  0.39338621  1
  N  N433  1  0.19905735  0.44191289  0.40934568  1
  N  N434  1  0.18250927  0.77651725  0.40556115  1
  N  N435  1  0.67723943  0.11182851  0.39831190  1
  N  N436  1  0.69154330  0.44047365  0.41049690  1
  N  N437  1  0.68804780  0.77085031  0.40213793  1
  N  N438  1  0.30179628  0.22235588  0.91043197  1
  N  N439  1  0.30583708  0.55732649  0.91108341  1
  N  N440  1  0.31997569  0.88828776  0.89940353  1
  N  N441  1  0.80797109  0.22488718  0.90631044  1
  N  N442  1  0.81529342  0.55500610  0.90044719  1
  N  N443  1  0.80687654  0.89080014  0.90593506  1
  N  N444  1  0.30516702  0.10745312  0.08482575  1
  N  N445  1  0.29963187  0.44338367  0.08584977  1
  N  N446  1  0.31852524  0.78038426  0.09867504  1
  N  N447  1  0.80194474  0.10938546  0.08964522  1
  N  N448  1  0.81410786  0.44659514  0.09788449  1
  N  N449  1  0.80601527  0.77607830  0.08922179  1
  N  N450  1  0.19820878  0.22257852  0.58893237  1
  N  N451  1  0.17953464  0.55599752  0.59706896  1
  N  N452  1  0.17910781  0.88752023  0.60408236  1
  N  N453  1  0.69820014  0.22467150  0.59348427  1
  N  N454  1  0.67883873  0.55501514  0.60182899  1
  N  N455  1  0.69246452  0.89013790  0.58629574  1
  Cl  Cl456  1  0.26305471  0.05177278  0.61121687  1
  Cl  Cl457  1  0.23553781  0.39022542  0.61050549  1
  Cl  Cl458  1  0.25055003  0.71231576  0.62783415  1
  Cl  Cl459  1  0.75928683  0.05162826  0.62598230  1
  Cl  Cl460  1  0.73879309  0.39243374  0.61280354  1
  Cl  Cl461  1  0.75136519  0.72590918  0.60396527  1
  Cl  Cl462  1  0.25881357  0.27641593  0.11509526  1
  Cl  Cl463  1  0.25518081  0.60800944  0.10659774  1
  Cl  Cl464  1  0.25286138  0.95211250  0.13156012  1
  Cl  Cl465  1  0.76111222  0.27845096  0.10781906  1
  Cl  Cl466  1  0.75155813  0.61895179  0.12649969  1
  Cl  Cl467  1  0.75631611  0.94399414  0.11302858  1
  Cl  Cl468  1  0.25941254  0.05055460  0.88017951  1
  Cl  Cl469  1  0.26016338  0.39907201  0.89460600  1
  Cl  Cl470  1  0.25006625  0.71618469  0.88575943  1
  Cl  Cl471  1  0.75898161  0.06094916  0.89447322  1
  Cl  Cl472  1  0.75821327  0.38863850  0.88226960  1
  Cl  Cl473  1  0.75824548  0.72566063  0.89531233  1
  Cl  Cl474  1  0.23481314  0.27553276  0.39336710  1
  Cl  Cl475  1  0.25666109  0.61034710  0.38143342  1
  Cl  Cl476  1  0.25216927  0.93954872  0.39864416  1
  Cl  Cl477  1  0.74222681  0.28841169  0.37338790  1
  Cl  Cl478  1  0.75555894  0.61369440  0.39349109  1
  Cl  Cl479  1  0.73960935  0.93416227  0.39245674  1
  Cl  Cl480  1  0.01349764  0.22367020  0.61117239  1
  Cl  Cl481  1  -0.00566012  0.55233198  0.61276774  1
  Cl  Cl482  1  -0.00082241  0.88350808  0.63312898  1
  Cl  Cl483  1  0.51216703  0.21880029  0.62085521  1
  Cl  Cl484  1  0.49385264  0.55478699  0.62108974  1
  Cl  Cl485  1  0.50122707  0.89705545  0.59519952  1
  Cl  Cl486  1  -0.01472048  0.10663474  0.11347910  1
  Cl  Cl487  1  -0.00572983  0.45062147  0.12574354  1
  Cl  Cl488  1  -0.00697373  0.77428543  0.10194916  1
  Cl  Cl489  1  0.48868835  0.10941945  0.11638187  1
  Cl  Cl490  1  0.48606331  0.43821398  0.09893532  1
  Cl  Cl491  1  0.49636121  0.77985465  0.12546982  1
  Cl  Cl492  1  -0.00851747  0.21851825  0.88002015  1
  Cl  Cl493  1  -0.00289916  0.54738824  0.87552907  1
  Cl  Cl494  1  -0.00581998  0.89145316  0.89986061  1
  Cl  Cl495  1  0.48976148  0.21922785  0.89027678  1
  Cl  Cl496  1  0.49381018  0.55676061  0.88906763  1
  Cl  Cl497  1  0.49814243  0.88305255  0.86439444  1
  Cl  Cl498  1  -0.01113134  0.11684271  0.37760285  1
  Cl  Cl499  1  0.01258185  0.44005228  0.39845757  1
  Cl  Cl500  1  -0.00430413  0.77872214  0.37567774  1
  Cl  Cl501  1  0.48915040  0.11118060  0.39249331  1
  Cl  Cl502  1  0.50853744  0.44656354  0.37113009  1
  Cl  Cl503  1  0.50418112  0.78382009  0.39089564  1
  Cl  Cl504  1  0.36272530  0.14833783  0.74379613  1
  Cl  Cl505  1  0.35285170  0.48066114  0.74669976  1
  Cl  Cl506  1  0.35935076  0.81514649  0.74945703  1
  Cl  Cl507  1  0.85922147  0.15023791  0.75136357  1
  Cl  Cl508  1  0.86040763  0.48019605  0.74509994  1
  Cl  Cl509  1  0.85673730  0.81228062  0.74675966  1
  Cl  Cl510  1  0.13229132  0.18608734  0.24455874  1
  Cl  Cl511  1  0.13898873  0.51842296  0.25032046  1
  Cl  Cl512  1  0.14155594  0.85040003  0.24638129  1
  Cl  Cl513  1  0.63650652  0.18687121  0.24536514  1
  Cl  Cl514  1  0.64022731  0.51827697  0.24612613  1
  Cl  Cl515  1  0.63372056  0.85333368  0.24808852  1
  Cl  Cl516  1  0.14456531  0.14505506  0.75121521  1
  Cl  Cl517  1  0.13568495  0.47904719  0.75115323  1
  Cl  Cl518  1  0.14034264  0.81396535  0.75136357  1
  Cl  Cl519  1  0.63939914  0.14597374  0.75581334  1
  Cl  Cl520  1  0.63934045  0.48168397  0.75202362  1
  Cl  Cl521  1  0.64009527  0.81075705  0.74814442  1
  Cl  Cl522  1  0.35515060  0.18266654  0.25080984  1
  Cl  Cl523  1  0.35510361  0.51850624  0.24799071  1
  Cl  Cl524  1  0.36196348  0.85390899  0.25475433  1
  Cl  Cl525  1  0.85632043  0.18655591  0.24816621  1
  Cl  Cl526  1  0.86050195  0.51810099  0.25658212  1
  Cl  Cl527  1  0.85327244  0.85214278  0.25220175  1
  Cl  Cl528  1  0.11515804  0.31209974  0.75867516  1
  Cl  Cl529  1  0.11318262  0.64609321  0.75195899  1
  Cl  Cl530  1  0.11206168  0.97998603  0.75123528  1
  Cl  Cl531  1  0.61007039  0.31497810  0.75876826  1
  Cl  Cl532  1  0.60768874  0.64617994  0.75193472  1
  Cl  Cl533  1  0.61885781  0.97707842  0.74856832  1
  Cl  Cl534  1  0.38608629  0.01952017  0.25936976  1
  Cl  Cl535  1  0.38639568  0.35230245  0.25440449  1
  Cl  Cl536  1  0.39384289  0.68155080  0.25354836  1
  Cl  Cl537  1  0.88462941  0.01650260  0.25803464  1
  Cl  Cl538  1  0.89013004  0.35161064  0.25245709  1
  Cl  Cl539  1  0.88590149  0.68720349  0.24479194  1
  Cl  Cl540  1  0.38689752  0.31364134  0.74770454  1
  Cl  Cl541  1  0.38578039  0.64799496  0.75235584  1
  Cl  Cl542  1  0.39998174  0.98213055  0.74748699  1
  Cl  Cl543  1  0.89481854  0.31364235  0.74253312  1
  Cl  Cl544  1  0.89010642  0.64929549  0.75101997  1
  Cl  Cl545  1  0.89052388  0.97949836  0.75497256  1
  Cl  Cl546  1  0.10760184  0.01879408  0.25234785  1
  Cl  Cl547  1  0.10979906  0.35180369  0.25009127  1
  Cl  Cl548  1  0.10652836  0.68703293  0.24680282  1
  Cl  Cl549  1  0.60533327  0.02021897  0.25196530  1
  Cl  Cl550  1  0.60749628  0.35407388  0.23767713  1
  Cl  Cl551  1  0.61381586  0.68716099  0.25291608  1
