# generated using pymatgen
data_HfZrTaTiMo
_symmetry_space_group_name_H-M   'P 1'
_cell_length_a   16.87458048
_cell_length_b   16.89034561
_cell_length_c   16.87984762
_cell_angle_alpha   90.04239336
_cell_angle_beta   90.02833558
_cell_angle_gamma   89.99608639
_symmetry_Int_Tables_number   1
_chemical_formula_structural   HfZrTaTiMo
_chemical_formula_sum   'Hf50 Zr50 Ta50 Ti50 Mo50'
_cell_volume   4811.04999010
_cell_formula_units_Z   50
loop_
 _symmetry_equiv_pos_site_id
 _symmetry_equiv_pos_as_xyz
  1  'x, y, z'
loop_
 _atom_site_type_symbol
 _atom_site_label
 _atom_site_symmetry_multiplicity
 _atom_site_fract_x
 _atom_site_fract_y
 _atom_site_fract_z
 _atom_site_occupancy
  Hf  Hf0  1  0.90644127  0.30309268  0.30595410  1
  Hf  Hf1  1  0.79582808  0.19870444  0.79819969  1
  Hf  Hf2  1  0.70420727  0.10161862  0.29527813  1
  Hf  Hf3  1  0.59764366  0.20327196  0.59231718  1
  Hf  Hf4  1  0.59527037  0.59021988  0.60208519  1
  Hf  Hf5  1  0.20001277  0.59709520  0.60541556  1
  Hf  Hf6  1  0.20343871  0.79508727  0.40045696  1
  Hf  Hf7  1  0.60117240  0.40654576  0.19853815  1
  Hf  Hf8  1  0.00535893  0.39725720  0.80321638  1
  Hf  Hf9  1  0.39564486  0.19837015  0.00286934  1
  Hf  Hf10  1  0.50199538  0.30253289  0.70433625  1
  Hf  Hf11  1  0.10784320  0.89245453  0.50721493  1
  Hf  Hf12  1  0.40810763  0.79850969  0.59578609  1
  Hf  Hf13  1  0.79174597  0.79835129  0.19649350  1
  Hf  Hf14  1  0.79605469  0.59873057  0.79605017  1
  Hf  Hf15  1  0.20841315  0.79473699  0.00669100  1
  Hf  Hf16  1  0.19985251  0.79345828  0.80080628  1
  Hf  Hf17  1  0.70527172  0.30350464  0.30027992  1
  Hf  Hf18  1  0.09696543  0.69472579  0.10119565  1
  Hf  Hf19  1  0.59976154  0.20354191  0.40340110  1
  Hf  Hf20  1  0.10178255  0.69096213  0.90284361  1
  Hf  Hf21  1  0.69882024  0.70688034  0.90927429  1
  Hf  Hf22  1  0.31988834  0.88500974  0.90439980  1
  Hf  Hf23  1  0.69968106  0.30069150  0.10368289  1
  Hf  Hf24  1  0.49891579  0.30123151  0.89662545  1
  Hf  Hf25  1  0.79735572  -0.00120030  0.60639192  1
  Hf  Hf26  1  0.19319948  0.19957433  0.80206862  1
  Hf  Hf27  1  0.49462087  0.72524529  0.90956664  1
  Hf  Hf28  1  0.31006241  0.31690676  0.49409210  1
  Hf  Hf29  1  0.38506299  0.40127211  0.18702775  1
  Hf  Hf30  1  0.40403426  0.00247818  0.80797881  1
  Hf  Hf31  1  0.39374917  0.57591929  0.61208255  1
  Hf  Hf32  1  0.70422921  0.31490243  0.50591765  1
  Hf  Hf33  1  0.49451227  0.30692768  0.29594098  1
  Hf  Hf34  1  0.00107446  0.00928911  0.60273027  1
  Hf  Hf35  1  -0.00365096  0.59662767  0.80210045  1
  Hf  Hf36  1  0.69369355  0.30687461  0.89007879  1
  Hf  Hf37  1  0.89708128  0.49797308  0.90547561  1
  Hf  Hf38  1  0.70591392  0.09078930  0.09936477  1
  Hf  Hf39  1  0.49404543  0.09842515  0.29451297  1
  Hf  Hf40  1  0.30275715  0.69323168  0.50334883  1
  Hf  Hf41  1  0.79382488  0.79647523  0.39597361  1
  Hf  Hf42  1  0.90243745  0.89766210  0.71365982  1
  Hf  Hf43  1  0.10652234  0.30119559  0.49370546  1
  Hf  Hf44  1  0.89337617  0.89942824  0.08893327  1
  Hf  Hf45  1  0.40398236  0.20747409  0.39945258  1
  Hf  Hf46  1  0.70000514  0.89544262  0.50078178  1
  Hf  Hf47  1  0.50258671  0.10361895  0.70136164  1
  Hf  Hf48  1  0.90860787  0.89378219  0.29270360  1
  Hf  Hf49  1  0.39395543  0.41340171  0.80194378  1
  Zr  Zr50  1  0.20005678  0.22436864  0.18244369  1
  Zr  Zr51  1  0.79900384  0.20159002  -0.00177797  1
  Zr  Zr52  1  0.60042120  -0.00573376  -0.00632745  1
  Zr  Zr53  1  0.89834500  0.69336000  0.29864790  1
  Zr  Zr54  1  0.50376063  0.90166765  0.70700554  1
  Zr  Zr55  1  0.09301923  0.89289027  0.90544539  1
  Zr  Zr56  1  0.60061058  0.19459339  -0.00389925  1
  Zr  Zr57  1  0.00517953  0.00184999  0.40272573  1
  Zr  Zr58  1  0.90016774  0.10805362  0.30087417  1
  Zr  Zr59  1  0.11508733  0.09359736  0.09698578  1
  Zr  Zr60  1  0.19217969  0.01458037  0.60580477  1
  Zr  Zr61  1  0.30462102  0.90579707  0.49597393  1
  Zr  Zr62  1  0.19475504  0.59106288  0.40026209  1
  Zr  Zr63  1  0.49594771  0.89805815  0.29738266  1
  Zr  Zr64  1  0.10618814  0.30572695  0.68348639  1
  Zr  Zr65  1  0.29881603  0.10856850  0.49403942  1
  Zr  Zr66  1  0.00806590  0.00091721  0.19710347  1
  Zr  Zr67  1  0.01708960  0.01696504  0.80063667  1
  Zr  Zr68  1  0.59544644  0.59446474  0.40261553  1
  Zr  Zr69  1  0.40261687  0.60042981  0.00531820  1
  Zr  Zr70  1  0.90941458  0.31172044  0.50101809  1
  Zr  Zr71  1  0.09717290  0.88505844  0.69969803  1
  Zr  Zr72  1  0.69167982  0.09501357  0.70610097  1
  Zr  Zr73  1  0.79183924  0.80023276  0.79652736  1
  Zr  Zr74  1  0.20279413  0.00511056  0.80552640  1
  Zr  Zr75  1  0.89155890  0.08520836  0.89960140  1
  Zr  Zr76  1  0.40065911  0.78773155  0.18832467  1
  Zr  Zr77  1  0.59211662  0.41029868  0.00195876  1
  Zr  Zr78  1  0.49732452  0.70268216  0.70697306  1
  Zr  Zr79  1  0.89805845  0.30771227  0.90180696  1
  Zr  Zr80  1  0.60226570  -0.00657666  0.39799080  1
  Zr  Zr81  1  0.47896430  0.47374947  0.49348882  1
  Zr  Zr82  1  0.90109396  0.49584842  0.10140015  1
  Zr  Zr83  1  0.09850136  0.69777660  0.29126588  1
  Zr  Zr84  1  0.40817937  0.79326785  0.39849472  1
  Zr  Zr85  1  0.89768245  0.09454414  0.10100406  1
  Zr  Zr86  1  0.23161924  0.41477182  0.61069983  1
  Zr  Zr87  1  0.20760531  0.80025698  0.19555906  1
  Zr  Zr88  1  0.89904959  0.89526175  0.50559501  1
  Zr  Zr89  1  0.29889003  0.10233048  0.29008404  1
  Zr  Zr90  1  0.01625226  0.40007604  0.19831585  1
  Zr  Zr91  1  0.59588477  0.59738625  0.80530654  1
  Zr  Zr92  1  0.00255900  0.79191350  0.40610229  1
  Zr  Zr93  1  0.08706522  0.48456454  0.50861293  1
  Zr  Zr94  1  0.80110885  0.20109145  0.60222971  1
  Zr  Zr95  1  0.10762808  0.11607317  0.30339140  1
  Zr  Zr96  1  0.30099268  0.89234414  0.69476776  1
  Zr  Zr97  1  0.19869724  0.40317394  0.80928140  1
  Zr  Zr98  1  0.30677217  0.11376859  0.68918012  1
  Zr  Zr99  1  0.01186091  0.20477330  -0.00668919  1
  Ta  Ta100  1  0.50005898  0.89080295  0.08932343  1
  Ta  Ta101  1  0.70276319  0.50594294  0.30098001  1
  Ta  Ta102  1  0.90239179  0.10743702  0.49517158  1
  Ta  Ta103  1  0.80004995  0.40986812  0.40016995  1
  Ta  Ta104  1  0.49379685  0.09301341  0.49754630  1
  Ta  Ta105  1  0.10329326  0.11935181  0.49716537  1
  Ta  Ta106  1  0.69491137  0.31070153  0.70180631  1
  Ta  Ta107  1  0.70150127  0.50405240  0.90497772  1
  Ta  Ta108  1  0.89765520  0.89537310  0.90218990  1
  Ta  Ta109  1  0.59882618  0.79227298  0.40123792  1
  Ta  Ta110  1  0.90055235  0.69585085  0.69679697  1
  Ta  Ta111  1  0.49453889  0.50747007  0.10630710  1
  Ta  Ta112  1  0.79970777  0.60413285  0.00507020  1
  Ta  Ta113  1  0.49397729  0.50182885  0.29293670  1
  Ta  Ta114  1  0.30212698  0.68712717  0.29342239  1
  Ta  Ta115  1  0.59708857  0.19760208  0.19748512  1
  Ta  Ta116  1  -0.00068996  0.59462398  0.00256675  1
  Ta  Ta117  1  0.30088307  0.69547648  0.90049705  1
  Ta  Ta118  1  -0.00298264  0.78701607  0.60428419  1
  Ta  Ta119  1  0.70282380  0.69313332  0.50074722  1
  Ta  Ta120  1  0.40145487  -0.00350889  0.19082288  1
  Ta  Ta121  1  0.29963732  0.69635779  0.70747662  1
  Ta  Ta122  1  0.00590380  0.20298316  0.79744487  1
  Ta  Ta123  1  0.19893889  0.00188435  0.39571480  1
  Ta  Ta124  1  0.89601564  0.50196810  0.50359781  1
  Ta  Ta125  1  0.00553531  0.21087126  0.19192964  1
  Ta  Ta126  1  0.69676637  0.70216007  0.09880964  1
  Ta  Ta127  1  0.60164321  -0.00998174  0.19426962  1
  Ta  Ta128  1  0.29909102  0.30117222  0.90232052  1
  Ta  Ta129  1  -0.00115410  0.19960882  0.60478853  1
  Ta  Ta130  1  0.69421176  0.69360077  0.29936975  1
  Ta  Ta131  1  -0.00186569  0.59280977  0.40264910  1
  Ta  Ta132  1  0.49284310  0.29662509  0.10251936  1
  Ta  Ta133  1  0.89973444  0.50032366  0.30460819  1
  Ta  Ta134  1  0.89391971  0.68571694  0.50738326  1
  Ta  Ta135  1  0.00063908  0.59280203  0.20018927  1
  Ta  Ta136  1  0.79976820  -0.00219024  0.39710349  1
  Ta  Ta137  1  0.79270227  0.40543882  0.00481099  1
  Ta  Ta138  1  0.40684605  0.00155034  -0.00118516  1
  Ta  Ta139  1  0.09630083  0.50472159  0.70185539  1
  Ta  Ta140  1  0.40167576  0.59663329  0.81033193  1
  Ta  Ta141  1  0.29478171  0.30361777  0.29783461  1
  Ta  Ta142  1  0.49818209  0.09818919  0.10420945  1
  Ta  Ta143  1  0.19939656  0.39835354  0.00536570  1
  Ta  Ta144  1  0.30210364  0.90682957  0.29830595  1
  Ta  Ta145  1  0.59963031  0.79787310  0.59224401  1
  Ta  Ta146  1  0.10700350  0.89926204  0.29321990  1
  Ta  Ta147  1  0.59676537  0.60345324  0.00480564  1
  Ta  Ta148  1  0.39308151  0.40648627  -0.00161138  1
  Ta  Ta149  1  0.79692983  0.60051269  0.19854228  1
  Ti  Ti150  1  0.69994071  0.49111462  0.69559614  1
  Ti  Ti151  1  0.71163814  0.89715350  0.91348819  1
  Ti  Ti152  1  0.80711753  0.20723466  0.19597335  1
  Ti  Ti153  1  0.59976822  0.40164496  0.39837997  1
  Ti  Ti154  1  0.49844776  0.68862554  0.49999538  1
  Ti  Ti155  1  0.50907116  0.10433369  0.89137293  1
  Ti  Ti156  1  0.59289031  0.41664178  0.80045778  1
  Ti  Ti157  1  0.59651360  -0.00753238  0.59482010  1
  Ti  Ti158  1  0.29314817  0.50445423  0.28496857  1
  Ti  Ti159  1  0.49886394  0.68978568  0.29314732  1
  Ti  Ti160  1  0.90586587  0.30855179  0.09572754  1
  Ti  Ti161  1  0.59092643  0.40335000  0.60040090  1
  Ti  Ti162  1  0.89880904  0.70597654  0.90193758  1
  Ti  Ti163  1  0.19952867  0.20851659  -0.00494822  1
  Ti  Ti164  1  0.30433707  0.90773682  0.09779699  1
  Ti  Ti165  1  0.10172391  0.30466376  0.30950369  1
  Ti  Ti166  1  0.29733760  0.10180315  0.90694944  1
  Ti  Ti167  1  0.90309326  0.49836577  0.68771034  1
  Ti  Ti168  1  0.60547526  0.81198593  0.80250040  1
  Ti  Ti169  1  0.70582626  0.50111173  0.49932941  1
  Ti  Ti170  1  0.61167066  -0.00858622  0.80892446  1
  Ti  Ti171  1  0.60262123  0.80128697  0.19876546  1
  Ti  Ti172  1  0.79846783  0.40702431  0.79502626  1
  Ti  Ti173  1  0.70033921  0.50850817  0.10076758  1
  Ti  Ti174  1  0.80068838  0.40556976  0.20076208  1
  Ti  Ti175  1  -0.00349640  0.79370851  0.00102999  1
  Ti  Ti176  1  0.09541686  0.69494132  0.70138494  1
  Ti  Ti177  1  0.79622361  0.79600522  0.60477360  1
  Ti  Ti178  1  0.09489200  0.69317961  0.51073715  1
  Ti  Ti179  1  0.00649742  0.00128311  -0.00247933  1
  Ti  Ti180  1  0.39420157  0.20209842  0.80408518  1
  Ti  Ti181  1  0.39468115  0.58991034  0.39338322  1
  Ti  Ti182  1  0.69444683  0.70327269  0.69343118  1
  Ti  Ti183  1  0.70258811  0.09644304  0.49774401  1
  Ti  Ti184  1  0.78878552  -0.01612957  0.20583949  1
  Ti  Ti185  1  0.79994216  0.20197423  0.40547290  1
  Ti  Ti186  1  0.90127235  0.70062026  0.10067111  1
  Ti  Ti187  1  0.20253929  0.40922269  0.38772648  1
  Ti  Ti188  1  0.09895063  0.89642049  0.10288163  1
  Ti  Ti189  1  0.40805325  -0.00370756  0.59397040  1
  Ti  Ti190  1  0.11235997  0.50440688  0.09814775  1
  Ti  Ti191  1  0.79437974  0.59667544  0.60417660  1
  Ti  Ti192  1  0.28389606  0.51183058  0.91052383  1
  Ti  Ti193  1  0.89578446  0.30940807  0.69559622  1
  Ti  Ti194  1  0.20484253  -0.00429920  -0.00377683  1
  Ti  Ti195  1  0.59870968  0.60352186  0.19584971  1
  Ti  Ti196  1  0.89820248  0.09960863  0.70544397  1
  Ti  Ti197  1  0.29141791  0.67503361  0.10412623  1
  Ti  Ti198  1  0.30215091  0.09680748  0.10134905  1
  Ti  Ti199  1  0.40701981  0.21605221  0.59283079  1
  Mo  Mo200  1  -0.00995367  0.40084354  0.60758674  1
  Mo  Mo201  1  0.39995812  0.59752545  0.20152698  1
  Mo  Mo202  1  0.60539206  0.80315985  0.00810133  1
  Mo  Mo203  1  0.39203141  0.40550547  0.37604344  1
  Mo  Mo204  1  0.39753286  0.00297945  0.39575647  1
  Mo  Mo205  1  0.69608234  0.89394509  0.10107416  1
  Mo  Mo206  1  0.50522640  0.90411711  0.50087991  1
  Mo  Mo207  1  0.79105787  -0.00522668  0.80449549  1
  Mo  Mo208  1  0.39736471  0.79341469  0.79591169  1
  Mo  Mo209  1  0.51274122  0.69951570  0.10456329  1
  Mo  Mo210  1  0.80406991  0.79446183  0.00094710  1
  Mo  Mo211  1  0.69391207  0.89462375  0.69544394  1
  Mo  Mo212  1  0.09529724  0.49872804  0.29984092  1
  Mo  Mo213  1  0.31059450  0.29441261  0.70548549  1
  Mo  Mo214  1  0.00014589  0.79893366  0.18717853  1
  Mo  Mo215  1  0.70005878  0.09040153  0.89371018  1
  Mo  Mo216  1  0.50375339  0.90144365  0.90294611  1
  Mo  Mo217  1  0.19782251  0.59628946  0.00212714  1
  Mo  Mo218  1  0.09581381  0.49920979  0.91009771  1
  Mo  Mo219  1  -0.00246606  0.40620216  0.39623604  1
  Mo  Mo220  1  0.79639690  0.59713611  0.40143509  1
  Mo  Mo221  1  0.29956670  0.30455955  0.08903226  1
  Mo  Mo222  1  0.19879009  0.40645907  0.19967641  1
  Mo  Mo223  1  -0.00403514  0.59846023  0.60318007  1
  Mo  Mo224  1  0.29423058  0.51559128  0.72685749  1
  Mo  Mo225  1  0.39957531  0.20047508  0.19155898  1
  Mo  Mo226  1  0.50132835  0.30200943  0.49970643  1
  Mo  Mo227  1  0.60039976  0.20151057  0.79746606  1
  Mo  Mo228  1  0.50103649  0.49703884  0.70580094  1
  Mo  Mo229  1  0.00252733  0.20514588  0.40179269  1
  Mo  Mo230  1  -0.00775605  0.78496623  0.80241816  1
  Mo  Mo231  1  0.79684741  -0.00847297  -0.00221296  1
  Mo  Mo232  1  0.10371746  0.30152421  0.90183015  1
  Mo  Mo233  1  0.50163099  0.50175271  0.90806359  1
  Mo  Mo234  1  0.79575842  0.40979573  0.60407204  1
  Mo  Mo235  1  0.20490510  0.21088451  0.59650611  1
  Mo  Mo236  1  0.69680931  0.89344015  0.29932218  1
  Mo  Mo237  1  0.01166048  0.40503800  -0.00007089  1
  Mo  Mo238  1  0.20489392  0.21089931  0.39777963  1
  Mo  Mo239  1  0.09944432  0.11647337  0.69219186  1
  Mo  Mo240  1  0.10854499  0.10082134  0.90647900  1
  Mo  Mo241  1  0.39735129  0.79663043  0.01168537  1
  Mo  Mo242  1  0.19436623  0.78053896  0.60241404  1
  Mo  Mo243  1  0.19739426  0.59203900  0.19857600  1
  Mo  Mo244  1  0.20835025  -0.00909488  0.19640578  1
  Mo  Mo245  1  0.29298473  0.50072903  0.09880409  1
  Mo  Mo246  1  0.40112962  0.39680813  0.62062237  1
  Mo  Mo247  1  0.19417924  0.60120641  0.80447969  1
  Mo  Mo248  1  0.10107240  0.30887600  0.08993533  1
  Mo  Mo249  1  0.30101311  0.49918526  0.48058834  1
