# generated using pymatgen
data_HfZrTaTiMo
_symmetry_space_group_name_H-M   'P 1'
_cell_length_a   16.88437414
_cell_length_b   16.88010378
_cell_length_c   16.88417238
_cell_angle_alpha   90.00009547
_cell_angle_beta   89.97274762
_cell_angle_gamma   89.98528070
_symmetry_Int_Tables_number   1
_chemical_formula_structural   HfZrTaTiMo
_chemical_formula_sum   'Hf50 Zr50 Ta50 Ti50 Mo50'
_cell_volume   4812.15705863
_cell_formula_units_Z   50
loop_
 _symmetry_equiv_pos_site_id
 _symmetry_equiv_pos_as_xyz
  1  'x, y, z'
loop_
 _atom_site_type_symbol
 _atom_site_label
 _atom_site_symmetry_multiplicity
 _atom_site_fract_x
 _atom_site_fract_y
 _atom_site_fract_z
 _atom_site_occupancy
  Hf  Hf0  1  0.89318242  0.89818336  0.30506441  1
  Hf  Hf1  1  0.69411533  0.70625652  0.48791158  1
  Hf  Hf2  1  0.39911534  0.80829699  0.78789674  1
  Hf  Hf3  1  0.19454036  0.20250098  0.80031583  1
  Hf  Hf4  1  0.19866043  0.39774100  0.39529195  1
  Hf  Hf5  1  -0.00521691  0.60629694  -0.00596342  1
  Hf  Hf6  1  0.40934121  0.39424840  0.39555869  1
  Hf  Hf7  1  0.71496365  0.50613907  0.10062334  1
  Hf  Hf8  1  0.50479496  0.09654156  0.10807167  1
  Hf  Hf9  1  0.60676390  0.59393637  0.59478189  1
  Hf  Hf10  1  0.30058329  0.29959079  0.69608077  1
  Hf  Hf11  1  -0.00160063  0.20032771  -0.00416097  1
  Hf  Hf12  1  0.70679259  0.09215927  0.72496862  1
  Hf  Hf13  1  0.89759285  0.70564437  0.50181872  1
  Hf  Hf14  1  0.08150192  0.50331643  0.69168444  1
  Hf  Hf15  1  0.69261765  0.50491532  0.30516838  1
  Hf  Hf16  1  0.50374083  0.90535953  0.89892898  1
  Hf  Hf17  1  0.79426404  0.59409916  0.60022235  1
  Hf  Hf18  1  0.40092381  0.19902819  0.79989823  1
  Hf  Hf19  1  0.19944576  0.60771415  0.39993962  1
  Hf  Hf20  1  0.50065576  0.30254405  0.09811732  1
  Hf  Hf21  1  0.49446159  0.30400302  0.90733449  1
  Hf  Hf22  1  0.09939372  0.10513412  0.30230678  1
  Hf  Hf23  1  0.30200441  0.89950357  0.90083342  1
  Hf  Hf24  1  0.20054962  0.60715498  0.59068276  1
  Hf  Hf25  1  0.61158699  0.19349205  0.59741556  1
  Hf  Hf26  1  0.10551004  0.49831858  0.09085289  1
  Hf  Hf27  1  0.61020624  0.59211717  0.79548091  1
  Hf  Hf28  1  0.89361548  0.30751620  0.09259651  1
  Hf  Hf29  1  0.49250797  0.50582397  0.69661162  1
  Hf  Hf30  1  0.20562919  -0.00927709  0.40017134  1
  Hf  Hf31  1  0.70088470  0.70383874  0.70247229  1
  Hf  Hf32  1  0.90937533  0.29875682  0.31202735  1
  Hf  Hf33  1  0.00518906  0.39771272  0.20190812  1
  Hf  Hf34  1  0.30262050  0.29844553  0.29403424  1
  Hf  Hf35  1  -0.01069802  0.18985758  0.59015104  1
  Hf  Hf36  1  0.60702906  0.40513718  0.00211985  1
  Hf  Hf37  1  0.60716004  0.20164729  0.39994478  1
  Hf  Hf38  1  0.19609911  0.80352385  0.78853162  1
  Hf  Hf39  1  0.08552704  0.49449624  0.50256433  1
  Hf  Hf40  1  0.79819556  0.80347385  0.00596942  1
  Hf  Hf41  1  0.41212153  0.19085876  0.40018836  1
  Hf  Hf42  1  -0.00829494  -0.00324895  0.00145494  1
  Hf  Hf43  1  0.50561064  0.09474123  0.90102666  1
  Hf  Hf44  1  0.39357600  0.80437944  0.59334860  1
  Hf  Hf45  1  0.89765398  0.89611889  0.89601395  1
  Hf  Hf46  1  0.79140450  0.20497971  0.21406498  1
  Hf  Hf47  1  0.31106259  0.50376095  0.50137750  1
  Hf  Hf48  1  0.00005698  0.40064438  0.80667967  1
  Hf  Hf49  1  0.30056869  0.28838932  0.50750163  1
  Zr  Zr50  1  0.00161142  -0.00518459  0.20604645  1
  Zr  Zr51  1  0.88705076  0.69747681  0.11312220  1
  Zr  Zr52  1  0.29503443  0.50019028  0.09716529  1
  Zr  Zr53  1  0.09499244  0.29649636  0.68984017  1
  Zr  Zr54  1  0.60909157  0.79582930  0.19885452  1
  Zr  Zr55  1  0.10045157  0.89906295  0.50726246  1
  Zr  Zr56  1  0.29560306  0.10878462  0.68275143  1
  Zr  Zr57  1  0.00049906  0.59824345  0.20528124  1
  Zr  Zr58  1  0.71595083  0.30464871  0.90375472  1
  Zr  Zr59  1  0.80035953  0.00122833  0.20302456  1
  Zr  Zr60  1  0.89432156  0.50003245  0.30598595  1
  Zr  Zr61  1  0.40485081  -0.00787493  0.39345789  1
  Zr  Zr62  1  0.29906640  0.10186236  0.89996327  1
  Zr  Zr63  1  0.70983248  0.71124837  0.88865984  1
  Zr  Zr64  1  0.31004609  0.68679995  0.69715351  1
  Zr  Zr65  1  0.79556447  0.19862768  0.59151551  1
  Zr  Zr66  1  0.40286084  0.60168545  0.00102612  1
  Zr  Zr67  1  0.10433124  0.69606894  0.10050593  1
  Zr  Zr68  1  0.19940365  0.80420475  0.21883484  1
  Zr  Zr69  1  0.80162980  0.00380581  0.60245721  1
  Zr  Zr70  1  0.79571405  0.80940575  0.60512585  1
  Zr  Zr71  1  0.89617104  0.10794600  0.10510054  1
  Zr  Zr72  1  0.60824562  0.60810587  0.00048930  1
  Zr  Zr73  1  0.50720904  0.89870521  0.49795608  1
  Zr  Zr74  1  0.30612401  0.09365844  0.28661154  1
  Zr  Zr75  1  0.19278792  0.59333247  0.80157401  1
  Zr  Zr76  1  0.00181213  0.60719469  0.40290850  1
  Zr  Zr77  1  0.30148389  0.89915732  0.10271821  1
  Zr  Zr78  1  0.89518645  0.30166901  0.70625864  1
  Zr  Zr79  1  0.60633754  0.20149039  0.80841943  1
  Zr  Zr80  1  0.50280250  0.90479029  0.10016510  1
  Zr  Zr81  1  0.10470250  0.10335805  0.09913713  1
  Zr  Zr82  1  0.50053702  0.29853058  0.69845513  1
  Zr  Zr83  1  0.29618139  0.69441356  0.10254372  1
  Zr  Zr84  1  0.20117997  0.40254763  0.60018344  1
  Zr  Zr85  1  0.89110333  0.49312927  0.90506340  1
  Zr  Zr86  1  0.20095915  -0.00608078  0.78792420  1
  Zr  Zr87  1  0.50032113  0.68851346  0.30351444  1
  Zr  Zr88  1  0.88155338  0.70820934  0.30520777  1
  Zr  Zr89  1  0.59570148  0.80423338  0.38709596  1
  Zr  Zr90  1  0.49336079  0.49844758  0.89858658  1
  Zr  Zr91  1  0.49965615  0.70379818  0.88757893  1
  Zr  Zr92  1  0.20216782  0.19443817  0.40312213  1
  Zr  Zr93  1  0.78742420  0.39139923  0.40986156  1
  Zr  Zr94  1  0.08688170  0.70123888  0.69600235  1
  Zr  Zr95  1  0.00060690  -0.00913543  0.79214137  1
  Zr  Zr96  1  0.09774953  0.89269380  0.09750401  1
  Zr  Zr97  1  0.40225480  0.19941835  0.19394640  1
  Zr  Zr98  1  0.61357404  0.39917340  0.59599628  1
  Zr  Zr99  1  0.10505456  0.30642511  0.91057623  1
  Ta  Ta100  1  0.60396040  0.60148341  0.19620710  1
  Ta  Ta101  1  -0.00660151  0.00068847  0.59969537  1
  Ta  Ta102  1  0.40374662  0.80448240  0.20944730  1
  Ta  Ta103  1  0.39384820  0.40269988  0.79907807  1
  Ta  Ta104  1  0.40281229  -0.00376594  0.78566852  1
  Ta  Ta105  1  0.30078883  0.31013583  0.90882461  1
  Ta  Ta106  1  0.89615083  0.50119632  0.70061424  1
  Ta  Ta107  1  0.39525962  0.00569927  0.00542337  1
  Ta  Ta108  1  0.40532087  0.40570728  0.20040317  1
  Ta  Ta109  1  0.08863229  0.29808791  0.49205639  1
  Ta  Ta110  1  0.38969173  0.80016997  0.39798161  1
  Ta  Ta111  1  0.60783356  0.40384710  0.79652086  1
  Ta  Ta112  1  0.51095935  0.08916175  0.50043386  1
  Ta  Ta113  1  0.09708594  0.89431333  0.89911471  1
  Ta  Ta114  1  0.29575751  0.49690248  0.90343448  1
  Ta  Ta115  1  0.09624059  0.09972782  0.69241316  1
  Ta  Ta116  1  -0.00664473  0.79544807  -0.00359802  1
  Ta  Ta117  1  0.89540333  0.90235449  0.49429798  1
  Ta  Ta118  1  0.60724112  0.19706576  0.00515887  1
  Ta  Ta119  1  0.70003782  0.90552397  0.10196825  1
  Ta  Ta120  1  0.79626152  0.19511883  0.40616500  1
  Ta  Ta121  1  -0.00068495  0.00349667  0.40637026  1
  Ta  Ta122  1  0.70074770  0.90607409  0.49118305  1
  Ta  Ta123  1  0.69271384  0.09795809  0.10766866  1
  Ta  Ta124  1  0.49530543  0.69395725  0.50157913  1
  Ta  Ta125  1  0.50575099  0.09151297  0.69748983  1
  Ta  Ta126  1  0.00745241  0.20976176  0.20248837  1
  Ta  Ta127  1  0.19911571  0.79537161  -0.01067656  1
  Ta  Ta128  1  0.00460380  0.80874904  0.40057548  1
  Ta  Ta129  1  0.60500247  0.80289712  0.00111373  1
  Ta  Ta130  1  0.19862529  0.39641355  0.20287428  1
  Ta  Ta131  1  0.40654360  0.39959486  0.59634450  1
  Ta  Ta132  1  0.70036095  0.90992116  0.89182501  1
  Ta  Ta133  1  0.20229864  -0.00442158  0.20253840  1
  Ta  Ta134  1  0.40141106  0.79861665  0.00080799  1
  Ta  Ta135  1  0.50440425  0.50308485  0.49173614  1
  Ta  Ta136  1  0.49980978  0.70346778  0.10256801  1
  Ta  Ta137  1  0.79406302  0.39683399  0.20561648  1
  Ta  Ta138  1  0.19938054  -0.00195196  -0.00001518  1
  Ta  Ta139  1  0.10017185  0.09479115  0.89940411  1
  Ta  Ta140  1  0.90188738  0.49396471  0.50773045  1
  Ta  Ta141  1  0.29982720  0.69457536  0.89677743  1
  Ta  Ta142  1  0.39867183  -0.00390052  0.59686613  1
  Ta  Ta143  1  0.89796641  0.10177294  0.71087926  1
  Ta  Ta144  1  0.20456221  0.79781677  0.40703988  1
  Ta  Ta145  1  0.60276932  0.40071518  0.20194710  1
  Ta  Ta146  1  0.60853960  -0.00467952  0.60549986  1
  Ta  Ta147  1  0.79724904  0.00044913  0.00171569  1
  Ta  Ta148  1  0.50114668  0.69781811  0.69371533  1
  Ta  Ta149  1  -0.01205910  0.81288590  0.61117049  1
  Ti  Ti150  1  0.79262902  0.19076785  0.00069404  1
  Ti  Ti151  1  0.40424360  0.59665206  0.20028335  1
  Ti  Ti152  1  0.59931479  0.80689509  0.60432459  1
  Ti  Ti153  1  0.59810249  0.81583560  0.78591764  1
  Ti  Ti154  1  0.20647705  0.19749340  0.00516891  1
  Ti  Ti155  1  0.61068806  0.00305134  -0.00179190  1
  Ti  Ti156  1  0.09024181  0.70750150  0.50850601  1
  Ti  Ti157  1  0.30713661  0.50215178  0.69962130  1
  Ti  Ti158  1  0.89474246  0.49759244  0.09874918  1
  Ti  Ti159  1  0.39479288  0.19521578  0.00475954  1
  Ti  Ti160  1  0.79782423  0.01160345  0.40250482  1
  Ti  Ti161  1  0.79135847  0.59561672  0.40697199  1
  Ti  Ti162  1  0.19603000  0.59562288  0.21513212  1
  Ti  Ti163  1  0.79423317  0.40048464  0.59893633  1
  Ti  Ti164  1  0.89398714  0.30350868  0.90408802  1
  Ti  Ti165  1  0.50579799  0.29966908  0.50265554  1
  Ti  Ti166  1  0.60192541  0.39547236  0.40124116  1
  Ti  Ti167  1  0.10277781  0.10081212  0.50272240  1
  Ti  Ti168  1  0.09639185  0.49407953  0.30600255  1
  Ti  Ti169  1  0.30101810  0.31010830  0.09268203  1
  Ti  Ti170  1  0.90668537  0.30445607  0.49762798  1
  Ti  Ti171  1  0.30494088  0.50016302  0.29809510  1
  Ti  Ti172  1  0.70706060  0.89932458  0.30464229  1
  Ti  Ti173  1  0.80183364  0.61145382  -0.00686700  1
  Ti  Ti174  1  0.09523650  0.70548818  0.89561694  1
  Ti  Ti175  1  0.68935280  0.09789953  0.30066454  1
  Ti  Ti176  1  0.90736041  0.10763363  0.30994656  1
  Ti  Ti177  1  0.20557500  -0.00255275  0.59530529  1
  Ti  Ti178  1  0.30377905  0.69664716  0.30076430  1
  Ti  Ti179  1  -0.01077502  0.60442303  0.80748589  1
  Ti  Ti180  1  0.69985009  0.29858893  0.10402288  1
  Ti  Ti181  1  0.59383259  -0.00578250  0.21791006  1
  Ti  Ti182  1  -0.00428862  0.80541586  0.20180980  1
  Ti  Ti183  1  0.39823026  0.60281900  0.40253262  1
  Ti  Ti184  1  0.20100079  0.40321656  0.79888494  1
  Ti  Ti185  1  0.10394760  0.30640261  0.09433752  1
  Ti  Ti186  1  0.10329159  0.49731324  0.91095656  1
  Ti  Ti187  1  0.50415209  0.50156352  0.30171291  1
  Ti  Ti188  1  0.88865511  0.09938317  0.89352628  1
  Ti  Ti189  1  0.51193287  0.29599198  0.28965307  1
  Ti  Ti190  1  0.71147889  0.30105053  0.71059320  1
  Ti  Ti191  1  0.89914663  0.69619260  0.70731123  1
  Ti  Ti192  1  0.09383761  0.70818244  0.30357503  1
  Ti  Ti193  1  -0.00092926  0.19650919  0.80581714  1
  Ti  Ti194  1  0.41197495  0.18989788  0.59149767  1
  Ti  Ti195  1  0.50087041  0.49979743  0.10238080  1
  Ti  Ti196  1  0.71499619  0.49731532  0.89532598  1
  Ti  Ti197  1  0.20006557  0.20551504  0.19167606  1
  Ti  Ti198  1  0.20699995  0.80491721  0.59863083  1
  Ti  Ti199  1  0.80837327  0.81062424  0.78964971  1
  Mo  Mo200  1  0.39697084  0.40108446  0.00432883  1
  Mo  Mo201  1  0.79595838  0.80900805  0.40158544  1
  Mo  Mo202  1  0.29715060  0.89792414  0.49970665  1
  Mo  Mo203  1  0.30262101  0.70065837  0.49418174  1
  Mo  Mo204  1  0.59681564  0.59827989  0.40133880  1
  Mo  Mo205  1  0.89904238  0.09452808  0.49093283  1
  Mo  Mo206  1  0.80258530  -0.00208939  0.80723999  1
  Mo  Mo207  1  0.20255125  0.40010378  0.00387292  1
  Mo  Mo208  1  0.69967176  0.49796504  0.49672915  1
  Mo  Mo209  1  -0.00104428  0.40148891  0.00358777  1
  Mo  Mo210  1  0.59879385  -0.00456324  0.79953315  1
  Mo  Mo211  1  0.70428215  0.09669174  0.91336886  1
  Mo  Mo212  1  0.79949844  0.39970856  0.00784057  1
  Mo  Mo213  1  0.89415697  0.89280292  0.09997131  1
  Mo  Mo214  1  0.09550811  0.89972348  0.30659077  1
  Mo  Mo215  1  0.40725109  0.59818292  0.59397989  1
  Mo  Mo216  1  0.00156194  0.39648573  0.40143295  1
  Mo  Mo217  1  0.69878935  0.09168305  0.49107834  1
  Mo  Mo218  1  0.70895249  0.49349400  0.70499711  1
  Mo  Mo219  1  0.30933518  0.09486744  0.50382886  1
  Mo  Mo220  1  0.80045155  0.40153375  0.79624819  1
  Mo  Mo221  1  0.69536795  0.30381216  0.29787076  1
  Mo  Mo222  1  -0.00170498  0.19548119  0.40218459  1
  Mo  Mo223  1  0.29805071  0.90466694  0.69085554  1
  Mo  Mo224  1  0.49531265  0.90023515  0.29564401  1
  Mo  Mo225  1  0.80421557  0.59903360  0.79542973  1
  Mo  Mo226  1  0.19501530  0.60367755  -0.01622856  1
  Mo  Mo227  1  0.39686735  0.59644815  0.79727610  1
  Mo  Mo228  1  0.89842235  0.90499576  0.70044454  1
  Mo  Mo229  1  0.79235738  0.59951073  0.20703894  1
  Mo  Mo230  1  0.60378350  0.20280032  0.20104556  1
  Mo  Mo231  1  0.69979014  0.29660740  0.49935258  1
  Mo  Mo232  1  0.09921330  0.90158252  0.69132881  1
  Mo  Mo233  1  0.80843978  0.19895513  0.80989410  1
  Mo  Mo234  1  0.70428318  0.69189969  0.29667842  1
  Mo  Mo235  1  0.50968864  0.09500009  0.29920910  1
  Mo  Mo236  1  0.30066211  0.89518085  0.30034557  1
  Mo  Mo237  1  0.29621413  0.09764062  0.09665241  1
  Mo  Mo238  1  -0.01333053  0.39565132  0.59728764  1
  Mo  Mo239  1  0.18641395  0.19399777  0.59335888  1
  Mo  Mo240  1  -0.01268340  0.60624005  0.60063290  1
  Mo  Mo241  1  -0.00236120  0.79684123  0.80023587  1
  Mo  Mo242  1  0.10354657  0.29723556  0.29552757  1
  Mo  Mo243  1  0.60519084  0.00253562  0.39377990  1
  Mo  Mo244  1  0.40169806  -0.00491213  0.19831353  1
  Mo  Mo245  1  0.69733882  0.70026305  0.09880970  1
  Mo  Mo246  1  0.90023546  0.70410114  0.88850842  1
  Mo  Mo247  1  0.50363724  0.90133926  0.69428536  1
  Mo  Mo248  1  0.69820367  0.90140843  0.70445115  1
  Mo  Mo249  1  0.79084123  0.80504403  0.20069865  1
