# generated using pymatgen
data_HfZrTaTiMo
_symmetry_space_group_name_H-M   'P 1'
_cell_length_a   16.87885879
_cell_length_b   16.88274742
_cell_length_c   16.88421886
_cell_angle_alpha   89.98009382
_cell_angle_beta   90.07802850
_cell_angle_gamma   89.98088213
_symmetry_Int_Tables_number   1
_chemical_formula_structural   HfZrTaTiMo
_chemical_formula_sum   'Hf50 Zr50 Ta50 Ti50 Mo50'
_cell_volume   4811.34747490
_cell_formula_units_Z   50
loop_
 _symmetry_equiv_pos_site_id
 _symmetry_equiv_pos_as_xyz
  1  'x, y, z'
loop_
 _atom_site_type_symbol
 _atom_site_label
 _atom_site_symmetry_multiplicity
 _atom_site_fract_x
 _atom_site_fract_y
 _atom_site_fract_z
 _atom_site_occupancy
  Hf  Hf0  1  0.58656246  0.59570893  0.39018405  1
  Hf  Hf1  1  0.11588031  0.49397160  0.51077576  1
  Hf  Hf2  1  0.79975350  0.39939514  0.78893982  1
  Hf  Hf3  1  0.29968919  0.69034890  0.49712970  1
  Hf  Hf4  1  0.39237878  0.20783214  0.20299876  1
  Hf  Hf5  1  0.29912541  0.70490821  0.30782389  1
  Hf  Hf6  1  0.60152803  0.40153380  0.79220302  1
  Hf  Hf7  1  0.58511615  0.59185079  -0.01432792  1
  Hf  Hf8  1  0.10062579  0.90245181  0.90034466  1
  Hf  Hf9  1  0.40499495  0.59093033  0.21001584  1
  Hf  Hf10  1  0.20286370  0.59394225  0.00280451  1
  Hf  Hf11  1  0.11497973  0.70694579  0.30303709  1
  Hf  Hf12  1  0.59630502  0.59594669  0.21040793  1
  Hf  Hf13  1  0.20637737  0.39179863  0.20762287  1
  Hf  Hf14  1  0.49137628  0.90292776  0.50054886  1
  Hf  Hf15  1  0.38858611  0.19907241  0.39555062  1
  Hf  Hf16  1  0.70478471  0.89137123  0.08987807  1
  Hf  Hf17  1  0.69847653  0.10273794  0.10065402  1
  Hf  Hf18  1  0.28789486  0.10541776  0.90009398  1
  Hf  Hf19  1  0.09490298  0.68520904  0.69454212  1
  Hf  Hf20  1  0.49788496  0.10448759  0.89756526  1
  Hf  Hf21  1  0.88683822  0.70345012  0.10359573  1
  Hf  Hf22  1  0.30326430  0.70246927  0.10751276  1
  Hf  Hf23  1  0.49543330  0.70085462  0.09422666  1
  Hf  Hf24  1  0.10327887  0.69889861  0.89737718  1
  Hf  Hf25  1  0.90475052  0.70440566  0.69737569  1
  Hf  Hf26  1  0.00764848  0.39249644  0.60744789  1
  Hf  Hf27  1  0.49541581  0.30274313  0.49681185  1
  Hf  Hf28  1  0.70216521  0.30574488  0.09722490  1
  Hf  Hf29  1  0.30563089  0.49276028  0.89677214  1
  Hf  Hf30  1  0.90183852  0.49943863  0.29719539  1
  Hf  Hf31  1  0.00124637  0.20362715  0.20096180  1
  Hf  Hf32  1  0.39133336  0.00558629  0.20254291  1
  Hf  Hf33  1  0.49759474  0.69610755  0.69678300  1
  Hf  Hf34  1  0.49695276  0.10190446  0.50114093  1
  Hf  Hf35  1  0.70681473  0.09471794  0.49407526  1
  Hf  Hf36  1  0.10739725  0.70325620  0.49815826  1
  Hf  Hf37  1  0.89815856  0.90216897  0.49506077  1
  Hf  Hf38  1  0.79698640  0.80141433  0.60252265  1
  Hf  Hf39  1  0.00330671  0.80104925  0.00424709  1
  Hf  Hf40  1  0.00379791  0.21414889  0.39533007  1
  Hf  Hf41  1  0.59672066  0.40482194  0.20707989  1
  Hf  Hf42  1  0.80152964  0.40101012  0.60071045  1
  Hf  Hf43  1  0.90281986  0.09322935  0.30330282  1
  Hf  Hf44  1  0.89295875  0.90049307  0.90283796  1
  Hf  Hf45  1  0.30058513  0.89579455  0.49424972  1
  Hf  Hf46  1  0.30289979  0.89044735  0.29942942  1
  Hf  Hf47  1  0.69774006  0.69994675  0.09996888  1
  Hf  Hf48  1  0.30533094  0.89523709  0.69911774  1
  Hf  Hf49  1  0.49085027  0.29852620  0.69559622  1
  Zr  Zr50  1  0.10655423  0.90020430  0.29770369  1
  Zr  Zr51  1  0.30704864  0.69966491  0.90280157  1
  Zr  Zr52  1  0.81313649  0.59617874  0.41055705  1
  Zr  Zr53  1  0.90983742  0.50839595  0.70374103  1
  Zr  Zr54  1  0.00050821  0.59899484  -0.00375549  1
  Zr  Zr55  1  0.11131273  0.28417083  0.09653852  1
  Zr  Zr56  1  0.09150960  0.89355976  0.69354781  1
  Zr  Zr57  1  0.80821440  0.20964481  0.20397510  1
  Zr  Zr58  1  -0.00914906  0.59223750  0.58215149  1
  Zr  Zr59  1  0.29987107  0.50128191  0.69394119  1
  Zr  Zr60  1  0.00557287  0.59411498  0.39555882  1
  Zr  Zr61  1  0.38855918  0.20389251  0.79059822  1
  Zr  Zr62  1  0.59617481  -0.00263968  0.20304312  1
  Zr  Zr63  1  0.00367560  0.80364579  0.19644334  1
  Zr  Zr64  1  0.10304156  0.11619539  0.50512644  1
  Zr  Zr65  1  0.09509446  0.10628550  0.69605192  1
  Zr  Zr66  1  0.60747462  0.39937207  0.60231181  1
  Zr  Zr67  1  -0.00387462  0.39651812  0.00272613  1
  Zr  Zr68  1  0.70122978  0.90457591  0.49813469  1
  Zr  Zr69  1  0.70423640  0.29405347  0.89930978  1
  Zr  Zr70  1  0.01359025  0.00218307  0.40572300  1
  Zr  Zr71  1  0.69486029  0.50251707  0.49704909  1
  Zr  Zr72  1  0.69704493  0.70041610  0.49938767  1
  Zr  Zr73  1  0.49630578  0.89323767  0.10165054  1
  Zr  Zr74  1  0.89389125  0.10301831  0.69888824  1
  Zr  Zr75  1  0.20083128  0.79365323  0.79367176  1
  Zr  Zr76  1  0.69621119  0.71202403  0.90634428  1
  Zr  Zr77  1  0.70109259  0.49190387  0.90283560  1
  Zr  Zr78  1  0.71720106  0.90280909  0.31397145  1
  Zr  Zr79  1  0.29507858  0.89690410  0.90112141  1
  Zr  Zr80  1  0.49891741  0.89685983  0.89761188  1
  Zr  Zr81  1  0.10377747  0.49224975  0.10475664  1
  Zr  Zr82  1  0.89710864  0.29782602  0.90404332  1
  Zr  Zr83  1  0.59094450  0.79841518  0.39870256  1
  Zr  Zr84  1  0.59899389  0.80094723  0.79363100  1
  Zr  Zr85  1  0.00968878  0.60315046  0.20022540  1
  Zr  Zr86  1  0.20037711  0.00063209  0.59556837  1
  Zr  Zr87  1  0.28314639  0.11819007  0.09635625  1
  Zr  Zr88  1  0.41651566  0.59336974  0.81248167  1
  Zr  Zr89  1  0.89251928  0.49342614  0.10386570  1
  Zr  Zr90  1  0.70014199  0.10003452  0.30340967  1
  Zr  Zr91  1  0.79991804  0.60064530  0.80104286  1
  Zr  Zr92  1  0.59794123  0.80054649  0.21231468  1
  Zr  Zr93  1  0.80454142  0.59522518  -0.00596751  1
  Zr  Zr94  1  0.59254907  0.20235953  -0.00207193  1
  Zr  Zr95  1  0.80592093  0.39435746  0.39910371  1
  Zr  Zr96  1  0.60903642  0.20127270  0.59898918  1
  Zr  Zr97  1  0.39501279  0.00652744  0.79421988  1
  Zr  Zr98  1  0.39399500  0.00428131  0.00802978  1
  Zr  Zr99  1  0.10114093  0.29400740  0.90118708  1
  Ta  Ta100  1  0.39755317  0.40261822  0.59680794  1
  Ta  Ta101  1  0.49694885  0.50016668  0.69626450  1
  Ta  Ta102  1  0.49994821  0.10125023  0.69483408  1
  Ta  Ta103  1  0.20156544  0.79529789  0.59830744  1
  Ta  Ta104  1  0.19836063  0.20495535  0.78970362  1
  Ta  Ta105  1  0.90120364  0.90756334  0.10010511  1
  Ta  Ta106  1  0.90721011  0.09887619  0.09653094  1
  Ta  Ta107  1  0.49707413  0.30213979  0.30408536  1
  Ta  Ta108  1  0.29633541  0.30102772  0.50795625  1
  Ta  Ta109  1  0.20471443  0.59063460  0.20634251  1
  Ta  Ta110  1  0.49777751  0.10453437  0.30112709  1
  Ta  Ta111  1  0.70256460  0.09823671  0.70369759  1
  Ta  Ta112  1  0.00078276  0.38627772  0.21130670  1
  Ta  Ta113  1  0.80496586  0.20639822  0.40185511  1
  Ta  Ta114  1  0.69816552  0.49968678  0.10187766  1
  Ta  Ta115  1  -0.00521646  0.79991318  0.80016782  1
  Ta  Ta116  1  0.09561277  0.10208790  0.90177419  1
  Ta  Ta117  1  0.20976544  0.39450880  -0.00167151  1
  Ta  Ta118  1  0.49384822  0.49613023  0.09684829  1
  Ta  Ta119  1  0.71633988  0.69533206  0.30179910  1
  Ta  Ta120  1  0.40191794  0.39474276  -0.00138987  1
  Ta  Ta121  1  0.79689716  0.39935160  0.20641090  1
  Ta  Ta122  1  0.00519932  0.40089628  0.79753673  1
  Ta  Ta123  1  0.90282084  0.10206516  0.90128314  1
  Ta  Ta124  1  0.69365307  0.69353364  0.69575616  1
  Ta  Ta125  1  0.19624099  0.00300376  0.19728110  1
  Ta  Ta126  1  0.60064364  0.00020635  0.60666325  1
  Ta  Ta127  1  -0.00375324  -0.00270291  0.59780392  1
  Ta  Ta128  1  0.70060048  0.90577138  0.70422594  1
  Ta  Ta129  1  0.19765443  0.39415369  0.78977800  1
  Ta  Ta130  1  0.60380735  0.00326712  -0.00609125  1
  Ta  Ta131  1  0.39999329  0.79466012  0.59969105  1
  Ta  Ta132  1  0.20823938  0.01048082  0.39597769  1
  Ta  Ta133  1  0.89981768  0.10603196  0.50421251  1
  Ta  Ta134  1  0.60545381  0.19761443  0.79552732  1
  Ta  Ta135  1  0.19133227  -0.00098155  0.00683870  1
  Ta  Ta136  1  0.89734662  0.90253541  0.70167334  1
  Ta  Ta137  1  -0.00416226  0.00117722  0.80087510  1
  Ta  Ta138  1  0.90382394  0.90366242  0.29927862  1
  Ta  Ta139  1  0.80702835  -0.00011177  0.19442994  1
  Ta  Ta140  1  -0.00112870  0.20196871  0.79772644  1
  Ta  Ta141  1  0.70173264  0.90359238  0.90014059  1
  Ta  Ta142  1  0.59975734  0.20440583  0.39603774  1
  Ta  Ta143  1  0.30558592  0.69033127  0.69357474  1
  Ta  Ta144  1  0.59140395  0.39852635  0.00074101  1
  Ta  Ta145  1  0.49732927  0.90182459  0.69591685  1
  Ta  Ta146  1  0.20189976  0.39228891  0.39875760  1
  Ta  Ta147  1  0.79802232  0.00684166  -0.00116464  1
  Ta  Ta148  1  0.30819925  0.49660475  0.09844288  1
  Ta  Ta149  1  0.80495171  0.19493656  0.00144623  1
  Ti  Ti150  1  0.39432750  0.80370308  0.00172083  1
  Ti  Ti151  1  0.47743291  0.71812861  0.30222524  1
  Ti  Ti152  1  0.59687599  0.80435869  0.60036245  1
  Ti  Ti153  1  0.58730510  0.00004850  0.39444921  1
  Ti  Ti154  1  0.39536701  0.39459973  0.20116010  1
  Ti  Ti155  1  0.69928464  0.29910622  0.49244665  1
  Ti  Ti156  1  0.01001384  0.39819241  0.39979223  1
  Ti  Ti157  1  0.59505690  0.40734938  0.39352043  1
  Ti  Ti158  1  0.89708717  0.70512381  0.30102563  1
  Ti  Ti159  1  0.10420603  0.10045844  0.29468575  1
  Ti  Ti160  1  0.11127643  0.29731966  0.51242155  1
  Ti  Ti161  1  0.09643175  0.10152798  0.09501740  1
  Ti  Ti162  1  0.60230448  0.00587348  0.79920530  1
  Ti  Ti163  1  0.00124235  0.00158602  0.00216396  1
  Ti  Ti164  1  0.79973910  -0.00005630  0.60201512  1
  Ti  Ti165  1  0.79854981  0.80075166  0.79710438  1
  Ti  Ti166  1  0.90129794  0.29068564  0.70110470  1
  Ti  Ti167  1  0.48971014  0.69529796  0.50229468  1
  Ti  Ti168  1  0.90590108  0.29698603  0.50538903  1
  Ti  Ti169  1  0.00369299  0.80343466  0.40171986  1
  Ti  Ti170  1  0.59361088  0.20507448  0.20541674  1
  Ti  Ti171  1  0.20007356  0.58191272  0.39231862  1
  Ti  Ti172  1  0.80102336  0.59569984  0.59760995  1
  Ti  Ti173  1  0.39474030  0.00752012  0.39371599  1
  Ti  Ti174  1  0.90360670  0.71442286  0.49929464  1
  Ti  Ti175  1  0.39403449  0.21292571  0.00284019  1
  Ti  Ti176  1  0.49655787  0.71185108  0.90279934  1
  Ti  Ti177  1  0.29844925  0.30184053  0.89562149  1
  Ti  Ti178  1  0.20300285  0.20432208  0.39485917  1
  Ti  Ti179  1  0.40740102  0.58577157  0.40276705  1
  Ti  Ti180  1  0.49660697  0.30329382  0.10357295  1
  Ti  Ti181  1  0.10016300  0.49671235  0.89338979  1
  Ti  Ti182  1  0.90033001  0.70441614  0.89754148  1
  Ti  Ti183  1  0.11970724  0.71173494  0.10299147  1
  Ti  Ti184  1  0.30056208  0.49926156  0.50492015  1
  Ti  Ti185  1  0.80259292  0.80521046  0.20503690  1
  Ti  Ti186  1  0.19633642  0.59032882  0.79515284  1
  Ti  Ti187  1  0.39592559  0.40273876  0.40159940  1
  Ti  Ti188  1  0.79725166  0.20726880  0.59920609  1
  Ti  Ti189  1  0.30301623  0.49373049  0.30337066  1
  Ti  Ti190  1  0.69614046  0.30188239  0.30423174  1
  Ti  Ti191  1  0.49326923  0.30469629  0.89108033  1
  Ti  Ti192  1  0.19636042  0.00616043  0.79384813  1
  Ti  Ti193  1  0.79570091  0.00691328  0.80661617  1
  Ti  Ti194  1  0.49959794  0.10499436  0.10169294  1
  Ti  Ti195  1  0.59097477  0.59424257  0.59690379  1
  Ti  Ti196  1  0.28456461  0.88950377  0.10405331  1
  Ti  Ti197  1  0.20668976  0.20504769  0.21975706  1
  Ti  Ti198  1  0.39628631  0.00903794  0.60329055  1
  Ti  Ti199  1  0.29817713  0.11017558  0.50932644  1
  Mo  Mo200  1  0.40013697  0.79783947  0.40899378  1
  Mo  Mo201  1  -0.00195684  0.19116334  -0.00043139  1
  Mo  Mo202  1  0.40143596  0.59071749  0.00428068  1
  Mo  Mo203  1  0.20565290  0.59950253  0.60101144  1
  Mo  Mo204  1  0.48514493  0.90840131  0.30764771  1
  Mo  Mo205  1  0.81349635  0.00799221  0.40031545  1
  Mo  Mo206  1  0.40547047  0.59485373  0.59132007  1
  Mo  Mo207  1  0.29610944  0.10395687  0.69325491  1
  Mo  Mo208  1  0.80475877  0.80763075  -0.00147191  1
  Mo  Mo209  1  0.59983670  0.59656848  0.79345635  1
  Mo  Mo210  1  0.20425848  0.39738326  0.60115593  1
  Mo  Mo211  1  0.71191073  0.28332170  0.70215948  1
  Mo  Mo212  1  0.70325078  0.50258704  0.29664871  1
  Mo  Mo213  1  0.70253270  0.09610826  0.89722937  1
  Mo  Mo214  1  0.30358682  0.30441197  0.09306001  1
  Mo  Mo215  1  0.79242669  0.59724308  0.20665312  1
  Mo  Mo216  1  0.10482255  0.49892089  0.70660802  1
  Mo  Mo217  1  0.09982293  0.29912402  0.70127174  1
  Mo  Mo218  1  0.00413486  0.00494842  0.19250949  1
  Mo  Mo219  1  0.49841931  0.48097210  0.89831210  1
  Mo  Mo220  1  0.09952797  0.90925035  0.09885419  1
  Mo  Mo221  1  0.69105089  0.52084941  0.69726899  1
  Mo  Mo222  1  0.00085152  0.59708062  0.81192971  1
  Mo  Mo223  1  0.20578334  0.20750148  0.60589447  1
  Mo  Mo224  1  0.90834275  0.49434709  0.89526926  1
  Mo  Mo225  1  0.90825510  0.48100444  0.50028405  1
  Mo  Mo226  1  0.80118699  0.19594192  0.80100106  1
  Mo  Mo227  1  0.90415441  0.30484168  0.30351884  1
  Mo  Mo228  1  -0.00579665  0.20711330  0.59959124  1
  Mo  Mo229  1  0.19798239  0.19992970  -0.01309776  1
  Mo  Mo230  1  0.10541106  0.29773387  0.30668565  1
  Mo  Mo231  1  0.40026058  0.39596589  0.79804513  1
  Mo  Mo232  1  0.39390195  0.19971820  0.59556654  1
  Mo  Mo233  1  0.10228685  0.89420254  0.49908598  1
  Mo  Mo234  1  0.49143183  0.48402217  0.30254766  1
  Mo  Mo235  1  0.19842429  0.81006051  0.40792519  1
  Mo  Mo236  1  0.79693007  0.39613626  0.01100995  1
  Mo  Mo237  1  0.29529090  0.30448235  0.69327237  1
  Mo  Mo238  1  0.40245323  0.79351736  0.79007070  1
  Mo  Mo239  1  0.59841970  0.80382033  -0.00637194  1
  Mo  Mo240  1  -0.00165584  0.80466631  0.59837638  1
  Mo  Mo241  1  0.81456434  0.79518387  0.39625357  1
  Mo  Mo242  1  0.49329141  0.49750453  0.49938172  1
  Mo  Mo243  1  0.10536347  0.49221423  0.30485555  1
  Mo  Mo244  1  0.89685598  0.29752331  0.10352793  1
  Mo  Mo245  1  0.30275363  0.30376843  0.31138135  1
  Mo  Mo246  1  0.29217530  0.09940730  0.30027335  1
  Mo  Mo247  1  0.19918118  0.80346209  0.00541236  1
  Mo  Mo248  1  0.20108983  0.80199099  0.19902433  1
  Mo  Mo249  1  0.39759693  0.80275474  0.19932731  1
