# generated using pymatgen
data_HfZrTaTiMo
_symmetry_space_group_name_H-M   'P 1'
_cell_length_a   16.88231848
_cell_length_b   16.88348171
_cell_length_c   16.88914261
_cell_angle_alpha   89.95630076
_cell_angle_beta   90.01840759
_cell_angle_gamma   90.01337066
_symmetry_Int_Tables_number   1
_chemical_formula_structural   HfZrTaTiMo
_chemical_formula_sum   'Hf50 Zr50 Ta50 Ti50 Mo50'
_cell_volume   4813.94964199
_cell_formula_units_Z   50
loop_
 _symmetry_equiv_pos_site_id
 _symmetry_equiv_pos_as_xyz
  1  'x, y, z'
loop_
 _atom_site_type_symbol
 _atom_site_label
 _atom_site_symmetry_multiplicity
 _atom_site_fract_x
 _atom_site_fract_y
 _atom_site_fract_z
 _atom_site_occupancy
  Hf  Hf0  1  0.50009491  0.90028384  0.69235243  1
  Hf  Hf1  1  0.69200590  0.90470315  0.30387218  1
  Hf  Hf2  1  0.90003202  0.89593761  0.30595592  1
  Hf  Hf3  1  0.29403091  0.10981943  0.50597347  1
  Hf  Hf4  1  0.09590854  0.90783579  0.29338831  1
  Hf  Hf5  1  0.49076627  0.69245524  0.49767774  1
  Hf  Hf6  1  0.59472389  0.59246960  0.79772345  1
  Hf  Hf7  1  0.69219235  0.90691056  0.69373399  1
  Hf  Hf8  1  0.80162223  0.39645286  0.00251557  1
  Hf  Hf9  1  0.00542332  0.59978598  0.20832376  1
  Hf  Hf10  1  0.00404651  0.20319132  0.59443199  1
  Hf  Hf11  1  0.50241298  0.30641901  0.09565184  1
  Hf  Hf12  1  0.69412243  0.10119304  0.89157811  1
  Hf  Hf13  1  0.80186399  -0.00417575  0.79569910  1
  Hf  Hf14  1  0.00402255  0.20171425  0.01159957  1
  Hf  Hf15  1  0.49877078  0.71239292  0.29073652  1
  Hf  Hf16  1  0.50762456  0.50134869  0.09089345  1
  Hf  Hf17  1  0.40314287  0.20142833  -0.00691056  1
  Hf  Hf18  1  0.59484182  0.79747546  0.80266801  1
  Hf  Hf19  1  0.10017797  0.10472461  0.29504787  1
  Hf  Hf20  1  -0.00020328  -0.00533905  0.00599806  1
  Hf  Hf21  1  0.69486001  0.91322586  0.50179329  1
  Hf  Hf22  1  0.10623699  0.10739370  0.69266118  1
  Hf  Hf23  1  0.18971802  0.00390797  0.40930287  1
  Hf  Hf24  1  0.70062731  0.50080753  0.10323488  1
  Hf  Hf25  1  0.79437683  0.79841610  0.19667791  1
  Hf  Hf26  1  0.80103242  0.20669652  0.39280456  1
  Hf  Hf27  1  0.70353488  0.50944445  0.29441212  1
  Hf  Hf28  1  0.50063838  0.10398809  0.10454134  1
  Hf  Hf29  1  0.89495460  0.69791104  0.10147747  1
  Hf  Hf30  1  0.89613174  0.10172003  0.89987654  1
  Hf  Hf31  1  0.89344096  0.50187651  0.29470238  1
  Hf  Hf32  1  0.79774092  0.59398160  0.00158306  1
  Hf  Hf33  1  0.80544241  0.58864050  0.79574139  1
  Hf  Hf34  1  0.29582522  0.90618311  0.10885188  1
  Hf  Hf35  1  0.29827742  0.09996798  0.10642651  1
  Hf  Hf36  1  0.90011621  0.70309987  0.90462061  1
  Hf  Hf37  1  -0.00243485  -0.00283027  0.79931249  1
  Hf  Hf38  1  0.00125157  0.59299627  -0.00490620  1
  Hf  Hf39  1  0.79073170  0.39609987  0.40225081  1
  Hf  Hf40  1  0.39631759  0.58891477  0.80588408  1
  Hf  Hf41  1  0.40191580  0.59583147  0.20073394  1
  Hf  Hf42  1  0.29886496  0.49434970  0.70325835  1
  Hf  Hf43  1  0.60197368  0.58605119  0.59199568  1
  Hf  Hf44  1  0.79681398  0.40437664  0.60000902  1
  Hf  Hf45  1  0.79816602  0.79974799  0.59231593  1
  Hf  Hf46  1  0.49608900  0.89059245  0.12000421  1
  Hf  Hf47  1  0.30394493  0.29792552  0.89481625  1
  Hf  Hf48  1  -0.00349653  0.19881610  0.39422586  1
  Hf  Hf49  1  0.80364874  0.80461424  0.79564597  1
  Zr  Zr50  1  0.60957268  0.21074025  0.40901957  1
  Zr  Zr51  1  0.60528110  0.39012776  0.60146299  1
  Zr  Zr52  1  0.90613196  0.70294957  0.49386049  1
  Zr  Zr53  1  0.30123490  0.90316930  0.89367844  1
  Zr  Zr54  1  -0.00099169  0.39902181  0.39190229  1
  Zr  Zr55  1  0.09673781  0.89169740  0.68753998  1
  Zr  Zr56  1  0.59941981  0.40058456  0.21348526  1
  Zr  Zr57  1  0.59979442  0.59787739  0.40486036  1
  Zr  Zr58  1  0.30222597  0.90106370  0.69207109  1
  Zr  Zr59  1  0.40393230  0.79418973  -0.00235282  1
  Zr  Zr60  1  0.10377809  0.30889349  0.70369402  1
  Zr  Zr61  1  0.29831679  0.69516456  0.30948167  1
  Zr  Zr62  1  0.00966597  0.00092556  0.58276454  1
  Zr  Zr63  1  0.90979694  0.31214610  0.69917347  1
  Zr  Zr64  1  0.69101422  0.10288476  0.69838290  1
  Zr  Zr65  1  0.20404261  0.59105672  -0.01056577  1
  Zr  Zr66  1  0.09816982  0.49849153  0.70505897  1
  Zr  Zr67  1  0.20295029  0.40717918  0.59022202  1
  Zr  Zr68  1  0.79870648  0.59029493  0.59637502  1
  Zr  Zr69  1  0.10552967  0.09714408  0.11037081  1
  Zr  Zr70  1  0.49529434  0.30504796  0.50604837  1
  Zr  Zr71  1  0.69969290  0.10439888  0.10167402  1
  Zr  Zr72  1  0.70200505  0.69612432  0.90433538  1
  Zr  Zr73  1  0.18937219  0.80425148  -0.00915143  1
  Zr  Zr74  1  0.30552961  0.70118833  0.10495009  1
  Zr  Zr75  1  0.09917515  0.48664891  0.10637201  1
  Zr  Zr76  1  0.20331488  0.79436158  0.59093034  1
  Zr  Zr77  1  0.91447810  0.69982853  0.69328561  1
  Zr  Zr78  1  0.80782284  0.00910161  0.20027200  1
  Zr  Zr79  1  0.69539594  0.69902404  0.69596206  1
  Zr  Zr80  1  0.18883655  0.79714502  0.20229595  1
  Zr  Zr81  1  0.29932790  0.30421530  0.49910569  1
  Zr  Zr82  1  0.09781146  0.69463601  0.09898028  1
  Zr  Zr83  1  0.40087390  0.80952669  0.40690267  1
  Zr  Zr84  1  0.39774558  0.79049724  0.79671307  1
  Zr  Zr85  1  0.19963660  -0.00232372  0.79834294  1
  Zr  Zr86  1  0.40214714  0.00379817  -0.00729703  1
  Zr  Zr87  1  0.50475193  0.09934108  0.30781253  1
  Zr  Zr88  1  0.90455540  0.30490404  0.89763803  1
  Zr  Zr89  1  0.39851865  0.40057004  0.20892533  1
  Zr  Zr90  1  0.59559330  -0.00370634  -0.00259578  1
  Zr  Zr91  1  0.70268819  0.70017254  0.29807519  1
  Zr  Zr92  1  0.10501057  0.10317742  0.90089040  1
  Zr  Zr93  1  0.88699602  0.09993512  0.50607867  1
  Zr  Zr94  1  0.30067549  0.90514440  0.29943663  1
  Zr  Zr95  1  0.80203852  0.20201348  0.00532535  1
  Zr  Zr96  1  0.41044578  0.19833783  0.61523576  1
  Zr  Zr97  1  0.00783111  0.80651819  0.81260657  1
  Zr  Zr98  1  0.10543744  0.69021333  0.69827075  1
  Zr  Zr99  1  0.59992201  0.78831644  0.01136181  1
  Ta  Ta100  1  0.29231188  0.49628592  0.31081069  1
  Ta  Ta101  1  0.29591549  0.10352770  0.30055480  1
  Ta  Ta102  1  0.90748920  0.30063835  0.11698906  1
  Ta  Ta103  1  0.69922137  0.30064596  0.10250354  1
  Ta  Ta104  1  0.69126232  0.49014937  0.90208088  1
  Ta  Ta105  1  0.40583212  0.01482131  0.78833122  1
  Ta  Ta106  1  0.69177146  0.30424040  0.89325834  1
  Ta  Ta107  1  0.20009663  0.59259614  0.20851672  1
  Ta  Ta108  1  0.29777800  0.68616356  0.49332258  1
  Ta  Ta109  1  0.00697550  0.59979487  0.39517685  1
  Ta  Ta110  1  0.50339374  0.10215392  0.50228563  1
  Ta  Ta111  1  0.60109849  0.00271462  0.20325225  1
  Ta  Ta112  1  0.30231000  0.30234871  0.10103174  1
  Ta  Ta113  1  0.49260671  0.68913061  0.69220894  1
  Ta  Ta114  1  0.49452135  0.48707923  0.69669614  1
  Ta  Ta115  1  0.20265091  0.39423793  0.00109547  1
  Ta  Ta116  1  0.29853686  0.49348660  0.10194821  1
  Ta  Ta117  1  0.39848195  0.20774403  0.20932921  1
  Ta  Ta118  1  0.39591865  0.20103901  0.39740764  1
  Ta  Ta119  1  0.89473406  0.10337576  0.69598577  1
  Ta  Ta120  1  0.30038918  0.90496258  0.50155361  1
  Ta  Ta121  1  0.50107537  0.68392496  0.90497494  1
  Ta  Ta122  1  -0.00261607  0.00591255  0.39913562  1
  Ta  Ta123  1  0.78849067  0.21285971  0.60008072  1
  Ta  Ta124  1  0.10326524  0.30215626  0.49561553  1
  Ta  Ta125  1  0.59929487  0.80203612  0.40886476  1
  Ta  Ta126  1  0.20247506  0.39338779  0.20488511  1
  Ta  Ta127  1  0.79665783  0.20775339  0.79192273  1
  Ta  Ta128  1  0.39917298  0.59224250  -0.00190391  1
  Ta  Ta129  1  0.89928778  0.49117641  0.10987772  1
  Ta  Ta130  1  0.00380210  0.80705310  0.00370416  1
  Ta  Ta131  1  0.90262079  0.30595295  0.50246231  1
  Ta  Ta132  1  0.20364114  0.21198661  0.20190867  1
  Ta  Ta133  1  0.30377333  0.30097391  0.70314135  1
  Ta  Ta134  1  0.69888875  0.89872037  0.10150835  1
  Ta  Ta135  1  0.50578923  0.48740731  0.90205144  1
  Ta  Ta136  1  -0.00152969  0.19989193  0.79834006  1
  Ta  Ta137  1  0.00748488  0.59006945  0.58577856  1
  Ta  Ta138  1  0.50752744  0.10984856  0.88168791  1
  Ta  Ta139  1  0.39641450  0.58351369  0.59206467  1
  Ta  Ta140  1  0.69974575  0.10187059  0.30202872  1
  Ta  Ta141  1  0.89869620  0.69902830  0.30313419  1
  Ta  Ta142  1  0.10157257  0.30301030  0.90028160  1
  Ta  Ta143  1  0.10390823  0.69407504  0.49273688  1
  Ta  Ta144  1  0.40007761  0.00697481  0.40835292  1
  Ta  Ta145  1  0.80127029  0.00631352  0.39867962  1
  Ta  Ta146  1  0.49820595  0.30279562  0.31103133  1
  Ta  Ta147  1  0.20172381  0.20770838  0.00454495  1
  Ta  Ta148  1  0.60249359  0.20678141  0.20618878  1
  Ta  Ta149  1  0.59759368  0.20827597  -0.00661085  1
  Ti  Ti150  1  0.49605060  0.50337308  0.31134443  1
  Ti  Ti151  1  0.59553595  0.79190932  0.59069904  1
  Ti  Ti152  1  0.69178036  0.48800589  0.71080313  1
  Ti  Ti153  1  0.80232506  -0.00015795  0.00695676  1
  Ti  Ti154  1  0.00431409  0.39543793  0.00503545  1
  Ti  Ti155  1  0.90191760  0.90085476  0.49705774  1
  Ti  Ti156  1  0.89679867  0.89517576  0.09938326  1
  Ti  Ti157  1  0.29876221  0.68768477  0.69658963  1
  Ti  Ti158  1  0.90519393  0.49729032  0.49620087  1
  Ti  Ti159  1  0.10288398  0.49418760  0.89601622  1
  Ti  Ti160  1  0.01022552  0.79944840  0.39856963  1
  Ti  Ti161  1  0.29504628  0.10726469  0.69961741  1
  Ti  Ti162  1  0.50030798  0.90889206  0.50169993  1
  Ti  Ti163  1  0.09359359  0.30264886  0.28923931  1
  Ti  Ti164  1  0.70239324  0.89980337  0.90531165  1
  Ti  Ti165  1  0.69658541  0.09876026  0.50375631  1
  Ti  Ti166  1  0.89162861  0.89704373  0.91172964  1
  Ti  Ti167  1  0.10654915  0.49427923  0.30265805  1
  Ti  Ti168  1  0.19255180  -0.00518597  0.00058976  1
  Ti  Ti169  1  -0.01058408  0.00674923  0.19719063  1
  Ti  Ti170  1  0.90177739  0.90434802  0.67967046  1
  Ti  Ti171  1  0.58925538  0.01171111  0.60080772  1
  Ti  Ti172  1  0.79861851  0.38512039  0.20798350  1
  Ti  Ti173  1  0.40025428  0.00751295  0.59983697  1
  Ti  Ti174  1  0.00590053  0.59807820  0.80679449  1
  Ti  Ti175  1  0.79715581  0.60158789  0.41087578  1
  Ti  Ti176  1  0.20170875  0.20349737  0.80019973  1
  Ti  Ti177  1  0.90515170  0.49099623  0.89585013  1
  Ti  Ti178  1  0.20331348  0.59355021  0.58977998  1
  Ti  Ti179  1  0.19469277  0.79202489  0.80328525  1
  Ti  Ti180  1  0.29513019  0.69244743  0.89430541  1
  Ti  Ti181  1  0.40185114  0.00589757  0.21137276  1
  Ti  Ti182  1  0.39561806  0.79165739  0.59665566  1
  Ti  Ti183  1  0.39665346  0.40191408  -0.00665960  1
  Ti  Ti184  1  0.10765019  0.49862656  0.48602458  1
  Ti  Ti185  1  0.79725138  0.39830696  0.79760014  1
  Ti  Ti186  1  0.19468824  0.80032724  0.40160316  1
  Ti  Ti187  1  0.60536196  0.40476052  0.40762618  1
  Ti  Ti188  1  0.50384433  0.90296657  0.30451710  1
  Ti  Ti189  1  0.41027676  0.38935826  0.80001002  1
  Ti  Ti190  1  0.19466444  0.00136180  0.59054747  1
  Ti  Ti191  1  0.00048948  0.79935653  0.19898289  1
  Ti  Ti192  1  0.39576202  0.40653767  0.40521377  1
  Ti  Ti193  1  0.19981374  0.21109470  0.39211711  1
  Ti  Ti194  1  0.60121620  0.62091421  0.18191452  1
  Ti  Ti195  1  0.20649467  0.40532494  0.81194016  1
  Ti  Ti196  1  0.79192249  0.80011813  0.40513164  1
  Ti  Ti197  1  0.91738145  0.49277452  0.70064353  1
  Ti  Ti198  1  0.30077293  0.10359074  0.89456037  1
  Ti  Ti199  1  0.49969674  0.90563228  0.89042050  1
  Mo  Mo200  1  0.89828565  0.29796379  0.29401752  1
  Mo  Mo201  1  0.20191122  0.00720261  0.20598948  1
  Mo  Mo202  1  0.10944966  0.11858874  0.49476097  1
  Mo  Mo203  1  0.00195035  0.40783133  0.58186246  1
  Mo  Mo204  1  0.90025632  0.09941321  0.29960732  1
  Mo  Mo205  1  0.59532328  0.39772082  0.79952315  1
  Mo  Mo206  1  0.00309423  0.39826627  0.20376028  1
  Mo  Mo207  1  0.19535916  0.59432079  0.39938635  1
  Mo  Mo208  1  0.09489385  0.70085112  0.30521263  1
  Mo  Mo209  1  0.50264494  0.29726034  0.70992579  1
  Mo  Mo210  1  0.39965656  0.58773402  0.39982739  1
  Mo  Mo211  1  0.10486628  0.29984223  0.10100892  1
  Mo  Mo212  1  0.09895381  0.90113306  0.90342247  1
  Mo  Mo213  1  0.69685690  0.29998556  0.29694490  1
  Mo  Mo214  1  0.00472565  0.40428467  0.81542724  1
  Mo  Mo215  1  0.60567172  0.39521878  -0.00260104  1
  Mo  Mo216  1  0.70062107  0.70112194  0.09971489  1
  Mo  Mo217  1  0.59558943  -0.00855731  0.80215496  1
  Mo  Mo218  1  0.70359274  0.30113708  0.50358833  1
  Mo  Mo219  1  0.19560783  0.39690659  0.39186308  1
  Mo  Mo220  1  0.09089299  0.90447497  0.10317432  1
  Mo  Mo221  1  0.90195504  0.10537930  0.10530844  1
  Mo  Mo222  1  0.59728950  0.00269558  0.40503312  1
  Mo  Mo223  1  0.80174362  0.00123368  0.59733879  1
  Mo  Mo224  1  0.70013268  0.29996032  0.70569595  1
  Mo  Mo225  1  0.50072830  0.30140475  0.89733067  1
  Mo  Mo226  1  0.20456719  0.59814729  0.80499364  1
  Mo  Mo227  1  0.40039636  0.39885000  0.60761557  1
  Mo  Mo228  1  0.49857397  0.69643410  0.09751386  1
  Mo  Mo229  1  0.49433087  0.49302104  0.49971364  1
  Mo  Mo230  1  0.20200250  0.20757413  0.60459389  1
  Mo  Mo231  1  0.70148975  0.49733618  0.49392986  1
  Mo  Mo232  1  0.30615137  0.48809783  0.90186367  1
  Mo  Mo233  1  0.00127839  0.79720889  0.58087313  1
  Mo  Mo234  1  -0.00388769  0.20328210  0.20325976  1
  Mo  Mo235  1  0.59598584  0.21234320  0.79681014  1
  Mo  Mo236  1  0.50526756  0.09895556  0.70036529  1
  Mo  Mo237  1  0.09965782  0.88849955  0.48944975  1
  Mo  Mo238  1  0.80504760  0.60342060  0.19556332  1
  Mo  Mo239  1  0.60136893  0.80639231  0.20432722  1
  Mo  Mo240  1  0.30212327  0.30131851  0.30287372  1
  Mo  Mo241  1  0.30117891  0.50097024  0.49260233  1
  Mo  Mo242  1  0.59815987  0.59401360  -0.00116925  1
  Mo  Mo243  1  0.60303975  0.19826509  0.60334687  1
  Mo  Mo244  1  0.79974883  0.20602280  0.20548776  1
  Mo  Mo245  1  0.69627392  0.70529443  0.49695464  1
  Mo  Mo246  1  0.80206102  0.80985103  0.00366294  1
  Mo  Mo247  1  0.09939381  0.69486822  0.89636942  1
  Mo  Mo248  1  0.40002083  0.80331040  0.20754846  1
  Mo  Mo249  1  0.39878921  0.19766592  0.79886988  1
