# generated using pymatgen
data_HfZrTaTiMo
_symmetry_space_group_name_H-M   'P 1'
_cell_length_a   16.89050570
_cell_length_b   16.88695922
_cell_length_c   16.88619443
_cell_angle_alpha   89.98062045
_cell_angle_beta   89.98803188
_cell_angle_gamma   90.00028641
_symmetry_Int_Tables_number   1
_chemical_formula_structural   HfZrTaTiMo
_chemical_formula_sum   'Hf50 Zr50 Ta50 Ti50 Mo50'
_cell_volume   4816.43671491
_cell_formula_units_Z   50
loop_
 _symmetry_equiv_pos_site_id
 _symmetry_equiv_pos_as_xyz
  1  'x, y, z'
loop_
 _atom_site_type_symbol
 _atom_site_label
 _atom_site_symmetry_multiplicity
 _atom_site_fract_x
 _atom_site_fract_y
 _atom_site_fract_z
 _atom_site_occupancy
  Hf  Hf0  1  0.90069292  0.90225713  0.69976522  1
  Hf  Hf1  1  0.91336591  0.49126234  0.10028950  1
  Hf  Hf2  1  0.49015325  0.89942037  0.90474111  1
  Hf  Hf3  1  0.79518708  0.80049882  0.59957247  1
  Hf  Hf4  1  0.20598022  0.00440454  0.20263513  1
  Hf  Hf5  1  0.89974057  0.09815847  0.09722944  1
  Hf  Hf6  1  0.19920889  0.79058130  0.21957422  1
  Hf  Hf7  1  0.91663558  0.31010278  0.69716912  1
  Hf  Hf8  1  0.41460372  0.20405743  0.60022386  1
  Hf  Hf9  1  0.79577144  -0.01249793  0.19660660  1
  Hf  Hf10  1  0.10266594  0.70845286  0.09589867  1
  Hf  Hf11  1  0.90072770  0.10038868  0.29009048  1
  Hf  Hf12  1  0.42006452  0.17985960  0.39509454  1
  Hf  Hf13  1  0.79930560  0.60204590  0.19409868  1
  Hf  Hf14  1  0.89653638  0.70965441  0.29393393  1
  Hf  Hf15  1  0.59986307  0.80772269  0.19606325  1
  Hf  Hf16  1  0.50256599  0.29850062  0.29275378  1
  Hf  Hf17  1  0.00737799  0.78912728  0.80188733  1
  Hf  Hf18  1  0.30105981  0.51773855  0.48658994  1
  Hf  Hf19  1  0.00462605  0.20717929  0.80451837  1
  Hf  Hf20  1  0.19796601  0.78977716  0.79829266  1
  Hf  Hf21  1  0.49441976  0.70519168  0.29278930  1
  Hf  Hf22  1  0.00441015  0.19689832  0.39997229  1
  Hf  Hf23  1  0.29353566  0.49787696  0.09560521  1
  Hf  Hf24  1  0.19635803  0.19829175  0.60154825  1
  Hf  Hf25  1  0.60580536  0.19903781  0.40586918  1
  Hf  Hf26  1  0.89947975  0.30309091  0.49863783  1
  Hf  Hf27  1  0.19750768  0.59875978  0.79677079  1
  Hf  Hf28  1  0.69986791  0.90340295  0.69771154  1
  Hf  Hf29  1  0.80111353  0.19604565  0.60031350  1
  Hf  Hf30  1  0.89477671  0.69848462  0.49549356  1
  Hf  Hf31  1  0.39795106  0.20354534  -0.00092437  1
  Hf  Hf32  1  0.50425365  0.50178877  0.10142678  1
  Hf  Hf33  1  -0.00223911  0.40698573  0.40283680  1
  Hf  Hf34  1  0.89749761  0.29917756  0.29555356  1
  Hf  Hf35  1  0.59257736  0.60008654  0.38857135  1
  Hf  Hf36  1  0.49585101  0.89775037  0.69787697  1
  Hf  Hf37  1  0.69867905  0.09623169  0.69230411  1
  Hf  Hf38  1  0.90563387  0.90401727  0.90484208  1
  Hf  Hf39  1  0.89535962  0.50133095  0.29730887  1
  Hf  Hf40  1  0.31225513  0.70249121  0.10168844  1
  Hf  Hf41  1  0.00131002  0.60224890  0.40045679  1
  Hf  Hf42  1  0.68985001  0.49737776  0.90468347  1
  Hf  Hf43  1  0.09387219  0.89695913  0.09916737  1
  Hf  Hf44  1  0.70342450  0.50554716  0.49021476  1
  Hf  Hf45  1  0.20776162  0.00733640  0.00798329  1
  Hf  Hf46  1  0.29728020  0.29622740  0.70699605  1
  Hf  Hf47  1  0.30700338  0.29770340  0.49055076  1
  Hf  Hf48  1  0.20152706  0.59978589  0.20382192  1
  Hf  Hf49  1  0.90066083  0.69602808  0.70383387  1
  Zr  Zr50  1  0.69895277  0.10391284  0.90760538  1
  Zr  Zr51  1  0.19034333  0.20625639  0.00068429  1
  Zr  Zr52  1  0.20744410  -0.01023902  0.79982813  1
  Zr  Zr53  1  0.09737368  0.30936555  0.50934881  1
  Zr  Zr54  1  0.39602662  0.00569492  0.00753852  1
  Zr  Zr55  1  0.40536023  0.59183260  -0.00581956  1
  Zr  Zr56  1  0.69974460  0.50118008  0.09526544  1
  Zr  Zr57  1  0.69833087  0.29485019  0.90199524  1
  Zr  Zr58  1  0.30361180  0.29205610  0.29047254  1
  Zr  Zr59  1  0.59552552  0.39046079  0.00614254  1
  Zr  Zr60  1  0.19327681  0.19340043  0.39108836  1
  Zr  Zr61  1  0.01312049  0.79483101  0.40096832  1
  Zr  Zr62  1  0.09653993  0.09517975  0.90325767  1
  Zr  Zr63  1  0.81072524  0.39695161  0.80691738  1
  Zr  Zr64  1  0.18637630  0.19931183  0.19359818  1
  Zr  Zr65  1  0.50021598  0.08785181  0.70120914  1
  Zr  Zr66  1  0.59568936  0.39488640  0.59814845  1
  Zr  Zr67  1  0.59816300  0.00433392  0.39688681  1
  Zr  Zr68  1  0.29877458  0.08757852  0.48977121  1
  Zr  Zr69  1  0.69440729  0.49738011  0.71015619  1
  Zr  Zr70  1  0.20096707  0.40761612  0.38955529  1
  Zr  Zr71  1  0.20650095  0.41109279  0.60762470  1
  Zr  Zr72  1  0.19085444  0.62312398  0.39286877  1
  Zr  Zr73  1  -0.00397782  -0.00250675  0.39932285  1
  Zr  Zr74  1  0.58383439  0.59529005  0.80927156  1
  Zr  Zr75  1  0.30139783  0.09842137  0.70647848  1
  Zr  Zr76  1  0.80524803  0.40617396  0.59729303  1
  Zr  Zr77  1  -0.00480749  0.21455510  -0.00057498  1
  Zr  Zr78  1  0.80245449  0.59591515  0.60452259  1
  Zr  Zr79  1  0.29675791  0.30710236  0.09876174  1
  Zr  Zr80  1  0.40072024  0.40490497  0.60101065  1
  Zr  Zr81  1  0.09995565  0.89791785  0.91121784  1
  Zr  Zr82  1  0.79749000  -0.00714751  0.00198597  1
  Zr  Zr83  1  0.59433814  0.20308991  0.79251899  1
  Zr  Zr84  1  0.00166590  0.18636389  0.60261159  1
  Zr  Zr85  1  0.70321241  0.10395013  0.29171555  1
  Zr  Zr86  1  0.70145378  0.69874819  0.48920217  1
  Zr  Zr87  1  0.09519559  0.90364008  0.29552541  1
  Zr  Zr88  1  0.20511033  0.79959815  0.60552682  1
  Zr  Zr89  1  0.40623822  0.41941763  0.38294268  1
  Zr  Zr90  1  0.79969015  0.79158057  0.81214034  1
  Zr  Zr91  1  0.40088930  0.40519211  0.80095486  1
  Zr  Zr92  1  0.00403523  -0.00399970  0.59714767  1
  Zr  Zr93  1  0.38604974  -0.01509689  0.60098857  1
  Zr  Zr94  1  0.49421827  0.70351117  0.69506250  1
  Zr  Zr95  1  0.38788488  0.60229542  0.60856614  1
  Zr  Zr96  1  0.30405428  0.88803355  0.10583409  1
  Zr  Zr97  1  0.60500834  -0.00340390  0.81065354  1
  Zr  Zr98  1  0.60162944  0.79627336  0.80353238  1
  Zr  Zr99  1  0.81304862  0.60060753  -0.00734856  1
  Ta  Ta100  1  0.40257439  0.80263695  0.40393993  1
  Ta  Ta101  1  0.81155416  0.38655586  0.00351060  1
  Ta  Ta102  1  0.89690415  0.89566623  0.49845978  1
  Ta  Ta103  1  0.59977937  0.79554990  0.59242391  1
  Ta  Ta104  1  0.19538550  0.60772554  0.60750645  1
  Ta  Ta105  1  0.60238784  0.60506146  0.19826814  1
  Ta  Ta106  1  0.69362957  0.69534651  0.91208174  1
  Ta  Ta107  1  0.50057667  0.50957660  0.49505215  1
  Ta  Ta108  1  0.00557094  0.60046292  -0.00229272  1
  Ta  Ta109  1  0.79848845  -0.00302958  0.40144134  1
  Ta  Ta110  1  0.00572005  0.60445075  0.19430804  1
  Ta  Ta111  1  0.29046300  0.49498559  0.90301324  1
  Ta  Ta112  1  0.00213597  0.60074494  0.81008747  1
  Ta  Ta113  1  0.80101742  0.00262347  0.59083441  1
  Ta  Ta114  1  0.49927417  0.29958228  0.89993708  1
  Ta  Ta115  1  0.90322300  0.70733903  0.09887775  1
  Ta  Ta116  1  0.38914280  0.79600924  0.79660974  1
  Ta  Ta117  1  0.69864904  0.29982550  0.70229667  1
  Ta  Ta118  1  0.59666866  0.80224729  0.39943455  1
  Ta  Ta119  1  0.09900892  0.49349380  0.90578768  1
  Ta  Ta120  1  0.19188722  0.39537167  0.80272076  1
  Ta  Ta121  1  0.29858492  0.70127387  0.90813381  1
  Ta  Ta122  1  0.69360521  0.10547862  0.09480394  1
  Ta  Ta123  1  0.81518906  0.19589111  0.79931290  1
  Ta  Ta124  1  0.49403610  0.70442944  0.90818176  1
  Ta  Ta125  1  0.00333481  0.60172544  0.60096069  1
  Ta  Ta126  1  0.00976248  0.79521800  0.59791808  1
  Ta  Ta127  1  0.09960016  0.50774762  0.50485406  1
  Ta  Ta128  1  0.40930794  0.00433993  0.20677050  1
  Ta  Ta129  1  0.69745734  0.89687945  0.30200725  1
  Ta  Ta130  1  0.40088896  0.40662321  0.19856268  1
  Ta  Ta131  1  0.49903936  0.10074702  0.90603194  1
  Ta  Ta132  1  0.09432051  0.50032740  0.29136085  1
  Ta  Ta133  1  0.30576990  0.90296335  0.30974059  1
  Ta  Ta134  1  0.09145215  0.49551193  0.70359332  1
  Ta  Ta135  1  0.09114603  0.30842527  0.28963988  1
  Ta  Ta136  1  0.69940398  0.70345636  0.09684711  1
  Ta  Ta137  1  0.08118655  0.08423901  0.10367280  1
  Ta  Ta138  1  0.59619774  0.60184213  0.59755414  1
  Ta  Ta139  1  0.59854915  0.80185885  0.00527110  1
  Ta  Ta140  1  0.39058707  0.59846555  0.80247240  1
  Ta  Ta141  1  0.79572464  0.39253776  0.19295403  1
  Ta  Ta142  1  0.40183794  0.20174775  0.80472341  1
  Ta  Ta143  1  0.49866096  0.89564423  0.50225514  1
  Ta  Ta144  1  0.60412680  0.20664158  0.19355307  1
  Ta  Ta145  1  0.30312954  0.88970677  0.90670295  1
  Ta  Ta146  1  0.10583197  0.09977539  0.70834695  1
  Ta  Ta147  1  0.60295529  0.40290813  0.39310552  1
  Ta  Ta148  1  0.70318655  0.70504927  0.29692103  1
  Ta  Ta149  1  0.50610319  0.10365186  0.10221452  1
  Ti  Ti150  1  0.69506982  0.90465438  0.49900586  1
  Ti  Ti151  1  0.50152153  0.49853068  0.70031629  1
  Ti  Ti152  1  0.30189590  0.10249266  0.89160810  1
  Ti  Ti153  1  -0.00333774  0.78743790  -0.00874757  1
  Ti  Ti154  1  0.11061967  0.08536895  0.49626254  1
  Ti  Ti155  1  0.50860566  0.08114470  0.51366533  1
  Ti  Ti156  1  0.89616255  0.09520949  0.49614948  1
  Ti  Ti157  1  0.60047013  -0.00759269  0.01072417  1
  Ti  Ti158  1  0.49642876  0.29537603  0.10351611  1
  Ti  Ti159  1  0.91338330  0.89431108  0.10315291  1
  Ti  Ti160  1  0.60595315  0.39866035  0.20193645  1
  Ti  Ti161  1  0.31582512  0.70377473  0.30657634  1
  Ti  Ti162  1  0.19124272  0.40506514  0.19490877  1
  Ti  Ti163  1  0.60057895  0.20416137  0.59411830  1
  Ti  Ti164  1  -0.00847472  0.01264951  0.79939271  1
  Ti  Ti165  1  0.80871776  0.01179305  0.80029553  1
  Ti  Ti166  1  0.70041091  0.89499280  0.90707226  1
  Ti  Ti167  1  0.49486623  0.90324584  0.30406906  1
  Ti  Ti168  1  0.79762061  0.80804842  0.19276208  1
  Ti  Ti169  1  0.70296717  0.30317726  0.49915051  1
  Ti  Ti170  1  0.50039822  0.30879147  0.49068522  1
  Ti  Ti171  1  0.91161311  0.49948120  0.70562794  1
  Ti  Ti172  1  0.79630523  0.20964634  0.18448631  1
  Ti  Ti173  1  0.80529054  0.59903600  0.80948962  1
  Ti  Ti174  1  0.69652612  0.69398396  0.70451672  1
  Ti  Ti175  1  0.30307232  0.70887409  0.49783020  1
  Ti  Ti176  1  0.11553252  0.89840675  0.49210884  1
  Ti  Ti177  1  0.20031503  -0.00825477  0.60564055  1
  Ti  Ti178  1  0.29173835  0.30224177  0.89896722  1
  Ti  Ti179  1  0.79406118  0.19302227  0.40652787  1
  Ti  Ti180  1  0.31062727  0.11228361  0.11523578  1
  Ti  Ti181  1  0.19329217  0.60064379  -0.00222038  1
  Ti  Ti182  1  0.09644687  0.90422514  0.70398538  1
  Ti  Ti183  1  0.49192160  0.89712430  0.10191041  1
  Ti  Ti184  1  0.91305205  0.48984955  0.90197741  1
  Ti  Ti185  1  0.79747150  0.40364499  0.39664156  1
  Ti  Ti186  1  0.79869674  0.80023038  0.00560252  1
  Ti  Ti187  1  0.40161806  0.39937943  -0.00346942  1
  Ti  Ti188  1  0.79759239  0.81117038  0.39627072  1
  Ti  Ti189  1  0.00101449  0.21255915  0.18862810  1
  Ti  Ti190  1  0.29720924  0.89783270  0.48698287  1
  Ti  Ti191  1  0.40084288  0.58411196  0.21674105  1
  Ti  Ti192  1  0.49162979  0.69939911  0.49784230  1
  Ti  Ti193  1  0.70200039  0.50178351  0.29686709  1
  Ti  Ti194  1  0.08929938  0.09550240  0.28940753  1
  Ti  Ti195  1  0.80651635  0.20603741  -0.00112103  1
  Ti  Ti196  1  0.31018958  0.09391835  0.30105976  1
  Ti  Ti197  1  0.49653553  0.70240441  0.10115726  1
  Ti  Ti198  1  0.59912856  -0.00144398  0.19558134  1
  Ti  Ti199  1  0.70406215  0.30068406  0.29948854  1
  Mo  Mo200  1  0.19995364  0.20554445  0.80245593  1
  Mo  Mo201  1  0.70192719  0.29594714  0.10074094  1
  Mo  Mo202  1  0.20432916  0.79425379  -0.00333534  1
  Mo  Mo203  1  0.79671894  0.59966377  0.38684802  1
  Mo  Mo204  1  0.50812919  0.09888355  0.28574980  1
  Mo  Mo205  1  0.70311414  0.10028629  0.50170418  1
  Mo  Mo206  1  0.10167780  0.70062170  0.51018195  1
  Mo  Mo207  1  0.40484357  0.80910579  0.20582092  1
  Mo  Mo208  1  0.39816095  0.79819731  0.59262866  1
  Mo  Mo209  1  0.88930378  0.89706965  0.30270473  1
  Mo  Mo210  1  0.20111463  -0.00114426  0.39300910  1
  Mo  Mo211  1  0.00227352  0.41641959  0.60009498  1
  Mo  Mo212  1  0.90027274  0.69933557  0.90554287  1
  Mo  Mo213  1  0.51050617  0.50013242  0.29139989  1
  Mo  Mo214  1  0.40074949  0.61020269  0.39915576  1
  Mo  Mo215  1  0.10193846  0.68988988  0.90502588  1
  Mo  Mo216  1  0.69144047  0.89697483  0.09994886  1
  Mo  Mo217  1  0.00434805  0.40135357  0.00069901  1
  Mo  Mo218  1  0.50262750  0.30173479  0.70489356  1
  Mo  Mo219  1  0.09228423  0.32189382  0.10039382  1
  Mo  Mo220  1  0.49379936  0.49483343  0.90290742  1
  Mo  Mo221  1  0.40562525  -0.00615809  0.39794698  1
  Mo  Mo222  1  0.08992328  0.70005898  0.29071155  1
  Mo  Mo223  1  0.89844654  0.30071152  0.10204878  1
  Mo  Mo224  1  0.90076484  0.09597957  0.70210822  1
  Mo  Mo225  1  0.29225242  0.50346465  0.29121704  1
  Mo  Mo226  1  0.41008066  0.19713541  0.19860253  1
  Mo  Mo227  1  0.40376992  0.79470193  0.00211459  1
  Mo  Mo228  1  0.10055629  0.50453218  0.09767145  1
  Mo  Mo229  1  -0.00028438  0.40248605  0.19947763  1
  Mo  Mo230  1  0.59018490  0.19795322  0.00503809  1
  Mo  Mo231  1  0.39694340  -0.00276711  0.81085385  1
  Mo  Mo232  1  -0.01058650  -0.00669547  0.19888596  1
  Mo  Mo233  1  0.00616072  0.40363140  0.80520760  1
  Mo  Mo234  1  0.19522705  0.40209835  -0.00425769  1
  Mo  Mo235  1  0.28955481  0.50226875  0.71062075  1
  Mo  Mo236  1  0.59193259  0.39493027  0.79904531  1
  Mo  Mo237  1  0.90159888  0.30132410  0.90059770  1
  Mo  Mo238  1  0.10452936  0.30019923  0.70808750  1
  Mo  Mo239  1  -0.00662856  -0.00246505  0.00178790  1
  Mo  Mo240  1  0.90205120  0.50408360  0.49571844  1
  Mo  Mo241  1  0.30083902  0.89394237  0.70802616  1
  Mo  Mo242  1  0.59498177  0.61088448  0.00570328  1
  Mo  Mo243  1  0.10096288  0.31003256  0.90211440  1
  Mo  Mo244  1  0.29906924  0.69883639  0.70450358  1
  Mo  Mo245  1  0.60641968  -0.01076840  0.59307071  1
  Mo  Mo246  1  0.20865645  0.80277832  0.40247182  1
  Mo  Mo247  1  -0.00666354  0.79854177  0.19666546  1
  Mo  Mo248  1  0.09441508  0.69175507  0.70025088  1
  Mo  Mo249  1  0.89715605  0.10119184  0.89908007  1
