# generated using pymatgen
data_HfZrTaTiMo
_symmetry_space_group_name_H-M   'P 1'
_cell_length_a   16.89763546
_cell_length_b   16.88112362
_cell_length_c   16.87921784
_cell_angle_alpha   89.91649219
_cell_angle_beta   89.96164590
_cell_angle_gamma   90.00021285
_symmetry_Int_Tables_number   1
_chemical_formula_structural   HfZrTaTiMo
_chemical_formula_sum   'Hf50 Zr50 Ta50 Ti50 Mo50'
_cell_volume   4814.80880784
_cell_formula_units_Z   50
loop_
 _symmetry_equiv_pos_site_id
 _symmetry_equiv_pos_as_xyz
  1  'x, y, z'
loop_
 _atom_site_type_symbol
 _atom_site_label
 _atom_site_symmetry_multiplicity
 _atom_site_fract_x
 _atom_site_fract_y
 _atom_site_fract_z
 _atom_site_occupancy
  Hf  Hf0  1  0.51193657  0.30072547  0.70639882  1
  Hf  Hf1  1  0.29607796  0.90208562  0.50465075  1
  Hf  Hf2  1  0.19238611  0.39666284  0.40514699  1
  Hf  Hf3  1  -0.00251473  0.00725957  0.79207320  1
  Hf  Hf4  1  0.20079848  0.80917727  -0.00087244  1
  Hf  Hf5  1  0.09219616  0.09357567  0.29659762  1
  Hf  Hf6  1  0.30823000  0.29232062  0.30094306  1
  Hf  Hf7  1  0.10082481  0.29634970  0.89670074  1
  Hf  Hf8  1  0.50531086  0.89911543  0.51247949  1
  Hf  Hf9  1  -0.00174399  0.19286117  -0.00038163  1
  Hf  Hf10  1  0.20386176  0.80309511  0.80044357  1
  Hf  Hf11  1  0.77763891  0.00274031  0.01114553  1
  Hf  Hf12  1  0.39738122  0.78929726  0.41270552  1
  Hf  Hf13  1  0.50043800  0.50048818  0.69479469  1
  Hf  Hf14  1  0.70141063  0.10616138  0.50383670  1
  Hf  Hf15  1  0.69758367  0.50269292  0.69300712  1
  Hf  Hf16  1  0.89908104  0.70297080  0.09793199  1
  Hf  Hf17  1  0.70338146  0.29304915  0.69325835  1
  Hf  Hf18  1  0.89852147  0.90262948  0.89851846  1
  Hf  Hf19  1  0.68778531  0.12431603  0.30952917  1
  Hf  Hf20  1  0.40224152  -0.00013432  0.39753215  1
  Hf  Hf21  1  -0.00069400  0.60096910  0.40681642  1
  Hf  Hf22  1  0.79312803  0.40657785  -0.00163509  1
  Hf  Hf23  1  0.32120070  0.49614268  0.31128583  1
  Hf  Hf24  1  0.40503844  0.19949908  0.79802333  1
  Hf  Hf25  1  0.79928837  0.00195452  0.60203652  1
  Hf  Hf26  1  0.09845511  0.30327409  0.09907360  1
  Hf  Hf27  1  -0.00301059  0.59366797  0.00234634  1
  Hf  Hf28  1  0.30723582  0.49082057  0.09161258  1
  Hf  Hf29  1  0.20621424  0.00370431  0.79619276  1
  Hf  Hf30  1  0.49956230  0.49441468  0.10059471  1
  Hf  Hf31  1  0.70368784  0.69588381  0.49781506  1
  Hf  Hf32  1  0.40173814  0.39558004  0.60040525  1
  Hf  Hf33  1  0.20450431  0.40654081  0.79997949  1
  Hf  Hf34  1  0.60606578  0.00567426  0.19242409  1
  Hf  Hf35  1  0.80451970  0.80432737  0.39500104  1
  Hf  Hf36  1  0.79310564  0.80584080  0.20269547  1
  Hf  Hf37  1  0.29824275  0.70114922  0.09954663  1
  Hf  Hf38  1  0.49988189  0.67802732  0.31180390  1
  Hf  Hf39  1  0.58338422  0.80439048  0.01535550  1
  Hf  Hf40  1  0.70260461  0.29513805  0.48327950  1
  Hf  Hf41  1  0.10773733  0.70026559  0.30276905  1
  Hf  Hf42  1  0.49868816  0.50551921  0.47781458  1
  Hf  Hf43  1  0.00052706  0.00193492  0.59707819  1
  Hf  Hf44  1  0.80337126  0.79716192  0.79333368  1
  Hf  Hf45  1  0.69862880  0.70482082  0.68953128  1
  Hf  Hf46  1  0.79909750  0.01676449  0.19884824  1
  Hf  Hf47  1  0.40248069  0.19372186  0.60837497  1
  Hf  Hf48  1  0.68916855  0.70803754  0.89711563  1
  Hf  Hf49  1  0.80140945  0.59119610  0.19805482  1
  Zr  Zr50  1  0.39831877  0.60758479  0.79446161  1
  Zr  Zr51  1  0.09979454  0.69610391  0.89672063  1
  Zr  Zr52  1  0.59916768  0.79537724  0.39980299  1
  Zr  Zr53  1  -0.00221730  0.79369970  0.60089556  1
  Zr  Zr54  1  0.69064172  0.28279407  0.90585124  1
  Zr  Zr55  1  0.20524118  0.59914471  0.41082348  1
  Zr  Zr56  1  0.30160117  0.30114805  0.90852092  1
  Zr  Zr57  1  0.90453282  0.31217090  0.08962613  1
  Zr  Zr58  1  0.20174956  0.39951556  0.20547246  1
  Zr  Zr59  1  0.89760519  0.08889118  0.90702103  1
  Zr  Zr60  1  0.60413243  0.40354378  0.80937812  1
  Zr  Zr61  1  0.39581483  0.61174038  0.58878487  1
  Zr  Zr62  1  0.59248680  0.00495196  0.00687873  1
  Zr  Zr63  1  0.00397442  0.20596374  0.59678037  1
  Zr  Zr64  1  0.30633639  0.29834562  0.49423229  1
  Zr  Zr65  1  0.49773471  0.90365513  0.29653171  1
  Zr  Zr66  1  0.30698217  0.29377744  0.10335263  1
  Zr  Zr67  1  0.00820306  0.80904401  0.40353959  1
  Zr  Zr68  1  0.09944247  0.09746649  0.49643791  1
  Zr  Zr69  1  -0.01539953  0.18644091  0.19492029  1
  Zr  Zr70  1  0.79485831  0.59120100  -0.00156460  1
  Zr  Zr71  1  0.08776182  0.29415656  0.30027883  1
  Zr  Zr72  1  0.19875569  0.40183535  0.59985206  1
  Zr  Zr73  1  0.30029254  0.10467818  0.89703551  1
  Zr  Zr74  1  0.60871643  0.58583894  0.20553373  1
  Zr  Zr75  1  0.30371054  0.10334791  0.29752052  1
  Zr  Zr76  1  0.79679780  0.20693237  0.20102357  1
  Zr  Zr77  1  0.78847811  0.80500898  0.00157051  1
  Zr  Zr78  1  0.41093979  0.00497308  0.78953383  1
  Zr  Zr79  1  0.20195824  0.59093070  0.20202797  1
  Zr  Zr80  1  0.09353081  0.90922488  0.10325688  1
  Zr  Zr81  1  0.10347069  0.90184707  0.69520419  1
  Zr  Zr82  1  0.40829091  0.61656085  0.00334390  1
  Zr  Zr83  1  0.79180285  0.40375828  0.20046529  1
  Zr  Zr84  1  0.80021415  0.00351620  0.39471210  1
  Zr  Zr85  1  0.80778008  0.19675006  0.80872400  1
  Zr  Zr86  1  0.49058783  0.49552635  0.90273268  1
  Zr  Zr87  1  0.90295399  0.30155713  0.69980682  1
  Zr  Zr88  1  0.80174097  0.40308117  0.80971181  1
  Zr  Zr89  1  0.20814309  -0.00146453  0.19633327  1
  Zr  Zr90  1  0.69032097  0.89948206  0.69612984  1
  Zr  Zr91  1  0.80352576  0.40332479  0.58867502  1
  Zr  Zr92  1  0.79972463  0.59680899  0.80258433  1
  Zr  Zr93  1  0.29570568  0.09365713  0.50350851  1
  Zr  Zr94  1  0.10077339  0.69179861  0.70086836  1
  Zr  Zr95  1  0.50938964  0.28981637  0.30348898  1
  Zr  Zr96  1  0.10293963  0.69763753  0.10096815  1
  Zr  Zr97  1  0.90514289  0.91211820  0.09648871  1
  Zr  Zr98  1  0.41057864  0.79598548  0.18857285  1
  Zr  Zr99  1  -0.00144843  0.80050626  0.20992009  1
  Ta  Ta100  1  0.30266115  0.70590571  0.90044057  1
  Ta  Ta101  1  0.30996624  0.90062180  0.90078509  1
  Ta  Ta102  1  -0.00530576  0.59749726  0.59799046  1
  Ta  Ta103  1  0.60050727  0.39867119  0.00381814  1
  Ta  Ta104  1  0.20461620  0.80798212  0.20681882  1
  Ta  Ta105  1  0.90063263  0.49539204  0.30870422  1
  Ta  Ta106  1  0.89202657  0.70134771  0.50424687  1
  Ta  Ta107  1  0.69787700  0.89722984  0.50491212  1
  Ta  Ta108  1  0.19107319  -0.01479689  0.39597626  1
  Ta  Ta109  1  0.59909725  0.00315119  0.40218008  1
  Ta  Ta110  1  0.69385699  0.69643108  0.10312605  1
  Ta  Ta111  1  0.68589352  0.90357277  0.89054725  1
  Ta  Ta112  1  0.59698391  0.19881098  0.59937252  1
  Ta  Ta113  1  0.08889903  0.49538613  0.30345492  1
  Ta  Ta114  1  0.49691042  0.90136343  0.89791759  1
  Ta  Ta115  1  0.19066861  0.20038100  0.40350428  1
  Ta  Ta116  1  0.69325768  0.10396615  0.70583694  1
  Ta  Ta117  1  0.10161255  0.30194352  0.70387395  1
  Ta  Ta118  1  0.69457776  0.90463776  0.30201399  1
  Ta  Ta119  1  0.59610139  0.60559053  0.80028389  1
  Ta  Ta120  1  -0.00477612  0.59161289  0.20169395  1
  Ta  Ta121  1  0.89521156  0.89695926  0.69547592  1
  Ta  Ta122  1  0.60720149  0.39656286  0.20258035  1
  Ta  Ta123  1  0.19787978  0.18905038  0.00942516  1
  Ta  Ta124  1  0.89629576  0.90094529  0.50372769  1
  Ta  Ta125  1  0.20661127  0.59349986  0.80223249  1
  Ta  Ta126  1  0.09397713  0.49991313  0.70183698  1
  Ta  Ta127  1  0.10331788  0.10013353  0.89854607  1
  Ta  Ta128  1  0.00215011  0.80309991  -0.00800953  1
  Ta  Ta129  1  0.90331628  0.70142853  0.89852686  1
  Ta  Ta130  1  0.20254082  0.79912012  0.59279828  1
  Ta  Ta131  1  0.39702317  0.39486007  0.80054941  1
  Ta  Ta132  1  0.59752983  0.60055370  0.59078748  1
  Ta  Ta133  1  0.41043247  0.19106843  0.00579621  1
  Ta  Ta134  1  0.40072329  0.79824264  0.60539232  1
  Ta  Ta135  1  0.19950087  0.20256783  0.60257337  1
  Ta  Ta136  1  0.60007312  0.59977863  -0.00093329  1
  Ta  Ta137  1  0.30235631  0.90317069  0.69320422  1
  Ta  Ta138  1  0.40408410  0.00308642  0.00370804  1
  Ta  Ta139  1  0.50321433  0.09810525  0.50225291  1
  Ta  Ta140  1  0.20447026  0.00449980  0.00210546  1
  Ta  Ta141  1  0.41466819  0.39446181  0.20350467  1
  Ta  Ta142  1  -0.00391024  0.39639523  0.41234906  1
  Ta  Ta143  1  0.40103426  0.80347508  0.79334363  1
  Ta  Ta144  1  0.09319357  0.49155355  0.09829567  1
  Ta  Ta145  1  0.60055362  0.79636757  0.20036956  1
  Ta  Ta146  1  0.30164089  0.70020053  0.30342045  1
  Ta  Ta147  1  0.00083847  0.40363114  0.59315175  1
  Ta  Ta148  1  0.89856824  0.10834221  0.49178962  1
  Ta  Ta149  1  0.90649575  0.50115604  0.69758486  1
  Ti  Ti150  1  0.50162332  0.10648613  0.29411923  1
  Ti  Ti151  1  0.71156201  0.49891970  0.32401554  1
  Ti  Ti152  1  0.59401979  0.00522073  0.60915826  1
  Ti  Ti153  1  0.69058098  0.09928879  0.89627895  1
  Ti  Ti154  1  0.91141280  0.49387702  0.90068342  1
  Ti  Ti155  1  0.40711402  0.19298987  0.40529104  1
  Ti  Ti156  1  0.09580879  0.90960159  0.90034801  1
  Ti  Ti157  1  0.11070433  0.10895716  0.70273947  1
  Ti  Ti158  1  0.50451421  0.29958567  0.49486650  1
  Ti  Ti159  1  0.79349466  0.00021662  0.79642776  1
  Ti  Ti160  1  0.10721557  0.70276109  0.50132864  1
  Ti  Ti161  1  0.89353063  0.30189191  0.31275721  1
  Ti  Ti162  1  0.19546126  0.40306891  -0.00228316  1
  Ti  Ti163  1  0.70328054  0.69313486  0.30469702  1
  Ti  Ti164  1  -0.00809694  0.40555378  0.20261848  1
  Ti  Ti165  1  0.30735902  0.49922770  0.90563902  1
  Ti  Ti166  1  0.31060816  0.89976989  0.09448441  1
  Ti  Ti167  1  0.89522489  0.69003018  0.30640777  1
  Ti  Ti168  1  0.29346370  0.29330947  0.70500425  1
  Ti  Ti169  1  0.50729163  0.70601727  0.69172988  1
  Ti  Ti170  1  0.30205850  0.89265716  0.30258642  1
  Ti  Ti171  1  0.90559354  0.91425189  0.29620031  1
  Ti  Ti172  1  0.20047874  0.59352619  -0.00595217  1
  Ti  Ti173  1  -0.00049792  -0.00403023  0.39936973  1
  Ti  Ti174  1  0.29481000  0.70339732  0.69783487  1
  Ti  Ti175  1  0.30892788  0.49654148  0.49594657  1
  Ti  Ti176  1  0.20066455  0.59917388  0.60122745  1
  Ti  Ti177  1  0.51106988  0.10575951  0.89506314  1
  Ti  Ti178  1  0.89614759  0.29162817  0.49448476  1
  Ti  Ti179  1  0.19784989  0.18967991  0.19294422  1
  Ti  Ti180  1  0.40374183  0.00781806  0.18782244  1
  Ti  Ti181  1  -0.00599601  0.60025192  0.79614042  1
  Ti  Ti182  1  0.80197873  0.19402524  0.00798583  1
  Ti  Ti183  1  0.88927256  0.50487134  0.49234874  1
  Ti  Ti184  1  0.58623300  0.80714313  0.79196598  1
  Ti  Ti185  1  -0.00050440  0.39834533  0.80078034  1
  Ti  Ti186  1  0.60469198  0.40255760  0.39282235  1
  Ti  Ti187  1  0.89092444  0.10679560  0.69247172  1
  Ti  Ti188  1  0.30176865  0.50192282  0.69802830  1
  Ti  Ti189  1  -0.00170220  0.19814548  0.80031636  1
  Ti  Ti190  1  0.68941548  0.29388099  0.09812314  1
  Ti  Ti191  1  0.09667373  0.49833621  0.89774023  1
  Ti  Ti192  1  0.40452402  0.59564285  0.20052356  1
  Ti  Ti193  1  -0.00456088  0.79810368  0.79813678  1
  Ti  Ti194  1  0.50519088  0.29254222  0.09903065  1
  Ti  Ti195  1  0.49696354  0.71104182  0.89690039  1
  Ti  Ti196  1  0.80480351  0.59928177  0.59951027  1
  Ti  Ti197  1  0.60331643  0.40339554  0.58621157  1
  Ti  Ti198  1  0.09699241  0.50161733  0.50533302  1
  Ti  Ti199  1  0.40314420  0.00447399  0.60903985  1
  Mo  Mo200  1  0.59805314  0.19345869  0.79926046  1
  Mo  Mo201  1  0.69346219  0.89098837  0.11231217  1
  Mo  Mo202  1  0.20434531  0.80222804  0.39882385  1
  Mo  Mo203  1  0.50428840  0.69799504  0.50470560  1
  Mo  Mo204  1  0.29129202  0.10008266  0.69397315  1
  Mo  Mo205  1  -0.00275089  0.20443040  0.39882943  1
  Mo  Mo206  1  0.59488863  0.79496864  0.59770218  1
  Mo  Mo207  1  0.40750337  0.39251786  0.40015127  1
  Mo  Mo208  1  0.40802056  0.19721017  0.19503537  1
  Mo  Mo209  1  0.80718047  0.39985141  0.39942092  1
  Mo  Mo210  1  0.69788593  0.50151973  0.49719338  1
  Mo  Mo211  1  0.90866763  0.30363569  0.90141455  1
  Mo  Mo212  1  0.68631972  0.50673348  0.90160108  1
  Mo  Mo213  1  0.49711872  0.89985942  0.69935384  1
  Mo  Mo214  1  0.80828922  0.20436218  0.39767895  1
  Mo  Mo215  1  0.09952155  0.09677834  0.09632118  1
  Mo  Mo216  1  0.89503168  0.09741253  0.09725470  1
  Mo  Mo217  1  0.59842589  0.20380022  0.19013801  1
  Mo  Mo218  1  0.69208853  0.49704503  0.09353602  1
  Mo  Mo219  1  0.19879179  0.00107603  0.60209226  1
  Mo  Mo220  1  0.29365703  0.70458714  0.50378038  1
  Mo  Mo221  1  0.59216159  0.19885253  -0.00082635  1
  Mo  Mo222  1  0.90665312  0.49966769  0.10494826  1
  Mo  Mo223  1  0.09768026  0.29955126  0.50349866  1
  Mo  Mo224  1  0.80190041  0.80303789  0.59530848  1
  Mo  Mo225  1  0.09972851  0.90002654  0.49877676  1
  Mo  Mo226  1  0.30385512  0.09783906  0.09759249  1
  Mo  Mo227  1  0.61366961  0.59330533  0.40178724  1
  Mo  Mo228  1  0.51029029  0.10117558  0.69670166  1
  Mo  Mo229  1  0.49512455  0.90859870  0.10127726  1
  Mo  Mo230  1  0.40904490  0.38682713  0.00004663  1
  Mo  Mo231  1  0.50572608  0.69125871  0.10870695  1
  Mo  Mo232  1  0.80598960  0.60018550  0.39918589  1
  Mo  Mo233  1  0.58766370  0.19702758  0.41011549  1
  Mo  Mo234  1  0.90267759  0.10209328  0.31094900  1
  Mo  Mo235  1  0.69298307  0.12260850  0.09501333  1
  Mo  Mo236  1  0.00331240  0.40330077  -0.01084817  1
  Mo  Mo237  1  0.01326361  0.00219732  -0.00411114  1
  Mo  Mo238  1  0.60088878  0.00174309  0.80390712  1
  Mo  Mo239  1  0.90110891  0.69449557  0.69902300  1
  Mo  Mo240  1  0.19669677  0.20162110  0.79526226  1
  Mo  Mo241  1  -0.00607983  0.00367362  0.20432404  1
  Mo  Mo242  1  0.10178122  0.90203956  0.29992579  1
  Mo  Mo243  1  0.39533878  0.60236957  0.40057335  1
  Mo  Mo244  1  0.69744935  0.30765230  0.30304490  1
  Mo  Mo245  1  0.40028486  0.80749482  -0.00599382  1
  Mo  Mo246  1  0.79957119  0.19520633  0.59680365  1
  Mo  Mo247  1  0.49722470  0.10582964  0.10572631  1
  Mo  Mo248  1  0.50453019  0.48984259  0.29792261  1
  Mo  Mo249  1  0.49745195  0.29612845  0.90729366  1
