# generated using pymatgen
data_HfZrTaTiMo
_symmetry_space_group_name_H-M   'P 1'
_cell_length_a   16.87679851
_cell_length_b   16.87922405
_cell_length_c   16.87704866
_cell_angle_alpha   89.99297612
_cell_angle_beta   90.04873934
_cell_angle_gamma   90.00456132
_symmetry_Int_Tables_number   1
_chemical_formula_structural   HfZrTaTiMo
_chemical_formula_sum   'Hf50 Zr50 Ta50 Ti50 Mo50'
_cell_volume   4807.71687274
_cell_formula_units_Z   50
loop_
 _symmetry_equiv_pos_site_id
 _symmetry_equiv_pos_as_xyz
  1  'x, y, z'
loop_
 _atom_site_type_symbol
 _atom_site_label
 _atom_site_symmetry_multiplicity
 _atom_site_fract_x
 _atom_site_fract_y
 _atom_site_fract_z
 _atom_site_occupancy
  Hf  Hf0  1  0.58897572  0.00038326  0.78826295  1
  Hf  Hf1  1  0.79101647  0.79449035  0.78856978  1
  Hf  Hf2  1  0.39433766  0.80830106  0.59480632  1
  Hf  Hf3  1  0.80125013  0.60094105  0.00854606  1
  Hf  Hf4  1  0.49002920  0.70559306  0.70259642  1
  Hf  Hf5  1  0.10322709  0.89624033  0.49662722  1
  Hf  Hf6  1  0.70093906  0.10345208  0.68765453  1
  Hf  Hf7  1  0.40069347  0.60232738  0.40345848  1
  Hf  Hf8  1  0.00776128  0.40630514  0.20069704  1
  Hf  Hf9  1  0.90408469  0.11214481  0.69212318  1
  Hf  Hf10  1  0.40610362  0.20475926  0.40213341  1
  Hf  Hf11  1  0.38990871  0.80585055  0.18539753  1
  Hf  Hf12  1  0.69310460  0.90650107  0.09676198  1
  Hf  Hf13  1  0.89648114  0.89716746  0.69017907  1
  Hf  Hf14  1  0.30598341  0.09481358  0.51500315  1
  Hf  Hf15  1  -0.01118751  0.00009828  0.40943395  1
  Hf  Hf16  1  0.30673314  0.09897876  0.31475570  1
  Hf  Hf17  1  0.90084308  0.30368410  0.50537816  1
  Hf  Hf18  1  0.59511796  0.19647696  0.20161785  1
  Hf  Hf19  1  0.80024368  0.39303062  0.00086039  1
  Hf  Hf20  1  0.59915561  0.20999142  -0.00559060  1
  Hf  Hf21  1  0.89483509  0.50198286  0.30562624  1
  Hf  Hf22  1  0.00901199  0.79859522  0.59994399  1
  Hf  Hf23  1  0.59747504  0.59938373  0.60469840  1
  Hf  Hf24  1  0.01027001  0.59699011  0.01228691  1
  Hf  Hf25  1  0.00491355  0.60455416  0.20570917  1
  Hf  Hf26  1  0.49337229  0.48802662  0.70358851  1
  Hf  Hf27  1  0.80237713  -0.00184170  -0.00105505  1
  Hf  Hf28  1  0.50419807  0.09328468  0.08184906  1
  Hf  Hf29  1  0.50060791  0.49898194  0.29816285  1
  Hf  Hf30  1  0.80329967  0.00085143  0.79875371  1
  Hf  Hf31  1  0.90627700  0.69445125  0.69060146  1
  Hf  Hf32  1  0.80281321  0.81029979  0.39956006  1
  Hf  Hf33  1  0.70424875  0.29858083  0.30621905  1
  Hf  Hf34  1  0.29629940  0.90462898  0.69766901  1
  Hf  Hf35  1  0.79731041  0.59145472  0.79724314  1
  Hf  Hf36  1  0.21031784  -0.00211013  -0.00392344  1
  Hf  Hf37  1  0.19102368  0.39392328  0.59240138  1
  Hf  Hf38  1  0.70055254  0.29379872  0.50951540  1
  Hf  Hf39  1  0.10157604  0.29437671  0.09945270  1
  Hf  Hf40  1  0.69546371  0.49103548  0.50533667  1
  Hf  Hf41  1  0.29446277  0.89720924  0.30533522  1
  Hf  Hf42  1  0.59570485  0.80071327  -0.00312178  1
  Hf  Hf43  1  0.59339036  0.00224624  0.21135702  1
  Hf  Hf44  1  0.79424997  0.20025189  0.19456098  1
  Hf  Hf45  1  0.18906912  0.60514525  0.19186093  1
  Hf  Hf46  1  0.59937464  0.60166853  0.00550195  1
  Hf  Hf47  1  0.01399206  0.80905904  0.79808788  1
  Hf  Hf48  1  0.60145564  0.60326667  0.79664707  1
  Hf  Hf49  1  0.59333097  0.81164031  0.20668545  1
  Zr  Zr50  1  0.10458364  0.29506332  0.29814008  1
  Zr  Zr51  1  0.10457539  0.89313166  0.10953847  1
  Zr  Zr52  1  0.29177853  0.70371920  0.29971178  1
  Zr  Zr53  1  0.30559057  0.29210056  0.69967770  1
  Zr  Zr54  1  0.69678843  0.10501526  0.89841262  1
  Zr  Zr55  1  0.78840253  0.59795918  0.61352622  1
  Zr  Zr56  1  0.00992650  -0.00438703  0.79846843  1
  Zr  Zr57  1  0.68899039  0.46465199  0.71365546  1
  Zr  Zr58  1  0.29751310  0.49430691  0.29865970  1
  Zr  Zr59  1  0.89818315  0.11115065  0.90020939  1
  Zr  Zr60  1  0.90460218  0.69730238  0.89809781  1
  Zr  Zr61  1  0.09879792  0.10591372  0.09987980  1
  Zr  Zr62  1  0.21383647  0.19058939  0.20282461  1
  Zr  Zr63  1  0.21935903  0.79983142  0.00830589  1
  Zr  Zr64  1  0.69903121  0.70272858  0.30334594  1
  Zr  Zr65  1  0.29932772  0.29593017  0.09681989  1
  Zr  Zr66  1  0.90328988  0.10652884  0.09972229  1
  Zr  Zr67  1  0.11241957  0.70278026  0.89403938  1
  Zr  Zr68  1  0.19681809  0.40213535  -0.01151215  1
  Zr  Zr69  1  0.90564950  0.50827969  0.50964670  1
  Zr  Zr70  1  0.69621801  0.70162147  0.89958248  1
  Zr  Zr71  1  0.49860072  0.49250687  0.09794718  1
  Zr  Zr72  1  0.00413327  -0.01108758  -0.00650792  1
  Zr  Zr73  1  0.69991902  0.71060175  0.50705028  1
  Zr  Zr74  1  0.00820558  0.00079183  0.59877942  1
  Zr  Zr75  1  0.01079379  0.59059809  0.79968285  1
  Zr  Zr76  1  0.69858862  0.31111024  0.88138547  1
  Zr  Zr77  1  0.81839341  0.00840546  0.56692190  1
  Zr  Zr78  1  0.29688261  0.49786309  0.70995516  1
  Zr  Zr79  1  0.30541172  0.49265161  0.10095907  1
  Zr  Zr80  1  0.38946175  0.61540556  0.00041604  1
  Zr  Zr81  1  0.90014934  0.30052939  0.29897350  1
  Zr  Zr82  1  0.40268101  0.00412921  0.20020383  1
  Zr  Zr83  1  0.20838013  -0.00015279  0.19829553  1
  Zr  Zr84  1  0.20103677  0.59558926  -0.00509661  1
  Zr  Zr85  1  0.50000043  0.09524245  0.50858352  1
  Zr  Zr86  1  0.19073503  0.59763852  0.59904880  1
  Zr  Zr87  1  0.80394918  0.79607221  0.00994082  1
  Zr  Zr88  1  0.39983020  0.39333638  0.59058170  1
  Zr  Zr89  1  0.39605759  0.60315783  0.59711930  1
  Zr  Zr90  1  0.69937298  0.90593688  0.68092650  1
  Zr  Zr91  1  0.10469435  0.10933072  0.90029885  1
  Zr  Zr92  1  0.49610704  0.70420541  0.30096430  1
  Zr  Zr93  1  0.79619841  -0.00506062  0.20741627  1
  Zr  Zr94  1  0.39699908  0.00878804  0.79566909  1
  Zr  Zr95  1  0.59668539  0.39809252  0.39932945  1
  Zr  Zr96  1  0.29330366  0.49905906  0.49142231  1
  Zr  Zr97  1  0.90254007  0.10541851  0.30260106  1
  Zr  Zr98  1  0.49653166  0.49612730  0.89856322  1
  Zr  Zr99  1  0.89497815  0.49228612  0.10452003  1
  Ta  Ta100  1  0.69791731  0.90623061  0.49715096  1
  Ta  Ta101  1  0.49242611  0.70826009  0.89616749  1
  Ta  Ta102  1  -0.00249691  0.21328257  -0.00249059  1
  Ta  Ta103  1  0.20722820  0.20186336  0.79964018  1
  Ta  Ta104  1  0.50263448  0.70625051  0.49813027  1
  Ta  Ta105  1  0.80047870  0.21082032  0.79003085  1
  Ta  Ta106  1  0.69923795  0.49296196  0.10599690  1
  Ta  Ta107  1  0.59270854  0.80887834  0.79383914  1
  Ta  Ta108  1  0.28840467  0.70587662  0.49718189  1
  Ta  Ta109  1  0.89816619  0.89060890  0.90034283  1
  Ta  Ta110  1  0.69741272  0.10128836  0.09100214  1
  Ta  Ta111  1  0.19690302  0.00111908  0.40578016  1
  Ta  Ta112  1  0.18023798  0.59733664  0.39164577  1
  Ta  Ta113  1  0.90630493  0.89344643  0.10834185  1
  Ta  Ta114  1  0.59314127  0.81366807  0.40044433  1
  Ta  Ta115  1  0.60317014  0.39631073  0.20027855  1
  Ta  Ta116  1  0.39878411  0.80867765  0.40944617  1
  Ta  Ta117  1  0.79573152  0.60142499  0.20174794  1
  Ta  Ta118  1  0.39668888  0.20070627  -0.00918282  1
  Ta  Ta119  1  0.40016806  0.60433142  0.19525226  1
  Ta  Ta120  1  0.40163127  0.39206042  0.39784944  1
  Ta  Ta121  1  0.90543581  0.30484149  0.69991427  1
  Ta  Ta122  1  0.19975809  0.20007760  0.40827296  1
  Ta  Ta123  1  0.00917389  0.20467775  0.40800771  1
  Ta  Ta124  1  0.69893956  0.49246993  0.90261190  1
  Ta  Ta125  1  0.00996337  0.40622500  0.40513545  1
  Ta  Ta126  1  0.90180779  0.30253289  0.89515874  1
  Ta  Ta127  1  0.00419104  0.79381478  0.00689506  1
  Ta  Ta128  1  0.10547152  0.10417496  0.50316909  1
  Ta  Ta129  1  0.59792772  -0.00439406  0.39556791  1
  Ta  Ta130  1  0.09209061  0.69212168  0.49591849  1
  Ta  Ta131  1  0.40528386  0.38752750  0.20560039  1
  Ta  Ta132  1  0.11252649  0.10473977  0.69892880  1
  Ta  Ta133  1  0.49568962  0.90513186  0.08447956  1
  Ta  Ta134  1  0.70071684  0.10010180  0.31280093  1
  Ta  Ta135  1  0.79959569  0.40421658  0.40196395  1
  Ta  Ta136  1  0.00164793  -0.00181707  0.20730759  1
  Ta  Ta137  1  0.40698591  0.19536495  0.19743412  1
  Ta  Ta138  1  0.00986105  0.20724122  0.59835815  1
  Ta  Ta139  1  0.10062675  0.29966174  0.70596328  1
  Ta  Ta140  1  0.90088193  0.49165624  0.90027664  1
  Ta  Ta141  1  0.59425163  0.20133974  0.60743818  1
  Ta  Ta142  1  0.39893205  0.81234828  0.80185614  1
  Ta  Ta143  1  0.60113250  0.59993536  0.40125497  1
  Ta  Ta144  1  0.90322721  0.69487247  0.49934218  1
  Ta  Ta145  1  0.90518547  0.89596906  0.29942842  1
  Ta  Ta146  1  0.09843466  0.89528377  0.30229379  1
  Ta  Ta147  1  0.29191371  0.70513587  0.70753785  1
  Ta  Ta148  1  0.69603486  0.90287300  0.89779176  1
  Ta  Ta149  1  0.60291617  0.59621789  0.20134812  1
  Ti  Ti150  1  0.39185443  0.60126667  0.80560640  1
  Ti  Ti151  1  0.19797037  0.80064904  0.60007461  1
  Ti  Ti152  1  0.10157512  0.29718398  0.89696909  1
  Ti  Ti153  1  0.89937198  0.69729992  0.30553943  1
  Ti  Ti154  1  -0.00029327  0.79326640  0.39625305  1
  Ti  Ti155  1  0.09862051  0.09935164  0.30364269  1
  Ti  Ti156  1  0.59749357  0.39541721  -0.00210723  1
  Ti  Ti157  1  0.50302127  0.49697191  0.50140095  1
  Ti  Ti158  1  0.80339443  0.79768592  0.20286444  1
  Ti  Ti159  1  0.19499935  0.40650229  0.19982061  1
  Ti  Ti160  1  0.30059418  0.70953388  0.88627195  1
  Ti  Ti161  1  0.00691229  0.39981499  0.80532106  1
  Ti  Ti162  1  0.40374156  -0.00985224  0.40633723  1
  Ti  Ti163  1  0.39603473  0.38874523  -0.01066858  1
  Ti  Ti164  1  0.11088478  0.69862336  0.70378065  1
  Ti  Ti165  1  0.90151582  0.29822691  0.10186454  1
  Ti  Ti166  1  0.00395297  0.20518363  0.79688327  1
  Ti  Ti167  1  0.49795102  0.10585722  0.89518524  1
  Ti  Ti168  1  0.69755891  0.70076541  0.10939481  1
  Ti  Ti169  1  0.59205694  0.20367442  0.79267158  1
  Ti  Ti170  1  0.00628333  0.40190345  -0.00232542  1
  Ti  Ti171  1  0.49738794  0.29650743  0.70305454  1
  Ti  Ti172  1  0.19966613  -0.00198732  0.60202174  1
  Ti  Ti173  1  0.69361801  0.09887107  0.49932089  1
  Ti  Ti174  1  0.79191077  0.59735667  0.40101526  1
  Ti  Ti175  1  0.59362943  0.80542348  0.60350266  1
  Ti  Ti176  1  0.30007078  0.10794633  0.89583734  1
  Ti  Ti177  1  0.38998958  -0.00223078  -0.00813043  1
  Ti  Ti178  1  0.29940514  0.30175166  0.30170000  1
  Ti  Ti179  1  0.39562494  0.38392063  0.81418220  1
  Ti  Ti180  1  0.90916195  0.49182074  0.70009754  1
  Ti  Ti181  1  0.70110413  0.30204688  0.10059855  1
  Ti  Ti182  1  0.80550133  0.19004329  0.41394573  1
  Ti  Ti183  1  0.29948887  0.29329659  0.49941653  1
  Ti  Ti184  1  0.49682201  0.30044845  0.09694437  1
  Ti  Ti185  1  0.19972349  0.20171340  0.60133216  1
  Ti  Ti186  1  0.50418950  0.90704348  0.51016869  1
  Ti  Ti187  1  0.49749240  0.90415368  0.90201244  1
  Ti  Ti188  1  0.19973631  -0.00411677  0.80410735  1
  Ti  Ti189  1  0.80047066  0.39312499  0.61000713  1
  Ti  Ti190  1  0.00222473  0.79008306  0.20203230  1
  Ti  Ti191  1  0.19202299  0.39676035  0.40249092  1
  Ti  Ti192  1  0.10283710  0.49526688  0.70352508  1
  Ti  Ti193  1  0.50183946  0.29684560  0.29917671  1
  Ti  Ti194  1  0.20066501  0.40010924  0.80789311  1
  Ti  Ti195  1  0.59468042  0.19336490  0.39976169  1
  Ti  Ti196  1  0.19413796  0.79651658  0.40127610  1
  Ti  Ti197  1  0.01120139  0.40151070  0.59755070  1
  Ti  Ti198  1  0.49638949  0.70489138  0.09846391  1
  Ti  Ti199  1  0.50354388  0.29662029  0.50736444  1
  Mo  Mo200  1  0.90093211  0.70506115  0.11383578  1
  Mo  Mo201  1  0.80112935  0.20971654  -0.00039096  1
  Mo  Mo202  1  0.68900456  0.71360007  0.69840526  1
  Mo  Mo203  1  0.10151965  0.70598946  0.10432762  1
  Mo  Mo204  1  -0.00288566  0.60430000  0.39936973  1
  Mo  Mo205  1  0.40204300  0.19632132  0.80068976  1
  Mo  Mo206  1  0.40106237  -0.00204213  0.60375702  1
  Mo  Mo207  1  -0.00066190  0.19847103  0.19878058  1
  Mo  Mo208  1  0.90382729  0.88165236  0.49506206  1
  Mo  Mo209  1  0.09478620  0.49959433  0.49684487  1
  Mo  Mo210  1  0.30103246  0.70065030  0.10448060  1
  Mo  Mo211  1  0.57840935  0.38907406  0.80326208  1
  Mo  Mo212  1  0.50158354  0.10241496  0.31178462  1
  Mo  Mo213  1  0.29240739  0.90059778  0.49908303  1
  Mo  Mo214  1  0.20622727  0.59505623  0.79922162  1
  Mo  Mo215  1  0.10320007  0.29925817  0.50285824  1
  Mo  Mo216  1  0.49332138  0.10860489  0.69653901  1
  Mo  Mo217  1  0.70277628  0.90503414  0.30295009  1
  Mo  Mo218  1  0.29302105  0.10051994  0.69937878  1
  Mo  Mo219  1  0.49110357  0.90252634  0.31040809  1
  Mo  Mo220  1  0.59064015  0.38734659  0.60319329  1
  Mo  Mo221  1  0.79170768  0.39898904  0.20258989  1
  Mo  Mo222  1  0.29972636  0.29526427  0.89662898  1
  Mo  Mo223  1  0.79609752  0.00053039  0.39874036  1
  Mo  Mo224  1  0.11337318  0.90405126  0.69776912  1
  Mo  Mo225  1  0.00786406  0.59795297  0.60304681  1
  Mo  Mo226  1  0.30189958  0.49497280  0.89263346  1
  Mo  Mo227  1  0.09809730  0.49318564  0.09948171  1
  Mo  Mo228  1  0.80603235  0.79879704  0.59022969  1
  Mo  Mo229  1  0.82113902  0.40103357  0.79816226  1
  Mo  Mo230  1  0.49610166  0.29564112  0.89705031  1
  Mo  Mo231  1  0.91151614  0.12068801  0.49831261  1
  Mo  Mo232  1  0.70081410  0.50074493  0.29870464  1
  Mo  Mo233  1  0.40364023  0.80653981  -0.00817950  1
  Mo  Mo234  1  0.10478326  0.89691734  0.89971160  1
  Mo  Mo235  1  0.31319737  0.10163104  0.08622310  1
  Mo  Mo236  1  0.80107001  0.20497246  0.60047692  1
  Mo  Mo237  1  0.19624667  0.79771329  0.20413489  1
  Mo  Mo238  1  0.59767267  0.00014334  -0.01221728  1
  Mo  Mo239  1  0.20335186  0.19998144  -0.01115841  1
  Mo  Mo240  1  0.30302271  0.90098832  0.89488477  1
  Mo  Mo241  1  0.09662014  0.49188328  0.89570452  1
  Mo  Mo242  1  0.59697857  0.00305226  0.59402276  1
  Mo  Mo243  1  0.30715614  0.90500519  0.09457954  1
  Mo  Mo244  1  0.70021179  0.29248764  0.69773518  1
  Mo  Mo245  1  0.40315632  0.19833908  0.60442215  1
  Mo  Mo246  1  0.09964464  0.49721357  0.30357265  1
  Mo  Mo247  1  0.09471511  0.70949734  0.30444096  1
  Mo  Mo248  1  0.49559796  0.90368617  0.69341926  1
  Mo  Mo249  1  0.20419451  0.80852440  0.79840382  1
