# generated using pymatgen
data_HfZrTaTiMo
_symmetry_space_group_name_H-M   'P 1'
_cell_length_a   16.88460440
_cell_length_b   16.89510555
_cell_length_c   16.89050969
_cell_angle_alpha   89.98793922
_cell_angle_beta   90.05000836
_cell_angle_gamma   89.97291858
_symmetry_Int_Tables_number   1
_chemical_formula_structural   HfZrTaTiMo
_chemical_formula_sum   'Hf50 Zr50 Ta50 Ti50 Mo50'
_cell_volume   4818.30547725
_cell_formula_units_Z   50
loop_
 _symmetry_equiv_pos_site_id
 _symmetry_equiv_pos_as_xyz
  1  'x, y, z'
loop_
 _atom_site_type_symbol
 _atom_site_label
 _atom_site_symmetry_multiplicity
 _atom_site_fract_x
 _atom_site_fract_y
 _atom_site_fract_z
 _atom_site_occupancy
  Hf  Hf0  1  0.29307728  0.69712286  0.29613389  1
  Hf  Hf1  1  0.19935745  0.41252871  0.39079623  1
  Hf  Hf2  1  0.79216770  0.79348722  0.59839451  1
  Hf  Hf3  1  0.59549210  -0.00634138  0.59509699  1
  Hf  Hf4  1  0.40039259  0.79686403  0.39744768  1
  Hf  Hf5  1  0.10532861  0.30743330  0.90269129  1
  Hf  Hf6  1  0.90011308  0.69710591  0.50236096  1
  Hf  Hf7  1  0.80439819  -0.00441095  0.00161528  1
  Hf  Hf8  1  0.69901460  0.10027273  0.30191202  1
  Hf  Hf9  1  0.90223512  0.69456476  0.29353355  1
  Hf  Hf10  1  -0.00379884  0.20606058  0.20687296  1
  Hf  Hf11  1  0.59907497  0.00011981  -0.00176128  1
  Hf  Hf12  1  0.09957693  0.30121400  0.49421194  1
  Hf  Hf13  1  0.81210009  -0.00751194  0.40042722  1
  Hf  Hf14  1  0.39974931  0.40298064  0.80313335  1
  Hf  Hf15  1  0.01062764  0.41534951  0.01046799  1
  Hf  Hf16  1  0.80411836  0.20335283  0.79322179  1
  Hf  Hf17  1  0.59725929  0.79153168  0.59100548  1
  Hf  Hf18  1  0.59566961  0.00473266  0.81312879  1
  Hf  Hf19  1  0.09968141  0.89694840  0.90972921  1
  Hf  Hf20  1  0.89245721  0.31275704  0.09389058  1
  Hf  Hf21  1  0.70497633  0.10631636  0.49347471  1
  Hf  Hf22  1  -0.00329363  0.00363423  0.80301531  1
  Hf  Hf23  1  0.49900904  0.10196009  0.69947444  1
  Hf  Hf24  1  0.80289250  0.79735951  0.19977286  1
  Hf  Hf25  1  0.10931014  0.10274340  0.90533305  1
  Hf  Hf26  1  0.20466469  0.20773602  0.79999602  1
  Hf  Hf27  1  0.00351002  0.40308844  0.19866697  1
  Hf  Hf28  1  -0.00658364  0.80893740  0.40087144  1
  Hf  Hf29  1  0.18930728  0.80478343  0.40136446  1
  Hf  Hf30  1  0.49588633  0.09972706  0.49308640  1
  Hf  Hf31  1  0.41124053  0.78422646  0.01498177  1
  Hf  Hf32  1  0.70424982  0.29657790  0.32202138  1
  Hf  Hf33  1  0.30290267  0.69905517  0.69919414  1
  Hf  Hf34  1  0.89378844  0.89498406  0.70435485  1
  Hf  Hf35  1  0.30166498  0.09024414  0.70030161  1
  Hf  Hf36  1  0.59460599  -0.00702256  0.39721952  1
  Hf  Hf37  1  0.41089039  0.59947947  0.79769371  1
  Hf  Hf38  1  0.50111709  0.11112976  0.10009203  1
  Hf  Hf39  1  0.40860161  0.00912008  -0.00336303  1
  Hf  Hf40  1  0.69678791  0.89288161  0.70768389  1
  Hf  Hf41  1  0.10442590  0.10581120  0.29906710  1
  Hf  Hf42  1  0.79790733  -0.00244487  0.81129717  1
  Hf  Hf43  1  0.59676984  0.39964731  0.79790989  1
  Hf  Hf44  1  0.49285206  0.89213802  0.70727008  1
  Hf  Hf45  1  0.07900535  0.89840985  0.27273944  1
  Hf  Hf46  1  0.39229426  0.40162582  0.19623758  1
  Hf  Hf47  1  0.28323882  0.29960916  0.28668703  1
  Hf  Hf48  1  0.09980235  0.69842024  0.70109602  1
  Hf  Hf49  1  0.00285217  0.20018216  0.79095169  1
  Zr  Zr50  1  0.69550773  0.86156186  0.90581565  1
  Zr  Zr51  1  0.79304219  0.79895685  0.40107587  1
  Zr  Zr52  1  -0.01046462  0.00284415  0.39834688  1
  Zr  Zr53  1  0.70129567  0.89387162  0.10064103  1
  Zr  Zr54  1  0.39480976  0.20126576  0.59591644  1
  Zr  Zr55  1  0.40273818  0.20518014  0.81237429  1
  Zr  Zr56  1  0.30550766  0.89701208  0.90200123  1
  Zr  Zr57  1  0.60909548  0.21235115  0.59340336  1
  Zr  Zr58  1  0.59497006  0.39904151  0.40740449  1
  Zr  Zr59  1  0.59173787  0.79105353  0.20601635  1
  Zr  Zr60  1  0.52947889  0.69162074  0.90071473  1
  Zr  Zr61  1  0.83544514  0.19004554  0.39540377  1
  Zr  Zr62  1  0.50104088  0.87840903  0.89777264  1
  Zr  Zr63  1  0.10120615  0.69839618  0.09771074  1
  Zr  Zr64  1  0.51012969  0.49478561  0.09650148  1
  Zr  Zr65  1  0.09761844  0.89804948  0.70519446  1
  Zr  Zr66  1  0.89906025  0.30846813  0.89869389  1
  Zr  Zr67  1  0.30577539  0.90071569  0.10168593  1
  Zr  Zr68  1  0.90212297  0.10514900  0.90807787  1
  Zr  Zr69  1  0.80357027  0.20561811  0.20112048  1
  Zr  Zr70  1  0.20016556  0.79773874  0.80287831  1
  Zr  Zr71  1  0.19640629  0.60044816  0.40195762  1
  Zr  Zr72  1  0.01113875  0.20469595  0.01339055  1
  Zr  Zr73  1  0.50334973  0.49979184  0.29460795  1
  Zr  Zr74  1  0.30373531  0.07606486  0.48905492  1
  Zr  Zr75  1  -0.00602582  0.19175585  0.60522260  1
  Zr  Zr76  1  0.70155574  0.09631468  0.69931838  1
  Zr  Zr77  1  0.90257326  0.30960069  0.49926942  1
  Zr  Zr78  1  0.49481437  0.30291757  0.49512778  1
  Zr  Zr79  1  0.91989533  0.89428889  0.11092286  1
  Zr  Zr80  1  0.89035903  0.48795624  0.89149463  1
  Zr  Zr81  1  0.69739740  0.49703076  0.50346513  1
  Zr  Zr82  1  0.19982924  0.19717608  0.59921231  1
  Zr  Zr83  1  0.59604126  0.61131728  0.40229178  1
  Zr  Zr84  1  0.30293615  0.69765077  0.90337267  1
  Zr  Zr85  1  0.80647869  0.59710722  -0.00016362  1
  Zr  Zr86  1  0.69972222  0.10249713  0.10305936  1
  Zr  Zr87  1  0.89155747  0.50413028  0.30063105  1
  Zr  Zr88  1  0.70009198  0.50306722  0.29658933  1
  Zr  Zr89  1  0.10398831  0.50339712  0.69795563  1
  Zr  Zr90  1  0.90357433  0.32995881  0.69918648  1
  Zr  Zr91  1  0.68973991  0.50434689  0.90314463  1
  Zr  Zr92  1  0.39111272  0.19852270  0.38723901  1
  Zr  Zr93  1  0.39609559  0.79922507  0.59530677  1
  Zr  Zr94  1  0.10249408  0.10169079  0.49185635  1
  Zr  Zr95  1  0.89884588  0.70090083  0.70929960  1
  Zr  Zr96  1  0.59651909  0.79887881  0.40409945  1
  Zr  Zr97  1  0.30189046  0.31310735  0.69033687  1
  Zr  Zr98  1  0.89904422  0.49454785  0.50872714  1
  Zr  Zr99  1  0.30035161  0.90636175  0.29554144  1
  Ta  Ta100  1  0.29347666  0.30913037  0.49078361  1
  Ta  Ta101  1  0.19029820  0.00204916  0.18490026  1
  Ta  Ta102  1  0.09218059  0.69527643  0.29204968  1
  Ta  Ta103  1  0.70156162  0.49815183  0.10028608  1
  Ta  Ta104  1  0.39847813  0.59502135  0.39956619  1
  Ta  Ta105  1  0.39454113  0.20348194  0.19429010  1
  Ta  Ta106  1  0.50395434  0.30423933  0.91103448  1
  Ta  Ta107  1  0.30090533  0.50146933  0.50342226  1
  Ta  Ta108  1  0.20648685  0.40531793  0.80502754  1
  Ta  Ta109  1  0.50286910  0.49863972  0.90718411  1
  Ta  Ta110  1  0.30132540  0.50237266  0.90395055  1
  Ta  Ta111  1  0.12525964  0.30543235  0.11660334  1
  Ta  Ta112  1  0.80628937  0.19926048  0.60184144  1
  Ta  Ta113  1  0.39795412  0.60077974  0.19797348  1
  Ta  Ta114  1  0.39405543  0.39640157  0.00038795  1
  Ta  Ta115  1  0.79567014  0.39940985  0.19992410  1
  Ta  Ta116  1  0.09709033  0.50774224  0.29232682  1
  Ta  Ta117  1  -0.00593627  -0.00331409  0.59655807  1
  Ta  Ta118  1  0.19867030  0.80348349  0.59019664  1
  Ta  Ta119  1  0.50168075  0.30470642  0.69830342  1
  Ta  Ta120  1  -0.00466345  0.58971602  0.18299065  1
  Ta  Ta121  1  0.19998615  -0.01598594  0.59587840  1
  Ta  Ta122  1  0.20537275  0.00022163  0.80450394  1
  Ta  Ta123  1  0.79501427  0.60420253  0.40886537  1
  Ta  Ta124  1  0.69877048  0.90250503  0.29604839  1
  Ta  Ta125  1  0.49978706  0.29640223  0.29525510  1
  Ta  Ta126  1  0.79500039  0.20567510  0.00285042  1
  Ta  Ta127  1  0.40306134  0.59445117  0.00606663  1
  Ta  Ta128  1  0.29768000  0.69627434  0.50021294  1
  Ta  Ta129  1  0.19595331  0.80026872  0.19403491  1
  Ta  Ta130  1  0.21333501  0.20966493  0.00498237  1
  Ta  Ta131  1  -0.00014941  0.59994455  0.81052139  1
  Ta  Ta132  1  0.70133215  0.30777229  0.90449480  1
  Ta  Ta133  1  -0.00360802  0.59855264  0.60457480  1
  Ta  Ta134  1  0.59565382  0.00044077  0.20205161  1
  Ta  Ta135  1  0.01085776  0.00212972  0.01228976  1
  Ta  Ta136  1  -0.00030963  0.59836339  -0.00502141  1
  Ta  Ta137  1  0.69761376  0.11492310  0.90392342  1
  Ta  Ta138  1  0.00219726  0.80361607  0.59391136  1
  Ta  Ta139  1  0.79502337  0.59893957  0.60784343  1
  Ta  Ta140  1  0.30250951  0.10474838  0.90727239  1
  Ta  Ta141  1  0.29780990  0.50623277  0.69753747  1
  Ta  Ta142  1  0.39326386  0.40850253  0.39470250  1
  Ta  Ta143  1  0.00221055  0.40268259  0.39097977  1
  Ta  Ta144  1  0.49308746  0.90332510  0.29281069  1
  Ta  Ta145  1  0.60803565  0.38545898  0.19533788  1
  Ta  Ta146  1  0.40290793  0.59619436  0.59826051  1
  Ta  Ta147  1  0.69710638  0.69716365  0.08710786  1
  Ta  Ta148  1  0.00200749  0.59752911  0.40235570  1
  Ta  Ta149  1  0.40278803  0.00511863  0.80981284  1
  Ti  Ti150  1  0.10054601  0.31329264  0.69516067  1
  Ti  Ti151  1  0.10591094  0.08958352  0.69928804  1
  Ti  Ti152  1  0.19037700  -0.01579159  0.39735342  1
  Ti  Ti153  1  0.40476027  0.41033344  0.59389734  1
  Ti  Ti154  1  0.60213353  0.20801916  0.00032005  1
  Ti  Ti155  1  0.40408171  0.78658985  0.20002141  1
  Ti  Ti156  1  0.19781278  0.59919186  0.80793817  1
  Ti  Ti157  1  0.78737253  0.39847243  0.60263403  1
  Ti  Ti158  1  0.69390839  0.69501279  0.71326977  1
  Ti  Ti159  1  0.50258351  0.10548705  0.29728530  1
  Ti  Ti160  1  0.59865740  0.20528264  0.80495989  1
  Ti  Ti161  1  0.19752635  0.59760039  -0.00173192  1
  Ti  Ti162  1  0.19990576  0.60256505  0.59448818  1
  Ti  Ti163  1  0.20077215  0.00466552  0.00619705  1
  Ti  Ti164  1  0.59733701  0.60209942  0.60395501  1
  Ti  Ti165  1  0.50437621  0.50165771  0.69466002  1
  Ti  Ti166  1  0.09460963  0.69830478  0.50237997  1
  Ti  Ti167  1  0.49928158  0.29835866  0.09740863  1
  Ti  Ti168  1  0.30017644  0.10723849  0.09953125  1
  Ti  Ti169  1  0.89784337  0.69675976  0.09794005  1
  Ti  Ti170  1  0.30615602  0.90021907  0.70378219  1
  Ti  Ti171  1  0.81038643  -0.00167735  0.20665292  1
  Ti  Ti172  1  0.90244696  0.10014502  0.10283369  1
  Ti  Ti173  1  0.49130656  0.68968777  0.50181383  1
  Ti  Ti174  1  0.70731343  0.90688479  0.50349564  1
  Ti  Ti175  1  0.46699027  0.92036683  0.49665870  1
  Ti  Ti176  1  0.20027243  0.59220316  0.19674504  1
  Ti  Ti177  1  0.59915969  0.39933506  0.59891334  1
  Ti  Ti178  1  0.29440044  0.50131153  0.09759338  1
  Ti  Ti179  1  0.10515127  0.29683678  0.30148230  1
  Ti  Ti180  1  0.79737841  0.59844252  0.79858464  1
  Ti  Ti181  1  0.20841946  0.40122228  0.00269449  1
  Ti  Ti182  1  0.49975184  0.90135623  0.10758923  1
  Ti  Ti183  1  0.28837081  0.09916901  0.29541746  1
  Ti  Ti184  1  0.59651694  0.60630550  0.19524143  1
  Ti  Ti185  1  0.10839395  0.50347336  0.90266256  1
  Ti  Ti186  1  0.20038423  0.79814898  0.00544708  1
  Ti  Ti187  1  0.00064336  0.79046943  -0.00092191  1
  Ti  Ti188  1  0.89018792  0.70590468  0.90006391  1
  Ti  Ti189  1  0.09436452  0.49977501  0.50251959  1
  Ti  Ti190  1  0.00092223  0.79246173  0.81156215  1
  Ti  Ti191  1  0.70621569  0.69083808  0.29084918  1
  Ti  Ti192  1  0.60048602  0.20709484  0.20199701  1
  Ti  Ti193  1  0.40037059  0.01268466  0.20033456  1
  Ti  Ti194  1  0.70006584  0.30371985  0.70295151  1
  Ti  Ti195  1  0.89879490  0.88669378  0.90741483  1
  Ti  Ti196  1  0.01083889  0.41254859  0.79843821  1
  Ti  Ti197  1  0.20010198  0.40720486  0.59542897  1
  Ti  Ti198  1  0.29638595  0.69344821  0.10182757  1
  Ti  Ti199  1  0.70165668  0.49992397  0.70322397  1
  Mo  Mo200  1  0.80385413  0.40140576  0.39950503  1
  Mo  Mo201  1  0.00261835  0.01825364  0.18912519  1
  Mo  Mo202  1  0.71024596  0.30001446  0.50512638  1
  Mo  Mo203  1  0.89340742  0.08737768  0.69684640  1
  Mo  Mo204  1  0.69624467  0.30244732  0.09759180  1
  Mo  Mo205  1  0.20230784  0.20655131  0.39537493  1
  Mo  Mo206  1  0.11014421  0.10796325  0.09824372  1
  Mo  Mo207  1  0.89868743  0.50702708  0.70219834  1
  Mo  Mo208  1  0.09585343  0.90005687  0.50407100  1
  Mo  Mo209  1  0.59104729  0.19679154  0.39331252  1
  Mo  Mo210  1  0.29922640  0.50513437  0.29785905  1
  Mo  Mo211  1  0.50386021  0.11740528  0.90349915  1
  Mo  Mo212  1  0.90109838  0.31623247  0.30079504  1
  Mo  Mo213  1  0.90020623  0.09735309  0.51195505  1
  Mo  Mo214  1  0.01403273  0.40849087  0.59952000  1
  Mo  Mo215  1  0.48886852  0.69702167  0.29699766  1
  Mo  Mo216  1  0.79605577  0.60082010  0.19135352  1
  Mo  Mo217  1  0.60112805  0.59195729  0.78568211  1
  Mo  Mo218  1  0.00048968  0.77890525  0.19555178  1
  Mo  Mo219  1  0.30043535  0.30761304  0.90629102  1
  Mo  Mo220  1  0.09494660  0.69370570  0.90459413  1
  Mo  Mo221  1  0.60231620  0.59556013  0.00815287  1
  Mo  Mo222  1  0.78986478  0.39905051  0.00601678  1
  Mo  Mo223  1  0.39969174  0.20705722  0.00604135  1
  Mo  Mo224  1  0.78512956  0.40076405  0.79124187  1
  Mo  Mo225  1  0.30214541  0.30330813  0.09819513  1
  Mo  Mo226  1  0.89227977  0.50187340  0.10106260  1
  Mo  Mo227  1  0.50344496  0.69457809  0.69586297  1
  Mo  Mo228  1  0.11170744  0.50424062  0.09650871  1
  Mo  Mo229  1  0.00573754  0.20858186  0.39417089  1
  Mo  Mo230  1  0.70688211  0.69321607  0.89695654  1
  Mo  Mo231  1  0.29422369  0.89631989  0.49468413  1
  Mo  Mo232  1  0.80502776  0.00027945  0.59855370  1
  Mo  Mo233  1  0.69917835  0.69139994  0.51058391  1
  Mo  Mo234  1  0.59837040  0.39537135  0.00377481  1
  Mo  Mo235  1  0.19814080  0.41691807  0.19719414  1
  Mo  Mo236  1  0.40038956  0.00126208  0.37574919  1
  Mo  Mo237  1  0.89749033  0.89858452  0.51211273  1
  Mo  Mo238  1  0.20447424  0.18950814  0.19478317  1
  Mo  Mo239  1  0.90793978  0.08859352  0.28534201  1
  Mo  Mo240  1  0.89620435  0.89799238  0.28958629  1
  Mo  Mo241  1  0.40363268  0.79311193  0.79782802  1
  Mo  Mo242  1  0.79805247  0.79040143  0.80537722  1
  Mo  Mo243  1  0.50147978  0.68721846  0.10351198  1
  Mo  Mo244  1  0.59489425  0.79175926  0.02089862  1
  Mo  Mo245  1  0.59916113  0.78525317  0.78245098  1
  Mo  Mo246  1  0.81228615  0.79194797  0.00261201  1
  Mo  Mo247  1  0.10492490  0.89772049  0.09221879  1
  Mo  Mo248  1  0.49380125  0.50283723  0.50683776  1
  Mo  Mo249  1  0.39398191  -0.00565292  0.61380737  1
