# generated using pymatgen
data_HfZrTaTiMo
_symmetry_space_group_name_H-M   'P 1'
_cell_length_a   16.88892937
_cell_length_b   16.88171086
_cell_length_c   16.89200983
_cell_angle_alpha   90.01181183
_cell_angle_beta   89.98793985
_cell_angle_gamma   89.98207421
_symmetry_Int_Tables_number   1
_chemical_formula_structural   HfZrTaTiMo
_chemical_formula_sum   'Hf50 Zr50 Ta50 Ti50 Mo50'
_cell_volume   4816.14842355
_cell_formula_units_Z   50
loop_
 _symmetry_equiv_pos_site_id
 _symmetry_equiv_pos_as_xyz
  1  'x, y, z'
loop_
 _atom_site_type_symbol
 _atom_site_label
 _atom_site_symmetry_multiplicity
 _atom_site_fract_x
 _atom_site_fract_y
 _atom_site_fract_z
 _atom_site_occupancy
  Hf  Hf0  1  0.29993980  0.50077652  0.70055689  1
  Hf  Hf1  1  0.09831556  0.50209785  0.30737784  1
  Hf  Hf2  1  0.19675466  -0.00362892  0.00789269  1
  Hf  Hf3  1  0.09664662  0.89233229  0.89103830  1
  Hf  Hf4  1  0.40062612  0.20010091  0.20071380  1
  Hf  Hf5  1  0.30069069  0.30597489  0.89380649  1
  Hf  Hf6  1  0.70356609  0.10337675  0.09862607  1
  Hf  Hf7  1  0.50498192  0.30216571  0.50008137  1
  Hf  Hf8  1  0.80638329  0.80225160  0.78944759  1
  Hf  Hf9  1  0.49590876  0.50336065  0.88936556  1
  Hf  Hf10  1  0.30293125  0.10449218  0.09635482  1
  Hf  Hf11  1  0.80198183  0.80109507  0.21237061  1
  Hf  Hf12  1  0.39905019  0.40301060  -0.00053930  1
  Hf  Hf13  1  -0.00402969  -0.00223624  0.78600833  1
  Hf  Hf14  1  0.69219953  0.70078373  0.69608681  1
  Hf  Hf15  1  0.00042343  0.00586402  0.00237226  1
  Hf  Hf16  1  0.89722797  0.68762533  0.10476433  1
  Hf  Hf17  1  0.00855240  0.20027471  0.39926306  1
  Hf  Hf18  1  0.49907109  0.30094514  0.88909824  1
  Hf  Hf19  1  0.49980061  0.89668992  0.10968169  1
  Hf  Hf20  1  0.70000823  0.89956240  0.10085663  1
  Hf  Hf21  1  0.80499853  0.59676802  0.60124559  1
  Hf  Hf22  1  0.69227300  0.09194946  0.69402822  1
  Hf  Hf23  1  0.60861795  0.40180556  -0.00352649  1
  Hf  Hf24  1  0.39651142  -0.00467108  0.78751039  1
  Hf  Hf25  1  0.59274761  0.78558302  0.01199226  1
  Hf  Hf26  1  0.00202729  -0.00044378  0.20391381  1
  Hf  Hf27  1  0.19257642  0.20176437  0.19977050  1
  Hf  Hf28  1  0.49569938  0.69843235  0.49645550  1
  Hf  Hf29  1  0.90202569  0.08348546  0.49035508  1
  Hf  Hf30  1  0.80245785  0.40151924  0.19806904  1
  Hf  Hf31  1  0.30137615  0.69558963  0.31151428  1
  Hf  Hf32  1  0.60806443  0.19885644  0.39737182  1
  Hf  Hf33  1  0.70185805  0.70806945  0.50524233  1
  Hf  Hf34  1  0.19689421  0.60047172  0.20513796  1
  Hf  Hf35  1  0.69796785  0.29796576  0.70192503  1
  Hf  Hf36  1  0.20161173  0.79649768  -0.00103935  1
  Hf  Hf37  1  0.29539520  0.69852078  0.09933708  1
  Hf  Hf38  1  0.29110289  0.10355656  0.50548521  1
  Hf  Hf39  1  0.89759670  0.90312079  0.89629735  1
  Hf  Hf40  1  0.50294433  0.30676266  0.29714883  1
  Hf  Hf41  1  0.19655499  -0.00699395  0.40105721  1
  Hf  Hf42  1  0.79790802  0.78662819  -0.00925308  1
  Hf  Hf43  1  0.80745126  0.80971499  0.40059399  1
  Hf  Hf44  1  0.50125227  0.29969699  0.10419705  1
  Hf  Hf45  1  0.29584090  0.10116514  0.30510243  1
  Hf  Hf46  1  0.29736798  0.30797401  0.30430163  1
  Hf  Hf47  1  0.79855789  0.00103035  0.21141538  1
  Hf  Hf48  1  0.59841248  0.60780166  0.19867235  1
  Hf  Hf49  1  0.40216466  0.59977056  0.19999574  1
  Zr  Zr50  1  0.39851052  0.39113990  0.60256406  1
  Zr  Zr51  1  0.00465921  0.81848616  0.41284004  1
  Zr  Zr52  1  0.30084380  0.10494076  0.90115327  1
  Zr  Zr53  1  0.00185093  -0.01979764  0.59377611  1
  Zr  Zr54  1  0.50554413  0.90509828  0.49943535  1
  Zr  Zr55  1  0.49937443  0.49925008  0.70228539  1
  Zr  Zr56  1  0.77729088  0.21132136  0.20735967  1
  Zr  Zr57  1  0.91315737  0.69954376  0.50555236  1
  Zr  Zr58  1  0.00339642  0.79284673  -0.00334905  1
  Zr  Zr59  1  0.00839465  0.39864234  0.40584774  1
  Zr  Zr60  1  0.80313251  0.19415246  0.79915644  1
  Zr  Zr61  1  0.69917662  0.90193275  0.89275607  1
  Zr  Zr62  1  0.50139819  0.90033476  0.30888554  1
  Zr  Zr63  1  0.49893146  0.10190182  0.30459890  1
  Zr  Zr64  1  0.61039089  0.20976585  0.00031603  1
  Zr  Zr65  1  0.92048684  0.69933287  0.69992978  1
  Zr  Zr66  1  0.49946445  0.49165338  0.29990764  1
  Zr  Zr67  1  0.89231814  0.90260949  0.09375133  1
  Zr  Zr68  1  0.68158576  0.69710408  0.88491445  1
  Zr  Zr69  1  0.59234826  0.00258671  0.00497914  1
  Zr  Zr70  1  0.80279712  0.19212481  0.59913368  1
  Zr  Zr71  1  -0.00716251  0.80661278  0.21383538  1
  Zr  Zr72  1  0.20031812  -0.00771058  0.78920699  1
  Zr  Zr73  1  -0.00450341  0.41041597  -0.00633740  1
  Zr  Zr74  1  0.19599767  0.39854856  0.19015004  1
  Zr  Zr75  1  0.90175866  0.30282345  0.50099484  1
  Zr  Zr76  1  0.80547977  0.59918845  0.80372050  1
  Zr  Zr77  1  0.19943703  0.79909571  0.40632115  1
  Zr  Zr78  1  0.10854707  0.10491870  0.68714051  1
  Zr  Zr79  1  0.70727047  0.09598727  0.89790258  1
  Zr  Zr80  1  0.39859795  0.20246144  0.78579997  1
  Zr  Zr81  1  0.69884257  0.50100425  0.50296544  1
  Zr  Zr82  1  0.19188074  0.60419959  0.41800532  1
  Zr  Zr83  1  0.09610687  0.30199408  0.89364777  1
  Zr  Zr84  1  0.89281988  0.30992123  0.89245823  1
  Zr  Zr85  1  0.19171478  0.20593814  0.00282703  1
  Zr  Zr86  1  0.78901228  0.19770486  0.40006798  1
  Zr  Zr87  1  0.59085920  0.60076395  0.00229170  1
  Zr  Zr88  1  0.71128714  0.50935422  0.09815416  1
  Zr  Zr89  1  -0.00252351  0.40134111  0.19468404  1
  Zr  Zr90  1  -0.00827193  0.18928206  0.79517777  1
  Zr  Zr91  1  0.60110653  0.60307271  0.39712006  1
  Zr  Zr92  1  0.49755503  0.10598886  0.89713546  1
  Zr  Zr93  1  0.09491113  0.69755716  0.10612008  1
  Zr  Zr94  1  0.38482466  0.80752881  0.20347270  1
  Zr  Zr95  1  0.90327146  0.10526351  0.29921523  1
  Zr  Zr96  1  0.39554206  0.80074945  0.60836159  1
  Zr  Zr97  1  0.91210565  0.49713271  0.71012935  1
  Zr  Zr98  1  0.30352862  0.89481400  0.89995557  1
  Zr  Zr99  1  0.50271955  0.89054298  0.89368409  1
  Ta  Ta100  1  0.19740544  0.59908911  0.80183807  1
  Ta  Ta101  1  0.60248907  0.40047093  0.60058561  1
  Ta  Ta102  1  0.69753864  0.49829732  0.70438405  1
  Ta  Ta103  1  0.40035421  0.00355227  0.59987008  1
  Ta  Ta104  1  0.00776681  0.40417665  0.60149018  1
  Ta  Ta105  1  0.09829405  0.50771492  0.09151771  1
  Ta  Ta106  1  0.19247907  0.40924973  0.79683196  1
  Ta  Ta107  1  0.40105155  -0.00381811  0.01071075  1
  Ta  Ta108  1  0.80113975  0.40202702  0.39888187  1
  Ta  Ta109  1  0.90944761  0.50374755  0.49971154  1
  Ta  Ta110  1  0.30106569  0.50351944  0.89690933  1
  Ta  Ta111  1  0.30323783  0.90078342  0.50370339  1
  Ta  Ta112  1  0.90654052  0.68835077  0.30809472  1
  Ta  Ta113  1  -0.00113171  0.19885539  0.59867064  1
  Ta  Ta114  1  0.39480247  0.40007828  0.40676034  1
  Ta  Ta115  1  0.29686460  0.10436656  0.68811980  1
  Ta  Ta116  1  0.59832230  0.01046511  0.20354107  1
  Ta  Ta117  1  0.90428071  0.30797664  0.69924576  1
  Ta  Ta118  1  0.69218130  0.90560178  0.30759639  1
  Ta  Ta119  1  0.28702919  0.30000602  0.69638942  1
  Ta  Ta120  1  0.30168690  0.49700936  0.30627690  1
  Ta  Ta121  1  0.09854703  0.09870858  0.89817472  1
  Ta  Ta122  1  0.90254147  0.30070187  0.29576344  1
  Ta  Ta123  1  0.20650197  -0.00999857  0.19970640  1
  Ta  Ta124  1  0.09785669  0.30363311  0.69797829  1
  Ta  Ta125  1  0.80269134  0.40354897  0.60300163  1
  Ta  Ta126  1  0.80305749  0.59929256  0.40260103  1
  Ta  Ta127  1  0.69946022  0.90634275  0.50405107  1
  Ta  Ta128  1  0.40148659  0.19865164  0.59589118  1
  Ta  Ta129  1  0.70638265  0.50267710  0.29917807  1
  Ta  Ta130  1  0.10028801  0.69063362  0.69763470  1
  Ta  Ta131  1  0.39534250  0.79412639  0.79186483  1
  Ta  Ta132  1  0.39546152  -0.00051941  0.19936548  1
  Ta  Ta133  1  0.89980372  0.50419797  0.30548374  1
  Ta  Ta134  1  -0.00907103  0.19359380  -0.00431300  1
  Ta  Ta135  1  0.39926737  0.20408317  0.40920497  1
  Ta  Ta136  1  0.10289957  0.09720654  0.50065022  1
  Ta  Ta137  1  0.19361429  0.59920811  -0.01128462  1
  Ta  Ta138  1  0.40195450  0.79247085  0.00274818  1
  Ta  Ta139  1  0.49451701  0.70434452  0.30607018  1
  Ta  Ta140  1  0.49453977  0.50052108  0.49878887  1
  Ta  Ta141  1  0.50535499  0.10092705  0.69107804  1
  Ta  Ta142  1  0.30117897  0.50492868  0.50217906  1
  Ta  Ta143  1  0.89401125  0.29041042  0.09496123  1
  Ta  Ta144  1  0.29834230  0.50193716  0.09607192  1
  Ta  Ta145  1  0.19394415  0.40788853  0.59878150  1
  Ta  Ta146  1  0.20128870  0.79217920  0.79005416  1
  Ta  Ta147  1  0.30313791  0.69494256  0.89608986  1
  Ta  Ta148  1  0.49517423  0.49184092  0.10764208  1
  Ta  Ta149  1  0.19956227  0.79473685  0.59875287  1
  Ti  Ti150  1  0.50910085  0.29457548  0.69981957  1
  Ti  Ti151  1  0.01667394  0.58710783  0.81756670  1
  Ti  Ti152  1  0.60685540  0.39704691  0.80015021  1
  Ti  Ti153  1  0.81269411  0.00256181  0.78363634  1
  Ti  Ti154  1  0.09436257  0.10457450  0.10505808  1
  Ti  Ti155  1  0.61918659  0.38978311  0.19370777  1
  Ti  Ti156  1  0.70073782  0.30511764  0.50497280  1
  Ti  Ti157  1  0.69496717  0.90093160  0.69533409  1
  Ti  Ti158  1  0.60589789  0.01246288  0.40919094  1
  Ti  Ti159  1  0.59858225  0.19092094  0.58764407  1
  Ti  Ti160  1  0.39163907  0.80248892  0.40565451  1
  Ti  Ti161  1  0.19679655  0.40666748  -0.00293524  1
  Ti  Ti162  1  0.60057374  0.79204939  0.20614638  1
  Ti  Ti163  1  0.49631774  0.70084445  0.88636414  1
  Ti  Ti164  1  0.59491619  0.59527706  0.60037439  1
  Ti  Ti165  1  0.79540742  0.39891899  -0.00586888  1
  Ti  Ti166  1  0.60522983  0.79876451  0.39869816  1
  Ti  Ti167  1  0.70635268  0.69727906  0.30226697  1
  Ti  Ti168  1  0.81311157  0.81308414  0.60080400  1
  Ti  Ti169  1  0.91871504  0.69479675  0.89421611  1
  Ti  Ti170  1  0.39637407  0.00292612  0.40576465  1
  Ti  Ti171  1  0.40373347  0.60456079  0.00294541  1
  Ti  Ti172  1  0.19533821  0.20542738  0.40163794  1
  Ti  Ti173  1  0.10645931  0.29617752  0.50976813  1
  Ti  Ti174  1  0.19818333  0.40286961  0.41173855  1
  Ti  Ti175  1  0.09964693  0.09816212  0.29971687  1
  Ti  Ti176  1  0.39478195  0.60537670  0.59446024  1
  Ti  Ti177  1  0.08451272  0.29707321  0.09678030  1
  Ti  Ti178  1  -0.00132413  0.59503776  0.20477056  1
  Ti  Ti179  1  0.50510498  0.90203327  0.69707800  1
  Ti  Ti180  1  0.50678745  0.69695607  0.70469059  1
  Ti  Ti181  1  0.10667276  0.89856679  0.29691429  1
  Ti  Ti182  1  0.59672832  0.80474580  0.60112869  1
  Ti  Ti183  1  0.29320806  0.69250586  0.69614574  1
  Ti  Ti184  1  0.71103654  0.69449212  0.10642516  1
  Ti  Ti185  1  0.89319806  0.10845497  0.09868587  1
  Ti  Ti186  1  0.09648534  0.30048319  0.29588655  1
  Ti  Ti187  1  0.59473653  -0.00131965  0.79428316  1
  Ti  Ti188  1  0.29304737  0.29985678  0.50392186  1
  Ti  Ti189  1  0.60688318  0.40140351  0.40249619  1
  Ti  Ti190  1  0.39667512  0.60627681  0.79586449  1
  Ti  Ti191  1  0.19738690  0.20069434  0.79611808  1
  Ti  Ti192  1  0.80289024  -0.00700447  0.59999475  1
  Ti  Ti193  1  0.80785936  0.59773911  -0.01498876  1
  Ti  Ti194  1  0.10514742  0.89179177  0.10974615  1
  Ti  Ti195  1  0.89996938  0.50939227  0.09593142  1
  Ti  Ti196  1  0.70356994  0.49822120  0.88904156  1
  Ti  Ti197  1  0.30480685  0.30307243  0.09625132  1
  Ti  Ti198  1  0.09227645  0.70102218  0.30574450  1
  Ti  Ti199  1  0.20085197  -0.01729606  0.60312500  1
  Mo  Mo200  1  0.59884344  0.20134545  0.20163485  1
  Mo  Mo201  1  0.10316622  0.50158331  0.50788500  1
  Mo  Mo202  1  0.20335770  0.60146533  0.60654943  1
  Mo  Mo203  1  0.10612861  0.69627094  0.89055595  1
  Mo  Mo204  1  0.38846266  0.40347203  0.19826319  1
  Mo  Mo205  1  0.69726599  0.08771040  0.50427745  1
  Mo  Mo206  1  0.69686174  0.31792353  0.30720379  1
  Mo  Mo207  1  0.10335797  0.50030497  0.70230334  1
  Mo  Mo208  1  0.30329311  0.69951240  0.50793466  1
  Mo  Mo209  1  0.19444790  0.80342190  0.20876814  1
  Mo  Mo210  1  0.09987033  0.69918035  0.51433228  1
  Mo  Mo211  1  0.10590883  0.49871078  0.90055384  1
  Mo  Mo212  1  0.78734807  -0.00178631  0.40274155  1
  Mo  Mo213  1  0.70523138  0.30386931  0.09329162  1
  Mo  Mo214  1  0.29996353  0.90019545  0.10106245  1
  Mo  Mo215  1  0.69138055  0.09137774  0.30207660  1
  Mo  Mo216  1  0.29873401  0.89692896  0.69457585  1
  Mo  Mo217  1  0.59643644  0.59733987  0.79377482  1
  Mo  Mo218  1  0.00158295  0.20162107  0.19343223  1
  Mo  Mo219  1  0.70267559  0.30741996  0.89348297  1
  Mo  Mo220  1  0.58978997  0.80283325  0.78188924  1
  Mo  Mo221  1  0.59863446  0.20080268  0.79160893  1
  Mo  Mo222  1  0.89892996  0.09173480  0.90709717  1
  Mo  Mo223  1  0.49554300  0.10276401  0.50268371  1
  Mo  Mo224  1  0.89880287  0.91823057  0.31722343  1
  Mo  Mo225  1  0.40453518  0.20117271  0.00693404  1
  Mo  Mo226  1  0.11165363  0.89836869  0.50625147  1
  Mo  Mo227  1  0.59679814  -0.00318062  0.59994090  1
  Mo  Mo228  1  0.00006243  0.59927678  0.40344672  1
  Mo  Mo229  1  0.19965849  0.21183067  0.59536972  1
  Mo  Mo230  1  -0.00091167  0.59753146  -0.00558152  1
  Mo  Mo231  1  0.80353440  0.60072321  0.21285129  1
  Mo  Mo232  1  0.89973405  0.50266427  0.90291699  1
  Mo  Mo233  1  0.49126219  0.70036020  0.11012082  1
  Mo  Mo234  1  0.79385488  0.40238868  0.79749058  1
  Mo  Mo235  1  0.89809373  0.09464609  0.68574759  1
  Mo  Mo236  1  0.00593278  0.40163410  0.79478642  1
  Mo  Mo237  1  0.80632883  0.00706622  0.00148041  1
  Mo  Mo238  1  0.89952252  0.89565071  0.69712347  1
  Mo  Mo239  1  0.00681584  0.79754911  0.79452604  1
  Mo  Mo240  1  0.89305311  0.90079054  0.50287327  1
  Mo  Mo241  1  0.30041054  0.90500221  0.30607943  1
  Mo  Mo242  1  0.80464228  0.20370237  -0.00028191  1
  Mo  Mo243  1  0.39791938  0.59381202  0.40306838  1
  Mo  Mo244  1  0.38789787  0.39897469  0.79871773  1
  Mo  Mo245  1  0.49674983  0.10156992  0.10348933  1
  Mo  Mo246  1  0.01491991  0.00050871  0.39702303  1
  Mo  Mo247  1  0.10123581  0.88232174  0.69788914  1
  Mo  Mo248  1  0.01590954  0.59315509  0.59565891  1
  Mo  Mo249  1  0.01186551  0.79778529  0.60316396  1
