# generated using pymatgen
data_HfZrTaTiMo
_symmetry_space_group_name_H-M   'P 1'
_cell_length_a   16.88857278
_cell_length_b   16.88604620
_cell_length_c   16.88092854
_cell_angle_alpha   89.92718238
_cell_angle_beta   90.00880366
_cell_angle_gamma   89.98410411
_symmetry_Int_Tables_number   1
_chemical_formula_structural   HfZrTaTiMo
_chemical_formula_sum   'Hf50 Zr50 Ta50 Ti50 Mo50'
_cell_volume   4814.11967232
_cell_formula_units_Z   50
loop_
 _symmetry_equiv_pos_site_id
 _symmetry_equiv_pos_as_xyz
  1  'x, y, z'
loop_
 _atom_site_type_symbol
 _atom_site_label
 _atom_site_symmetry_multiplicity
 _atom_site_fract_x
 _atom_site_fract_y
 _atom_site_fract_z
 _atom_site_occupancy
  Hf  Hf0  1  0.90082120  0.30245301  0.09551422  1
  Hf  Hf1  1  0.50098273  0.89615670  0.90620123  1
  Hf  Hf2  1  0.69825188  0.69464824  0.29769714  1
  Hf  Hf3  1  0.38349966  0.60450347  0.00416914  1
  Hf  Hf4  1  0.40401934  0.60089427  0.39937324  1
  Hf  Hf5  1  0.09371476  0.69735510  0.50114820  1
  Hf  Hf6  1  0.39846077  0.40001030  0.39533018  1
  Hf  Hf7  1  0.29371512  0.70600013  0.29938697  1
  Hf  Hf8  1  0.30484772  0.30732256  0.89407099  1
  Hf  Hf9  1  0.91182869  0.49766777  0.08950285  1
  Hf  Hf10  1  0.30393349  0.90222966  0.49637188  1
  Hf  Hf11  1  0.10232270  0.09165323  0.10351190  1
  Hf  Hf12  1  0.09525805  0.30576398  0.10165600  1
  Hf  Hf13  1  -0.01046208  0.79931307  0.39788760  1
  Hf  Hf14  1  0.80166130  -0.00092951  0.79887716  1
  Hf  Hf15  1  0.40755748  0.19476126  0.40028270  1
  Hf  Hf16  1  0.21524211  0.59023872  0.59635836  1
  Hf  Hf17  1  0.40296652  0.01251825  0.59626313  1
  Hf  Hf18  1  0.28816467  0.89977784  0.90725372  1
  Hf  Hf19  1  0.80319713  0.18801855  0.58732289  1
  Hf  Hf20  1  0.60879130  0.60309295  0.80195515  1
  Hf  Hf21  1  0.09148473  0.90940310  0.49697867  1
  Hf  Hf22  1  0.00639487  -0.00598839  0.79410673  1
  Hf  Hf23  1  0.70774756  0.30642556  0.49280170  1
  Hf  Hf24  1  0.19145676  -0.00326176  0.79603836  1
  Hf  Hf25  1  0.80872957  0.18990717  0.20430762  1
  Hf  Hf26  1  0.71253172  0.29339759  0.09606305  1
  Hf  Hf27  1  0.50794512  0.50165707  0.49345870  1
  Hf  Hf28  1  0.50185399  0.89812491  0.10229766  1
  Hf  Hf29  1  0.79836980  0.78938209  0.40141043  1
  Hf  Hf30  1  0.29225563  0.29340860  0.49879594  1
  Hf  Hf31  1  -0.00093683  0.78731385  0.00159054  1
  Hf  Hf32  1  0.39749682  0.60207898  0.19630850  1
  Hf  Hf33  1  0.40337029  0.40177117  0.20292863  1
  Hf  Hf34  1  0.60480551  0.19529466  0.40283073  1
  Hf  Hf35  1  0.28286567  0.71094757  0.90269533  1
  Hf  Hf36  1  0.38845516  0.41067988  0.59445320  1
  Hf  Hf37  1  0.29216906  0.90052754  0.10051882  1
  Hf  Hf38  1  0.39464504  0.01069592  0.80251043  1
  Hf  Hf39  1  0.19638084  0.19286008  0.80392306  1
  Hf  Hf40  1  0.70021980  0.71073381  0.08948807  1
  Hf  Hf41  1  0.39805996  0.79448733  0.19892418  1
  Hf  Hf42  1  0.90329352  0.89532710  0.90518532  1
  Hf  Hf43  1  0.39863686  0.19168658  0.00034170  1
  Hf  Hf44  1  0.19348975  0.80568001  0.60603578  1
  Hf  Hf45  1  0.80440423  -0.01196646  0.01398093  1
  Hf  Hf46  1  0.18923249  0.60208676  0.19169639  1
  Hf  Hf47  1  0.90056488  0.29515251  0.90150120  1
  Hf  Hf48  1  0.19592744  0.39788825  0.59588440  1
  Hf  Hf49  1  0.20227259  0.00060933  0.21028911  1
  Zr  Zr50  1  0.61547748  0.41049493  0.20075328  1
  Zr  Zr51  1  0.49678736  0.89528209  0.30215639  1
  Zr  Zr52  1  -0.00720682  0.61197230  0.81118670  1
  Zr  Zr53  1  0.60757679  0.40192065  0.80458813  1
  Zr  Zr54  1  0.50539756  0.51106805  0.09608305  1
  Zr  Zr55  1  0.61097612  -0.00256219  0.80370346  1
  Zr  Zr56  1  0.59328637  0.01482812  0.40206218  1
  Zr  Zr57  1  0.49805623  0.30281428  0.70027928  1
  Zr  Zr58  1  0.10195375  0.69719205  0.70148321  1
  Zr  Zr59  1  0.00075575  0.39405123  0.39597906  1
  Zr  Zr60  1  0.19635306  0.80427036  0.39907468  1
  Zr  Zr61  1  0.70187049  0.91023819  0.50292065  1
  Zr  Zr62  1  0.50685140  0.30185142  0.50469836  1
  Zr  Zr63  1  0.49833668  0.89483425  0.49968249  1
  Zr  Zr64  1  0.60843095  0.40744871  -0.00062049  1
  Zr  Zr65  1  0.89413469  0.91200724  0.30767789  1
  Zr  Zr66  1  0.29090259  0.30300033  0.10509861  1
  Zr  Zr67  1  0.40048678  0.19264545  0.20354681  1
  Zr  Zr68  1  0.39494171  0.40688348  -0.00018959  1
  Zr  Zr69  1  0.50974242  0.69827824  0.91547806  1
  Zr  Zr70  1  0.09059966  0.50043928  0.49942033  1
  Zr  Zr71  1  0.00586911  0.19284379  -0.00071967  1
  Zr  Zr72  1  0.89625455  0.49402409  0.69798033  1
  Zr  Zr73  1  0.50500850  0.10377069  0.89865261  1
  Zr  Zr74  1  -0.00115904  0.00715263  0.59714155  1
  Zr  Zr75  1  0.70162612  0.90541899  0.30471537  1
  Zr  Zr76  1  0.09239367  0.50121202  0.70106018  1
  Zr  Zr77  1  0.19419066  0.40210436  0.80580445  1
  Zr  Zr78  1  0.39954373  0.01410190  0.39604560  1
  Zr  Zr79  1  0.60228128  0.78295425  0.60007525  1
  Zr  Zr80  1  0.70881886  0.30004630  0.69160102  1
  Zr  Zr81  1  0.50754272  0.29635392  0.10208657  1
  Zr  Zr82  1  0.60624437  -0.00235275  0.01131366  1
  Zr  Zr83  1  0.70985581  0.49592280  0.69361589  1
  Zr  Zr84  1  0.70649467  0.90070658  0.69048782  1
  Zr  Zr85  1  0.29202477  0.49695058  0.29679786  1
  Zr  Zr86  1  0.71161231  0.29586757  0.90809364  1
  Zr  Zr87  1  0.40803479  0.79317185  0.79543254  1
  Zr  Zr88  1  0.20371095  0.19370440  -0.00519184  1
  Zr  Zr89  1  0.29936365  0.89905081  0.69904829  1
  Zr  Zr90  1  0.80644620  0.60138309  0.19658926  1
  Zr  Zr91  1  0.30523913  0.70305167  0.49669916  1
  Zr  Zr92  1  0.50921233  0.90600037  0.69606618  1
  Zr  Zr93  1  0.09549679  0.90236192  0.29691693  1
  Zr  Zr94  1  0.49859350  0.50076402  0.70055333  1
  Zr  Zr95  1  0.71106745  0.10733714  0.91122453  1
  Zr  Zr96  1  0.39564191  0.60274289  0.80257271  1
  Zr  Zr97  1  0.08643407  0.29139599  0.70048081  1
  Zr  Zr98  1  -0.01336924  0.60216161  0.38946601  1
  Zr  Zr99  1  0.80478983  0.79123296  0.80494029  1
  Ta  Ta100  1  0.60604380  0.20118086  0.79677150  1
  Ta  Ta101  1  0.40760904  0.78435810  0.60270561  1
  Ta  Ta102  1  0.89253186  0.90771144  0.50426165  1
  Ta  Ta103  1  0.29351878  0.10856269  0.69366352  1
  Ta  Ta104  1  0.49211721  0.49763782  0.89781484  1
  Ta  Ta105  1  0.79590625  0.60163571  0.59102622  1
  Ta  Ta106  1  0.89683957  0.29690365  0.30173591  1
  Ta  Ta107  1  0.60536597  0.60207356  0.59090024  1
  Ta  Ta108  1  0.90601076  0.10634176  0.69981304  1
  Ta  Ta109  1  0.19559627  0.59329243  0.39800577  1
  Ta  Ta110  1  0.59774560  0.78290536  0.40670246  1
  Ta  Ta111  1  0.08865742  0.50248006  0.91185153  1
  Ta  Ta112  1  0.28392825  0.10749547  0.50477318  1
  Ta  Ta113  1  0.18472708  0.20211026  0.39709192  1
  Ta  Ta114  1  0.80179792  0.40553421  0.19969821  1
  Ta  Ta115  1  0.28328326  0.49778479  0.09867282  1
  Ta  Ta116  1  0.08828213  0.09747195  0.30610449  1
  Ta  Ta117  1  0.30089446  0.49729942  0.71281902  1
  Ta  Ta118  1  0.80458308  0.19416013  0.79513739  1
  Ta  Ta119  1  0.89996946  0.29436277  0.69556310  1
  Ta  Ta120  1  -0.00798800  0.80373266  0.60430714  1
  Ta  Ta121  1  0.50824204  0.10866890  0.69577484  1
  Ta  Ta122  1  0.39764843  0.79756670  0.00828898  1
  Ta  Ta123  1  -0.00676268  0.79588010  0.19546337  1
  Ta  Ta124  1  0.80927281  0.80388840  0.19219259  1
  Ta  Ta125  1  0.09543398  0.50077395  0.29403868  1
  Ta  Ta126  1  0.90585605  0.09760944  0.89797560  1
  Ta  Ta127  1  0.89704629  0.69926701  0.50412948  1
  Ta  Ta128  1  0.39400531  0.00620478  0.00386296  1
  Ta  Ta129  1  0.90302153  0.49610251  0.90525340  1
  Ta  Ta130  1  0.19043976  0.19981478  0.21163786  1
  Ta  Ta131  1  0.19142903  0.39430318  0.39665874  1
  Ta  Ta132  1  -0.00811616  -0.00033508  0.19761142  1
  Ta  Ta133  1  0.51495475  0.30225133  0.30165834  1
  Ta  Ta134  1  0.70606692  0.30115033  0.30096702  1
  Ta  Ta135  1  0.60800207  0.79043829  0.80250591  1
  Ta  Ta136  1  0.60874955  0.40605281  0.59260563  1
  Ta  Ta137  1  -0.00945766  0.39288389  0.59346302  1
  Ta  Ta138  1  0.60260893  0.00958020  0.19999448  1
  Ta  Ta139  1  0.49883827  0.30018393  0.89541426  1
  Ta  Ta140  1  0.80181808  0.60354207  0.80615147  1
  Ta  Ta141  1  0.19690711  0.59615761  0.81220148  1
  Ta  Ta142  1  0.89682595  0.29613909  0.49389426  1
  Ta  Ta143  1  0.00727398  0.80379126  0.80037497  1
  Ta  Ta144  1  0.10335809  0.89467782  0.09809982  1
  Ta  Ta145  1  0.39693190  0.19869576  0.79663107  1
  Ta  Ta146  1  -0.00075549  0.60701880  0.19009515  1
  Ta  Ta147  1  0.09653370  0.70090667  0.29275638  1
  Ta  Ta148  1  0.81094066  0.61068340  -0.00631389  1
  Ta  Ta149  1  0.51170935  0.70261024  0.10244129  1
  Ti  Ti150  1  0.70704398  0.69523786  0.69742689  1
  Ti  Ti151  1  0.80563516  0.39786552  0.80442578  1
  Ti  Ti152  1  0.59698642  0.19620002  0.00456450  1
  Ti  Ti153  1  0.71692320  0.50025101  0.90655267  1
  Ti  Ti154  1  0.18254995  0.60437794  0.00246478  1
  Ti  Ti155  1  0.29805858  0.29862407  0.70040716  1
  Ti  Ti156  1  0.70393699  0.10292249  0.10188263  1
  Ti  Ti157  1  0.80074085  0.79292288  0.59492561  1
  Ti  Ti158  1  0.40296024  0.60395581  0.60232423  1
  Ti  Ti159  1  0.69917719  0.50093635  0.48566078  1
  Ti  Ti160  1  0.29121910  0.10667804  0.30562433  1
  Ti  Ti161  1  0.09941155  0.08761736  0.90550507  1
  Ti  Ti162  1  0.89038719  0.49621761  0.50019526  1
  Ti  Ti163  1  0.60724438  0.80631511  0.20069239  1
  Ti  Ti164  1  0.69875023  0.09802818  0.68977892  1
  Ti  Ti165  1  0.40502163  0.01048157  0.19949947  1
  Ti  Ti166  1  0.70096725  0.87670838  0.92029804  1
  Ti  Ti167  1  0.30467432  0.89742019  0.30393515  1
  Ti  Ti168  1  -0.00064985  0.19602747  0.20760443  1
  Ti  Ti169  1  0.29249943  0.29636054  0.30124888  1
  Ti  Ti170  1  0.09598130  0.11185564  0.68864493  1
  Ti  Ti171  1  0.61140070  0.59465057  0.19678399  1
  Ti  Ti172  1  0.51864364  0.50308540  0.30566476  1
  Ti  Ti173  1  0.70732733  0.10141043  0.30288519  1
  Ti  Ti174  1  0.80036791  0.59918906  0.39743941  1
  Ti  Ti175  1  0.09130763  0.30213816  0.90125955  1
  Ti  Ti176  1  0.61554528  0.59588541  -0.00253390  1
  Ti  Ti177  1  0.89763521  0.70037631  0.69496714  1
  Ti  Ti178  1  0.90012368  0.49835381  0.29340913  1
  Ti  Ti179  1  0.80079152  0.40634258  0.38917167  1
  Ti  Ti180  1  0.29301304  0.09431241  0.10107203  1
  Ti  Ti181  1  -0.00391083  0.39825609  0.80258806  1
  Ti  Ti182  1  0.50779033  0.69640778  0.29763269  1
  Ti  Ti183  1  0.19241852  0.00480891  0.60132626  1
  Ti  Ti184  1  0.60224631  0.19157086  0.20277448  1
  Ti  Ti185  1  0.19246146  0.40804702  -0.00218152  1
  Ti  Ti186  1  -0.01213406  0.59956280  0.59906850  1
  Ti  Ti187  1  0.27791402  0.71306895  0.09750554  1
  Ti  Ti188  1  0.18822224  0.39681624  0.20734913  1
  Ti  Ti189  1  0.39738569  0.19980920  0.60168381  1
  Ti  Ti190  1  0.80596318  0.02762892  0.41360979  1
  Ti  Ti191  1  0.19452678  0.01024650  0.40262429  1
  Ti  Ti192  1  0.80117490  0.00012101  0.19633796  1
  Ti  Ti193  1  -0.00795307  0.19094865  0.40140947  1
  Ti  Ti194  1  0.29350295  0.69971402  0.70567337  1
  Ti  Ti195  1  0.90496192  0.09721973  0.09667492  1
  Ti  Ti196  1  0.89673134  0.90083151  0.69315797  1
  Ti  Ti197  1  0.09171907  0.28561734  0.50448108  1
  Ti  Ti198  1  0.00119484  0.40146688  0.20376627  1
  Ti  Ti199  1  0.00429892  -0.01045064  0.00306534  1
  Mo  Mo200  1  0.81176715  0.18460111  0.00572919  1
  Mo  Mo201  1  0.89984491  0.70229754  0.09756541  1
  Mo  Mo202  1  0.29836542  0.49669317  0.49583555  1
  Mo  Mo203  1  0.09606675  0.70057183  0.10049893  1
  Mo  Mo204  1  0.19732655  -0.00119626  0.00018242  1
  Mo  Mo205  1  -0.00755425  0.00744703  0.39992843  1
  Mo  Mo206  1  0.50533327  0.11051747  0.51958910  1
  Mo  Mo207  1  0.60294865  0.01651228  0.59802278  1
  Mo  Mo208  1  0.80453390  0.41202529  0.00217147  1
  Mo  Mo209  1  0.90608492  0.90104026  0.10395929  1
  Mo  Mo210  1  -0.00439415  0.20186859  0.59258195  1
  Mo  Mo211  1  0.90313218  0.10182088  0.30019862  1
  Mo  Mo212  1  0.09891318  0.49669360  0.10121118  1
  Mo  Mo213  1  0.80537917  0.00472785  0.60158470  1
  Mo  Mo214  1  0.50578275  0.10746582  0.28837403  1
  Mo  Mo215  1  0.89816836  0.69973275  0.29590507  1
  Mo  Mo216  1  -0.00062285  0.19108365  0.80202885  1
  Mo  Mo217  1  0.90093819  0.70073104  0.90177338  1
  Mo  Mo218  1  0.40909287  0.79462612  0.39478286  1
  Mo  Mo219  1  0.70140367  0.10252334  0.50326564  1
  Mo  Mo220  1  0.50920381  0.69334290  0.69599697  1
  Mo  Mo221  1  0.28698710  0.50539922  0.90633812  1
  Mo  Mo222  1  0.50167370  0.69235393  0.49859265  1
  Mo  Mo223  1  0.59944847  0.80079536  0.00400813  1
  Mo  Mo224  1  0.09924203  0.69965811  0.90279865  1
  Mo  Mo225  1  0.70492206  0.69767349  0.90217363  1
  Mo  Mo226  1  0.09047039  0.29496684  0.29801362  1
  Mo  Mo227  1  0.19433520  0.19952704  0.59919825  1
  Mo  Mo228  1  0.39576401  0.39842722  0.80049722  1
  Mo  Mo229  1  0.10075327  0.10383513  0.49548687  1
  Mo  Mo230  1  0.71422191  0.50843621  0.09290630  1
  Mo  Mo231  1  0.80221088  0.19998591  0.39299591  1
  Mo  Mo232  1  0.60655731  0.40083728  0.39412427  1
  Mo  Mo233  1  0.18944737  0.80123575  0.00212105  1
  Mo  Mo234  1  0.70320390  0.89918629  0.11239141  1
  Mo  Mo235  1  0.09457257  0.89770877  0.69735356  1
  Mo  Mo236  1  0.70519917  0.68934015  0.49558307  1
  Mo  Mo237  1  0.70852271  0.49983719  0.30376340  1
  Mo  Mo238  1  0.09899727  0.89502087  0.90349426  1
  Mo  Mo239  1  0.90615559  0.10340901  0.49709875  1
  Mo  Mo240  1  0.60786104  0.20238671  0.60223729  1
  Mo  Mo241  1  0.50105648  0.09453212  0.10223739  1
  Mo  Mo242  1  0.00521437  0.39635602  -0.00564956  1
  Mo  Mo243  1  0.18508573  0.79817704  0.80291291  1
  Mo  Mo244  1  0.80508371  0.40263369  0.58256826  1
  Mo  Mo245  1  0.80449243  0.79864766  0.00538714  1
  Mo  Mo246  1  0.60303730  0.59835749  0.39482144  1
  Mo  Mo247  1  0.29925151  0.09785820  0.89443644  1
  Mo  Mo248  1  0.00308573  0.60061189  0.00244765  1
  Mo  Mo249  1  0.19312825  0.80154064  0.19880700  1
