# generated using pymatgen
data_HfZrTaTiMo
_symmetry_space_group_name_H-M   'P 1'
_cell_length_a   16.88514912
_cell_length_b   16.89222089
_cell_length_c   16.88124753
_cell_angle_alpha   90.04152629
_cell_angle_beta   90.00607365
_cell_angle_gamma   89.99045516
_symmetry_Int_Tables_number   1
_chemical_formula_structural   HfZrTaTiMo
_chemical_formula_sum   'Hf50 Zr50 Ta50 Ti50 Mo50'
_cell_volume   4814.99751855
_cell_formula_units_Z   50
loop_
 _symmetry_equiv_pos_site_id
 _symmetry_equiv_pos_as_xyz
  1  'x, y, z'
loop_
 _atom_site_type_symbol
 _atom_site_label
 _atom_site_symmetry_multiplicity
 _atom_site_fract_x
 _atom_site_fract_y
 _atom_site_fract_z
 _atom_site_occupancy
  Hf  Hf0  1  0.80031585  0.00455764  0.40051915  1
  Hf  Hf1  1  0.89835690  0.70593218  0.49394633  1
  Hf  Hf2  1  0.00235895  0.81338781  0.79775695  1
  Hf  Hf3  1  0.00053478  0.19574132  0.79657683  1
  Hf  Hf4  1  0.19703279  0.58748840  0.00702156  1
  Hf  Hf5  1  0.10169254  0.90287791  0.49634105  1
  Hf  Hf6  1  0.10541453  0.28489293  0.49948594  1
  Hf  Hf7  1  0.39957539  0.59808379  0.80091590  1
  Hf  Hf8  1  0.40012835  0.00096700  0.20450780  1
  Hf  Hf9  1  0.10263528  0.30182054  0.89872848  1
  Hf  Hf10  1  0.79771541  0.81189999  0.60250631  1
  Hf  Hf11  1  0.31062357  0.48962884  0.49793517  1
  Hf  Hf12  1  0.10421053  0.71156262  0.28988699  1
  Hf  Hf13  1  0.79739329  0.38342240  -0.00902285  1
  Hf  Hf14  1  0.19532242  0.80551705  0.80257562  1
  Hf  Hf15  1  0.80203402  0.60616835  0.00015155  1
  Hf  Hf16  1  0.69488354  0.70812588  0.29795330  1
  Hf  Hf17  1  0.60252230  0.60185399  0.00479699  1
  Hf  Hf18  1  0.20516718  0.59939878  0.60034861  1
  Hf  Hf19  1  0.50371000  0.69685890  0.69267874  1
  Hf  Hf20  1  0.29880124  0.11390111  0.10620057  1
  Hf  Hf21  1  0.20128286  0.39400548  0.19581747  1
  Hf  Hf22  1  0.20254341  -0.00916389  0.00620655  1
  Hf  Hf23  1  0.90183536  0.89993511  0.49454542  1
  Hf  Hf24  1  -0.00343853  0.39215803  0.60411252  1
  Hf  Hf25  1  0.20039823  0.60137280  0.40165773  1
  Hf  Hf26  1  0.20865204  -0.00093479  0.20858869  1
  Hf  Hf27  1  0.19825284  0.00266212  0.79471301  1
  Hf  Hf28  1  0.89280685  0.49551169  0.29245655  1
  Hf  Hf29  1  0.79062608  0.19760350  0.00369277  1
  Hf  Hf30  1  0.01364741  0.39338135  0.20803563  1
  Hf  Hf31  1  0.59650983  0.80812254  0.00281602  1
  Hf  Hf32  1  0.59762844  0.80562989  0.79658352  1
  Hf  Hf33  1  0.70145747  0.29732678  0.70323744  1
  Hf  Hf34  1  0.59853547  0.39961035  0.80115027  1
  Hf  Hf35  1  0.29133852  0.90213215  0.48911076  1
  Hf  Hf36  1  0.69700994  0.29094672  0.31435956  1
  Hf  Hf37  1  0.59549636  0.40272486  0.20060671  1
  Hf  Hf38  1  0.30863592  0.49404039  0.30790323  1
  Hf  Hf39  1  0.60109949  0.81654550  0.59203977  1
  Hf  Hf40  1  0.01176015  0.59399590  0.19306069  1
  Hf  Hf41  1  0.80320343  -0.00119433  0.80043643  1
  Hf  Hf42  1  0.69662994  0.10955317  0.70885677  1
  Hf  Hf43  1  0.79182562  0.00319104  -0.00104169  1
  Hf  Hf44  1  0.59445849  0.40048090  0.40074099  1
  Hf  Hf45  1  0.30269908  0.28811669  0.49501301  1
  Hf  Hf46  1  0.09840414  0.70916710  0.49811783  1
  Hf  Hf47  1  0.59742669  0.59897567  0.40168104  1
  Hf  Hf48  1  0.09585443  0.49409719  0.49795570  1
  Hf  Hf49  1  0.40322580  0.59380437  0.19412653  1
  Zr  Zr50  1  0.40666918  0.00202293  0.00144172  1
  Zr  Zr51  1  0.00402685  0.00014335  0.79415741  1
  Zr  Zr52  1  0.39607967  0.80267648  0.59348690  1
  Zr  Zr53  1  -0.00329557  0.19992703  0.39499311  1
  Zr  Zr54  1  0.30490794  0.71419310  0.30858671  1
  Zr  Zr55  1  0.40050885  0.39513685  0.79938173  1
  Zr  Zr56  1  0.49604499  0.29423334  0.09295046  1
  Zr  Zr57  1  0.79283572  0.38228826  0.19745063  1
  Zr  Zr58  1  0.78756022  0.79752607  0.00371828  1
  Zr  Zr59  1  0.89463731  0.49549462  0.49672109  1
  Zr  Zr60  1  0.49699427  0.69990904  0.89920097  1
  Zr  Zr61  1  0.70499606  0.50451665  0.10602046  1
  Zr  Zr62  1  0.79386528  0.00849073  0.20374200  1
  Zr  Zr63  1  0.29703547  0.70753769  0.09770797  1
  Zr  Zr64  1  0.89295760  0.29760544  0.70777785  1
  Zr  Zr65  1  0.90857144  0.29008633  0.10615068  1
  Zr  Zr66  1  0.90241959  0.89833871  0.10290822  1
  Zr  Zr67  1  0.70438424  0.49769251  0.89209357  1
  Zr  Zr68  1  0.59708579  0.00666391  0.80675019  1
  Zr  Zr69  1  0.90578214  0.49929494  0.09104042  1
  Zr  Zr70  1  0.69296853  0.89444426  0.31021796  1
  Zr  Zr71  1  0.90865180  0.09913159  0.10727193  1
  Zr  Zr72  1  0.91174025  0.71328481  0.11124160  1
  Zr  Zr73  1  0.89447754  0.88388648  0.29057619  1
  Zr  Zr74  1  0.79627650  0.00591662  0.59699635  1
  Zr  Zr75  1  0.49572808  0.28913557  0.49271285  1
  Zr  Zr76  1  0.80355426  0.60243795  0.79505139  1
  Zr  Zr77  1  0.09929170  0.10703538  0.10768884  1
  Zr  Zr78  1  0.60430165  0.20872103  0.19734553  1
  Zr  Zr79  1  0.20323060  0.39558767  0.60494659  1
  Zr  Zr80  1  0.29711783  0.70267504  0.90438728  1
  Zr  Zr81  1  0.50405375  0.29417970  0.69686508  1
  Zr  Zr82  1  0.20027644  0.58643043  0.19752200  1
  Zr  Zr83  1  -0.01120237  0.59509207  0.60903192  1
  Zr  Zr84  1  0.50018486  0.70454898  0.10575791  1
  Zr  Zr85  1  -0.00029140  0.59812715  0.38616026  1
  Zr  Zr86  1  0.70285322  0.29285117  0.50477987  1
  Zr  Zr87  1  0.09363353  0.49632626  0.90124661  1
  Zr  Zr88  1  0.49477387  0.11965499  0.30704833  1
  Zr  Zr89  1  0.20733905  0.19654277  0.79068568  1
  Zr  Zr90  1  0.90891491  0.70516459  0.90502202  1
  Zr  Zr91  1  0.40027316  0.00910340  0.79739425  1
  Zr  Zr92  1  0.10546281  0.10488136  0.91055181  1
  Zr  Zr93  1  0.09895021  0.70169845  0.69784643  1
  Zr  Zr94  1  0.40048690  0.39613677  0.19786832  1
  Zr  Zr95  1  0.49804917  0.70381990  0.49449654  1
  Zr  Zr96  1  0.70369045  0.50431933  0.50503404  1
  Zr  Zr97  1  -0.00108622  0.59918946  0.79817598  1
  Zr  Zr98  1  0.70156144  0.71022469  0.49427084  1
  Zr  Zr99  1  0.19222800  0.38812141  0.38539828  1
  Ta  Ta100  1  0.50011806  0.49639484  0.90366991  1
  Ta  Ta101  1  0.60158787  0.00248142  0.00307713  1
  Ta  Ta102  1  0.39696183  0.18250216  0.60253314  1
  Ta  Ta103  1  0.50293893  0.50451858  0.68993591  1
  Ta  Ta104  1  0.29890483  0.90372412  0.69479945  1
  Ta  Ta105  1  0.90481322  0.48285550  0.89577015  1
  Ta  Ta106  1  0.20368175  0.59424577  0.79890111  1
  Ta  Ta107  1  0.80230096  0.60682320  0.38886051  1
  Ta  Ta108  1  0.40211400  0.19330657  0.79728076  1
  Ta  Ta109  1  0.39960367  0.81796225  0.19914862  1
  Ta  Ta110  1  0.20786395  0.81625405  0.19608968  1
  Ta  Ta111  1  0.20611947  0.79873802  0.59790765  1
  Ta  Ta112  1  0.10243040  0.71015178  0.09261885  1
  Ta  Ta113  1  0.69757408  0.50108096  0.69526313  1
  Ta  Ta114  1  0.29921481  0.10562457  0.90524680  1
  Ta  Ta115  1  0.70111471  0.50438489  0.30096140  1
  Ta  Ta116  1  0.00111916  0.00392276  0.39232493  1
  Ta  Ta117  1  0.00209998  -0.00563255  -0.00578461  1
  Ta  Ta118  1  0.69242758  0.10310249  0.30771769  1
  Ta  Ta119  1  0.20435937  0.39966808  0.79809811  1
  Ta  Ta120  1  0.60018336  0.39639562  0.00323938  1
  Ta  Ta121  1  0.59319390  0.00323364  0.40685426  1
  Ta  Ta122  1  0.39191948  0.00801632  0.39889916  1
  Ta  Ta123  1  0.00063142  0.80268614  0.38951208  1
  Ta  Ta124  1  0.20418464  0.39725797  0.00587640  1
  Ta  Ta125  1  0.30091860  0.49346092  0.90071913  1
  Ta  Ta126  1  0.10162974  0.29556045  0.69938648  1
  Ta  Ta127  1  0.40001231  0.58722659  0.00533288  1
  Ta  Ta128  1  0.00133745  0.00574734  0.60159052  1
  Ta  Ta129  1  0.10787202  0.10531672  0.30157032  1
  Ta  Ta130  1  0.30083335  0.29858130  0.90325936  1
  Ta  Ta131  1  0.49603006  0.90882347  0.69412049  1
  Ta  Ta132  1  0.00276293  0.19072941  0.60092780  1
  Ta  Ta133  1  0.29923529  0.90012419  0.90051714  1
  Ta  Ta134  1  0.39804587  0.80908287  0.79651771  1
  Ta  Ta135  1  0.90031111  0.09865986  0.90334987  1
  Ta  Ta136  1  0.49834505  0.71021924  0.30290831  1
  Ta  Ta137  1  0.69639947  0.69897304  0.69513156  1
  Ta  Ta138  1  0.69808995  0.90440183  0.70183174  1
  Ta  Ta139  1  0.40069418  0.20014992  -0.00576763  1
  Ta  Ta140  1  0.11033121  0.09227545  0.49568127  1
  Ta  Ta141  1  0.30582814  0.49941215  0.70046054  1
  Ta  Ta142  1  0.39908890  0.81395557  0.00520757  1
  Ta  Ta143  1  0.69396576  0.90150377  0.10934520  1
  Ta  Ta144  1  0.59181791  0.00151920  0.20288496  1
  Ta  Ta145  1  0.89763013  0.89916986  0.90004333  1
  Ta  Ta146  1  0.49616224  0.50302190  0.30747606  1
  Ta  Ta147  1  0.50084840  0.10455164  0.09932648  1
  Ta  Ta148  1  0.59090297  0.18385912  0.59863082  1
  Ta  Ta149  1  0.30143832  0.70155547  0.70129069  1
  Ti  Ti150  1  -0.00470079  0.20121306  -0.00556643  1
  Ti  Ti151  1  0.80052802  0.61419927  0.20051871  1
  Ti  Ti152  1  0.59775595  0.40270843  0.59698271  1
  Ti  Ti153  1  0.70201875  0.89955152  0.89648915  1
  Ti  Ti154  1  0.49355624  0.49939089  0.50283794  1
  Ti  Ti155  1  0.59027341  0.81016016  0.19861140  1
  Ti  Ti156  1  0.10716821  0.90662733  0.68431081  1
  Ti  Ti157  1  0.89074723  0.71665815  0.70488462  1
  Ti  Ti158  1  0.81061853  0.19250165  0.39601906  1
  Ti  Ti159  1  0.68958882  0.10257399  0.10233057  1
  Ti  Ti160  1  0.68266199  0.28516421  0.89861249  1
  Ti  Ti161  1  0.70141902  0.70482329  0.88646055  1
  Ti  Ti162  1  0.59980565  0.59799133  0.79750361  1
  Ti  Ti163  1  0.80418448  0.19406133  0.59367936  1
  Ti  Ti164  1  0.59566516  0.00433883  0.59513957  1
  Ti  Ti165  1  0.30032913  0.29213033  0.09611403  1
  Ti  Ti166  1  0.30333042  0.29524221  0.69654169  1
  Ti  Ti167  1  0.11026263  0.90134565  0.30882286  1
  Ti  Ti168  1  0.31260328  0.28014636  0.30182465  1
  Ti  Ti169  1  -0.00055049  0.38961295  0.38996523  1
  Ti  Ti170  1  0.20585782  0.18169308  0.60342574  1
  Ti  Ti171  1  0.09988216  0.49034639  0.70613328  1
  Ti  Ti172  1  0.51103482  0.11483095  0.90345249  1
  Ti  Ti173  1  0.49547140  0.89807347  0.31064706  1
  Ti  Ti174  1  0.49604541  0.90186814  0.89793822  1
  Ti  Ti175  1  0.01241715  0.81060572  -0.00521138  1
  Ti  Ti176  1  0.00601424  0.39359389  0.00529762  1
  Ti  Ti177  1  0.89035683  0.48407559  0.71275315  1
  Ti  Ti178  1  0.09856020  0.89806288  0.10374111  1
  Ti  Ti179  1  0.10178321  0.69912180  0.90854655  1
  Ti  Ti180  1  0.80386705  0.19625935  0.20965923  1
  Ti  Ti181  1  0.69246226  0.10614247  0.49247499  1
  Ti  Ti182  1  0.89743691  0.29729921  0.49901395  1
  Ti  Ti183  1  0.00505307  -0.00080413  0.21171778  1
  Ti  Ti184  1  0.39519375  0.00803451  0.59542283  1
  Ti  Ti185  1  0.59460028  0.59761403  0.20053085  1
  Ti  Ti186  1  0.49361360  0.90685238  0.49312268  1
  Ti  Ti187  1  0.39922017  0.40301813  0.00231033  1
  Ti  Ti188  1  -0.00427042  0.80975851  0.60664604  1
  Ti  Ti189  1  0.50020507  0.29600711  0.90191261  1
  Ti  Ti190  1  0.40358084  0.39520381  0.60218727  1
  Ti  Ti191  1  0.39865354  0.60670993  0.40530543  1
  Ti  Ti192  1  0.39448617  0.60255162  0.59562500  1
  Ti  Ti193  1  0.80290803  0.39608036  0.39716046  1
  Ti  Ti194  1  0.79962800  0.39876809  0.60198728  1
  Ti  Ti195  1  0.89619078  0.10168747  0.70043487  1
  Ti  Ti196  1  0.90784790  0.09919599  0.49954360  1
  Ti  Ti197  1  0.80163449  0.20133359  0.81886777  1
  Ti  Ti198  1  0.10682952  0.28436557  0.10001064  1
  Ti  Ti199  1  0.80059434  0.60344624  0.60441640  1
  Mo  Mo200  1  0.29864712  0.10612249  0.30549809  1
  Mo  Mo201  1  0.69276958  0.70553717  0.11402377  1
  Mo  Mo202  1  0.10135438  0.28678420  0.29605287  1
  Mo  Mo203  1  0.50406643  0.90771871  0.10348364  1
  Mo  Mo204  1  0.20067117  -0.00036176  0.59925845  1
  Mo  Mo205  1  0.29812308  0.70201633  0.50207388  1
  Mo  Mo206  1  0.29686555  0.09524254  0.49975437  1
  Mo  Mo207  1  0.02092048  0.80892271  0.19972546  1
  Mo  Mo208  1  0.89628195  0.29608675  0.30522187  1
  Mo  Mo209  1  0.79762105  0.39319660  0.80309839  1
  Mo  Mo210  1  0.20504719  0.19059414  0.39726374  1
  Mo  Mo211  1  0.80514311  0.79804625  0.39792508  1
  Mo  Mo212  1  0.50326564  0.49778061  0.09533158  1
  Mo  Mo213  1  0.90094895  0.90271360  0.69796192  1
  Mo  Mo214  1  0.69881001  0.10233801  0.90236202  1
  Mo  Mo215  1  0.20295232  0.20628814  0.20583308  1
  Mo  Mo216  1  0.10159269  0.90054330  0.90627519  1
  Mo  Mo217  1  0.39462244  0.19318333  0.40500695  1
  Mo  Mo218  1  0.10247248  0.10087347  0.68617236  1
  Mo  Mo219  1  0.69409912  0.91152913  0.50050948  1
  Mo  Mo220  1  0.39785631  0.20221360  0.19758139  1
  Mo  Mo221  1  0.39969506  0.81007193  0.39516422  1
  Mo  Mo222  1  0.40474157  0.39193193  0.39639035  1
  Mo  Mo223  1  0.30172526  0.09556535  0.69671899  1
  Mo  Mo224  1  0.58968515  0.81096218  0.40026451  1
  Mo  Mo225  1  0.30319519  0.90285971  0.09924212  1
  Mo  Mo226  1  0.30487248  0.48869262  0.09386261  1
  Mo  Mo227  1  0.59782857  0.19489023  0.40808619  1
  Mo  Mo228  1  0.90920025  0.29559397  0.90258258  1
  Mo  Mo229  1  0.00582790  0.60242883  0.00054472  1
  Mo  Mo230  1  0.49905611  0.09599528  0.69544036  1
  Mo  Mo231  1  0.00134094  0.39439218  0.79801509  1
  Mo  Mo232  1  0.49442171  0.09148796  0.50210078  1
  Mo  Mo233  1  0.19744187  0.00399605  0.39657917  1
  Mo  Mo234  1  0.00608138  0.20055688  0.20831028  1
  Mo  Mo235  1  0.89870482  0.70166720  0.29712807  1
  Mo  Mo236  1  0.90420566  0.09957319  0.30013043  1
  Mo  Mo237  1  0.60040667  0.59497396  0.60169387  1
  Mo  Mo238  1  0.79440848  0.80597306  0.79535174  1
  Mo  Mo239  1  0.20731745  0.20968286  0.00245323  1
  Mo  Mo240  1  0.59388379  0.20107492  0.80129258  1
  Mo  Mo241  1  0.10178859  0.49027555  0.09447233  1
  Mo  Mo242  1  0.19625116  0.80631478  0.00050518  1
  Mo  Mo243  1  0.30261835  0.90456704  0.30423077  1
  Mo  Mo244  1  0.19797396  0.80461554  0.39904322  1
  Mo  Mo245  1  0.69566452  0.29522778  0.09489556  1
  Mo  Mo246  1  0.78198899  0.79413692  0.19609427  1
  Mo  Mo247  1  0.59829430  0.19738307  -0.00272409  1
  Mo  Mo248  1  0.49189601  0.30501548  0.30476114  1
  Mo  Mo249  1  0.10114355  0.49257386  0.30099049  1
