# generated using pymatgen
data_HfZrTaTiMo
_symmetry_space_group_name_H-M   'P 1'
_cell_length_a   16.89227618
_cell_length_b   16.87914099
_cell_length_c   16.88469713
_cell_angle_alpha   90.02106801
_cell_angle_beta   90.03570564
_cell_angle_gamma   89.98044799
_symmetry_Int_Tables_number   1
_chemical_formula_structural   HfZrTaTiMo
_chemical_formula_sum   'Hf50 Zr50 Ta50 Ti50 Mo50'
_cell_volume   4814.28337975
_cell_formula_units_Z   50
loop_
 _symmetry_equiv_pos_site_id
 _symmetry_equiv_pos_as_xyz
  1  'x, y, z'
loop_
 _atom_site_type_symbol
 _atom_site_label
 _atom_site_symmetry_multiplicity
 _atom_site_fract_x
 _atom_site_fract_y
 _atom_site_fract_z
 _atom_site_occupancy
  Hf  Hf0  1  0.60205732  0.80407283  0.39058927  1
  Hf  Hf1  1  0.49944502  0.50107421  0.10648294  1
  Hf  Hf2  1  0.30099310  0.69743934  0.50368099  1
  Hf  Hf3  1  0.49486924  0.70889398  0.09947121  1
  Hf  Hf4  1  0.90509756  0.09792461  0.70642760  1
  Hf  Hf5  1  0.10406792  0.09761083  0.29521019  1
  Hf  Hf6  1  0.90085804  0.90004473  0.29090815  1
  Hf  Hf7  1  0.20197152  0.60186593  -0.00090432  1
  Hf  Hf8  1  0.00590666  0.20406490  0.39418914  1
  Hf  Hf9  1  0.31120731  0.70415053  0.89957113  1
  Hf  Hf10  1  0.69469604  0.29648518  0.90780498  1
  Hf  Hf11  1  0.00367823  -0.00022127  0.59828318  1
  Hf  Hf12  1  0.49446543  0.09741204  0.50129136  1
  Hf  Hf13  1  0.59923420  -0.00280873  0.39082156  1
  Hf  Hf14  1  0.29942340  0.29218578  0.90773661  1
  Hf  Hf15  1  0.09101333  0.49854349  0.69209402  1
  Hf  Hf16  1  0.49211954  0.90549169  0.90722658  1
  Hf  Hf17  1  0.38647477  0.60008612  0.19705740  1
  Hf  Hf18  1  0.79764815  -0.00155965  0.00342082  1
  Hf  Hf19  1  0.29259310  0.11098116  0.50546570  1
  Hf  Hf20  1  0.49378684  0.68590534  0.71314223  1
  Hf  Hf21  1  0.89083625  0.30524018  0.50519415  1
  Hf  Hf22  1  0.60347624  0.21053771  0.39221767  1
  Hf  Hf23  1  0.59948683  0.79986431  0.00111846  1
  Hf  Hf24  1  0.00158640  0.20057845  0.00738145  1
  Hf  Hf25  1  0.19764830  0.80071063  0.60682527  1
  Hf  Hf26  1  0.39936123  0.39484311  0.59853210  1
  Hf  Hf27  1  0.70262287  0.49468839  0.50258637  1
  Hf  Hf28  1  0.49954320  0.69552071  0.30082654  1
  Hf  Hf29  1  -0.00047130  0.20224028  0.60159730  1
  Hf  Hf30  1  0.90363981  0.89575879  0.89345454  1
  Hf  Hf31  1  0.79737643  0.00569619  0.60871463  1
  Hf  Hf32  1  0.00819142  0.80024819  -0.00308765  1
  Hf  Hf33  1  0.00394403  0.00036171  0.00189078  1
  Hf  Hf34  1  0.40131733  0.80486141  0.80218267  1
  Hf  Hf35  1  0.59734249  0.79660119  0.80634740  1
  Hf  Hf36  1  0.70405283  0.10970235  0.49485511  1
  Hf  Hf37  1  0.40395160  0.39784516  0.78418658  1
  Hf  Hf38  1  0.71472079  0.50274931  0.10424177  1
  Hf  Hf39  1  0.79999668  0.40065099  0.81032860  1
  Hf  Hf40  1  0.37709474  0.79392376  0.20069617  1
  Hf  Hf41  1  0.59028426  0.79569450  0.60720984  1
  Hf  Hf42  1  0.89922300  0.89802995  0.50023137  1
  Hf  Hf43  1  0.00706528  0.40137485  0.40692116  1
  Hf  Hf44  1  0.10164691  0.49786745  0.09833166  1
  Hf  Hf45  1  0.10436857  0.49955235  0.30738541  1
  Hf  Hf46  1  0.90326928  0.48983275  0.69667325  1
  Hf  Hf47  1  0.11248356  0.30488813  0.50730450  1
  Hf  Hf48  1  0.20211078  0.00305636  0.61015893  1
  Hf  Hf49  1  0.69719020  0.89675919  0.50697739  1
  Zr  Zr50  1  0.89898566  0.49710164  0.29490738  1
  Zr  Zr51  1  0.10982804  0.30376022  0.90223030  1
  Zr  Zr52  1  0.70537923  0.88743282  0.70556117  1
  Zr  Zr53  1  0.90193990  0.69211150  0.29626581  1
  Zr  Zr54  1  0.79475912  0.79759235  0.39240819  1
  Zr  Zr55  1  0.60614501  0.39492701  0.20150889  1
  Zr  Zr56  1  0.22036843  0.19598824  0.20522365  1
  Zr  Zr57  1  0.20994392  0.39656852  0.20476571  1
  Zr  Zr58  1  0.50763345  0.49562292  0.48765527  1
  Zr  Zr59  1  0.88933025  0.29553565  0.29388885  1
  Zr  Zr60  1  0.30043508  0.89822733  0.49820671  1
  Zr  Zr61  1  0.11356746  0.09586591  0.09965605  1
  Zr  Zr62  1  0.60315087  0.40983347  -0.00590824  1
  Zr  Zr63  1  0.10568618  0.90290096  0.49157189  1
  Zr  Zr64  1  0.21155554  0.61451345  0.20950876  1
  Zr  Zr65  1  0.20394058  0.39821991  0.78866176  1
  Zr  Zr66  1  0.79727547  0.20019066  0.79930499  1
  Zr  Zr67  1  0.08931209  0.69509317  0.70315854  1
  Zr  Zr68  1  0.00587613  0.79313586  0.39591489  1
  Zr  Zr69  1  -0.00418742  0.39719602  0.00357262  1
  Zr  Zr70  1  0.10542524  0.68900797  0.49448054  1
  Zr  Zr71  1  0.79537493  -0.00371223  0.38934802  1
  Zr  Zr72  1  0.39566973  0.20363693  0.39979537  1
  Zr  Zr73  1  0.19560663  0.80223656  0.80568223  1
  Zr  Zr74  1  0.39275631  0.20417838  0.78501363  1
  Zr  Zr75  1  0.90323830  0.89640991  0.10698378  1
  Zr  Zr76  1  0.90126523  0.50031390  0.10588066  1
  Zr  Zr77  1  0.59311770  0.20525307  0.60405850  1
  Zr  Zr78  1  0.00025254  0.20613671  0.80290173  1
  Zr  Zr79  1  -0.01349984  0.59951738  0.58095281  1
  Zr  Zr80  1  0.69946259  0.49649785  0.69820084  1
  Zr  Zr81  1  0.40353927  0.58715662  0.59887363  1
  Zr  Zr82  1  0.49709577  0.10426694  0.29469660  1
  Zr  Zr83  1  0.89982233  0.69016349  0.10258892  1
  Zr  Zr84  1  0.19842939  0.59990381  0.79965368  1
  Zr  Zr85  1  0.29785026  0.49527699  0.90094126  1
  Zr  Zr86  1  0.79474242  0.79303749  0.00050137  1
  Zr  Zr87  1  0.70016488  0.69067636  0.50441476  1
  Zr  Zr88  1  0.80437249  0.59423527  0.80820083  1
  Zr  Zr89  1  0.38699521  0.01228634  0.19801973  1
  Zr  Zr90  1  0.49702857  0.11291343  0.90665496  1
  Zr  Zr91  1  0.49725844  0.70163089  0.49397554  1
  Zr  Zr92  1  0.79362467  0.00188843  0.80292047  1
  Zr  Zr93  1  0.60043330  0.00553244  0.60946416  1
  Zr  Zr94  1  0.50305116  0.50167812  0.30061108  1
  Zr  Zr95  1  0.69977040  0.10701675  0.09697221  1
  Zr  Zr96  1  0.40483019  0.40151383  0.00013896  1
  Zr  Zr97  1  0.60016714  0.60240770  -0.00693428  1
  Zr  Zr98  1  0.10443770  0.70114333  0.09900181  1
  Zr  Zr99  1  0.89468800  0.10652188  0.48954398  1
  Ta  Ta100  1  0.50225280  0.28981260  0.09386580  1
  Ta  Ta101  1  0.70532243  0.50513424  0.30233696  1
  Ta  Ta102  1  0.79615707  0.20510148  0.61129927  1
  Ta  Ta103  1  0.89767085  0.10486296  0.11093495  1
  Ta  Ta104  1  0.50436515  0.29813156  0.89669395  1
  Ta  Ta105  1  0.80884146  0.59819277  0.40815676  1
  Ta  Ta106  1  0.11290142  0.90094805  0.10663021  1
  Ta  Ta107  1  0.89614253  0.10384913  0.28991817  1
  Ta  Ta108  1  0.59825244  0.00688806  0.80176689  1
  Ta  Ta109  1  0.69666703  0.30751222  0.70056515  1
  Ta  Ta110  1  0.70704926  0.10991434  0.29198022  1
  Ta  Ta111  1  0.01938306  0.79632824  0.20621975  1
  Ta  Ta112  1  0.40294620  0.60490095  -0.00164084  1
  Ta  Ta113  1  0.29314346  0.90313917  0.09427940  1
  Ta  Ta114  1  0.49395958  0.90785198  0.70369219  1
  Ta  Ta115  1  0.39409085  -0.00193883  0.39772596  1
  Ta  Ta116  1  0.78071490  0.79309034  0.19804832  1
  Ta  Ta117  1  0.69283593  0.10444374  0.90543293  1
  Ta  Ta118  1  0.49243227  0.90193834  0.10419475  1
  Ta  Ta119  1  0.20346281  0.79086190  0.37944251  1
  Ta  Ta120  1  0.29267150  0.10024810  0.90388404  1
  Ta  Ta121  1  0.60132676  0.20342830  0.19739004  1
  Ta  Ta122  1  0.39173995  0.00788205  0.79889762  1
  Ta  Ta123  1  0.70478139  0.69097941  0.70102560  1
  Ta  Ta124  1  0.70351668  0.30609246  0.50332068  1
  Ta  Ta125  1  0.49359995  0.30493579  0.29239818  1
  Ta  Ta126  1  0.59772724  0.59531779  0.60520788  1
  Ta  Ta127  1  0.89840431  0.30373299  0.90569428  1
  Ta  Ta128  1  0.59415580  0.00379134  0.00545400  1
  Ta  Ta129  1  0.11458825  0.29846427  0.09913411  1
  Ta  Ta130  1  0.49283011  0.89926288  0.29289666  1
  Ta  Ta131  1  -0.00249863  0.79831757  0.60018315  1
  Ta  Ta132  1  0.39490062  0.00327900  0.60731201  1
  Ta  Ta133  1  0.30301222  0.69496077  0.69949662  1
  Ta  Ta134  1  0.08725108  0.49989998  0.89584559  1
  Ta  Ta135  1  0.49180246  0.90161108  0.50083259  1
  Ta  Ta136  1  0.59724239  0.00077934  0.19589324  1
  Ta  Ta137  1  0.70877699  0.30043783  0.10031346  1
  Ta  Ta138  1  0.00543721  0.00190353  0.80619250  1
  Ta  Ta139  1  0.90104327  0.10188120  0.90782096  1
  Ta  Ta140  1  0.39790054  0.00832994  0.00611353  1
  Ta  Ta141  1  0.10547407  0.10128157  0.70626320  1
  Ta  Ta142  1  0.09455633  0.30764989  0.69306418  1
  Ta  Ta143  1  0.00184771  0.00379481  0.39223802  1
  Ta  Ta144  1  0.11046765  0.09986819  0.89911809  1
  Ta  Ta145  1  0.90651053  0.89037543  0.70564499  1
  Ta  Ta146  1  0.89953573  0.69899008  0.70304444  1
  Ta  Ta147  1  0.09313462  0.90198964  0.71064866  1
  Ta  Ta148  1  0.29839158  0.91013018  0.90710924  1
  Ta  Ta149  1  0.69958409  0.69494488  0.89741219  1
  Ti  Ti150  1  0.20406651  0.42305981  0.58724595  1
  Ti  Ti151  1  0.80593700  0.20142040  0.00213711  1
  Ti  Ti152  1  0.89093472  0.30197261  0.10646116  1
  Ti  Ti153  1  0.01314418  0.60394178  0.20787522  1
  Ti  Ti154  1  0.01013961  0.38684170  0.20364843  1
  Ti  Ti155  1  0.60978509  0.60875789  0.19430740  1
  Ti  Ti156  1  0.40002100  0.20546186  0.60360362  1
  Ti  Ti157  1  0.20333518  0.79964939  0.00000081  1
  Ti  Ti158  1  0.20639579  0.58984503  0.40677038  1
  Ti  Ti159  1  0.20306631  0.19756437  0.79024851  1
  Ti  Ti160  1  0.49561930  0.09993552  0.70257756  1
  Ti  Ti161  1  0.49568224  0.50450513  0.88549675  1
  Ti  Ti162  1  0.29750932  0.49431339  0.09326308  1
  Ti  Ti163  1  0.80204765  0.59446275  -0.00849807  1
  Ti  Ti164  1  0.10872810  0.90581800  0.29232844  1
  Ti  Ti165  1  0.39344974  0.59455712  0.39981488  1
  Ti  Ti166  1  0.59950074  0.20038090  0.79284817  1
  Ti  Ti167  1  0.39476570  0.80540012  0.39217906  1
  Ti  Ti168  1  0.60391773  0.80229375  0.20117377  1
  Ti  Ti169  1  0.29151401  0.90638111  0.29408617  1
  Ti  Ti170  1  0.08904043  0.69146677  0.89653900  1
  Ti  Ti171  1  0.49941187  0.30592047  0.49312376  1
  Ti  Ti172  1  0.58910319  0.39853390  0.60956663  1
  Ti  Ti173  1  0.10912501  0.90903111  0.90107089  1
  Ti  Ti174  1  0.39948927  0.20063816  0.19135754  1
  Ti  Ti175  1  0.79055314  -0.00287959  0.19881020  1
  Ti  Ti176  1  0.79192144  0.39544758  0.39304099  1
  Ti  Ti177  1  0.20497901  0.00524819  0.39395300  1
  Ti  Ti178  1  0.27757322  0.29252567  0.67434823  1
  Ti  Ti179  1  0.29436501  0.30806446  0.49443471  1
  Ti  Ti180  1  0.39935135  0.80682400  0.60868015  1
  Ti  Ti181  1  0.10450335  0.10270831  0.49762342  1
  Ti  Ti182  1  0.29920697  0.50985913  0.69692044  1
  Ti  Ti183  1  0.30233447  0.29463837  0.08873619  1
  Ti  Ti184  1  0.89050023  0.49062970  0.50270450  1
  Ti  Ti185  1  0.60240551  0.59047537  0.80463755  1
  Ti  Ti186  1  0.69620739  0.90186845  0.90153188  1
  Ti  Ti187  1  0.00605185  0.20661867  0.19832648  1
  Ti  Ti188  1  0.29768377  0.90435312  0.70955951  1
  Ti  Ti189  1  0.69860634  0.68742532  0.30102201  1
  Ti  Ti190  1  0.80206684  0.79021125  0.80476061  1
  Ti  Ti191  1  0.60590758  0.39363363  0.39191829  1
  Ti  Ti192  1  0.80870591  0.78724065  0.59948483  1
  Ti  Ti193  1  0.39653179  0.39426277  0.19642643  1
  Ti  Ti194  1  0.30582377  0.48891271  0.31460363  1
  Ti  Ti195  1  0.19769024  0.20830762  0.39299414  1
  Ti  Ti196  1  0.00370986  0.00006956  0.19935448  1
  Ti  Ti197  1  0.91085391  0.69179155  0.89700188  1
  Ti  Ti198  1  0.69195140  0.90005446  0.10306190  1
  Ti  Ti199  1  0.30569774  0.30670367  0.30872123  1
  Mo  Mo200  1  -0.00458743  0.59017694  0.40117655  1
  Mo  Mo201  1  0.50761769  0.30101374  0.70087537  1
  Mo  Mo202  1  0.29813590  0.10333015  0.70035617  1
  Mo  Mo203  1  0.79678318  0.39715730  0.20115234  1
  Mo  Mo204  1  0.10396191  0.68893840  0.30379045  1
  Mo  Mo205  1  0.80350826  0.39532201  0.00207912  1
  Mo  Mo206  1  0.30446542  0.69374018  0.31765233  1
  Mo  Mo207  1  0.69187540  0.90461718  0.28241453  1
  Mo  Mo208  1  0.20019469  0.39972123  0.00690838  1
  Mo  Mo209  1  0.79923715  0.60070864  0.60067891  1
  Mo  Mo210  1  0.29661890  0.10022667  0.31233567  1
  Mo  Mo211  1  0.69842715  0.30203071  0.29938151  1
  Mo  Mo212  1  0.70338399  0.50008350  0.90415624  1
  Mo  Mo213  1  -0.00012026  0.59931338  -0.00821030  1
  Mo  Mo214  1  0.20687082  0.59591995  0.59892204  1
  Mo  Mo215  1  0.79747713  0.20154487  0.19618091  1
  Mo  Mo216  1  0.40041519  0.19936501  0.00373148  1
  Mo  Mo217  1  -0.00141547  0.39818650  0.59782328  1
  Mo  Mo218  1  0.90533632  0.49801938  0.90455636  1
  Mo  Mo219  1  0.40064283  0.59484987  0.80206778  1
  Mo  Mo220  1  0.79216400  0.60362295  0.20705744  1
  Mo  Mo221  1  0.79817016  0.39324159  0.60464921  1
  Mo  Mo222  1  0.69807472  0.69762695  0.10037279  1
  Mo  Mo223  1  -0.00470168  0.39750988  0.79970039  1
  Mo  Mo224  1  0.20685487  0.39857508  0.40095145  1
  Mo  Mo225  1  0.20141675  0.80463732  0.20460036  1
  Mo  Mo226  1  0.30064232  0.71022176  0.08370524  1
  Mo  Mo227  1  0.69592694  0.11067657  0.70855349  1
  Mo  Mo228  1  0.10289653  0.29939205  0.29607856  1
  Mo  Mo229  1  0.19195070  0.19480985  0.60007228  1
  Mo  Mo230  1  0.30041615  0.49690119  0.49325349  1
  Mo  Mo231  1  0.59632551  0.39850031  0.80215286  1
  Mo  Mo232  1  0.30434276  0.10385205  0.08775349  1
  Mo  Mo233  1  0.61080965  0.59814291  0.39734110  1
  Mo  Mo234  1  -0.00607200  0.59761859  0.80383694  1
  Mo  Mo235  1  0.20464087  0.19764468  0.00147975  1
  Mo  Mo236  1  0.79512639  0.20542566  0.39560834  1
  Mo  Mo237  1  -0.00153085  0.79970486  0.80177831  1
  Mo  Mo238  1  0.89535190  0.70234875  0.50066400  1
  Mo  Mo239  1  0.10526799  0.49922952  0.49789019  1
  Mo  Mo240  1  0.19940982  0.00185522  0.80356450  1
  Mo  Mo241  1  0.39961545  0.39574924  0.39864665  1
  Mo  Mo242  1  0.59843727  0.20370285  0.00397240  1
  Mo  Mo243  1  0.39717030  0.80819545  0.00319508  1
  Mo  Mo244  1  0.20360549  -0.00156550  -0.00140013  1
  Mo  Mo245  1  0.50113247  0.69471440  0.90127666  1
  Mo  Mo246  1  0.20488524  -0.00221471  0.20106229  1
  Mo  Mo247  1  0.90063694  0.30467061  0.70236790  1
  Mo  Mo248  1  0.50033776  0.10288942  0.10062276  1
  Mo  Mo249  1  0.50578842  0.49551815  0.70503203  1
