# generated using pymatgen
data_HfZrTaTiMo
_symmetry_space_group_name_H-M   'P 1'
_cell_length_a   16.89339142
_cell_length_b   16.89513910
_cell_length_c   16.89353163
_cell_angle_alpha   89.99870670
_cell_angle_beta   90.00427056
_cell_angle_gamma   90.01139831
_symmetry_Int_Tables_number   1
_chemical_formula_structural   HfZrTaTiMo
_chemical_formula_sum   'Hf50 Zr50 Ta50 Ti50 Mo50'
_cell_volume   4821.68745762
_cell_formula_units_Z   50
loop_
 _symmetry_equiv_pos_site_id
 _symmetry_equiv_pos_as_xyz
  1  'x, y, z'
loop_
 _atom_site_type_symbol
 _atom_site_label
 _atom_site_symmetry_multiplicity
 _atom_site_fract_x
 _atom_site_fract_y
 _atom_site_fract_z
 _atom_site_occupancy
  Hf  Hf0  1  0.10606622  0.90526134  0.49178236  1
  Hf  Hf1  1  0.58127321  0.79184135  0.00991823  1
  Hf  Hf2  1  0.80449957  0.79007335  0.80525493  1
  Hf  Hf3  1  -0.00049720  0.79841094  0.59639228  1
  Hf  Hf4  1  0.80032611  0.00716318  0.00462744  1
  Hf  Hf5  1  0.10284471  0.90727692  0.70651798  1
  Hf  Hf6  1  0.50450114  0.90201613  0.29469481  1
  Hf  Hf7  1  0.30933863  0.69335590  0.50655469  1
  Hf  Hf8  1  0.10738428  0.70380287  0.49308489  1
  Hf  Hf9  1  0.40175123  0.79984188  0.80747277  1
  Hf  Hf10  1  0.20018268  0.59616890  0.39414659  1
  Hf  Hf11  1  0.19706706  0.20819987  0.40369672  1
  Hf  Hf12  1  0.80076797  0.00214380  0.19957913  1
  Hf  Hf13  1  0.20250176  -0.01365077  0.19697785  1
  Hf  Hf14  1  0.90223292  0.49905406  0.90520982  1
  Hf  Hf15  1  0.90059895  0.70061901  0.29640317  1
  Hf  Hf16  1  0.30810191  0.91092231  0.70955726  1
  Hf  Hf17  1  0.50280859  0.29333457  0.08710206  1
  Hf  Hf18  1  0.69811750  0.29879506  0.70368266  1
  Hf  Hf19  1  0.00177253  0.80486300  0.19420927  1
  Hf  Hf20  1  0.90744006  0.50239240  0.09001143  1
  Hf  Hf21  1  0.20145204  0.39230125  0.59288406  1
  Hf  Hf22  1  0.50256283  0.50298289  0.09047980  1
  Hf  Hf23  1  0.39809302  0.80716160  0.40680081  1
  Hf  Hf24  1  0.20227480  0.39484878  0.39910234  1
  Hf  Hf25  1  0.49936290  0.10590265  0.09515803  1
  Hf  Hf26  1  0.29670756  0.09492494  0.70777339  1
  Hf  Hf27  1  0.49396477  0.09742730  0.70790979  1
  Hf  Hf28  1  0.70233302  0.90061080  0.50092483  1
  Hf  Hf29  1  0.29099797  0.30343579  0.89840708  1
  Hf  Hf30  1  0.59508256  0.40511494  0.60577953  1
  Hf  Hf31  1  0.70011120  0.89701852  0.70184340  1
  Hf  Hf32  1  0.90376287  0.89334901  0.91030870  1
  Hf  Hf33  1  0.80782466  0.79485235  0.59862155  1
  Hf  Hf34  1  0.90729427  0.09941001  0.50708861  1
  Hf  Hf35  1  0.30731716  0.69097548  0.69515039  1
  Hf  Hf36  1  0.49567918  0.10464094  0.30045031  1
  Hf  Hf37  1  0.69630922  0.49960819  0.30111274  1
  Hf  Hf38  1  0.61456999  0.20286309  0.19537985  1
  Hf  Hf39  1  0.21366955  0.80890823  0.59518979  1
  Hf  Hf40  1  0.39607626  0.40030126  0.19133575  1
  Hf  Hf41  1  0.09543562  0.30211405  0.09516241  1
  Hf  Hf42  1  0.10668238  0.69736124  0.69795501  1
  Hf  Hf43  1  0.40069270  0.20106290  0.80834562  1
  Hf  Hf44  1  0.29723533  0.11012231  0.09094132  1
  Hf  Hf45  1  0.59417603  0.79371632  0.80070648  1
  Hf  Hf46  1  0.58870816  -0.00113931  0.59318386  1
  Hf  Hf47  1  0.39590581  0.39733725  -0.00726055  1
  Hf  Hf48  1  0.19907161  0.20046090  0.59758569  1
  Hf  Hf49  1  0.89587331  0.49925068  0.30164165  1
  Zr  Zr50  1  0.31626335  0.49152884  0.49776205  1
  Zr  Zr51  1  0.41143185  0.59463281  0.39387557  1
  Zr  Zr52  1  0.60136813  0.60494538  0.39730110  1
  Zr  Zr53  1  0.09683013  0.10218037  0.10342650  1
  Zr  Zr54  1  0.29719101  0.10276203  0.30098121  1
  Zr  Zr55  1  0.08726418  0.30798065  0.69730443  1
  Zr  Zr56  1  0.70107485  0.70570906  0.09733803  1
  Zr  Zr57  1  0.79440106  0.19847107  0.20419493  1
  Zr  Zr58  1  0.20382652  0.79218032  0.80690204  1
  Zr  Zr59  1  0.80880155  0.80803410  0.19960851  1
  Zr  Zr60  1  0.39030914  -0.00325947  0.19779123  1
  Zr  Zr61  1  0.18567764  0.20266119  0.80330867  1
  Zr  Zr62  1  0.70844437  0.10719637  0.50341343  1
  Zr  Zr63  1  0.79859534  0.00047306  0.38770746  1
  Zr  Zr64  1  0.00333802  0.39945148  0.20112438  1
  Zr  Zr65  1  0.00959292  0.60179144  0.19665828  1
  Zr  Zr66  1  0.09955097  0.09586472  0.29885222  1
  Zr  Zr67  1  -0.01174236  0.20579581  0.39296968  1
  Zr  Zr68  1  0.29430198  0.70114996  0.29273590  1
  Zr  Zr69  1  0.39191667  0.80977012  0.18234634  1
  Zr  Zr70  1  0.69640363  0.10379674  0.70109653  1
  Zr  Zr71  1  0.00170113  0.60002512  0.80415740  1
  Zr  Zr72  1  0.69777422  0.69855444  0.50833091  1
  Zr  Zr73  1  -0.00923066  0.59960995  0.59518353  1
  Zr  Zr74  1  0.48920985  0.68210243  0.91847700  1
  Zr  Zr75  1  0.29823415  0.49261101  0.70429405  1
  Zr  Zr76  1  0.50080507  0.30874485  0.29795437  1
  Zr  Zr77  1  0.49118471  0.31117873  0.49472543  1
  Zr  Zr78  1  0.09330366  0.49583691  0.50527117  1
  Zr  Zr79  1  0.20800363  0.80067530  -0.00532177  1
  Zr  Zr80  1  0.70231688  0.89081642  0.90884765  1
  Zr  Zr81  1  0.89707559  0.29838238  0.08965219  1
  Zr  Zr82  1  0.79460051  0.60141669  0.19601370  1
  Zr  Zr83  1  0.69533460  0.89786047  0.09904137  1
  Zr  Zr84  1  0.90896406  0.90304022  0.70420040  1
  Zr  Zr85  1  0.80511956  0.19845611  0.80275264  1
  Zr  Zr86  1  0.29520719  0.09679852  0.49567183  1
  Zr  Zr87  1  -0.00835090  0.39993269  0.40257605  1
  Zr  Zr88  1  0.50410181  0.70948554  0.28512591  1
  Zr  Zr89  1  0.49532375  0.91077446  0.90396950  1
  Zr  Zr90  1  0.60227446  0.19682026  0.40264409  1
  Zr  Zr91  1  0.30837950  0.68811646  0.08655307  1
  Zr  Zr92  1  0.79046886  0.39357692  0.19639763  1
  Zr  Zr93  1  0.30259779  0.30615441  0.70697795  1
  Zr  Zr94  1  -0.00757753  0.19704187  0.79822566  1
  Zr  Zr95  1  0.70212912  0.50362827  0.70247794  1
  Zr  Zr96  1  0.60169693  0.00363071  0.80717854  1
  Zr  Zr97  1  0.40137048  0.58393009  0.80352159  1
  Zr  Zr98  1  0.70484322  0.50025832  0.50827961  1
  Zr  Zr99  1  0.49958973  0.68738146  0.69238351  1
  Ta  Ta100  1  0.80554933  0.60479820  0.40549097  1
  Ta  Ta101  1  0.70098131  0.49999262  0.90026110  1
  Ta  Ta102  1  0.80144904  0.40062298  0.80443742  1
  Ta  Ta103  1  0.00116704  0.19858029  -0.00965145  1
  Ta  Ta104  1  0.69898128  0.29857305  0.90204157  1
  Ta  Ta105  1  0.40077750  -0.00610364  0.40641837  1
  Ta  Ta106  1  0.39521151  0.00253468  0.00124618  1
  Ta  Ta107  1  0.20125646  0.00123593  0.59769859  1
  Ta  Ta108  1  0.50349685  0.30067440  0.71112401  1
  Ta  Ta109  1  0.09780735  0.89613629  0.09018675  1
  Ta  Ta110  1  0.10096464  0.69921238  0.09140877  1
  Ta  Ta111  1  0.59967604  0.80154503  0.40355622  1
  Ta  Ta112  1  0.58776277  0.20135631  0.59841955  1
  Ta  Ta113  1  0.20114225  0.40272265  0.19475999  1
  Ta  Ta114  1  0.19457573  0.59311061  0.80894002  1
  Ta  Ta115  1  0.80254035  0.39653258  0.40801998  1
  Ta  Ta116  1  0.29557427  0.09735675  0.90101454  1
  Ta  Ta117  1  0.09300275  0.09704515  0.50237421  1
  Ta  Ta118  1  0.18950086  0.40541296  -0.00169587  1
  Ta  Ta119  1  0.51242228  0.29698158  0.89858132  1
  Ta  Ta120  1  0.30439811  0.30429406  0.30097790  1
  Ta  Ta121  1  0.20115750  0.21456013  0.20104451  1
  Ta  Ta122  1  0.61200686  0.01122577  0.20411295  1
  Ta  Ta123  1  0.08166118  0.29359709  0.50827138  1
  Ta  Ta124  1  0.10006564  0.09056060  0.89947554  1
  Ta  Ta125  1  0.70596447  0.30053613  0.50898971  1
  Ta  Ta126  1  0.80260449  0.60016036  0.80375143  1
  Ta  Ta127  1  -0.00190647  -0.00565969  0.39216679  1
  Ta  Ta128  1  0.08796734  0.09232495  0.69168373  1
  Ta  Ta129  1  0.90402966  0.10491153  0.09884053  1
  Ta  Ta130  1  0.59645276  0.00190637  0.39998439  1
  Ta  Ta131  1  0.89829305  0.49085675  0.69738431  1
  Ta  Ta132  1  -0.00319950  0.80175612  0.39514040  1
  Ta  Ta133  1  -0.00450328  0.60546924  0.40118159  1
  Ta  Ta134  1  0.59079243  0.80446078  0.60036835  1
  Ta  Ta135  1  0.80065891  0.79844428  0.39567377  1
  Ta  Ta136  1  0.51227065  0.48630489  0.89705851  1
  Ta  Ta137  1  0.90244995  0.90253003  0.49614276  1
  Ta  Ta138  1  0.30235403  0.49766983  0.29127721  1
  Ta  Ta139  1  0.70153509  0.69296797  0.90369021  1
  Ta  Ta140  1  0.09660427  0.90441936  0.89991841  1
  Ta  Ta141  1  0.60202620  0.60444454  0.19325463  1
  Ta  Ta142  1  0.40252518  0.20032800  0.59616293  1
  Ta  Ta143  1  -0.00141775  0.00047131  0.00371942  1
  Ta  Ta144  1  0.69821045  0.69302404  0.70001132  1
  Ta  Ta145  1  0.89935054  0.30701989  0.90532883  1
  Ta  Ta146  1  0.80511197  0.00613509  0.80424410  1
  Ta  Ta147  1  0.00376629  0.79391780  0.80845644  1
  Ta  Ta148  1  0.40315287  -0.00284627  0.59279865  1
  Ta  Ta149  1  0.80831483  0.00004281  0.60821101  1
  Ti  Ti150  1  0.29955062  0.91438539  0.89696787  1
  Ti  Ti151  1  0.39437553  0.20727341  0.19713107  1
  Ti  Ti152  1  0.79906626  0.60226695  0.00116572  1
  Ti  Ti153  1  0.19498476  0.59319419  0.19348247  1
  Ti  Ti154  1  0.60728434  0.59463845  0.00350664  1
  Ti  Ti155  1  0.40521728  0.59753815  0.19275388  1
  Ti  Ti156  1  0.29223435  0.49012637  0.89423609  1
  Ti  Ti157  1  0.61064415  0.40145839  0.18492002  1
  Ti  Ti158  1  0.19218649  0.58898208  -0.00578324  1
  Ti  Ti159  1  0.40833565  0.40145528  0.60911462  1
  Ti  Ti160  1  0.80272332  0.20743427  0.39426879  1
  Ti  Ti161  1  0.81031953  0.19866209  0.61043697  1
  Ti  Ti162  1  -0.00674965  -0.01138189  0.19864037  1
  Ti  Ti163  1  0.29515701  0.29735395  0.09264703  1
  Ti  Ti164  1  0.49919169  0.69440625  0.50862045  1
  Ti  Ti165  1  0.49895731  0.10873498  0.90898582  1
  Ti  Ti166  1  0.69805577  0.30768242  0.31351405  1
  Ti  Ti167  1  0.90124922  0.31067763  0.69564896  1
  Ti  Ti168  1  0.30510963  0.68498906  0.90639567  1
  Ti  Ti169  1  0.00214043  0.40121387  0.80907297  1
  Ti  Ti170  1  0.19035228  0.20387663  -0.00504886  1
  Ti  Ti171  1  0.90116309  0.69536520  0.70532598  1
  Ti  Ti172  1  0.10781607  0.89370126  0.30392796  1
  Ti  Ti173  1  0.50399294  0.49455419  0.29150048  1
  Ti  Ti174  1  0.29533560  0.50224140  0.09486587  1
  Ti  Ti175  1  0.90249873  0.10002533  0.29514185  1
  Ti  Ti176  1  0.90376724  0.69817675  0.91682997  1
  Ti  Ti177  1  0.78912544  0.40148500  0.00160662  1
  Ti  Ti178  1  0.09421162  0.69737089  0.90999286  1
  Ti  Ti179  1  0.59784273  0.40784720  0.40899542  1
  Ti  Ti180  1  0.69131328  0.89116993  0.29831932  1
  Ti  Ti181  1  0.09656942  0.49443746  0.70286842  1
  Ti  Ti182  1  0.20129708  0.59083377  0.60035099  1
  Ti  Ti183  1  0.89573602  0.30445455  0.51397207  1
  Ti  Ti184  1  0.50275087  0.90847500  0.10188387  1
  Ti  Ti185  1  0.10614751  0.70620513  0.29819743  1
  Ti  Ti186  1  0.61154670  0.39776506  0.00230605  1
  Ti  Ti187  1  0.81069851  0.60132157  0.59884863  1
  Ti  Ti188  1  0.69644171  0.11284242  0.90698024  1
  Ti  Ti189  1  0.19725527  -0.00116862  -0.00110188  1
  Ti  Ti190  1  0.10230493  0.49935171  0.29833019  1
  Ti  Ti191  1  0.41020227  0.81655802  0.59783753  1
  Ti  Ti192  1  0.39602265  0.20364525  0.40667258  1
  Ti  Ti193  1  0.90003166  0.10234461  0.90683444  1
  Ti  Ti194  1  0.60402375  0.01166744  0.00658043  1
  Ti  Ti195  1  0.60128568  0.59458567  0.80231773  1
  Ti  Ti196  1  -0.00556422  0.00401988  0.80625017  1
  Ti  Ti197  1  0.09950952  0.30150797  0.29791163  1
  Ti  Ti198  1  -0.00577070  0.20699501  0.20362157  1
  Ti  Ti199  1  0.20307591  0.80532339  0.19304667  1
  Mo  Mo200  1  0.39711191  0.00695225  0.80998316  1
  Mo  Mo201  1  0.50433558  0.49289250  0.70683081  1
  Mo  Mo202  1  0.69880739  0.29849755  0.08271354  1
  Mo  Mo203  1  0.90785304  0.90661934  0.09808252  1
  Mo  Mo204  1  0.09198981  0.30399384  0.90425102  1
  Mo  Mo205  1  0.39683372  0.81771178  -0.00031863  1
  Mo  Mo206  1  0.40283726  0.40374460  0.38452227  1
  Mo  Mo207  1  0.49663552  0.89948026  0.69752930  1
  Mo  Mo208  1  0.70157748  0.10175325  0.09437948  1
  Mo  Mo209  1  0.39593516  0.19948559  -0.00581030  1
  Mo  Mo210  1  0.00448157  0.40009635  -0.00469249  1
  Mo  Mo211  1  0.69988020  0.70653840  0.30206615  1
  Mo  Mo212  1  0.90609059  0.70260835  0.08688370  1
  Mo  Mo213  1  0.20125129  0.80022173  0.39502704  1
  Mo  Mo214  1  0.29300001  0.90483152  0.08062907  1
  Mo  Mo215  1  0.59673170  0.60047097  0.60193908  1
  Mo  Mo216  1  0.81290651  0.78968605  0.00211372  1
  Mo  Mo217  1  0.90146568  0.09264367  0.70063186  1
  Mo  Mo218  1  0.69699101  0.50116340  0.09260289  1
  Mo  Mo219  1  0.41525414  0.39554814  0.80435859  1
  Mo  Mo220  1  0.39341557  0.57316888  -0.00329935  1
  Mo  Mo221  1  0.69883285  0.09908164  0.30401927  1
  Mo  Mo222  1  0.50388202  0.90003807  0.49503370  1
  Mo  Mo223  1  0.60852691  0.39870461  0.80591960  1
  Mo  Mo224  1  -0.00865173  0.40056925  0.60211956  1
  Mo  Mo225  1  0.49284440  0.10112053  0.49862264  1
  Mo  Mo226  1  0.89357415  0.50375132  0.50134853  1
  Mo  Mo227  1  0.60689511  0.19811859  -0.00298213  1
  Mo  Mo228  1  0.59942562  0.80366364  0.20131228  1
  Mo  Mo229  1  0.40965241  0.58243832  0.59848720  1
  Mo  Mo230  1  0.10811772  0.50360994  0.09641174  1
  Mo  Mo231  1  0.00243359  -0.00111980  0.59293722  1
  Mo  Mo232  1  0.00596412  0.79930672  0.00025215  1
  Mo  Mo233  1  0.89009366  0.29978853  0.30368839  1
  Mo  Mo234  1  0.28566935  0.89884535  0.31688324  1
  Mo  Mo235  1  0.00632578  0.60347487  0.00081633  1
  Mo  Mo236  1  0.50321345  0.50364386  0.50907445  1
  Mo  Mo237  1  0.19303460  0.00252656  0.80310281  1
  Mo  Mo238  1  0.80299589  0.19919308  -0.00386778  1
  Mo  Mo239  1  0.30192550  0.90373584  0.50381280  1
  Mo  Mo240  1  0.17946180  0.40939144  0.80751053  1
  Mo  Mo241  1  0.09631548  0.50061135  0.90346237  1
  Mo  Mo242  1  0.49829332  0.68864708  0.09929372  1
  Mo  Mo243  1  -0.00776430  0.19861497  0.60155784  1
  Mo  Mo244  1  0.90087366  0.70382269  0.49137708  1
  Mo  Mo245  1  0.90750124  0.89998443  0.30153554  1
  Mo  Mo246  1  0.19747381  -0.00366509  0.39854915  1
  Mo  Mo247  1  0.31061631  0.29853883  0.49746376  1
  Mo  Mo248  1  0.59743896  0.20115253  0.80431776  1
  Mo  Mo249  1  0.80249578  0.39331008  0.60357042  1
