# generated using pymatgen
data_HfZrTaTiMo
_symmetry_space_group_name_H-M   'P 1'
_cell_length_a   16.87876242
_cell_length_b   16.88794107
_cell_length_c   16.87488108
_cell_angle_alpha   90.00386983
_cell_angle_beta   89.96795096
_cell_angle_gamma   89.97943501
_symmetry_Int_Tables_number   1
_chemical_formula_structural   HfZrTaTiMo
_chemical_formula_sum   'Hf50 Zr50 Ta50 Ti50 Mo50'
_cell_volume   4810.14235154
_cell_formula_units_Z   50
loop_
 _symmetry_equiv_pos_site_id
 _symmetry_equiv_pos_as_xyz
  1  'x, y, z'
loop_
 _atom_site_type_symbol
 _atom_site_label
 _atom_site_symmetry_multiplicity
 _atom_site_fract_x
 _atom_site_fract_y
 _atom_site_fract_z
 _atom_site_occupancy
  Hf  Hf0  1  0.19813473  0.41431757  0.60992472  1
  Hf  Hf1  1  0.89595896  0.29678668  0.10214861  1
  Hf  Hf2  1  0.40561149  0.79425812  0.40805971  1
  Hf  Hf3  1  0.89442250  0.11046512  0.10353605  1
  Hf  Hf4  1  0.10813387  0.09900622  0.31104855  1
  Hf  Hf5  1  0.40043105  0.79223569  0.20068391  1
  Hf  Hf6  1  0.10171638  0.10074524  0.50025359  1
  Hf  Hf7  1  0.70072908  0.29326181  0.29734487  1
  Hf  Hf8  1  0.19952875  0.39057742  0.01993928  1
  Hf  Hf9  1  0.49735344  0.89740688  0.09542509  1
  Hf  Hf10  1  0.78593569  0.79633115  0.80331962  1
  Hf  Hf11  1  0.09605764  0.70441374  0.10517649  1
  Hf  Hf12  1  0.20002578  0.80467688  0.00081523  1
  Hf  Hf13  1  0.79755431  0.59124863  0.39704377  1
  Hf  Hf14  1  0.60784165  0.79267570  -0.00434879  1
  Hf  Hf15  1  0.09964001  0.90900361  0.49188239  1
  Hf  Hf16  1  0.50244644  0.90547077  0.89687919  1
  Hf  Hf17  1  0.50277930  0.49856851  0.69628640  1
  Hf  Hf18  1  0.20126910  0.20239755  0.00690299  1
  Hf  Hf19  1  0.30409398  0.90653634  0.30586941  1
  Hf  Hf20  1  0.79084772  0.59454572  0.79455981  1
  Hf  Hf21  1  0.39693947  0.40072908  0.79261451  1
  Hf  Hf22  1  0.00146697  0.59105711  0.79415995  1
  Hf  Hf23  1  0.39874906  0.20292409  0.20176503  1
  Hf  Hf24  1  0.60069838  0.58524077  0.40230506  1
  Hf  Hf25  1  0.60895563  0.60790267  0.80154366  1
  Hf  Hf26  1  0.20874011  0.79873057  0.40061733  1
  Hf  Hf27  1  0.39312705  0.20020194  0.38960614  1
  Hf  Hf28  1  0.89474054  0.89574748  0.10090620  1
  Hf  Hf29  1  0.59267799  0.19825836  0.19596697  1
  Hf  Hf30  1  0.59717753  0.59884867  0.00415409  1
  Hf  Hf31  1  0.90424104  0.48727848  0.50232685  1
  Hf  Hf32  1  0.20698403  0.80257160  0.59310707  1
  Hf  Hf33  1  0.49859401  0.68668243  0.30040017  1
  Hf  Hf34  1  0.09905125  0.70353515  0.30103725  1
  Hf  Hf35  1  -0.00027703  0.59647090  0.39226350  1
  Hf  Hf36  1  0.09706430  0.10250608  0.10739025  1
  Hf  Hf37  1  0.90071051  0.49211335  0.29403036  1
  Hf  Hf38  1  0.70411210  0.09816923  0.29841980  1
  Hf  Hf39  1  0.30417968  0.90459150  0.89216445  1
  Hf  Hf40  1  0.60126738  0.19797431  0.79693489  1
  Hf  Hf41  1  0.50087893  0.30246267  0.89868325  1
  Hf  Hf42  1  0.20586812  0.00321682  0.20387685  1
  Hf  Hf43  1  0.50151755  0.29488551  0.50366552  1
  Hf  Hf44  1  0.60892669  0.40203586  0.79878043  1
  Hf  Hf45  1  0.10975389  0.69871143  0.89106860  1
  Hf  Hf46  1  0.40180519  0.59927309  0.79895816  1
  Hf  Hf47  1  0.09611106  0.90121264  0.10622017  1
  Hf  Hf48  1  0.59817142  -0.00527746  0.61539344  1
  Hf  Hf49  1  0.60640221  0.60298872  0.59738576  1
  Zr  Zr50  1  0.89599726  0.29499072  0.90395706  1
  Zr  Zr51  1  0.50016808  0.71546670  0.69211890  1
  Zr  Zr52  1  0.89902792  0.48524478  0.90411970  1
  Zr  Zr53  1  0.90084104  0.70296176  0.69882751  1
  Zr  Zr54  1  0.29410530  0.70949158  0.70802268  1
  Zr  Zr55  1  0.69951024  0.69467897  0.29375064  1
  Zr  Zr56  1  0.40384693  0.39571694  0.38886535  1
  Zr  Zr57  1  0.60341509  -0.00711628  0.40775347  1
  Zr  Zr58  1  0.10774790  0.90288903  0.70414786  1
  Zr  Zr59  1  0.02434438  0.39253313  0.20773173  1
  Zr  Zr60  1  0.49490134  0.10420339  0.51267653  1
  Zr  Zr61  1  0.70772319  0.29166435  0.69418960  1
  Zr  Zr62  1  0.89962260  0.89938865  0.49634542  1
  Zr  Zr63  1  0.40068482  0.20695757  0.00794486  1
  Zr  Zr64  1  0.90069898  0.70070432  0.90345542  1
  Zr  Zr65  1  0.00559641  0.59580434  0.60067402  1
  Zr  Zr66  1  0.09691656  0.29497739  0.50442166  1
  Zr  Zr67  1  0.39811438  0.39234241  0.20072693  1
  Zr  Zr68  1  0.79186697  0.00001201  0.60180312  1
  Zr  Zr69  1  0.10309273  0.48693200  0.89705193  1
  Zr  Zr70  1  0.70034654  0.28892932  0.50135321  1
  Zr  Zr71  1  0.40022828  0.60569745  0.59233462  1
  Zr  Zr72  1  0.79715919  0.60004921  0.00392877  1
  Zr  Zr73  1  0.19881176  0.60051468  0.59697801  1
  Zr  Zr74  1  0.70628931  0.89988336  0.10793071  1
  Zr  Zr75  1  0.20307322  0.59628777  0.01198909  1
  Zr  Zr76  1  0.09703544  0.29169569  0.69838629  1
  Zr  Zr77  1  -0.00121847  0.00327737  -0.00569486  1
  Zr  Zr78  1  0.79055706  0.59290608  0.60103471  1
  Zr  Zr79  1  0.40132276  0.01626342  0.00715680  1
  Zr  Zr80  1  0.60860914  0.41278944  0.58906839  1
  Zr  Zr81  1  0.80154884  0.01077120  -0.00859833  1
  Zr  Zr82  1  0.60575437  0.01341256  0.00516081  1
  Zr  Zr83  1  -0.00351730  0.59624258  0.00884628  1
  Zr  Zr84  1  0.29670292  0.49798765  0.90001807  1
  Zr  Zr85  1  0.18945780  0.39500088  0.37546177  1
  Zr  Zr86  1  -0.00890358  0.00827049  0.80069360  1
  Zr  Zr87  1  0.69715951  0.70851088  0.49221792  1
  Zr  Zr88  1  0.89655062  0.29275704  0.29811421  1
  Zr  Zr89  1  0.30295645  0.10316622  0.88711404  1
  Zr  Zr90  1  0.29292135  0.29755962  0.49795761  1
  Zr  Zr91  1  0.59725516  0.80095141  0.20348434  1
  Zr  Zr92  1  0.00274682  0.80254515  0.60029683  1
  Zr  Zr93  1  0.30112893  0.70332364  0.90003118  1
  Zr  Zr94  1  0.29692871  0.29531566  0.69870249  1
  Zr  Zr95  1  0.10325952  0.10997478  0.88790094  1
  Zr  Zr96  1  0.40044785  0.40545538  0.00692565  1
  Zr  Zr97  1  0.78507978  0.80554942  0.60542591  1
  Zr  Zr98  1  0.09451731  0.90052215  0.30767436  1
  Zr  Zr99  1  0.30512758  0.89891127  0.09739562  1
  Ta  Ta100  1  0.39536853  0.40483176  0.59512745  1
  Ta  Ta101  1  0.89973562  0.48309672  0.69540796  1
  Ta  Ta102  1  0.79891870  0.80941003  0.39104026  1
  Ta  Ta103  1  0.10085188  0.49783483  0.49068888  1
  Ta  Ta104  1  -0.01794372  0.00810143  0.39825595  1
  Ta  Ta105  1  0.20665992  0.79597155  0.20319928  1
  Ta  Ta106  1  0.09711400  0.70209416  0.49040451  1
  Ta  Ta107  1  0.40581576  0.80883752  0.79631075  1
  Ta  Ta108  1  0.00239700  0.39246061  0.39774661  1
  Ta  Ta109  1  -0.00614534  0.19682280  0.40290702  1
  Ta  Ta110  1  0.10609343  0.70577094  0.70757756  1
  Ta  Ta111  1  0.20648029  0.00496870  0.59992926  1
  Ta  Ta112  1  -0.00187465  0.80191908  -0.00199585  1
  Ta  Ta113  1  0.29824362  0.50836228  0.29770922  1
  Ta  Ta114  1  0.60144899  0.40296864  0.39048726  1
  Ta  Ta115  1  0.90064776  0.70487883  0.48952863  1
  Ta  Ta116  1  0.70135368  0.29951330  0.09992485  1
  Ta  Ta117  1  0.10398521  0.29688944  0.89152160  1
  Ta  Ta118  1  0.59648813  0.40333092  0.20397724  1
  Ta  Ta119  1  -0.00125971  0.39065648  0.78987472  1
  Ta  Ta120  1  0.79443405  0.39727101  0.40139014  1
  Ta  Ta121  1  0.79718001  0.00588934  0.79875304  1
  Ta  Ta122  1  0.80407395  0.19292224  0.40606476  1
  Ta  Ta123  1  0.49277668  0.89647648  0.51377940  1
  Ta  Ta124  1  0.60349268  0.40253178  0.00505370  1
  Ta  Ta125  1  -0.00811025  0.60422029  0.19891315  1
  Ta  Ta126  1  0.89675842  0.90359176  0.70701048  1
  Ta  Ta127  1  -0.00947396  0.00106700  0.21020170  1
  Ta  Ta128  1  0.50483720  0.10231842  0.89500491  1
  Ta  Ta129  1  0.50053889  0.29287910  0.68631939  1
  Ta  Ta130  1  -0.00423014  0.00793789  0.60442940  1
  Ta  Ta131  1  0.78995709  0.40227662  0.20095583  1
  Ta  Ta132  1  0.29113145  0.29919570  0.89124438  1
  Ta  Ta133  1  0.69567313  0.50110982  0.10870429  1
  Ta  Ta134  1  0.70263886  0.69604377  0.10808293  1
  Ta  Ta135  1  0.50207808  0.09742157  0.30358920  1
  Ta  Ta136  1  0.40227529  0.00351879  0.40257570  1
  Ta  Ta137  1  0.49583217  0.70611043  0.90133046  1
  Ta  Ta138  1  0.40623280  0.19895674  0.79214969  1
  Ta  Ta139  1  0.40497305  0.01157716  0.20448857  1
  Ta  Ta140  1  0.00250158  0.80556871  0.80538058  1
  Ta  Ta141  1  0.89507199  0.89742772  0.89821218  1
  Ta  Ta142  1  0.31086483  0.90622318  0.69490600  1
  Ta  Ta143  1  0.10127947  0.10569894  0.69435283  1
  Ta  Ta144  1  -0.01312601  0.80055833  0.20439437  1
  Ta  Ta145  1  0.90007337  0.29459083  0.50983308  1
  Ta  Ta146  1  0.29655673  0.50325363  0.48552519  1
  Ta  Ta147  1  0.19889289  0.00420498  -0.00014441  1
  Ta  Ta148  1  0.40893663  0.60227600  0.01209701  1
  Ta  Ta149  1  0.60178845  0.20142580  0.00186217  1
  Ti  Ti150  1  0.10410023  0.90230630  0.89657941  1
  Ti  Ti151  1  0.29954013  0.09742195  0.49698927  1
  Ti  Ti152  1  0.30816652  0.91101071  0.50506785  1
  Ti  Ti153  1  0.31025888  0.09922687  0.69177587  1
  Ti  Ti154  1  0.48871469  0.50207851  0.49221050  1
  Ti  Ti155  1  0.20693697  0.19108918  0.60085769  1
  Ti  Ti156  1  0.41830578  0.00457680  0.78271388  1
  Ti  Ti157  1  0.70188440  0.49477763  0.90540033  1
  Ti  Ti158  1  0.20253996  0.21437005  0.20785818  1
  Ti  Ti159  1  0.30354515  0.50439278  0.11461889  1
  Ti  Ti160  1  0.59436159  0.00414680  0.19895131  1
  Ti  Ti161  1  0.50143402  0.50034082  0.90172979  1
  Ti  Ti162  1  0.20424728  0.00586680  0.79216181  1
  Ti  Ti163  1  0.79995194  0.39579822  0.79449689  1
  Ti  Ti164  1  0.10250062  0.50143257  0.11189018  1
  Ti  Ti165  1  0.69737726  0.90805270  0.89566398  1
  Ti  Ti166  1  0.00568759  0.19945806  0.20710598  1
  Ti  Ti167  1  0.19734826  0.59969206  0.20582718  1
  Ti  Ti168  1  0.30197674  0.68986562  0.48969994  1
  Ti  Ti169  1  0.79682343  0.79374890  -0.00072535  1
  Ti  Ti170  1  0.79882146  0.00016188  0.40288109  1
  Ti  Ti171  1  0.70846008  0.10876019  0.10736196  1
  Ti  Ti172  1  0.89380817  0.70635106  0.29862774  1
  Ti  Ti173  1  0.60348947  0.80524687  0.79531240  1
  Ti  Ti174  1  0.19796442  0.57143225  0.77706077  1
  Ti  Ti175  1  0.80382013  0.59723916  0.19690687  1
  Ti  Ti176  1  0.70078206  0.10266103  0.70020759  1
  Ti  Ti177  1  0.50817357  0.30627959  0.09857583  1
  Ti  Ti178  1  0.79193009  0.40019388  0.00832890  1
  Ti  Ti179  1  0.01105245  0.38907611  0.00898368  1
  Ti  Ti180  1  0.49768003  0.90508147  0.30293443  1
  Ti  Ti181  1  0.49383254  0.50643735  0.28940598  1
  Ti  Ti182  1  0.80580778  -0.00321387  0.20757517  1
  Ti  Ti183  1  0.59736295  0.19800271  0.39744447  1
  Ti  Ti184  1  0.00174697  0.20161010  -0.00351356  1
  Ti  Ti185  1  0.60372812  0.81036321  0.60238247  1
  Ti  Ti186  1  0.59602403  0.80585909  0.40376044  1
  Ti  Ti187  1  0.70613867  0.29625690  0.90640635  1
  Ti  Ti188  1  0.89768498  0.10477776  0.50979828  1
  Ti  Ti189  1  0.79929280  0.39621093  0.60035681  1
  Ti  Ti190  1  0.29573897  0.10459798  0.10785118  1
  Ti  Ti191  1  0.30343428  0.68540080  0.30244243  1
  Ti  Ti192  1  0.70308299  0.10907500  0.89737665  1
  Ti  Ti193  1  -0.01317621  0.19935403  0.79149724  1
  Ti  Ti194  1  0.89347256  0.10378969  0.29798401  1
  Ti  Ti195  1  0.80892325  0.19229983  0.79632188  1
  Ti  Ti196  1  0.69804279  0.10483411  0.50504837  1
  Ti  Ti197  1  0.30605896  0.69669785  0.10282028  1
  Ti  Ti198  1  0.90099640  0.48995811  0.10457566  1
  Ti  Ti199  1  0.70292877  0.90061467  0.29845751  1
  Mo  Mo200  1  0.19571486  0.39558543  0.79943996  1
  Mo  Mo201  1  0.39727689  0.80533382  0.59765045  1
  Mo  Mo202  1  0.79446577  0.19995547  0.20025648  1
  Mo  Mo203  1  0.19873159  0.60035267  0.39805063  1
  Mo  Mo204  1  0.89727071  0.10244727  0.69844575  1
  Mo  Mo205  1  0.39882224  0.59651218  0.39686019  1
  Mo  Mo206  1  -0.00885497  0.79586868  0.39598954  1
  Mo  Mo207  1  0.39618280  0.59743990  0.19674395  1
  Mo  Mo208  1  0.69352760  0.70813961  0.70010777  1
  Mo  Mo209  1  0.30155812  0.10089203  0.30234938  1
  Mo  Mo210  1  0.50129773  0.90264478  0.70198853  1
  Mo  Mo211  1  0.09546739  0.28891883  0.10269328  1
  Mo  Mo212  1  0.39724944  0.19852542  0.60084384  1
  Mo  Mo213  1  0.89326976  0.90614298  0.29986362  1
  Mo  Mo214  1  0.08973743  0.49323457  0.69553067  1
  Mo  Mo215  1  0.30726771  0.49884034  0.69355148  1
  Mo  Mo216  1  -0.00126177  0.39553441  0.59670437  1
  Mo  Mo217  1  0.70718734  0.49338242  0.70315670  1
  Mo  Mo218  1  0.51114754  0.29646937  0.30435626  1
  Mo  Mo219  1  0.89427370  0.70708034  0.10764839  1
  Mo  Mo220  1  0.10139342  0.51533087  0.29486336  1
  Mo  Mo221  1  0.50038278  0.10370756  0.70206764  1
  Mo  Mo222  1  0.29422729  0.30024239  0.10654278  1
  Mo  Mo223  1  0.59499555  0.59277566  0.19524209  1
  Mo  Mo224  1  0.80144849  0.79569926  0.20340199  1
  Mo  Mo225  1  0.78884152  0.20325309  -0.00055986  1
  Mo  Mo226  1  0.20167867  0.81682566  0.80076680  1
  Mo  Mo227  1  0.80184713  0.19206160  0.59892670  1
  Mo  Mo228  1  0.40374152  0.78981324  -0.00357943  1
  Mo  Mo229  1  -0.00945213  0.19335559  0.60111791  1
  Mo  Mo230  1  0.29090826  0.29928718  0.29690559  1
  Mo  Mo231  1  0.50380963  0.70853957  0.49656419  1
  Mo  Mo232  1  0.89752680  0.29676264  0.69705961  1
  Mo  Mo233  1  0.69470445  0.90586570  0.71687104  1
  Mo  Mo234  1  0.70100836  0.49452914  0.29494995  1
  Mo  Mo235  1  0.50519107  0.10223805  0.10488448  1
  Mo  Mo236  1  0.20370349  0.40062462  0.19974192  1
  Mo  Mo237  1  0.49975361  0.69699499  0.09903383  1
  Mo  Mo238  1  0.60241108  0.18986249  0.60462875  1
  Mo  Mo239  1  0.89389200  0.10719115  0.89698608  1
  Mo  Mo240  1  0.69497831  0.89915267  0.49016275  1
  Mo  Mo241  1  0.21527148  0.00336939  0.40819460  1
  Mo  Mo242  1  0.60668542  0.00663164  0.80361011  1
  Mo  Mo243  1  0.39653315  0.00220528  0.60104210  1
  Mo  Mo244  1  0.20245519  0.19585575  0.39839124  1
  Mo  Mo245  1  0.09782099  0.27892544  0.30521331  1
  Mo  Mo246  1  0.69422653  0.70017702  0.90312623  1
  Mo  Mo247  1  0.50457420  0.50028682  0.10534156  1
  Mo  Mo248  1  0.70719027  0.49055499  0.49405452  1
  Mo  Mo249  1  0.20812021  0.19591498  0.79371711  1
