# generated using pymatgen
data_HfZrTaTiMo
_symmetry_space_group_name_H-M   'P 1'
_cell_length_a   16.88700218
_cell_length_b   16.89528788
_cell_length_c   16.89307944
_cell_angle_alpha   89.90949380
_cell_angle_beta   89.94191403
_cell_angle_gamma   89.92068268
_symmetry_Int_Tables_number   1
_chemical_formula_structural   HfZrTaTiMo
_chemical_formula_sum   'Hf50 Zr50 Ta50 Ti50 Mo50'
_cell_volume   4819.76429438
_cell_formula_units_Z   50
loop_
 _symmetry_equiv_pos_site_id
 _symmetry_equiv_pos_as_xyz
  1  'x, y, z'
loop_
 _atom_site_type_symbol
 _atom_site_label
 _atom_site_symmetry_multiplicity
 _atom_site_fract_x
 _atom_site_fract_y
 _atom_site_fract_z
 _atom_site_occupancy
  Hf  Hf0  1  0.20230903  0.19123041  0.19685981  1
  Hf  Hf1  1  0.09593368  0.09508376  0.50504262  1
  Hf  Hf2  1  0.20382964  -0.00312255  -0.00011884  1
  Hf  Hf3  1  0.91100770  0.51064668  0.10567980  1
  Hf  Hf4  1  0.91053549  0.91190902  0.49950594  1
  Hf  Hf5  1  0.80150006  0.80957049  0.79091986  1
  Hf  Hf6  1  0.30419878  0.30023742  0.88996787  1
  Hf  Hf7  1  0.71023957  0.29154460  0.50630477  1
  Hf  Hf8  1  0.60822048  -0.00643505  0.59835032  1
  Hf  Hf9  1  0.60050829  0.60413679  0.80905742  1
  Hf  Hf10  1  0.09759906  0.49650231  0.28336200  1
  Hf  Hf11  1  0.19607444  0.40927104  0.40523148  1
  Hf  Hf12  1  0.60719610  0.40398436  -0.01024763  1
  Hf  Hf13  1  0.39935565  0.39738506  0.20299292  1
  Hf  Hf14  1  0.90181853  0.50571864  0.50147423  1
  Hf  Hf15  1  0.30020486  0.08925688  0.70004787  1
  Hf  Hf16  1  0.20492211  0.60851308  0.20582411  1
  Hf  Hf17  1  0.59978241  0.18435852  0.80647278  1
  Hf  Hf18  1  0.40074412  0.61029504  0.81750991  1
  Hf  Hf19  1  0.00074941  0.80404952  0.79858873  1
  Hf  Hf20  1  0.20053778  0.18747723  0.00120556  1
  Hf  Hf21  1  0.50199796  0.09636151  0.49792629  1
  Hf  Hf22  1  0.09947696  0.09009200  0.69761558  1
  Hf  Hf23  1  0.49209582  0.70655174  0.49858814  1
  Hf  Hf24  1  0.69279073  0.71558648  0.50046092  1
  Hf  Hf25  1  0.69675741  0.90724048  0.29508622  1
  Hf  Hf26  1  0.80588622  0.40154302  -0.00287436  1
  Hf  Hf27  1  0.40098311  0.41801399  -0.00788972  1
  Hf  Hf28  1  0.49287442  0.49365240  0.31046580  1
  Hf  Hf29  1  0.09383938  0.30021447  0.29451145  1
  Hf  Hf30  1  0.49259735  0.50225839  0.70323150  1
  Hf  Hf31  1  0.89072882  0.29058816  0.70266977  1
  Hf  Hf32  1  0.29817488  0.50587263  0.70427952  1
  Hf  Hf33  1  0.00443638  0.02052785  0.38078968  1
  Hf  Hf34  1  0.20524970  0.80071340  0.79936083  1
  Hf  Hf35  1  -0.00294859  -0.00938092  0.80041313  1
  Hf  Hf36  1  0.10392886  0.51085074  0.90314544  1
  Hf  Hf37  1  0.89743277  0.28929140  0.50090531  1
  Hf  Hf38  1  0.69929101  0.71121850  0.09562706  1
  Hf  Hf39  1  0.59673370  0.00874937  -0.00450907  1
  Hf  Hf40  1  0.79512431  0.60508309  0.39656120  1
  Hf  Hf41  1  0.49272598  0.30487997  0.70910317  1
  Hf  Hf42  1  -0.00575233  0.60269109  0.79578832  1
  Hf  Hf43  1  0.59360431  0.61356524  0.20414509  1
  Hf  Hf44  1  0.70101442  0.50063125  0.10847384  1
  Hf  Hf45  1  0.89491649  0.08792082  0.90523498  1
  Hf  Hf46  1  0.59294037  0.60434655  -0.00701061  1
  Hf  Hf47  1  0.50134665  0.89291896  0.69769180  1
  Hf  Hf48  1  0.19733736  0.00561604  0.20248936  1
  Hf  Hf49  1  0.09192971  0.29565436  0.50354242  1
  Zr  Zr50  1  0.60906139  0.40818128  0.41080167  1
  Zr  Zr51  1  0.89434517  0.28500104  0.89656712  1
  Zr  Zr52  1  0.70687852  0.89842557  0.90603597  1
  Zr  Zr53  1  0.50703978  0.29625467  0.10374224  1
  Zr  Zr54  1  0.50723555  0.49630637  0.10804779  1
  Zr  Zr55  1  0.20095966  0.40220870  0.00156916  1
  Zr  Zr56  1  0.60343427  0.40849762  0.80626549  1
  Zr  Zr57  1  0.19665490  0.60617848  0.59110748  1
  Zr  Zr58  1  0.39533691  0.19831486  0.60379726  1
  Zr  Zr59  1  0.70847816  0.29721317  0.70761255  1
  Zr  Zr60  1  0.69518273  0.29699966  0.10763442  1
  Zr  Zr61  1  0.69311521  0.70731290  0.69441750  1
  Zr  Zr62  1  0.00484967  0.61125341  0.39598018  1
  Zr  Zr63  1  0.40521560  -0.00630321  0.20753440  1
  Zr  Zr64  1  0.09601169  0.89099585  0.11062311  1
  Zr  Zr65  1  0.10443400  0.69301029  0.90696032  1
  Zr  Zr66  1  0.49933498  0.70197306  0.69353338  1
  Zr  Zr67  1  0.80365638  0.39130437  0.20573933  1
  Zr  Zr68  1  0.49930974  0.31064476  0.49913086  1
  Zr  Zr69  1  0.60043253  0.19181328  0.60839189  1
  Zr  Zr70  1  0.59770523  0.60468460  0.39575975  1
  Zr  Zr71  1  0.50127815  0.89475383  0.09853236  1
  Zr  Zr72  1  -0.00867800  0.40532528  0.80300139  1
  Zr  Zr73  1  0.59874477  0.57870226  0.58248664  1
  Zr  Zr74  1  0.79407086  0.19231987  0.00677903  1
  Zr  Zr75  1  0.90393932  0.90890509  0.28665175  1
  Zr  Zr76  1  0.90458658  0.70387636  0.10321569  1
  Zr  Zr77  1  0.00687110  0.16925518  0.21557504  1
  Zr  Zr78  1  0.09400590  0.29622530  0.70204698  1
  Zr  Zr79  1  0.89633978  0.70443463  0.90640209  1
  Zr  Zr80  1  0.19737929  0.19328329  0.40198394  1
  Zr  Zr81  1  0.30193528  0.29795486  0.09834628  1
  Zr  Zr82  1  0.49694608  0.30085468  0.89689309  1
  Zr  Zr83  1  0.39912033  0.61157732  0.20235874  1
  Zr  Zr84  1  0.21179030  -0.01129640  0.59231354  1
  Zr  Zr85  1  0.90269136  0.50536850  0.29020190  1
  Zr  Zr86  1  -0.00529467  0.40267883  -0.00058206  1
  Zr  Zr87  1  0.80123327  0.80774361  0.39953876  1
  Zr  Zr88  1  0.30551859  0.89326168  0.10383352  1
  Zr  Zr89  1  0.40916305  0.18102792  -0.00738266  1
  Zr  Zr90  1  0.49597069  0.90420237  0.88936067  1
  Zr  Zr91  1  0.39165624  0.40246323  0.60330171  1
  Zr  Zr92  1  0.09564246  0.28940537  0.90421610  1
  Zr  Zr93  1  0.29688813  0.30785195  0.30087891  1
  Zr  Zr94  1  0.40506628  0.20605558  0.39553057  1
  Zr  Zr95  1  0.39879391  0.78740444  -0.01215380  1
  Zr  Zr96  1  0.38685050  0.80306011  0.59184576  1
  Zr  Zr97  1  0.80026543  0.60414171  0.59806161  1
  Zr  Zr98  1  0.10470467  0.89309287  0.30406857  1
  Zr  Zr99  1  -0.00438255  0.40248458  0.40214762  1
  Ta  Ta100  1  0.69610487  0.09513767  0.11194614  1
  Ta  Ta101  1  0.69749205  0.09753693  0.30152656  1
  Ta  Ta102  1  0.29849182  0.69499510  0.69901582  1
  Ta  Ta103  1  0.19561778  0.39991155  0.60277189  1
  Ta  Ta104  1  0.00195649  0.80619573  -0.00031461  1
  Ta  Ta105  1  0.09795784  0.50772503  0.10190611  1
  Ta  Ta106  1  0.10088034  0.50356294  0.70041148  1
  Ta  Ta107  1  0.10078617  0.89977185  0.69123180  1
  Ta  Ta108  1  0.70836543  0.10086032  0.49580700  1
  Ta  Ta109  1  0.50736377  0.09735046  0.30225326  1
  Ta  Ta110  1  0.80266325  0.40427623  0.60153935  1
  Ta  Ta111  1  0.09374639  0.29779612  0.10562362  1
  Ta  Ta112  1  0.90022852  0.08857607  0.10759112  1
  Ta  Ta113  1  0.09663658  0.71217613  0.49772431  1
  Ta  Ta114  1  0.20047998  0.80042832  0.59653377  1
  Ta  Ta115  1  0.30941373  0.09418240  0.30486521  1
  Ta  Ta116  1  0.38970969  0.61168792  0.39802012  1
  Ta  Ta117  1  -0.00340983  0.40688644  0.60550416  1
  Ta  Ta118  1  0.29535357  0.30628657  0.50168131  1
  Ta  Ta119  1  0.79997590  0.19188635  0.20608913  1
  Ta  Ta120  1  0.60328629  0.19996079  0.39688827  1
  Ta  Ta121  1  0.90096456  0.70759712  0.69102158  1
  Ta  Ta122  1  0.09741799  0.09361492  0.89943325  1
  Ta  Ta123  1  0.20165501  0.19306065  0.79794467  1
  Ta  Ta124  1  0.20580610  0.20398946  0.60413521  1
  Ta  Ta125  1  0.90060278  0.28548091  0.30663736  1
  Ta  Ta126  1  0.90521497  0.71032484  0.50486619  1
  Ta  Ta127  1  0.79612515  0.81511943  0.59760762  1
  Ta  Ta128  1  0.20454255  0.79807322  -0.00376948  1
  Ta  Ta129  1  0.20047673  0.39922383  0.79483835  1
  Ta  Ta130  1  0.40165953  0.60544066  0.00099721  1
  Ta  Ta131  1  0.70803782  0.49965074  0.70286372  1
  Ta  Ta132  1  0.09865292  0.89779246  0.49675271  1
  Ta  Ta133  1  0.58857504  0.81339584  0.39690722  1
  Ta  Ta134  1  0.69698205  0.71441837  0.29662842  1
  Ta  Ta135  1  0.20065447  0.60881659  0.39673958  1
  Ta  Ta136  1  0.09975721  0.69937516  0.10073759  1
  Ta  Ta137  1  0.60985783  -0.00131687  0.79311005  1
  Ta  Ta138  1  0.00259591  -0.00230605  0.00576271  1
  Ta  Ta139  1  0.39726003  0.18940322  0.79704919  1
  Ta  Ta140  1  0.79955237  0.59917587  -0.00053331  1
  Ta  Ta141  1  0.60424600  0.18893680  -0.00715786  1
  Ta  Ta142  1  0.40073268  -0.00995635  0.59360786  1
  Ta  Ta143  1  -0.00268786  0.18446078  0.80033762  1
  Ta  Ta144  1  0.89591808  0.10292177  0.49950640  1
  Ta  Ta145  1  0.30123066  0.50558174  0.49746312  1
  Ta  Ta146  1  0.20348003  -0.01144937  0.80254581  1
  Ta  Ta147  1  0.79399410  0.81042005  0.19224089  1
  Ta  Ta148  1  0.91294434  0.28424085  0.10809100  1
  Ta  Ta149  1  0.40607292  -0.01049735  0.39980660  1
  Ti  Ti150  1  0.38925833  0.79968376  0.80246807  1
  Ti  Ti151  1  0.71741531  0.09577198  0.70157967  1
  Ti  Ti152  1  0.10072281  0.70133897  0.69625145  1
  Ti  Ti153  1  0.80289706  0.60552918  0.80020689  1
  Ti  Ti154  1  0.31316357  0.09530885  0.10294132  1
  Ti  Ti155  1  -0.00240219  0.79998056  0.39594188  1
  Ti  Ti156  1  0.00287065  0.80335758  0.60031535  1
  Ti  Ti157  1  0.79258129  -0.00925435  0.02033331  1
  Ti  Ti158  1  0.30182423  0.89286989  0.48360061  1
  Ti  Ti159  1  0.59956591  0.20118169  0.21115440  1
  Ti  Ti160  1  0.70226498  0.29613159  0.30592257  1
  Ti  Ti161  1  0.49236718  0.08519347  0.70648741  1
  Ti  Ti162  1  0.20981850  0.79099623  0.39922064  1
  Ti  Ti163  1  0.29152050  0.50411867  0.10313919  1
  Ti  Ti164  1  0.89465031  0.50277957  0.70263881  1
  Ti  Ti165  1  0.30327107  0.08848825  0.89027258  1
  Ti  Ti166  1  0.40733047  0.19882133  0.20723756  1
  Ti  Ti167  1  0.09586910  0.50516345  0.50506259  1
  Ti  Ti168  1  0.59763185  -0.00364482  0.19923336  1
  Ti  Ti169  1  0.70699292  0.70784793  0.90472777  1
  Ti  Ti170  1  0.28843657  0.51243051  0.89736221  1
  Ti  Ti171  1  0.59519847  0.79733475  -0.00320934  1
  Ti  Ti172  1  0.30555662  0.09880091  0.49682250  1
  Ti  Ti173  1  0.60361936  0.80093051  0.80415686  1
  Ti  Ti174  1  0.89534136  0.09196458  0.69558812  1
  Ti  Ti175  1  0.79591918  -0.00391231  0.59712592  1
  Ti  Ti176  1  0.60599695  0.40447288  0.59989564  1
  Ti  Ti177  1  0.29742831  0.49926999  0.30186562  1
  Ti  Ti178  1  0.89250021  0.90167736  0.91104334  1
  Ti  Ti179  1  0.40011594  -0.00115667  -0.00893323  1
  Ti  Ti180  1  0.50594164  0.10237895  0.10794734  1
  Ti  Ti181  1  0.00028914  0.60470596  0.60230018  1
  Ti  Ti182  1  0.90097066  0.70891016  0.28984090  1
  Ti  Ti183  1  0.10150580  0.89984902  0.90335378  1
  Ti  Ti184  1  0.21485833  0.79625779  0.20770363  1
  Ti  Ti185  1  0.29908423  0.70191749  0.09864146  1
  Ti  Ti186  1  0.90000240  0.90025975  0.10186593  1
  Ti  Ti187  1  0.09614309  0.70912574  0.29216657  1
  Ti  Ti188  1  0.71694304  0.50374965  0.89307841  1
  Ti  Ti189  1  0.69805580  0.49964568  0.29484213  1
  Ti  Ti190  1  0.20934511  -0.00325253  0.39661000  1
  Ti  Ti191  1  0.79845979  0.00383012  0.39825553  1
  Ti  Ti192  1  0.71338775  0.08941055  0.89456922  1
  Ti  Ti193  1  0.59918788  -0.00352588  0.40305448  1
  Ti  Ti194  1  0.71035476  0.29380225  0.89091526  1
  Ti  Ti195  1  0.58864796  0.80055317  0.20353355  1
  Ti  Ti196  1  0.79932367  0.40269432  0.40115873  1
  Ti  Ti197  1  -0.00424450  0.19200015  0.60497869  1
  Ti  Ti198  1  0.79325096  0.61118306  0.20307310  1
  Ti  Ti199  1  0.90198076  0.90635044  0.68891063  1
  Mo  Mo200  1  0.47728333  0.50799462  0.49878162  1
  Mo  Mo201  1  0.19724065  0.40627832  0.19388314  1
  Mo  Mo202  1  0.69342343  0.90040568  0.10266005  1
  Mo  Mo203  1  0.50503917  0.70733309  0.89883511  1
  Mo  Mo204  1  0.50100874  0.90207192  0.49798528  1
  Mo  Mo205  1  0.87815673  0.09852303  0.30220770  1
  Mo  Mo206  1  0.19877323  0.60247356  0.79048060  1
  Mo  Mo207  1  -0.00058332  0.38656650  0.19462747  1
  Mo  Mo208  1  0.29314759  0.70147210  0.49409919  1
  Mo  Mo209  1  0.39741451  0.80393362  0.39193694  1
  Mo  Mo210  1  0.39379638  0.60255196  0.59129606  1
  Mo  Mo211  1  0.29315888  0.29865045  0.70352286  1
  Mo  Mo212  1  0.12118112  0.09474890  0.30668658  1
  Mo  Mo213  1  0.39630057  -0.00529620  0.79223285  1
  Mo  Mo214  1  0.49953895  0.09250703  0.88793728  1
  Mo  Mo215  1  -0.00618116  0.19381815  0.40374141  1
  Mo  Mo216  1  0.50962407  0.29877810  0.29937233  1
  Mo  Mo217  1  0.89357316  0.51309260  0.90142132  1
  Mo  Mo218  1  0.60139374  0.39149848  0.21985496  1
  Mo  Mo219  1  0.29858540  0.90110961  0.89810849  1
  Mo  Mo220  1  0.79419838  0.00119892  0.19422492  1
  Mo  Mo221  1  0.20914091  0.60369193  0.01383083  1
  Mo  Mo222  1  0.79550078  0.19609030  0.39660896  1
  Mo  Mo223  1  0.00952441  0.61503339  0.20097160  1
  Mo  Mo224  1  0.00179539  0.18585440  0.00568204  1
  Mo  Mo225  1  0.71655949  0.49146229  0.50100534  1
  Mo  Mo226  1  0.49537401  0.71237951  0.30263336  1
  Mo  Mo227  1  0.09432482  0.09557801  0.09180807  1
  Mo  Mo228  1  0.80338224  0.18698118  0.60213669  1
  Mo  Mo229  1  0.50029023  0.70473734  0.09977568  1
  Mo  Mo230  1  0.39148079  0.40873755  0.40277596  1
  Mo  Mo231  1  0.49402157  0.50555797  0.90194497  1
  Mo  Mo232  1  0.70032228  0.90220294  0.69798630  1
  Mo  Mo233  1  0.40283359  0.79413891  0.20765437  1
  Mo  Mo234  1  0.80375241  0.80631146  0.00426658  1
  Mo  Mo235  1  -0.00255749  -0.00360924  0.59939901  1
  Mo  Mo236  1  0.60214717  0.81401563  0.58624023  1
  Mo  Mo237  1  -0.00102820  -0.00196643  0.19560824  1
  Mo  Mo238  1  0.80141649  0.17953481  0.79967440  1
  Mo  Mo239  1  -0.00560668  0.79951318  0.19817180  1
  Mo  Mo240  1  0.30269746  0.89634904  0.30663546  1
  Mo  Mo241  1  0.70041880  0.90867850  0.49555828  1
  Mo  Mo242  1  0.00295781  0.60377424  0.00368447  1
  Mo  Mo243  1  0.29299203  0.69663936  0.90116074  1
  Mo  Mo244  1  0.80307463  -0.00612092  0.78806145  1
  Mo  Mo245  1  0.30023058  0.70803862  0.30225805  1
  Mo  Mo246  1  0.50308273  0.90281669  0.30154066  1
  Mo  Mo247  1  0.80144393  0.41387803  0.79947262  1
  Mo  Mo248  1  0.38871209  0.40893099  0.80460306  1
  Mo  Mo249  1  0.30045403  0.89400618  0.70235467  1
