# generated using pymatgen
data_HfZrTaTiMo
_symmetry_space_group_name_H-M   'P 1'
_cell_length_a   16.89384915
_cell_length_b   16.88538818
_cell_length_c   16.88227244
_cell_angle_alpha   90.02291562
_cell_angle_beta   89.98747495
_cell_angle_gamma   90.03010349
_symmetry_Int_Tables_number   1
_chemical_formula_structural   HfZrTaTiMo
_chemical_formula_sum   'Hf50 Zr50 Ta50 Ti50 Mo50'
_cell_volume   4815.82237957
_cell_formula_units_Z   50
loop_
 _symmetry_equiv_pos_site_id
 _symmetry_equiv_pos_as_xyz
  1  'x, y, z'
loop_
 _atom_site_type_symbol
 _atom_site_label
 _atom_site_symmetry_multiplicity
 _atom_site_fract_x
 _atom_site_fract_y
 _atom_site_fract_z
 _atom_site_occupancy
  Hf  Hf0  1  0.39791875  0.19617852  0.79661766  1
  Hf  Hf1  1  -0.00333101  0.41178798  0.59847331  1
  Hf  Hf2  1  0.50158517  0.89849469  0.90357494  1
  Hf  Hf3  1  0.60114109  0.19839208  0.40429378  1
  Hf  Hf4  1  0.29535369  0.50427920  0.09735248  1
  Hf  Hf5  1  0.60344059  0.40371987  0.40043976  1
  Hf  Hf6  1  0.29114946  0.69344846  0.69639480  1
  Hf  Hf7  1  0.10075525  0.30168115  0.29588424  1
  Hf  Hf8  1  -0.00443984  0.20170509  0.80965704  1
  Hf  Hf9  1  0.28994033  0.29903093  0.90272168  1
  Hf  Hf10  1  0.90297853  0.09965964  0.50312407  1
  Hf  Hf11  1  0.80507293  0.20306746  -0.00956929  1
  Hf  Hf12  1  0.79990256  0.00016532  0.80440439  1
  Hf  Hf13  1  0.30117433  0.29925714  0.50618105  1
  Hf  Hf14  1  0.80485782  0.79387466  0.60328173  1
  Hf  Hf15  1  0.79822949  -0.00138673  0.60608504  1
  Hf  Hf16  1  0.60696298  0.40039335  -0.00163004  1
  Hf  Hf17  1  0.90175199  0.90231104  0.09788607  1
  Hf  Hf18  1  0.80250853  0.39601289  -0.00686107  1
  Hf  Hf19  1  0.50928324  0.90311863  0.50264255  1
  Hf  Hf20  1  0.60451899  -0.00046437  0.00302267  1
  Hf  Hf21  1  0.39354137  0.79931624  0.80468794  1
  Hf  Hf22  1  0.70624861  0.52070909  0.10326658  1
  Hf  Hf23  1  0.38548256  0.19779096  0.00963646  1
  Hf  Hf24  1  0.00045955  -0.00216737  0.60827183  1
  Hf  Hf25  1  0.50437090  0.70635971  0.90809851  1
  Hf  Hf26  1  0.50274995  0.69366269  0.29187084  1
  Hf  Hf27  1  0.89660891  0.50534057  0.09659002  1
  Hf  Hf28  1  0.60441909  0.40744460  0.19343288  1
  Hf  Hf29  1  0.90088871  0.10445122  0.70553175  1
  Hf  Hf30  1  0.78875872  0.20295972  0.60905265  1
  Hf  Hf31  1  0.60108083  0.79933292  0.19347826  1
  Hf  Hf32  1  0.19730813  -0.00727755  0.38869260  1
  Hf  Hf33  1  0.09102070  0.89567404  0.49920605  1
  Hf  Hf34  1  0.29636548  0.69138648  0.30060504  1
  Hf  Hf35  1  0.81341684  0.41083613  0.39949418  1
  Hf  Hf36  1  0.19794952  0.81255900  0.20269886  1
  Hf  Hf37  1  -0.00474998  0.59935425  0.39588810  1
  Hf  Hf38  1  0.19503147  0.20156196  0.60218032  1
  Hf  Hf39  1  0.39718170  0.40005155  0.19498488  1
  Hf  Hf40  1  -0.00266488  0.20060735  -0.00564691  1
  Hf  Hf41  1  0.79923156  0.19654542  0.39486618  1
  Hf  Hf42  1  0.71421912  0.89941652  0.09860695  1
  Hf  Hf43  1  0.40512055  0.40302026  0.40504157  1
  Hf  Hf44  1  0.29647059  0.09653570  0.50052550  1
  Hf  Hf45  1  0.30159095  0.69472165  0.10304986  1
  Hf  Hf46  1  -0.00129971  0.60189019  0.20094270  1
  Hf  Hf47  1  0.00708334  0.19306141  0.39174099  1
  Hf  Hf48  1  0.29342370  0.90098235  0.70020808  1
  Hf  Hf49  1  0.90091648  0.08975673  0.09524583  1
  Zr  Zr50  1  0.39383648  0.79890553  0.59370102  1
  Zr  Zr51  1  0.09447763  0.69418795  0.70719762  1
  Zr  Zr52  1  -0.00441482  0.59964992  0.59686830  1
  Zr  Zr53  1  0.19523116  0.79994652  0.00842541  1
  Zr  Zr54  1  0.70515094  0.69713781  0.50160332  1
  Zr  Zr55  1  0.60863415  0.19585015  0.79035579  1
  Zr  Zr56  1  0.70704841  0.70772588  0.08888098  1
  Zr  Zr57  1  0.40860942  0.59755264  0.59925792  1
  Zr  Zr58  1  0.80591096  0.40796369  0.20355078  1
  Zr  Zr59  1  0.39111307  0.19201244  0.19819393  1
  Zr  Zr60  1  0.69407367  0.88638538  0.70636393  1
  Zr  Zr61  1  0.69915583  0.88150639  0.90834971  1
  Zr  Zr62  1  0.59614001  0.20395259  0.59732258  1
  Zr  Zr63  1  0.09715715  0.89562285  0.70789003  1
  Zr  Zr64  1  0.61336581  0.18947886  0.20240746  1
  Zr  Zr65  1  0.59853244  0.59996851  0.60096458  1
  Zr  Zr66  1  0.59916838  0.01380955  0.61357502  1
  Zr  Zr67  1  0.41548288  0.59338824  0.40927492  1
  Zr  Zr68  1  0.39374814  0.80134404  0.39905386  1
  Zr  Zr69  1  0.18717058  0.60068139  -0.00376631  1
  Zr  Zr70  1  0.29185852  0.50164172  0.69194803  1
  Zr  Zr71  1  0.80401368  0.39790079  0.80398018  1
  Zr  Zr72  1  0.19227741  0.79998274  0.39699098  1
  Zr  Zr73  1  0.00124188  -0.00398482  0.39069528  1
  Zr  Zr74  1  0.60201579  0.39877526  0.80286721  1
  Zr  Zr75  1  0.60862845  0.79485304  0.39501849  1
  Zr  Zr76  1  0.50260811  0.29631800  0.09867588  1
  Zr  Zr77  1  0.80337220  -0.00179724  0.39488033  1
  Zr  Zr78  1  0.29206611  0.50498516  0.30125476  1
  Zr  Zr79  1  0.09999462  0.31284750  0.90707169  1
  Zr  Zr80  1  0.90775301  0.29957333  0.49790362  1
  Zr  Zr81  1  0.80639589  0.79574745  0.39063688  1
  Zr  Zr82  1  0.70929826  0.29880362  0.29690315  1
  Zr  Zr83  1  0.19716164  0.39679626  0.40253938  1
  Zr  Zr84  1  0.69908499  0.49743032  0.69547100  1
  Zr  Zr85  1  0.09974750  0.09024368  0.09047228  1
  Zr  Zr86  1  0.20102839  0.41907084  0.80864692  1
  Zr  Zr87  1  0.50602829  0.90611055  0.29948330  1
  Zr  Zr88  1  0.49416622  0.31206168  0.68982731  1
  Zr  Zr89  1  0.59638125  0.59679359  0.80349432  1
  Zr  Zr90  1  0.40641783  0.59161670  0.80172380  1
  Zr  Zr91  1  0.49998230  0.29783998  0.29803014  1
  Zr  Zr92  1  0.40244858  0.19575501  0.40314518  1
  Zr  Zr93  1  0.10131842  0.30518150  0.70828546  1
  Zr  Zr94  1  -0.00232675  0.60245730  -0.00076687  1
  Zr  Zr95  1  0.49514237  0.29737134  0.90141433  1
  Zr  Zr96  1  0.50181197  0.09076954  0.10343205  1
  Zr  Zr97  1  0.20415476  0.20073891  0.18817638  1
  Zr  Zr98  1  0.40098152  0.00425894  0.79853886  1
  Zr  Zr99  1  0.19916128  0.79374440  0.81313375  1
  Ta  Ta100  1  0.50060451  0.10047029  0.90665314  1
  Ta  Ta101  1  0.29741456  0.30079660  0.70185272  1
  Ta  Ta102  1  0.89542143  0.70927866  0.10723815  1
  Ta  Ta103  1  0.90859031  0.29885568  0.29294381  1
  Ta  Ta104  1  0.70376350  0.50927428  0.90477231  1
  Ta  Ta105  1  0.29386760  0.90868216  0.91086990  1
  Ta  Ta106  1  0.81066471  0.59619442  0.60420264  1
  Ta  Ta107  1  0.39588005  0.80624661  0.19588802  1
  Ta  Ta108  1  0.80494284  0.60080777  0.80122578  1
  Ta  Ta109  1  0.38789743  -0.00784836  0.20060313  1
  Ta  Ta110  1  0.29564397  0.29924742  0.29847435  1
  Ta  Ta111  1  0.70341863  0.90827596  0.28950893  1
  Ta  Ta112  1  0.90380440  0.89606547  0.28164532  1
  Ta  Ta113  1  0.51037875  0.71625361  0.70116258  1
  Ta  Ta114  1  0.90417106  0.30552424  0.70375528  1
  Ta  Ta115  1  0.69849418  0.09296926  0.49514558  1
  Ta  Ta116  1  0.00146250  0.79756498  0.00308341  1
  Ta  Ta117  1  0.28597626  0.50719081  0.49929423  1
  Ta  Ta118  1  0.61317184  0.19905119  -0.00264157  1
  Ta  Ta119  1  0.69989293  0.70226901  0.70872583  1
  Ta  Ta120  1  0.00213669  0.20177209  0.19317601  1
  Ta  Ta121  1  0.59977938  0.00579905  0.80217499  1
  Ta  Ta122  1  -0.00772818  0.80202847  0.81280021  1
  Ta  Ta123  1  0.60587984  0.59462194  0.39886857  1
  Ta  Ta124  1  0.28421638  0.68698527  0.49438778  1
  Ta  Ta125  1  0.59909280  0.60255938  -0.00203747  1
  Ta  Ta126  1  0.39623275  0.80532986  0.00929738  1
  Ta  Ta127  1  0.50670948  0.08522010  0.30085651  1
  Ta  Ta128  1  0.19702434  -0.00121064  0.60123274  1
  Ta  Ta129  1  0.10312200  0.09987659  0.70816644  1
  Ta  Ta130  1  -0.00362660  0.00178831  0.81078778  1
  Ta  Ta131  1  0.29190685  0.10243577  0.70161710  1
  Ta  Ta132  1  0.39932290  0.40554940  0.00003298  1
  Ta  Ta133  1  0.70364949  0.09647817  0.90307239  1
  Ta  Ta134  1  0.69826312  0.90211357  0.49977335  1
  Ta  Ta135  1  0.39897590  0.00420556  0.60314719  1
  Ta  Ta136  1  0.89735472  0.10072290  0.28238993  1
  Ta  Ta137  1  0.00254480  0.40217385  0.19711608  1
  Ta  Ta138  1  0.90700074  0.30220250  0.10042039  1
  Ta  Ta139  1  0.18124711  0.60171001  0.19640094  1
  Ta  Ta140  1  0.80584095  0.40317054  0.60191343  1
  Ta  Ta141  1  0.90138663  0.89230535  0.70757050  1
  Ta  Ta142  1  0.19321253  0.79450484  0.59108434  1
  Ta  Ta143  1  0.10127420  0.09842777  0.50415545  1
  Ta  Ta144  1  0.71412778  0.09316442  0.10433169  1
  Ta  Ta145  1  0.90125224  0.89279034  0.50351157  1
  Ta  Ta146  1  0.70800976  0.50241414  0.49957325  1
  Ta  Ta147  1  0.09555152  0.90678800  0.90944800  1
  Ta  Ta148  1  0.28847703  0.09901804  0.90440647  1
  Ta  Ta149  1  0.50283160  0.89656409  0.70179336  1
  Ti  Ti150  1  0.39534307  -0.00247833  0.00489407  1
  Ti  Ti151  1  0.09260153  0.91056525  0.10388907  1
  Ti  Ti152  1  0.49830638  0.69584485  0.09878449  1
  Ti  Ti153  1  0.50913350  0.50696390  0.29031671  1
  Ti  Ti154  1  0.40186147  0.40981262  0.80312814  1
  Ti  Ti155  1  0.90153319  0.69970300  0.70863212  1
  Ti  Ti156  1  0.18124436  0.60206247  0.58838721  1
  Ti  Ti157  1  0.09844411  0.50040688  0.48799615  1
  Ti  Ti158  1  0.50033734  0.90071870  0.10055944  1
  Ti  Ti159  1  0.10763905  0.09857199  0.90304811  1
  Ti  Ti160  1  0.19597843  0.00134530  0.80313143  1
  Ti  Ti161  1  0.29656097  0.09427429  0.29663081  1
  Ti  Ti162  1  0.79834824  0.20719275  0.80539887  1
  Ti  Ti163  1  0.90255368  0.70176776  0.49628835  1
  Ti  Ti164  1  0.19138907  0.40320448  0.59836206  1
  Ti  Ti165  1  0.40337910  0.59651710  0.19711498  1
  Ti  Ti166  1  0.89976279  0.90279915  0.91001052  1
  Ti  Ti167  1  0.39672181  0.40673808  0.59664944  1
  Ti  Ti168  1  0.70631355  0.69149048  0.28468250  1
  Ti  Ti169  1  0.09231082  0.50381554  0.71054077  1
  Ti  Ti170  1  0.80601827  0.78790278  0.81423354  1
  Ti  Ti171  1  0.50933893  0.70732503  0.50244866  1
  Ti  Ti172  1  0.50009402  0.08941140  0.49352913  1
  Ti  Ti173  1  0.09741048  0.48677713  0.08895097  1
  Ti  Ti174  1  0.49969924  0.51130497  0.09405901  1
  Ti  Ti175  1  0.10029873  0.08942552  0.28158604  1
  Ti  Ti176  1  0.69993502  0.30953968  0.50415067  1
  Ti  Ti177  1  0.00484951  0.20185461  0.60434248  1
  Ti  Ti178  1  0.40540569  0.19218290  0.60144175  1
  Ti  Ti179  1  0.30652700  0.50632256  0.91191619  1
  Ti  Ti180  1  0.80610538  0.61358896  -0.01794620  1
  Ti  Ti181  1  0.71246526  0.29228915  0.10435486  1
  Ti  Ti182  1  0.39335477  -0.00464668  0.39684880  1
  Ti  Ti183  1  0.28425378  0.08067122  0.09306472  1
  Ti  Ti184  1  -0.00360132  0.79662036  0.39006248  1
  Ti  Ti185  1  0.30799658  0.69302555  0.91219234  1
  Ti  Ti186  1  0.08891926  0.70074398  0.89863817  1
  Ti  Ti187  1  0.09772917  0.49453370  0.30065918  1
  Ti  Ti188  1  0.10448809  0.30545436  0.09010413  1
  Ti  Ti189  1  -0.00153717  0.79279396  0.60276563  1
  Ti  Ti190  1  0.09510124  0.29954200  0.49600454  1
  Ti  Ti191  1  0.51538253  0.48416577  0.51547515  1
  Ti  Ti192  1  0.19629754  0.19429210  0.39592167  1
  Ti  Ti193  1  0.09484727  0.70533863  0.29556463  1
  Ti  Ti194  1  -0.01340562  0.59117736  0.80867027  1
  Ti  Ti195  1  0.80981417  0.59891576  0.39256705  1
  Ti  Ti196  1  0.19859678  0.40027952  0.19335106  1
  Ti  Ti197  1  0.70286201  0.51410277  0.29609487  1
  Ti  Ti198  1  0.19561668  0.59847764  0.81291421  1
  Ti  Ti199  1  0.29542048  0.90228992  0.50149002  1
  Mo  Mo200  1  0.70505507  0.10244812  0.70952245  1
  Mo  Mo201  1  0.70174151  0.09258574  0.29763097  1
  Mo  Mo202  1  0.19967381  0.19326425  0.79989999  1
  Mo  Mo203  1  0.09363098  0.70289978  0.49584851  1
  Mo  Mo204  1  0.08732858  0.50237227  0.89870469  1
  Mo  Mo205  1  0.90076590  0.70268914  0.29557541  1
  Mo  Mo206  1  0.80104262  0.00114560  0.20044617  1
  Mo  Mo207  1  0.19787800  0.19730273  -0.00231236  1
  Mo  Mo208  1  0.89611895  0.09578136  0.89895435  1
  Mo  Mo209  1  0.70306618  0.29354858  0.90060804  1
  Mo  Mo210  1  0.00281232  -0.00111388  0.19833998  1
  Mo  Mo211  1  0.49664843  0.49195293  0.69372704  1
  Mo  Mo212  1  0.30338595  0.90276242  0.29943853  1
  Mo  Mo213  1  0.29003379  0.31368037  0.09548685  1
  Mo  Mo214  1  -0.00240711  0.40124433  0.00190935  1
  Mo  Mo215  1  0.49663578  0.30621522  0.50327376  1
  Mo  Mo216  1  0.00439726  0.79959496  0.19695722  1
  Mo  Mo217  1  0.90381604  0.30558647  0.89874742  1
  Mo  Mo218  1  0.70910216  0.30283405  0.69910928  1
  Mo  Mo219  1  0.60441448  -0.00309135  0.19783424  1
  Mo  Mo220  1  0.49152471  0.09644947  0.70359474  1
  Mo  Mo221  1  0.80809689  0.60714331  0.21261070  1
  Mo  Mo222  1  0.00203741  0.40303614  0.39333268  1
  Mo  Mo223  1  0.20043054  -0.00308807  0.19916587  1
  Mo  Mo224  1  0.89510757  0.50498507  0.49746740  1
  Mo  Mo225  1  0.19666627  -0.00412492  -0.00187331  1
  Mo  Mo226  1  0.60845018  0.00315407  0.39901391  1
  Mo  Mo227  1  0.90868775  0.49903406  0.29833598  1
  Mo  Mo228  1  -0.00010991  -0.00257386  -0.00939305  1
  Mo  Mo229  1  0.60443673  0.80172145  0.60154368  1
  Mo  Mo230  1  0.18292957  0.60060407  0.39609340  1
  Mo  Mo231  1  0.30379133  0.90273382  0.09921644  1
  Mo  Mo232  1  0.90244146  0.70229552  0.90037168  1
  Mo  Mo233  1  0.70236984  0.69707647  0.89876840  1
  Mo  Mo234  1  0.80169979  0.00192526  -0.00668434  1
  Mo  Mo235  1  0.59886120  0.60136618  0.19647900  1
  Mo  Mo236  1  0.09402286  0.70805774  0.10662510  1
  Mo  Mo237  1  0.80233570  0.79971566  0.20143408  1
  Mo  Mo238  1  0.50008613  0.49887242  0.91230978  1
  Mo  Mo239  1  0.81746218  0.79588140  -0.00658097  1
  Mo  Mo240  1  -0.00632458  0.41183652  0.80430113  1
  Mo  Mo241  1  0.61273372  0.39738338  0.59578681  1
  Mo  Mo242  1  0.58578478  0.79857242  0.00754731  1
  Mo  Mo243  1  0.80962472  0.19920494  0.19507849  1
  Mo  Mo244  1  0.08971388  0.89924171  0.29277770  1
  Mo  Mo245  1  0.59902564  0.79878358  0.80286222  1
  Mo  Mo246  1  0.20228827  0.40552885  0.00378154  1
  Mo  Mo247  1  0.89963513  0.50142855  0.70266110  1
  Mo  Mo248  1  0.40679793  0.59986414  0.00446433  1
  Mo  Mo249  1  0.89688884  0.50292089  0.89986186  1
