# generated using pymatgen
data_HfZrTaTiMo
_symmetry_space_group_name_H-M   'P 1'
_cell_length_a   16.88619542
_cell_length_b   16.88607456
_cell_length_c   16.88154286
_cell_angle_alpha   90.01956828
_cell_angle_beta   90.01009571
_cell_angle_gamma   89.98804362
_symmetry_Int_Tables_number   1
_chemical_formula_structural   HfZrTaTiMo
_chemical_formula_sum   'Hf50 Zr50 Ta50 Ti50 Mo50'
_cell_volume   4813.62892006
_cell_formula_units_Z   50
loop_
 _symmetry_equiv_pos_site_id
 _symmetry_equiv_pos_as_xyz
  1  'x, y, z'
loop_
 _atom_site_type_symbol
 _atom_site_label
 _atom_site_symmetry_multiplicity
 _atom_site_fract_x
 _atom_site_fract_y
 _atom_site_fract_z
 _atom_site_occupancy
  Hf  Hf0  1  0.30152847  0.10330221  0.29838166  1
  Hf  Hf1  1  0.59840241  0.20917002  0.80099755  1
  Hf  Hf2  1  0.89710233  0.10629010  0.70514324  1
  Hf  Hf3  1  0.10344719  0.49153854  0.49363143  1
  Hf  Hf4  1  0.69732946  0.69699126  0.10391401  1
  Hf  Hf5  1  0.39453231  0.20565723  0.60011280  1
  Hf  Hf6  1  0.89614783  0.69962865  0.70279900  1
  Hf  Hf7  1  0.60783311  0.80654412  -0.01024516  1
  Hf  Hf8  1  0.71132958  0.30443516  0.90012847  1
  Hf  Hf9  1  0.49883874  0.29709200  0.10181591  1
  Hf  Hf10  1  0.70739845  0.11200990  0.49844062  1
  Hf  Hf11  1  0.79549807  0.59182494  -0.00204717  1
  Hf  Hf12  1  0.60276888  0.01074512  0.39828607  1
  Hf  Hf13  1  0.19323638  0.80036891  0.20491252  1
  Hf  Hf14  1  0.39995266  0.39781401  0.79820226  1
  Hf  Hf15  1  0.30042407  0.10115723  0.70624090  1
  Hf  Hf16  1  0.31225738  0.90122282  0.29496215  1
  Hf  Hf17  1  0.09594916  0.10760727  0.90564449  1
  Hf  Hf18  1  0.90619637  0.89744480  0.10379416  1
  Hf  Hf19  1  0.10665098  0.69554958  0.90701507  1
  Hf  Hf20  1  0.50489155  0.50019556  0.11559198  1
  Hf  Hf21  1  0.49589091  0.90532888  0.29265061  1
  Hf  Hf22  1  0.20414567  0.59660309  0.59531005  1
  Hf  Hf23  1  0.41730901  0.80692024  0.01016289  1
  Hf  Hf24  1  0.10234856  0.49446997  0.10078404  1
  Hf  Hf25  1  0.30335334  0.69671372  0.70390919  1
  Hf  Hf26  1  0.89920418  0.49323010  0.70906928  1
  Hf  Hf27  1  0.60569600  -0.00747994  0.60325679  1
  Hf  Hf28  1  0.60517615  0.59734771  -0.00493867  1
  Hf  Hf29  1  0.70632591  0.29485250  0.49811361  1
  Hf  Hf30  1  0.79636723  -0.00156109  0.00024232  1
  Hf  Hf31  1  0.89621160  0.11160818  0.50276996  1
  Hf  Hf32  1  0.60818213  0.40413025  0.00473740  1
  Hf  Hf33  1  0.69519775  0.89860830  0.29770558  1
  Hf  Hf34  1  0.80283391  -0.00270007  0.39700553  1
  Hf  Hf35  1  0.50528173  0.30140632  0.50092512  1
  Hf  Hf36  1  0.19019087  0.00046377  0.39396411  1
  Hf  Hf37  1  0.40066040  0.59128007  -0.00050673  1
  Hf  Hf38  1  0.59775809  0.59290223  0.78879231  1
  Hf  Hf39  1  0.39812595  0.40118038  0.00106513  1
  Hf  Hf40  1  0.30636812  0.90614342  0.49601907  1
  Hf  Hf41  1  0.49933932  0.90096787  0.49544824  1
  Hf  Hf42  1  0.20455607  0.59142453  0.00508632  1
  Hf  Hf43  1  0.09569865  0.30378271  0.50040732  1
  Hf  Hf44  1  0.30336490  0.90057611  0.70046663  1
  Hf  Hf45  1  0.90002821  0.29581364  0.09923751  1
  Hf  Hf46  1  0.29600181  0.30314293  0.29847914  1
  Hf  Hf47  1  0.10354173  0.49732683  0.29780585  1
  Hf  Hf48  1  0.60292300  -0.00712701  0.79639959  1
  Hf  Hf49  1  0.90319773  0.50433249  0.28791588  1
  Zr  Zr50  1  0.78425784  0.80337947  0.59593623  1
  Zr  Zr51  1  0.00734242  0.00597466  0.80237657  1
  Zr  Zr52  1  0.90077872  0.89652632  0.90304060  1
  Zr  Zr53  1  0.59152380  0.80587941  0.18677955  1
  Zr  Zr54  1  0.49576198  0.50327920  0.29593192  1
  Zr  Zr55  1  -0.00009790  0.58984089  0.60536332  1
  Zr  Zr56  1  0.29919127  0.49768229  0.29389391  1
  Zr  Zr57  1  0.90344322  0.69911872  0.09754351  1
  Zr  Zr58  1  0.00377588  0.39207401  -0.00031244  1
  Zr  Zr59  1  0.30120116  0.70400535  0.90093275  1
  Zr  Zr60  1  0.30501352  0.90211149  0.10397070  1
  Zr  Zr61  1  0.49601517  0.10211124  0.70331383  1
  Zr  Zr62  1  0.60094205  0.20495497  0.60629756  1
  Zr  Zr63  1  0.28723141  0.30564906  0.49764937  1
  Zr  Zr64  1  0.08616434  0.70668098  0.49810214  1
  Zr  Zr65  1  0.70676307  0.48620684  0.88109978  1
  Zr  Zr66  1  0.19116363  0.20377910  0.79843201  1
  Zr  Zr67  1  0.91035433  0.89334807  0.50186793  1
  Zr  Zr68  1  0.20454330  0.79160497  0.39338712  1
  Zr  Zr69  1  0.49729828  0.69734268  0.89471449  1
  Zr  Zr70  1  0.40282798  0.00338740  -0.00121539  1
  Zr  Zr71  1  0.40378730  0.40116591  0.40314689  1
  Zr  Zr72  1  -0.00124162  0.38791397  0.38621951  1
  Zr  Zr73  1  0.09454456  0.10054922  0.09920384  1
  Zr  Zr74  1  0.30668125  0.70348314  0.10841928  1
  Zr  Zr75  1  0.70638999  0.29841070  0.10402111  1
  Zr  Zr76  1  0.68740204  0.51039074  0.29472597  1
  Zr  Zr77  1  0.09701142  0.11186698  0.49732500  1
  Zr  Zr78  1  0.10547134  0.88955553  0.69318174  1
  Zr  Zr79  1  0.20165056  0.01007408  0.60115997  1
  Zr  Zr80  1  0.88210395  0.29284724  0.28862603  1
  Zr  Zr81  1  0.41071496  0.20359122  0.20905424  1
  Zr  Zr82  1  0.79342633  0.40003157  0.39434205  1
  Zr  Zr83  1  0.18792969  0.00232401  0.20366921  1
  Zr  Zr84  1  0.49662796  0.11098129  0.90817985  1
  Zr  Zr85  1  0.80004314  0.60787953  0.40022143  1
  Zr  Zr86  1  0.80106082  0.40105498  0.60362730  1
  Zr  Zr87  1  0.69907299  0.10311286  0.89772559  1
  Zr  Zr88  1  0.41193304  0.78753454  0.59755786  1
  Zr  Zr89  1  0.30258947  0.10977674  0.10068136  1
  Zr  Zr90  1  0.89929160  0.89511435  0.69986761  1
  Zr  Zr91  1  0.58766884  0.60434461  0.60321022  1
  Zr  Zr92  1  0.59870580  0.80325942  0.78991323  1
  Zr  Zr93  1  0.81109981  0.19155929  -0.00339859  1
  Zr  Zr94  1  0.10433023  0.69862642  0.70008714  1
  Zr  Zr95  1  0.00478740  0.01190404  0.60415990  1
  Zr  Zr96  1  0.79735689  0.79958396  0.39689821  1
  Zr  Zr97  1  0.09553998  0.89259007  0.49963348  1
  Zr  Zr98  1  0.90554027  0.49575204  0.49693645  1
  Zr  Zr99  1  0.00584488  0.79554042  0.80866820  1
  Ta  Ta100  1  0.79290511  0.79644011  -0.00539638  1
  Ta  Ta101  1  0.68945574  0.69877154  0.50041515  1
  Ta  Ta102  1  0.19627802  0.20924307  0.00472487  1
  Ta  Ta103  1  0.29738245  0.30318135  0.10099709  1
  Ta  Ta104  1  -0.00174218  0.00323763  0.38621628  1
  Ta  Ta105  1  0.79794159  0.60218860  0.19721561  1
  Ta  Ta106  1  0.09921596  0.70286671  0.09717776  1
  Ta  Ta107  1  0.71071705  0.10880708  0.70157147  1
  Ta  Ta108  1  0.29537106  0.30664477  0.70071900  1
  Ta  Ta109  1  0.30098623  0.10949084  0.49171573  1
  Ta  Ta110  1  0.89997055  0.29013055  0.50566146  1
  Ta  Ta111  1  0.29625468  0.30065782  0.90588066  1
  Ta  Ta112  1  0.19999549  -0.00007588  -0.00374100  1
  Ta  Ta113  1  0.40305963  0.59126126  0.79125366  1
  Ta  Ta114  1  0.00388605  0.21138401  0.62087642  1
  Ta  Ta115  1  0.29685058  0.49594119  0.69920853  1
  Ta  Ta116  1  0.50551185  0.10053710  0.10419312  1
  Ta  Ta117  1  0.50215150  0.49159319  0.89223543  1
  Ta  Ta118  1  0.60082739  0.39582446  0.39846297  1
  Ta  Ta119  1  0.00846639  0.20100962  0.20382908  1
  Ta  Ta120  1  0.89699298  0.49422561  0.09916939  1
  Ta  Ta121  1  0.90497849  0.70255761  0.29055458  1
  Ta  Ta122  1  0.00345961  0.58986926  0.80687525  1
  Ta  Ta123  1  0.10322923  0.49158297  0.89852393  1
  Ta  Ta124  1  0.09375037  0.89546770  0.09454017  1
  Ta  Ta125  1  0.20564393  0.60514221  0.39726112  1
  Ta  Ta126  1  0.89569312  0.69109227  0.89816477  1
  Ta  Ta127  1  0.60409082  0.19411463  0.21348035  1
  Ta  Ta128  1  0.19476466  0.20351713  0.60815295  1
  Ta  Ta129  1  0.80174520  0.80190081  0.20085799  1
  Ta  Ta130  1  0.69004804  0.50334575  0.49907818  1
  Ta  Ta131  1  0.20456982  0.80423596  0.80679149  1
  Ta  Ta132  1  0.79830468  0.00106766  0.20016376  1
  Ta  Ta133  1  0.29541313  0.49342664  0.89434746  1
  Ta  Ta134  1  0.49316914  0.69668616  0.29279120  1
  Ta  Ta135  1  0.90589934  0.09873350  0.10530243  1
  Ta  Ta136  1  -0.00067793  0.59296624  -0.00398544  1
  Ta  Ta137  1  0.70798492  0.30873964  0.71078735  1
  Ta  Ta138  1  0.40025835  -0.00420418  0.80359207  1
  Ta  Ta139  1  -0.00350154  0.19828868  0.38618397  1
  Ta  Ta140  1  0.90169780  0.49081649  0.89955860  1
  Ta  Ta141  1  0.39488012  0.60681300  0.40788088  1
  Ta  Ta142  1  0.29967945  0.89808674  0.90216174  1
  Ta  Ta143  1  0.79053468  0.59839936  0.59962729  1
  Ta  Ta144  1  0.69966158  0.69834383  0.69975314  1
  Ta  Ta145  1  0.79441381  -0.00417828  0.79924555  1
  Ta  Ta146  1  0.40070682  0.78794080  0.39899033  1
  Ta  Ta147  1  0.19921097  0.60673108  0.20294542  1
  Ta  Ta148  1  0.79005021  -0.00390273  0.60151293  1
  Ta  Ta149  1  0.60219660  0.40849891  0.60935445  1
  Ti  Ti150  1  0.60622752  0.01264127  0.19885099  1
  Ti  Ti151  1  0.78866466  0.40871658  0.19542266  1
  Ti  Ti152  1  0.19195907  0.38766146  0.19583234  1
  Ti  Ti153  1  0.50121115  0.49992717  0.50048202  1
  Ti  Ti154  1  -0.00097808  0.60351294  0.39553848  1
  Ti  Ti155  1  0.78641003  0.18293375  0.20041661  1
  Ti  Ti156  1  0.50120224  0.10815109  0.49766485  1
  Ti  Ti157  1  0.60684898  0.19642257  0.01130861  1
  Ti  Ti158  1  0.49924953  0.90532850  0.89847314  1
  Ti  Ti159  1  0.70119848  0.90315267  0.10179462  1
  Ti  Ti160  1  0.60302030  0.38588574  0.21038893  1
  Ti  Ti161  1  0.00062241  0.79375228  -0.00184145  1
  Ti  Ti162  1  0.60281288  -0.00288475  0.00489474  1
  Ti  Ti163  1  0.41211093  0.20085698  0.39605926  1
  Ti  Ti164  1  0.40645944  0.01452366  0.39826497  1
  Ti  Ti165  1  -0.00175957  -0.00556889  0.21110646  1
  Ti  Ti166  1  0.49769905  0.68809939  0.10967665  1
  Ti  Ti167  1  0.81638744  0.20833974  0.80406662  1
  Ti  Ti168  1  0.90232316  0.70336660  0.50098449  1
  Ti  Ti169  1  0.79599933  0.59980847  0.79766271  1
  Ti  Ti170  1  0.29966070  0.10569234  0.90306053  1
  Ti  Ti171  1  0.09135665  0.69753710  0.29393016  1
  Ti  Ti172  1  0.40147797  0.40753257  0.60335829  1
  Ti  Ti173  1  0.00297477  0.60194836  0.19151490  1
  Ti  Ti174  1  0.59621935  0.80169616  0.60340793  1
  Ti  Ti175  1  0.59502104  0.79497478  0.40445397  1
  Ti  Ti176  1  0.78519008  0.80216770  0.80882120  1
  Ti  Ti177  1  0.19995469  -0.00100934  0.80683166  1
  Ti  Ti178  1  0.00536886  0.38892955  0.19773097  1
  Ti  Ti179  1  0.50082288  0.30069547  0.90738191  1
  Ti  Ti180  1  0.39716342  0.20749014  0.80498371  1
  Ti  Ti181  1  0.40093489  0.59771103  0.59627158  1
  Ti  Ti182  1  0.09880709  0.29861140  0.90454027  1
  Ti  Ti183  1  0.19869547  0.59029367  0.79807440  1
  Ti  Ti184  1  0.00416696  0.38793928  0.79575483  1
  Ti  Ti185  1  0.19498962  0.39797696  0.79974722  1
  Ti  Ti186  1  0.21361308  0.79176045  0.59151456  1
  Ti  Ti187  1  0.29443400  0.49413915  0.49905866  1
  Ti  Ti188  1  0.58944485  0.60715742  0.40330151  1
  Ti  Ti189  1  0.40467981  0.00493985  0.59925406  1
  Ti  Ti190  1  0.18733777  0.20247450  0.38648768  1
  Ti  Ti191  1  0.40812240  0.80571717  0.79519438  1
  Ti  Ti192  1  0.50004258  0.30851029  0.70069210  1
  Ti  Ti193  1  0.18720071  0.40173195  0.61481923  1
  Ti  Ti194  1  0.30086806  0.49105846  0.11037702  1
  Ti  Ti195  1  0.89682748  0.10122718  0.29488094  1
  Ti  Ti196  1  -0.00404007  0.00377492  -0.00343794  1
  Ti  Ti197  1  0.69081625  0.70060123  0.29599886  1
  Ti  Ti198  1  -0.00345023  0.81094321  0.37457462  1
  Ti  Ti199  1  0.10728528  0.89727624  0.91035404  1
  Mo  Mo200  1  0.70427387  0.09901462  0.30078370  1
  Mo  Mo201  1  0.59049157  0.39508420  0.79429779  1
  Mo  Mo202  1  0.49405096  0.90178513  0.69847939  1
  Mo  Mo203  1  0.19856646  0.40371653  0.39768077  1
  Mo  Mo204  1  0.81504824  0.39348412  0.80157044  1
  Mo  Mo205  1  0.00254600  0.39156695  0.60943781  1
  Mo  Mo206  1  0.41406553  0.00731109  0.20000674  1
  Mo  Mo207  1  0.70167771  0.49904827  0.10726914  1
  Mo  Mo208  1  0.30500461  0.69602847  0.29942731  1
  Mo  Mo209  1  0.49657847  0.69766890  0.69773212  1
  Mo  Mo210  1  0.80263506  0.19689870  0.38963509  1
  Mo  Mo211  1  0.00200236  0.79769688  0.19843039  1
  Mo  Mo212  1  0.70763654  0.69852407  0.89299181  1
  Mo  Mo213  1  0.39594281  0.39775238  0.19506609  1
  Mo  Mo214  1  0.90436027  0.10062750  0.90104058  1
  Mo  Mo215  1  0.90308851  0.30088063  0.70512400  1
  Mo  Mo216  1  0.90785455  0.29900465  0.89804184  1
  Mo  Mo217  1  0.39316002  0.20659003  -0.00147529  1
  Mo  Mo218  1  0.70036868  0.90028251  0.90071770  1
  Mo  Mo219  1  0.09300219  0.10246426  0.29833090  1
  Mo  Mo220  1  0.40488894  0.79800899  0.20185464  1
  Mo  Mo221  1  0.60087187  0.60964256  0.20168280  1
  Mo  Mo222  1  0.30259841  0.69305892  0.49912995  1
  Mo  Mo223  1  0.09202104  0.89927169  0.29368884  1
  Mo  Mo224  1  0.89853952  0.90069318  0.29248889  1
  Mo  Mo225  1  0.20296076  0.39743140  -0.00184223  1
  Mo  Mo226  1  0.50811097  0.91894303  0.10014737  1
  Mo  Mo227  1  0.19462211  0.20723988  0.19899709  1
  Mo  Mo228  1  -0.01305577  0.78869981  0.60720686  1
  Mo  Mo229  1  0.80714456  0.40284025  0.00131355  1
  Mo  Mo230  1  0.80345222  0.20560341  0.61297462  1
  Mo  Mo231  1  0.50430062  0.10044798  0.30302203  1
  Mo  Mo232  1  0.50229511  0.70004078  0.49163441  1
  Mo  Mo233  1  -0.00433214  0.20789074  0.80962903  1
  Mo  Mo234  1  0.70374354  0.49973720  0.69552212  1
  Mo  Mo235  1  0.60026452  0.20366906  0.39369472  1
  Mo  Mo236  1  0.10338428  0.29708485  0.10316035  1
  Mo  Mo237  1  0.69006668  0.89515016  0.49829315  1
  Mo  Mo238  1  0.70099447  0.89926118  0.69965024  1
  Mo  Mo239  1  0.39445044  0.60052496  0.20200331  1
  Mo  Mo240  1  0.69582484  0.29299124  0.30153813  1
  Mo  Mo241  1  0.10340578  0.49377604  0.71020724  1
  Mo  Mo242  1  0.48959520  0.49617216  0.69475129  1
  Mo  Mo243  1  0.50596740  0.30157829  0.30429453  1
  Mo  Mo244  1  0.19425944  0.80752363  0.00141763  1
  Mo  Mo245  1  0.09913996  0.30659309  0.70351745  1
  Mo  Mo246  1  0.10079078  0.10919726  0.70837822  1
  Mo  Mo247  1  0.10437979  0.29716912  0.29643279  1
  Mo  Mo248  1  0.00126476  0.19889863  0.00376728  1
  Mo  Mo249  1  0.69785195  0.09583016  0.10381867  1
