# generated using pymatgen
data_HfZrTaTiMo
_symmetry_space_group_name_H-M   'P 1'
_cell_length_a   16.89570711
_cell_length_b   16.88663184
_cell_length_c   16.88599229
_cell_angle_alpha   90.05102588
_cell_angle_beta   89.97383714
_cell_angle_gamma   89.98543414
_symmetry_Int_Tables_number   1
_chemical_formula_structural   HfZrTaTiMo
_chemical_formula_sum   'Hf50 Zr50 Ta50 Ti50 Mo50'
_cell_volume   4817.76666804
_cell_formula_units_Z   50
loop_
 _symmetry_equiv_pos_site_id
 _symmetry_equiv_pos_as_xyz
  1  'x, y, z'
loop_
 _atom_site_type_symbol
 _atom_site_label
 _atom_site_symmetry_multiplicity
 _atom_site_fract_x
 _atom_site_fract_y
 _atom_site_fract_z
 _atom_site_occupancy
  Hf  Hf0  1  0.89979261  0.29755886  0.30723095  1
  Hf  Hf1  1  0.60401442  0.40441259  0.79873999  1
  Hf  Hf2  1  0.89504960  0.69149613  0.49713299  1
  Hf  Hf3  1  0.60791515  0.40131722  0.39456516  1
  Hf  Hf4  1  0.40009998  0.80340243  0.19656697  1
  Hf  Hf5  1  -0.00895981  0.59678570  -0.00035103  1
  Hf  Hf6  1  0.10609651  0.11125960  0.09432563  1
  Hf  Hf7  1  0.59372704  0.39969728  0.00417933  1
  Hf  Hf8  1  0.69814363  0.69727417  0.29901887  1
  Hf  Hf9  1  0.79602710  0.20535941  0.60069439  1
  Hf  Hf10  1  0.79563554  0.81013028  0.60069817  1
  Hf  Hf11  1  0.21251154  0.80725467  0.80164909  1
  Hf  Hf12  1  0.40154786  0.59931512  0.60319206  1
  Hf  Hf13  1  0.00003820  0.61493144  0.20262138  1
  Hf  Hf14  1  0.30100513  0.10425972  0.70264868  1
  Hf  Hf15  1  0.50432880  0.10078570  0.10085443  1
  Hf  Hf16  1  0.88388150  0.91298042  0.90336430  1
  Hf  Hf17  1  0.69071075  0.09792919  0.10999200  1
  Hf  Hf18  1  0.48927670  0.69167332  0.30070903  1
  Hf  Hf19  1  0.39848929  0.80910596  0.61058888  1
  Hf  Hf20  1  0.79102395  0.00792173  0.79229995  1
  Hf  Hf21  1  0.00725661  0.19609640  0.80579538  1
  Hf  Hf22  1  0.00182406  0.80475286  0.39207823  1
  Hf  Hf23  1  0.49907491  0.89327508  0.89703389  1
  Hf  Hf24  1  0.00394713  0.00469925  0.80262828  1
  Hf  Hf25  1  0.10656921  0.30404264  0.30077209  1
  Hf  Hf26  1  0.60852368  0.40022763  0.60422687  1
  Hf  Hf27  1  0.21235531  0.80605115  0.00149342  1
  Hf  Hf28  1  0.69799594  0.89789664  0.09458281  1
  Hf  Hf29  1  0.58732957  0.80719428  0.39048842  1
  Hf  Hf30  1  0.79210424  0.39040102  0.19979601  1
  Hf  Hf31  1  0.19042463  0.19645467  0.60507038  1
  Hf  Hf32  1  0.21187242  0.60041299  0.80925316  1
  Hf  Hf33  1  -0.00145039  0.00938866  -0.00529548  1
  Hf  Hf34  1  0.29354585  0.49362209  0.28950915  1
  Hf  Hf35  1  0.30504035  0.70498564  0.48944613  1
  Hf  Hf36  1  0.69607261  0.69890153  0.49512223  1
  Hf  Hf37  1  0.40265020  0.39878145  0.59849200  1
  Hf  Hf38  1  0.69713950  0.69170469  0.09814450  1
  Hf  Hf39  1  0.30218454  0.89809558  0.30121413  1
  Hf  Hf40  1  0.89563379  0.69378331  0.69847802  1
  Hf  Hf41  1  0.30805659  0.49596112  0.71203829  1
  Hf  Hf42  1  0.39567102  0.39614369  0.39321137  1
  Hf  Hf43  1  0.39451454  0.20536443  0.00759941  1
  Hf  Hf44  1  0.30183359  0.10141234  0.50101428  1
  Hf  Hf45  1  0.21415183  0.59720429  0.00014555  1
  Hf  Hf46  1  0.39831233  -0.00234468  0.79327233  1
  Hf  Hf47  1  0.70147714  0.30136731  0.90121530  1
  Hf  Hf48  1  0.79277652  0.80102589  0.80053271  1
  Hf  Hf49  1  0.49515932  0.70203413  0.49513054  1
  Zr  Zr50  1  0.90108445  0.10769945  0.10070507  1
  Zr  Zr51  1  0.50400005  0.29207807  0.49688804  1
  Zr  Zr52  1  0.90551515  0.49589552  0.30556644  1
  Zr  Zr53  1  0.39849794  0.39835847  0.18888713  1
  Zr  Zr54  1  0.69623103  0.90269848  0.49860460  1
  Zr  Zr55  1  0.09794651  0.49536018  0.69765423  1
  Zr  Zr56  1  0.20287868  0.40315643  0.41448032  1
  Zr  Zr57  1  0.49624449  0.10305404  0.90170182  1
  Zr  Zr58  1  0.10055382  0.89961425  0.69975340  1
  Zr  Zr59  1  0.40814165  0.00143734  0.39104305  1
  Zr  Zr60  1  0.09514548  0.50144898  0.30409514  1
  Zr  Zr61  1  0.59492258  0.00515296  0.60715248  1
  Zr  Zr62  1  0.79027374  0.59102331  0.80250655  1
  Zr  Zr63  1  0.40127997  0.19800373  0.39329828  1
  Zr  Zr64  1  0.30019937  0.90017522  0.49728843  1
  Zr  Zr65  1  0.69808462  0.89803267  0.29293372  1
  Zr  Zr66  1  0.89915318  0.49411198  0.09977495  1
  Zr  Zr67  1  0.20180547  0.60425646  0.19765469  1
  Zr  Zr68  1  0.00030436  0.40219136  0.81095837  1
  Zr  Zr69  1  0.51125833  0.29912643  0.28895562  1
  Zr  Zr70  1  0.09751372  0.69532097  0.49619471  1
  Zr  Zr71  1  0.79675920  0.78659185  -0.00158834  1
  Zr  Zr72  1  -0.00539938  0.80137438  -0.00102928  1
  Zr  Zr73  1  0.80538414  0.00243199  0.40031372  1
  Zr  Zr74  1  0.49660549  0.89818135  0.09153963  1
  Zr  Zr75  1  0.89540443  0.29753665  0.90327280  1
  Zr  Zr76  1  0.59494279  0.59671515  -0.01119319  1
  Zr  Zr77  1  0.69656405  0.10020801  0.90670866  1
  Zr  Zr78  1  0.20904443  0.59075761  0.59235410  1
  Zr  Zr79  1  0.80296192  0.00024095  0.20677166  1
  Zr  Zr80  1  0.51672132  0.09680579  0.27869000  1
  Zr  Zr81  1  0.50133139  0.50301966  0.49397556  1
  Zr  Zr82  1  0.30377700  0.30049942  0.70235730  1
  Zr  Zr83  1  -0.00376672  0.80320020  0.59933394  1
  Zr  Zr84  1  0.19349494  0.39328044  0.81181398  1
  Zr  Zr85  1  0.60345932  0.20185498  0.60832169  1
  Zr  Zr86  1  0.69066637  0.69972740  0.70093790  1
  Zr  Zr87  1  0.20003918  0.00144535  0.19872358  1
  Zr  Zr88  1  0.38907324  0.20474602  0.19646424  1
  Zr  Zr89  1  0.00778569  0.39180821  0.00296505  1
  Zr  Zr90  1  0.19948994  0.39858837  0.00388009  1
  Zr  Zr91  1  0.90197239  0.30452812  0.69867469  1
  Zr  Zr92  1  0.10113435  0.69774165  0.70126461  1
  Zr  Zr93  1  0.80463475  0.60217339  0.19777310  1
  Zr  Zr94  1  0.90451103  0.09908959  0.69128510  1
  Zr  Zr95  1  0.90003340  0.11369059  0.30226861  1
  Zr  Zr96  1  0.00505733  0.00122085  0.39598172  1
  Zr  Zr97  1  0.89880052  0.90589209  0.09957857  1
  Zr  Zr98  1  0.10315593  0.70609168  0.09844371  1
  Zr  Zr99  1  0.09880017  0.70172903  0.89673161  1
  Ta  Ta100  1  0.79392049  0.58794774  0.40162955  1
  Ta  Ta101  1  0.49294092  0.30565469  0.89956167  1
  Ta  Ta102  1  -0.01074767  0.80188086  0.80609950  1
  Ta  Ta103  1  0.50063272  0.50325870  0.70841684  1
  Ta  Ta104  1  0.59972866  0.59534049  0.60338018  1
  Ta  Ta105  1  0.69646379  0.49938299  0.29435830  1
  Ta  Ta106  1  0.00550908  0.20336843  0.41173535  1
  Ta  Ta107  1  0.30485182  0.29928866  0.89967963  1
  Ta  Ta108  1  0.20208729  -0.00037625  0.60654195  1
  Ta  Ta109  1  0.10147855  0.90382458  0.10040858  1
  Ta  Ta110  1  0.30981249  0.70246483  0.70921817  1
  Ta  Ta111  1  0.30095006  0.70067936  0.29983658  1
  Ta  Ta112  1  0.79220978  0.40082588  0.59814685  1
  Ta  Ta113  1  0.79272206  0.19852708  0.79585244  1
  Ta  Ta114  1  0.79733453  0.39839741  0.40683285  1
  Ta  Ta115  1  0.89626738  0.49730048  0.50361606  1
  Ta  Ta116  1  0.58806066  0.58953612  0.19576945  1
  Ta  Ta117  1  0.68967569  0.90088000  0.89886544  1
  Ta  Ta118  1  0.61686635  0.19569039  0.38749683  1
  Ta  Ta119  1  -0.00271421  0.39360954  0.41504029  1
  Ta  Ta120  1  0.89145435  0.69102341  0.89952962  1
  Ta  Ta121  1  0.81439779  0.79284107  0.20097463  1
  Ta  Ta122  1  0.19252858  0.80120884  0.38999596  1
  Ta  Ta123  1  0.59727131  -0.00210468  -0.00125424  1
  Ta  Ta124  1  0.00168843  0.80429264  0.20697619  1
  Ta  Ta125  1  0.59779033  0.20577684  0.79185840  1
  Ta  Ta126  1  0.70294358  0.10238702  0.49489926  1
  Ta  Ta127  1  0.89136948  0.49426766  0.69918927  1
  Ta  Ta128  1  0.40540482  0.00189821  0.60607978  1
  Ta  Ta129  1  0.19650173  0.19941449  0.80451345  1
  Ta  Ta130  1  0.11070245  0.10264514  0.90662949  1
  Ta  Ta131  1  0.70044137  0.49931551  0.09829381  1
  Ta  Ta132  1  0.10701218  0.90239863  0.50095118  1
  Ta  Ta133  1  0.79935482  0.20000321  0.00611229  1
  Ta  Ta134  1  0.29108801  0.10279796  0.29760344  1
  Ta  Ta135  1  0.19248608  0.00320293  0.39497550  1
  Ta  Ta136  1  -0.00737455  0.59051280  0.60256079  1
  Ta  Ta137  1  0.31069082  0.90071939  0.90271394  1
  Ta  Ta138  1  0.31195584  0.70087873  0.09764754  1
  Ta  Ta139  1  0.59141336  0.79189713  0.19528783  1
  Ta  Ta140  1  0.49576933  0.90178687  0.49625864  1
  Ta  Ta141  1  0.29938682  0.29174525  0.50317965  1
  Ta  Ta142  1  0.59051069  0.80052374  0.60219444  1
  Ta  Ta143  1  0.60073186  0.00490993  0.39290436  1
  Ta  Ta144  1  -0.01044170  0.59371401  0.80310631  1
  Ta  Ta145  1  0.32219283  0.49134894  0.90898061  1
  Ta  Ta146  1  0.40904466  0.60368645  0.81374285  1
  Ta  Ta147  1  0.20353619  0.00305724  0.80288024  1
  Ta  Ta148  1  0.00923339  -0.00147045  0.20906508  1
  Ta  Ta149  1  0.50104187  0.70208891  0.71005208  1
  Ti  Ti150  1  0.59815361  0.78917605  -0.01041369  1
  Ti  Ti151  1  0.20468495  0.40143061  0.59511458  1
  Ti  Ti152  1  0.39228719  -0.00010733  0.19159212  1
  Ti  Ti153  1  0.79308229  0.00336440  0.60271837  1
  Ti  Ti154  1  0.90067486  0.69642988  0.31037909  1
  Ti  Ti155  1  0.10123613  0.30033453  0.50537001  1
  Ti  Ti156  1  0.68659942  0.90012292  0.70565119  1
  Ti  Ti157  1  0.09885050  0.50750909  0.90268760  1
  Ti  Ti158  1  0.10276061  0.09742859  0.49978866  1
  Ti  Ti159  1  0.10517404  0.90459596  0.90340606  1
  Ti  Ti160  1  0.19663456  0.19795355  0.39855404  1
  Ti  Ti161  1  0.71130301  0.49399229  0.90773714  1
  Ti  Ti162  1  0.39166571  0.58550719  0.39442502  1
  Ti  Ti163  1  0.40755637  0.20480939  0.79704182  1
  Ti  Ti164  1  0.59920748  0.59778838  0.80579539  1
  Ti  Ti165  1  0.20272386  0.20419433  0.20020453  1
  Ti  Ti166  1  0.38887622  0.00199886  0.00709580  1
  Ti  Ti167  1  0.08998793  0.50540918  0.49872833  1
  Ti  Ti168  1  0.80069080  0.39490168  0.00700143  1
  Ti  Ti169  1  0.10478019  0.49550096  0.10850088  1
  Ti  Ti170  1  0.00516448  0.19964803  0.59607364  1
  Ti  Ti171  1  0.70548713  0.29489028  0.49131618  1
  Ti  Ti172  1  0.60054654  0.59122474  0.39388982  1
  Ti  Ti173  1  0.19903303  0.60119164  0.39720611  1
  Ti  Ti174  1  -0.00451585  0.39936746  0.59407488  1
  Ti  Ti175  1  0.80782989  0.80645164  0.39446500  1
  Ti  Ti176  1  0.29755993  0.10440260  0.90340755  1
  Ti  Ti177  1  0.59872937  0.21026760  0.00730016  1
  Ti  Ti178  1  0.78718814  0.58572369  0.59696383  1
  Ti  Ti179  1  0.09789543  0.30264146  0.69691916  1
  Ti  Ti180  1  0.39938641  0.59357980  0.19238776  1
  Ti  Ti181  1  0.90170611  0.90599475  0.69853321  1
  Ti  Ti182  1  0.89845600  0.10700792  0.50049217  1
  Ti  Ti183  1  0.50686479  0.09961381  0.49761036  1
  Ti  Ti184  1  0.28755275  0.30368050  0.10073260  1
  Ti  Ti185  1  0.01236060  0.20032052  0.20449491  1
  Ti  Ti186  1  0.41225993  0.19694701  0.60704495  1
  Ti  Ti187  1  0.21054102  0.00006051  0.00333271  1
  Ti  Ti188  1  0.50427004  0.89367173  0.70895879  1
  Ti  Ti189  1  0.78378946  0.20698049  0.20576277  1
  Ti  Ti190  1  0.20624795  0.80128393  0.60249065  1
  Ti  Ti191  1  0.90323354  0.90825356  0.50473859  1
  Ti  Ti192  1  0.00658565  0.39006977  0.19471849  1
  Ti  Ti193  1  0.01071094  0.00607498  0.59926928  1
  Ti  Ti194  1  0.59603373  0.01092404  0.79529367  1
  Ti  Ti195  1  0.90503451  0.29004370  0.10314900  1
  Ti  Ti196  1  0.49348812  0.69633279  0.09040227  1
  Ti  Ti197  1  0.48593565  0.50023673  0.08681821  1
  Ti  Ti198  1  0.19815624  0.80253867  0.20104466  1
  Ti  Ti199  1  0.60079432  0.40064163  0.19105253  1
  Mo  Mo200  1  0.69774480  0.10268498  0.69917278  1
  Mo  Mo201  1  0.29710184  0.09808855  0.10087723  1
  Mo  Mo202  1  0.00013251  0.19958982  -0.00090790  1
  Mo  Mo203  1  0.69631633  0.50070291  0.69574966  1
  Mo  Mo204  1  0.69505313  0.70111816  0.89898841  1
  Mo  Mo205  1  0.30156962  0.50067740  0.49678396  1
  Mo  Mo206  1  0.10458590  0.09867883  0.70209083  1
  Mo  Mo207  1  0.89033717  0.49715226  0.90038794  1
  Mo  Mo208  1  0.49875800  0.30235220  0.70784029  1
  Mo  Mo209  1  0.79023071  0.00905931  -0.00424087  1
  Mo  Mo210  1  0.90324469  0.30212580  0.50321971  1
  Mo  Mo211  1  0.79513169  0.39913864  0.79531798  1
  Mo  Mo212  1  0.31480457  0.70374045  0.90328956  1
  Mo  Mo213  1  0.70177788  0.10396902  0.30004020  1
  Mo  Mo214  1  0.50239907  0.70246455  0.89629048  1
  Mo  Mo215  1  0.40035154  0.39451547  0.00219775  1
  Mo  Mo216  1  0.90070622  0.70227503  0.09828624  1
  Mo  Mo217  1  0.19678560  0.39632856  0.19296641  1
  Mo  Mo218  1  0.40302499  0.60187466  0.00058847  1
  Mo  Mo219  1  0.28800165  0.29549421  0.30085922  1
  Mo  Mo220  1  0.90385678  0.89354048  0.29920313  1
  Mo  Mo221  1  0.10623552  0.28056778  0.91530965  1
  Mo  Mo222  1  0.79772880  0.59102917  -0.00419335  1
  Mo  Mo223  1  0.49951260  0.90084660  0.29221182  1
  Mo  Mo224  1  0.50678354  0.29998022  0.09490754  1
  Mo  Mo225  1  0.59749380  -0.01814505  0.19804857  1
  Mo  Mo226  1  0.49808174  0.49790305  0.89678433  1
  Mo  Mo227  1  0.10053038  0.29481404  0.10661648  1
  Mo  Mo228  1  0.89240281  0.10625546  0.90215011  1
  Mo  Mo229  1  0.40286480  0.79827141  0.80244518  1
  Mo  Mo230  1  0.70591607  0.30370861  0.70651992  1
  Mo  Mo231  1  0.10252482  0.11040339  0.30083600  1
  Mo  Mo232  1  0.70150728  0.30179708  0.09613942  1
  Mo  Mo233  1  0.70470512  0.30361112  0.29959729  1
  Mo  Mo234  1  0.39606438  0.80028096  0.39383740  1
  Mo  Mo235  1  0.40118391  0.79346431  -0.00288536  1
  Mo  Mo236  1  0.30535930  0.50357178  0.09708794  1
  Mo  Mo237  1  0.10546692  0.70431848  0.30097195  1
  Mo  Mo238  1  0.10333709  0.89992299  0.29503582  1
  Mo  Mo239  1  0.80106407  0.20335050  0.40711481  1
  Mo  Mo240  1  0.29802351  0.90003384  0.09694178  1
  Mo  Mo241  1  0.30060974  0.90359529  0.70211566  1
  Mo  Mo242  1  0.70083428  0.50183147  0.49720999  1
  Mo  Mo243  1  0.40946695  0.39962883  0.80459937  1
  Mo  Mo244  1  -0.00738643  0.59576811  0.40723324  1
  Mo  Mo245  1  0.61363732  0.22092906  0.19415200  1
  Mo  Mo246  1  0.49573309  0.10472191  0.70306146  1
  Mo  Mo247  1  0.59971480  0.79961504  0.80020100  1
  Mo  Mo248  1  0.20759734  0.20052564  -0.00174929  1
  Mo  Mo249  1  0.50178331  0.50201726  0.29106413  1
