# generated using pymatgen
data_HfZrTaTiMo
_symmetry_space_group_name_H-M   'P 1'
_cell_length_a   16.88432375
_cell_length_b   16.88114738
_cell_length_c   16.87617751
_cell_angle_alpha   89.97636172
_cell_angle_beta   90.00386755
_cell_angle_gamma   90.03445751
_symmetry_Int_Tables_number   1
_chemical_formula_structural   HfZrTaTiMo
_chemical_formula_sum   'Hf50 Zr50 Ta50 Ti50 Mo50'
_cell_volume   4810.16086455
_cell_formula_units_Z   50
loop_
 _symmetry_equiv_pos_site_id
 _symmetry_equiv_pos_as_xyz
  1  'x, y, z'
loop_
 _atom_site_type_symbol
 _atom_site_label
 _atom_site_symmetry_multiplicity
 _atom_site_fract_x
 _atom_site_fract_y
 _atom_site_fract_z
 _atom_site_occupancy
  Hf  Hf0  1  0.40413537  0.40545526  0.80667158  1
  Hf  Hf1  1  0.29140971  0.09118496  0.30487756  1
  Hf  Hf2  1  0.29468265  0.69478549  0.10100101  1
  Hf  Hf3  1  0.40380703  -0.00575997  0.00094369  1
  Hf  Hf4  1  0.21636904  0.22088878  0.20179585  1
  Hf  Hf5  1  0.10311374  0.50017178  0.49779730  1
  Hf  Hf6  1  0.19613642  0.80395119  0.40260076  1
  Hf  Hf7  1  0.79745469  0.59431277  0.59495778  1
  Hf  Hf8  1  0.69957796  0.88831050  0.10143594  1
  Hf  Hf9  1  0.50773416  0.29504776  0.70501628  1
  Hf  Hf10  1  0.19278460  0.80522019  0.79937207  1
  Hf  Hf11  1  0.69523107  0.29920854  0.49943612  1
  Hf  Hf12  1  0.89934578  0.30603107  0.28855296  1
  Hf  Hf13  1  0.90799096  0.29623506  0.49609936  1
  Hf  Hf14  1  0.00699853  0.80090063  0.39714939  1
  Hf  Hf15  1  0.50173154  0.10239290  0.89046492  1
  Hf  Hf16  1  0.40714920  -0.00576839  0.19934307  1
  Hf  Hf17  1  0.50355709  0.69890724  0.09933354  1
  Hf  Hf18  1  0.59348615  0.79040740  0.80089250  1
  Hf  Hf19  1  0.60182567  0.21175430  -0.00916831  1
  Hf  Hf20  1  0.48424392  0.89523467  0.70337335  1
  Hf  Hf21  1  0.50737793  0.49706552  0.70092568  1
  Hf  Hf22  1  0.49733209  0.50028226  0.31095542  1
  Hf  Hf23  1  0.79338912  0.79635322  0.79968064  1
  Hf  Hf24  1  0.70240783  0.70277175  0.09025832  1
  Hf  Hf25  1  0.29775192  0.30135301  0.90328925  1
  Hf  Hf26  1  0.20045192  0.19340775  0.79687698  1
  Hf  Hf27  1  0.89248775  0.11298141  0.10472353  1
  Hf  Hf28  1  0.80146092  0.40484896  0.39932243  1
  Hf  Hf29  1  0.80702047  0.81143411  0.38755203  1
  Hf  Hf30  1  0.70156167  0.10006457  0.49782469  1
  Hf  Hf31  1  0.40152762  0.19893683  0.20290446  1
  Hf  Hf32  1  0.10574909  0.29995827  0.89911715  1
  Hf  Hf33  1  0.79987824  -0.00189506  0.00365723  1
  Hf  Hf34  1  0.10619397  0.09027675  0.69396587  1
  Hf  Hf35  1  0.69186702  0.70498323  0.49281051  1
  Hf  Hf36  1  0.90821008  0.09836092  0.30093241  1
  Hf  Hf37  1  0.38394669  0.38291608  0.19495762  1
  Hf  Hf38  1  0.40440178  0.19178848  0.40181423  1
  Hf  Hf39  1  0.29999142  0.70298259  0.69766096  1
  Hf  Hf40  1  0.50990832  0.31037826  0.49988840  1
  Hf  Hf41  1  0.60087889  0.18393768  0.21761568  1
  Hf  Hf42  1  0.89902081  0.50282458  0.70071056  1
  Hf  Hf43  1  0.10197341  0.09804485  0.30347606  1
  Hf  Hf44  1  0.50572664  0.30380703  0.31187803  1
  Hf  Hf45  1  0.89847665  0.29360337  0.90421889  1
  Hf  Hf46  1  0.39773080  0.41076814  0.59821366  1
  Hf  Hf47  1  0.29710634  0.09754848  0.09681511  1
  Hf  Hf48  1  0.80150720  -0.00073297  0.79742046  1
  Hf  Hf49  1  0.00262583  0.00150921  0.00393868  1
  Zr  Zr50  1  0.41001712  0.59827059  -0.00928478  1
  Zr  Zr51  1  0.59917632  0.60040063  0.20689884  1
  Zr  Zr52  1  0.80001000  0.39575660  0.80031715  1
  Zr  Zr53  1  0.58985735  0.81517707  0.38743364  1
  Zr  Zr54  1  0.00781267  0.40049228  0.79784232  1
  Zr  Zr55  1  0.90836871  0.88846330  0.90856379  1
  Zr  Zr56  1  0.60560987  0.39676800  0.19967702  1
  Zr  Zr57  1  0.00492903  0.21072287  0.19468548  1
  Zr  Zr58  1  0.80395962  0.59646717  0.20743203  1
  Zr  Zr59  1  0.29601671  0.29866129  0.70086099  1
  Zr  Zr60  1  0.90191718  0.70544683  0.69624539  1
  Zr  Zr61  1  0.29189570  0.29729185  0.50452477  1
  Zr  Zr62  1  0.40347652  0.18832819  0.60143109  1
  Zr  Zr63  1  0.59261666  0.01265511  0.38771904  1
  Zr  Zr64  1  0.80045610  0.59714370  0.39820656  1
  Zr  Zr65  1  0.69411282  0.70693979  0.29626636  1
  Zr  Zr66  1  0.89670828  0.69916387  0.90523244  1
  Zr  Zr67  1  0.10464074  0.10051672  0.10375201  1
  Zr  Zr68  1  0.00363466  0.40196861  0.00348126  1
  Zr  Zr69  1  0.10055875  0.89439068  0.09613730  1
  Zr  Zr70  1  0.49572770  0.49942075  0.10329487  1
  Zr  Zr71  1  0.30364890  0.51003329  0.29247514  1
  Zr  Zr72  1  0.29618847  0.49727063  0.90596354  1
  Zr  Zr73  1  0.70004369  0.10038582  0.09874038  1
  Zr  Zr74  1  0.90279145  0.70568299  0.50357441  1
  Zr  Zr75  1  0.58756070  0.59956190  0.59625651  1
  Zr  Zr76  1  0.90322028  0.89756211  0.68882414  1
  Zr  Zr77  1  0.19510129  0.59664832  0.80204618  1
  Zr  Zr78  1  0.58884651  0.00524717  0.59830460  1
  Zr  Zr79  1  0.59479040  -0.01060708  0.20705334  1
  Zr  Zr80  1  0.89943936  0.90928235  0.50147200  1
  Zr  Zr81  1  0.70524261  0.50311350  0.09455472  1
  Zr  Zr82  1  0.29845874  0.90243452  0.70220758  1
  Zr  Zr83  1  0.69747499  0.69834422  0.69424836  1
  Zr  Zr84  1  0.90172473  0.10352964  0.90084782  1
  Zr  Zr85  1  0.00083544  0.80235084  0.20600384  1
  Zr  Zr86  1  0.60533179  0.39151888  0.81614939  1
  Zr  Zr87  1  0.48610891  0.89702278  0.50134502  1
  Zr  Zr88  1  0.80234609  0.19319362  0.39676161  1
  Zr  Zr89  1  0.00356762  0.39716170  0.60717287  1
  Zr  Zr90  1  0.00836018  0.59356502  0.00303385  1
  Zr  Zr91  1  0.10040910  0.30757430  0.30922230  1
  Zr  Zr92  1  0.40208474  0.20558890  0.00273155  1
  Zr  Zr93  1  0.29660961  0.70614142  0.90341474  1
  Zr  Zr94  1  0.69751150  0.89418387  0.90569117  1
  Zr  Zr95  1  0.89679836  0.70394362  0.09475399  1
  Zr  Zr96  1  0.39999159  0.80713578  0.19964808  1
  Zr  Zr97  1  0.59760264  -0.00115548  0.79450372  1
  Zr  Zr98  1  0.20519025  0.60291282  0.40426930  1
  Zr  Zr99  1  0.00278257  0.19705683  0.60104137  1
  Ta  Ta100  1  0.00435250  0.59998022  0.80317900  1
  Ta  Ta101  1  0.79991228  0.20195158  0.79465000  1
  Ta  Ta102  1  0.60198177  0.39611993  -0.00344884  1
  Ta  Ta103  1  0.19660994  0.80488241  0.59407431  1
  Ta  Ta104  1  0.70038944  0.10449530  0.69992042  1
  Ta  Ta105  1  0.38677448  0.79857962  0.39970295  1
  Ta  Ta106  1  0.10174547  0.09806198  0.89709811  1
  Ta  Ta107  1  0.20070255  0.79992515  0.20684857  1
  Ta  Ta108  1  0.10778645  0.29810143  0.50201733  1
  Ta  Ta109  1  0.70080365  0.10758997  0.89634892  1
  Ta  Ta110  1  0.20647804  0.41770845  0.60349762  1
  Ta  Ta111  1  0.79936457  0.39682727  0.59982575  1
  Ta  Ta112  1  0.69784054  0.29514485  0.69487499  1
  Ta  Ta113  1  0.09974129  0.50225507  0.29473037  1
  Ta  Ta114  1  0.00402005  0.60003398  0.60053122  1
  Ta  Ta115  1  0.69577439  0.49366695  0.69811764  1
  Ta  Ta116  1  0.89481283  0.50345928  0.90464106  1
  Ta  Ta117  1  0.70265151  0.90383145  0.49821670  1
  Ta  Ta118  1  0.39297026  0.59507676  0.59959311  1
  Ta  Ta119  1  0.71441440  0.29343546  0.10739304  1
  Ta  Ta120  1  0.10448883  0.69011146  0.29302953  1
  Ta  Ta121  1  0.39448974  0.00525067  0.59804212  1
  Ta  Ta122  1  0.09865022  0.70277226  0.69619194  1
  Ta  Ta123  1  0.79882107  0.39355904  0.00189019  1
  Ta  Ta124  1  -0.00040467  0.20047354  0.79095129  1
  Ta  Ta125  1  0.90674752  0.49843615  0.49875548  1
  Ta  Ta126  1  0.10448324  0.30704881  0.09753622  1
  Ta  Ta127  1  0.00534834  -0.00091086  0.79810824  1
  Ta  Ta128  1  0.40806606  0.60015441  0.79882387  1
  Ta  Ta129  1  0.40415108  0.80397276  -0.00249095  1
  Ta  Ta130  1  0.49078353  0.70085903  0.49671266  1
  Ta  Ta131  1  0.59581607  0.59930548  0.81076404  1
  Ta  Ta132  1  0.20296655  -0.00236996  -0.00840899  1
  Ta  Ta133  1  0.79252956  0.59598284  0.80255583  1
  Ta  Ta134  1  0.09656127  0.71032991  0.90887330  1
  Ta  Ta135  1  0.90186423  0.09581810  0.69589637  1
  Ta  Ta136  1  0.59562603  0.19204563  0.60001684  1
  Ta  Ta137  1  0.30060608  0.70306183  0.50861282  1
  Ta  Ta138  1  0.28826817  0.09354370  0.49930307  1
  Ta  Ta139  1  0.89865048  0.48962046  0.10720973  1
  Ta  Ta140  1  0.59221582  0.80151610  0.59667929  1
  Ta  Ta141  1  0.68455045  0.49247714  0.49924061  1
  Ta  Ta142  1  0.29194360  0.90460549  0.30633512  1
  Ta  Ta143  1  0.30188672  0.90115400  0.89458751  1
  Ta  Ta144  1  0.80093416  -0.00487384  0.21070975  1
  Ta  Ta145  1  0.70260085  0.29635389  0.30143268  1
  Ta  Ta146  1  0.19941029  0.40596785  0.19518146  1
  Ta  Ta147  1  0.91400362  0.49540119  0.29619943  1
  Ta  Ta148  1  0.70057195  0.89753446  0.68691193  1
  Ta  Ta149  1  0.48674296  0.69424594  0.30566390  1
  Ti  Ti150  1  0.20062831  0.19762727  -0.00095047  1
  Ti  Ti151  1  0.29145193  0.89283739  0.09241875  1
  Ti  Ti152  1  0.58638450  0.81024768  0.20654030  1
  Ti  Ti153  1  0.19998520  0.20194586  0.40230323  1
  Ti  Ti154  1  0.01400156  0.80380560  0.59552149  1
  Ti  Ti155  1  0.50504178  0.09902779  0.09656974  1
  Ti  Ti156  1  0.50863300  0.29799345  0.10383539  1
  Ti  Ti157  1  0.30030953  0.09090239  0.89239832  1
  Ti  Ti158  1  0.70257757  0.50500255  0.90699583  1
  Ti  Ti159  1  0.10727588  0.70463568  0.09901730  1
  Ti  Ti160  1  0.90992370  0.69257420  0.29812465  1
  Ti  Ti161  1  0.90177698  0.89823404  0.10361362  1
  Ti  Ti162  1  0.40103983  0.19651317  0.79947796  1
  Ti  Ti163  1  0.79930352  0.00488531  0.60011136  1
  Ti  Ti164  1  0.80784514  0.80729164  0.20806655  1
  Ti  Ti165  1  0.29874674  0.50535708  0.10166108  1
  Ti  Ti166  1  0.29755701  0.08996379  0.70294075  1
  Ti  Ti167  1  0.00105044  -0.00108788  0.40050327  1
  Ti  Ti168  1  0.80484101  0.20078389  0.60448661  1
  Ti  Ti169  1  0.00254973  0.40255962  0.40115647  1
  Ti  Ti170  1  0.48858281  0.70376066  0.69714299  1
  Ti  Ti171  1  0.48877655  0.89750824  0.89079692  1
  Ti  Ti172  1  0.59330171  -0.00574729  -0.00108592  1
  Ti  Ti173  1  0.90680340  0.09459754  0.50017583  1
  Ti  Ti174  1  0.39670018  0.59784348  0.41174923  1
  Ti  Ti175  1  0.18884550  0.59215155  0.00348842  1
  Ti  Ti176  1  0.11295460  0.29598988  0.69052657  1
  Ti  Ti177  1  0.09939188  0.91129911  0.29753725  1
  Ti  Ti178  1  0.19540684  0.40954637  0.00663532  1
  Ti  Ti179  1  0.19858620  0.40864148  0.79183995  1
  Ti  Ti180  1  0.00325042  0.60055567  0.40084376  1
  Ti  Ti181  1  0.09957780  0.91390000  0.50088925  1
  Ti  Ti182  1  0.10164076  0.10066549  0.49656155  1
  Ti  Ti183  1  0.00465810  0.20330146  0.00223084  1
  Ti  Ti184  1  0.10276782  0.89909861  0.90383186  1
  Ti  Ti185  1  0.10407667  0.51029391  0.69490254  1
  Ti  Ti186  1  0.00860399  0.59527138  0.19259347  1
  Ti  Ti187  1  0.20050162  -0.00858101  0.19637365  1
  Ti  Ti188  1  0.20889839  0.40451602  0.39816368  1
  Ti  Ti189  1  0.09874059  0.90660804  0.69611627  1
  Ti  Ti190  1  0.69450244  0.49480217  0.30699247  1
  Ti  Ti191  1  0.70121251  0.69309160  0.91265612  1
  Ti  Ti192  1  0.38996770  0.40502841  0.40862943  1
  Ti  Ti193  1  0.39581232  -0.00024698  0.40569024  1
  Ti  Ti194  1  0.10439819  0.69371331  0.50724180  1
  Ti  Ti195  1  0.00596789  0.80111343  0.79900943  1
  Ti  Ti196  1  0.20307565  -0.00563870  0.59176064  1
  Ti  Ti197  1  0.58799369  0.79695859  -0.00934819  1
  Ti  Ti198  1  0.29984577  0.69733904  0.29529766  1
  Ti  Ti199  1  0.41283128  0.39428406  -0.00113117  1
  Mo  Mo200  1  0.19985928  0.18965782  0.59710647  1
  Mo  Mo201  1  0.50750137  0.89503961  0.08647852  1
  Mo  Mo202  1  0.29080908  0.30948993  0.08251532  1
  Mo  Mo203  1  0.60371220  0.39712600  0.60328822  1
  Mo  Mo204  1  0.50028196  0.70216592  0.89715726  1
  Mo  Mo205  1  0.49462753  0.09952846  0.49958721  1
  Mo  Mo206  1  0.60357900  0.59784286  -0.01065620  1
  Mo  Mo207  1  0.10367391  0.49973166  0.10700025  1
  Mo  Mo208  1  0.19648551  -0.00146046  0.80821359  1
  Mo  Mo209  1  0.60678301  0.40207370  0.39825530  1
  Mo  Mo210  1  0.39623233  0.79465470  0.59608246  1
  Mo  Mo211  1  0.19269326  -0.00416155  0.40464021  1
  Mo  Mo212  1  0.78497203  0.80539503  0.59127433  1
  Mo  Mo213  1  0.79806831  0.19902183  0.20190647  1
  Mo  Mo214  1  0.80262213  0.39844614  0.20232331  1
  Mo  Mo215  1  0.00555998  0.80086184  0.00225404  1
  Mo  Mo216  1  0.00522907  0.40580783  0.19771783  1
  Mo  Mo217  1  0.00722874  0.19699878  0.40761806  1
  Mo  Mo218  1  0.39880140  0.79537048  0.80406032  1
  Mo  Mo219  1  0.60798074  0.19777880  0.79651102  1
  Mo  Mo220  1  0.89169544  0.29045820  0.69726674  1
  Mo  Mo221  1  0.29968672  0.30785061  0.31575890  1
  Mo  Mo222  1  0.49745570  0.29918154  0.90088836  1
  Mo  Mo223  1  0.49648196  0.50393584  0.49584465  1
  Mo  Mo224  1  0.49728283  0.09996373  0.70199091  1
  Mo  Mo225  1  0.90946890  0.90999190  0.29796127  1
  Mo  Mo226  1  0.71245280  0.90340321  0.29911381  1
  Mo  Mo227  1  0.29474554  0.90192149  0.50059784  1
  Mo  Mo228  1  0.48603365  0.09762724  0.30437962  1
  Mo  Mo229  1  0.71267597  0.09923848  0.30124019  1
  Mo  Mo230  1  0.58849458  0.59687224  0.40265292  1
  Mo  Mo231  1  0.39704249  0.60505928  0.20154913  1
  Mo  Mo232  1  0.80018117  0.79918986  0.00624993  1
  Mo  Mo233  1  -0.00414040  -0.00299508  0.20155572  1
  Mo  Mo234  1  0.79609101  0.20514395  -0.00331928  1
  Mo  Mo235  1  0.39450425  0.00696074  0.79960004  1
  Mo  Mo236  1  0.80036296  0.00065534  0.39955612  1
  Mo  Mo237  1  0.60079912  0.19872708  0.40252592  1
  Mo  Mo238  1  0.80146515  0.59068762  -0.00344717  1
  Mo  Mo239  1  0.89708164  0.30386793  0.09726382  1
  Mo  Mo240  1  0.19720590  0.60329230  0.19588708  1
  Mo  Mo241  1  0.09966570  0.50095037  0.89675874  1
  Mo  Mo242  1  0.29837351  0.50590188  0.50085603  1
  Mo  Mo243  1  0.20296661  0.80403613  0.00061129  1
  Mo  Mo244  1  0.19628967  0.60566063  0.60226855  1
  Mo  Mo245  1  0.50761218  0.50028916  0.90271609  1
  Mo  Mo246  1  0.47693839  0.89851759  0.30657029  1
  Mo  Mo247  1  0.30253628  0.50684028  0.70197734  1
  Mo  Mo248  1  0.00626410  0.00106332  0.59712918  1
  Mo  Mo249  1  0.70619576  0.29643559  0.90424964  1
