# generated using pymatgen
data_HfZrTaTiMo
_symmetry_space_group_name_H-M   'P 1'
_cell_length_a   16.88088884
_cell_length_b   16.88257204
_cell_length_c   16.88681637
_cell_angle_alpha   90.00959297
_cell_angle_beta   90.01389545
_cell_angle_gamma   90.00569107
_symmetry_Int_Tables_number   1
_chemical_formula_structural   HfZrTaTiMo
_chemical_formula_sum   'Hf50 Zr50 Ta50 Ti50 Mo50'
_cell_volume   4812.62121779
_cell_formula_units_Z   50
loop_
 _symmetry_equiv_pos_site_id
 _symmetry_equiv_pos_as_xyz
  1  'x, y, z'
loop_
 _atom_site_type_symbol
 _atom_site_label
 _atom_site_symmetry_multiplicity
 _atom_site_fract_x
 _atom_site_fract_y
 _atom_site_fract_z
 _atom_site_occupancy
  Hf  Hf0  1  0.40274381  0.39852845  0.80306180  1
  Hf  Hf1  1  0.79904606  0.60353788  0.19627076  1
  Hf  Hf2  1  0.10229834  0.91117979  0.69419811  1
  Hf  Hf3  1  0.39719892  0.79584648  0.19697708  1
  Hf  Hf4  1  0.71302131  0.10094293  0.09720026  1
  Hf  Hf5  1  0.29379924  0.29512437  0.49898772  1
  Hf  Hf6  1  0.00008776  0.40056722  0.19365007  1
  Hf  Hf7  1  0.89782258  0.29120317  0.71517120  1
  Hf  Hf8  1  0.69720881  0.70254711  0.29200202  1
  Hf  Hf9  1  0.29847353  0.50108299  0.69716781  1
  Hf  Hf10  1  0.80357128  0.19889789  0.60038935  1
  Hf  Hf11  1  0.69486879  0.89772551  0.89995639  1
  Hf  Hf12  1  0.39681161  0.00555945  -0.00081975  1
  Hf  Hf13  1  0.09959574  0.27897725  0.70917706  1
  Hf  Hf14  1  0.50588821  0.10133640  0.49728574  1
  Hf  Hf15  1  0.91137205  0.09777890  0.69567201  1
  Hf  Hf16  1  0.89804960  0.50008651  0.69953258  1
  Hf  Hf17  1  0.89718871  0.30320163  0.48554475  1
  Hf  Hf18  1  0.10337893  0.90305639  0.90052559  1
  Hf  Hf19  1  0.49004423  0.10815066  0.10802207  1
  Hf  Hf20  1  0.28610279  0.49770792  0.29977779  1
  Hf  Hf21  1  0.89888904  0.91354451  0.50262763  1
  Hf  Hf22  1  0.59991328  0.20333605  0.00678302  1
  Hf  Hf23  1  0.80169220  0.79482454  0.79247903  1
  Hf  Hf24  1  0.69920421  0.10136045  0.89533526  1
  Hf  Hf25  1  0.79267342  0.60152522  0.40545463  1
  Hf  Hf26  1  0.10291757  0.90352935  0.10431961  1
  Hf  Hf27  1  0.59638232  0.60350238  0.00224859  1
  Hf  Hf28  1  0.19769148  0.00722621  0.39878191  1
  Hf  Hf29  1  0.19138504  0.39474438  0.59334716  1
  Hf  Hf30  1  0.10414479  0.30630643  0.30276290  1
  Hf  Hf31  1  0.21386425  0.20436211  0.00326610  1
  Hf  Hf32  1  0.40785482  0.59602321  0.79760980  1
  Hf  Hf33  1  0.09997767  0.89831718  0.49864638  1
  Hf  Hf34  1  0.68698390  0.49179417  0.11031177  1
  Hf  Hf35  1  0.20794696  0.60271362  0.00578000  1
  Hf  Hf36  1  0.80015214  0.79558458  0.60375842  1
  Hf  Hf37  1  0.60069806  0.39899772  0.39781281  1
  Hf  Hf38  1  0.78908798  0.60757076  0.60101392  1
  Hf  Hf39  1  0.50265038  0.90494924  0.29389921  1
  Hf  Hf40  1  0.39206158  0.60773452  0.19514817  1
  Hf  Hf41  1  0.00129981  0.19469436  0.40032576  1
  Hf  Hf42  1  0.59941995  0.79402834  0.60013335  1
  Hf  Hf43  1  0.39776499  0.19778112  0.80039064  1
  Hf  Hf44  1  0.40651467  0.39246395  0.59973077  1
  Hf  Hf45  1  0.69711422  0.29167279  0.48796272  1
  Hf  Hf46  1  0.10096432  0.70101966  0.69977340  1
  Hf  Hf47  1  0.29951041  0.10089907  0.50826355  1
  Hf  Hf48  1  0.48686382  0.30066987  0.10912007  1
  Hf  Hf49  1  0.60101361  0.20197923  0.60182995  1
  Zr  Zr50  1  0.09889188  0.50256876  0.30147175  1
  Zr  Zr51  1  0.80612064  -0.00280241  0.79730764  1
  Zr  Zr52  1  0.88542030  0.48422640  0.09558695  1
  Zr  Zr53  1  0.89734405  0.11221662  0.89898615  1
  Zr  Zr54  1  0.20421971  0.39397815  0.81271948  1
  Zr  Zr55  1  -0.00436906  0.59359928  0.00052489  1
  Zr  Zr56  1  0.89982348  0.89634862  0.90319146  1
  Zr  Zr57  1  0.50272279  0.49999415  0.50871050  1
  Zr  Zr58  1  0.39930690  0.60183851  0.39003667  1
  Zr  Zr59  1  0.90934540  0.50489703  0.49397675  1
  Zr  Zr60  1  0.51034743  0.49160366  0.27294251  1
  Zr  Zr61  1  0.79621098  0.60821437  0.00068822  1
  Zr  Zr62  1  0.49910147  0.70786928  0.89544162  1
  Zr  Zr63  1  0.69228829  0.49305405  0.89698768  1
  Zr  Zr64  1  0.28938123  0.70489283  0.49175934  1
  Zr  Zr65  1  0.10357375  0.69556657  0.10457653  1
  Zr  Zr66  1  0.49976539  0.29114862  0.29721492  1
  Zr  Zr67  1  0.80216172  0.80406661  0.18961881  1
  Zr  Zr68  1  0.79553902  0.60063928  0.79891077  1
  Zr  Zr69  1  0.29353390  0.28927835  0.69985140  1
  Zr  Zr70  1  0.78958696  0.40012662  0.60159842  1
  Zr  Zr71  1  -0.00591200  0.80143385  0.19620611  1
  Zr  Zr72  1  0.20228378  0.00847038  0.20164716  1
  Zr  Zr73  1  0.70669824  0.90601338  0.50014179  1
  Zr  Zr74  1  0.29598566  0.89757272  0.30896345  1
  Zr  Zr75  1  0.68894271  0.91437963  0.69660854  1
  Zr  Zr76  1  0.30423963  0.89680322  0.89450987  1
  Zr  Zr77  1  0.10459044  0.69912292  0.31072308  1
  Zr  Zr78  1  0.30146790  0.70428151  0.70233015  1
  Zr  Zr79  1  0.89027601  0.29286490  0.09485714  1
  Zr  Zr80  1  0.49683852  0.10301758  0.29699636  1
  Zr  Zr81  1  0.00044191  0.00467868  0.00561952  1
  Zr  Zr82  1  0.39996949  -0.00014159  0.79792508  1
  Zr  Zr83  1  -0.00216591  0.60036351  0.81237612  1
  Zr  Zr84  1  0.59442284  -0.00547545  0.00410592  1
  Zr  Zr85  1  0.00392001  0.39019235  0.59413360  1
  Zr  Zr86  1  0.50253453  0.91094191  0.50397936  1
  Zr  Zr87  1  0.60588024  0.59755882  0.39435766  1
  Zr  Zr88  1  0.61407360  0.00683751  0.38367316  1
  Zr  Zr89  1  0.90801035  0.70057864  0.31131725  1
  Zr  Zr90  1  0.00179710  0.40165361  0.81038027  1
  Zr  Zr91  1  0.71235251  0.08774938  0.50435082  1
  Zr  Zr92  1  0.30425622  0.48869799  0.09995066  1
  Zr  Zr93  1  0.40071028  0.39681389  0.39905943  1
  Zr  Zr94  1  0.89470196  0.30320094  0.29684883  1
  Zr  Zr95  1  0.50431059  0.69682124  0.50220067  1
  Zr  Zr96  1  0.40428638  0.79806673  0.39668221  1
  Zr  Zr97  1  0.70142850  0.29307105  0.89038073  1
  Zr  Zr98  1  0.09941471  0.50310426  0.70035970  1
  Zr  Zr99  1  0.30527260  0.70269594  0.90010820  1
  Ta  Ta100  1  0.10481054  0.29862613  0.09806967  1
  Ta  Ta101  1  0.59936725  0.80469714  0.00807234  1
  Ta  Ta102  1  0.20407496  0.80268439  0.00487523  1
  Ta  Ta103  1  0.60621997  0.80816975  0.18963994  1
  Ta  Ta104  1  0.69227392  0.70873353  0.89808528  1
  Ta  Ta105  1  0.28843139  0.09918892  0.69382494  1
  Ta  Ta106  1  0.51067175  0.29800154  0.70951084  1
  Ta  Ta107  1  0.00662181  0.39427774  -0.00183552  1
  Ta  Ta108  1  0.09577618  0.70141110  0.49550020  1
  Ta  Ta109  1  0.69746071  0.10442799  0.70705553  1
  Ta  Ta110  1  0.20523001  0.00812592  0.00254351  1
  Ta  Ta111  1  0.61359070  0.19680713  0.20210680  1
  Ta  Ta112  1  0.70225016  0.29921722  0.29753781  1
  Ta  Ta113  1  0.00136911  0.80171285  0.79849146  1
  Ta  Ta114  1  0.49831328  0.90126939  0.70438234  1
  Ta  Ta115  1  0.10138135  0.10768207  0.10064355  1
  Ta  Ta116  1  0.19755233  0.60032296  0.59501902  1
  Ta  Ta117  1  0.29999269  0.90223661  0.09991352  1
  Ta  Ta118  1  0.78752769  0.41518605  0.39490421  1
  Ta  Ta119  1  0.10393926  0.50136372  0.48546220  1
  Ta  Ta120  1  0.39997785  0.80343958  0.60844865  1
  Ta  Ta121  1  0.59394603  0.39258572  0.00095998  1
  Ta  Ta122  1  0.20847814  0.79453388  0.20189554  1
  Ta  Ta123  1  -0.00039104  0.80118116  0.60211234  1
  Ta  Ta124  1  0.49995039  0.29491410  0.90076541  1
  Ta  Ta125  1  -0.00168406  0.79459842  0.00157856  1
  Ta  Ta126  1  0.00356183  0.20182256  0.00158702  1
  Ta  Ta127  1  0.10260315  0.29008729  0.90335740  1
  Ta  Ta128  1  0.09493308  0.89610427  0.30570113  1
  Ta  Ta129  1  0.90821001  0.70616750  0.49862536  1
  Ta  Ta130  1  0.20044142  0.59962833  0.80797430  1
  Ta  Ta131  1  0.19565510  0.19944584  0.40049568  1
  Ta  Ta132  1  0.49632412  0.49080652  0.09697235  1
  Ta  Ta133  1  0.19983501  0.80395733  0.79736961  1
  Ta  Ta134  1  0.40184561  0.60375896  0.60364594  1
  Ta  Ta135  1  -0.00083139  0.00763175  0.39870105  1
  Ta  Ta136  1  0.40760437  0.80697877  0.00615431  1
  Ta  Ta137  1  0.10119081  0.09651383  0.50888450  1
  Ta  Ta138  1  0.10463262  0.10529911  0.89607692  1
  Ta  Ta139  1  0.60828895  0.80137120  0.39638669  1
  Ta  Ta140  1  0.30346766  0.49630154  0.90820370  1
  Ta  Ta141  1  -0.00666987  0.59776161  0.19446572  1
  Ta  Ta142  1  0.90162682  0.49943804  0.30196290  1
  Ta  Ta143  1  0.10382599  0.70723513  0.90065935  1
  Ta  Ta144  1  0.29330195  0.50181149  0.49712738  1
  Ta  Ta145  1  0.50436559  0.10492460  0.89685440  1
  Ta  Ta146  1  0.89321482  0.29826589  0.90294233  1
  Ta  Ta147  1  0.00187376  0.19825514  0.59000308  1
  Ta  Ta148  1  0.29649302  0.90268142  0.50839685  1
  Ta  Ta149  1  0.40969724  0.19951968  0.60414246  1
  Ti  Ti150  1  0.10358660  0.09955590  0.69816365  1
  Ti  Ti151  1  0.68221523  0.69398122  0.70661868  1
  Ti  Ti152  1  0.79922311  0.19670266  0.20378888  1
  Ti  Ti153  1  0.10836903  0.49724569  0.10237464  1
  Ti  Ti154  1  0.80361995  -0.00270640  0.20234927  1
  Ti  Ti155  1  0.90408991  0.90208168  0.31013640  1
  Ti  Ti156  1  0.00176565  0.19736804  0.19654424  1
  Ti  Ti157  1  0.20690095  0.19993640  0.19850236  1
  Ti  Ti158  1  0.80104902  -0.00545684  0.00313113  1
  Ti  Ti159  1  0.20459245  0.00241581  0.79810927  1
  Ti  Ti160  1  0.70913997  0.90149088  0.29684677  1
  Ti  Ti161  1  0.89948909  0.10226620  0.10098018  1
  Ti  Ti162  1  0.68731382  0.50458986  0.51335706  1
  Ti  Ti163  1  0.89813481  0.09520033  0.29616451  1
  Ti  Ti164  1  0.59429797  0.59492781  0.79724824  1
  Ti  Ti165  1  0.79881897  0.18336288  0.39248441  1
  Ti  Ti166  1  0.40272491  0.60404216  0.00413281  1
  Ti  Ti167  1  0.30563293  0.11235227  0.30272950  1
  Ti  Ti168  1  -0.00241569  0.00275675  0.20388938  1
  Ti  Ti169  1  0.78504414  0.39848008  0.78909480  1
  Ti  Ti170  1  0.50476487  0.70055187  0.10267988  1
  Ti  Ti171  1  0.58990236  0.80473092  0.80010064  1
  Ti  Ti172  1  0.39924491  -0.00063011  0.60845921  1
  Ti  Ti173  1  0.00531887  0.60346022  0.59373735  1
  Ti  Ti174  1  0.39613937  0.00278456  0.40072004  1
  Ti  Ti175  1  0.70751738  0.30515179  0.10192253  1
  Ti  Ti176  1  0.60491312  0.39225496  0.60912151  1
  Ti  Ti177  1  0.51152090  0.70261908  0.29016475  1
  Ti  Ti178  1  0.51139389  0.49835106  0.69708841  1
  Ti  Ti179  1  0.90958182  0.69712195  0.69747630  1
  Ti  Ti180  1  0.29921068  0.29957667  0.29805654  1
  Ti  Ti181  1  0.20397960  0.39030049  0.19178248  1
  Ti  Ti182  1  0.11134937  0.49649487  0.91224013  1
  Ti  Ti183  1  0.88482748  0.48199395  0.90463847  1
  Ti  Ti184  1  0.89959855  0.90334048  0.09656150  1
  Ti  Ti185  1  0.20195747  0.80356442  0.60260766  1
  Ti  Ti186  1  0.40320960  0.20517089  0.40726642  1
  Ti  Ti187  1  0.61371104  -0.00017190  0.19525174  1
  Ti  Ti188  1  0.90811131  0.90689530  0.69256186  1
  Ti  Ti189  1  0.39080082  0.38359235  -0.00370408  1
  Ti  Ti190  1  0.29831581  0.10531249  0.89736152  1
  Ti  Ti191  1  0.51046329  0.09484123  0.70478644  1
  Ti  Ti192  1  0.38722562  0.00534262  0.19933628  1
  Ti  Ti193  1  0.00451838  0.00163476  0.80182981  1
  Ti  Ti194  1  0.09828351  0.10246363  0.29502751  1
  Ti  Ti195  1  0.49771194  0.49130785  0.90886582  1
  Ti  Ti196  1  0.49636384  0.90628653  0.10730079  1
  Ti  Ti197  1  0.89921069  0.70662001  0.90298093  1
  Ti  Ti198  1  0.79485083  0.79601812  0.00821461  1
  Ti  Ti199  1  0.79745093  0.80023216  0.40378977  1
  Mo  Mo200  1  0.19617446  0.80407640  0.40140107  1
  Mo  Mo201  1  0.29867449  0.09938639  0.10236849  1
  Mo  Mo202  1  0.19818664  0.60051645  0.40430177  1
  Mo  Mo203  1  0.00442526  0.19490241  0.80720576  1
  Mo  Mo204  1  0.19910446  0.39419933  0.40121038  1
  Mo  Mo205  1  0.59666112  0.19786768  0.79868195  1
  Mo  Mo206  1  0.37905847  0.19956119  0.20056816  1
  Mo  Mo207  1  0.79475217  0.40031255  0.20937404  1
  Mo  Mo208  1  0.40404037  0.80458249  0.79373050  1
  Mo  Mo209  1  0.59360831  0.00653868  0.60966996  1
  Mo  Mo210  1  0.30490532  0.70802708  0.09645960  1
  Mo  Mo211  1  0.09904796  0.29580457  0.49200882  1
  Mo  Mo212  1  0.39893447  0.19995901  -0.00533261  1
  Mo  Mo213  1  -0.00112889  0.60111839  0.40185070  1
  Mo  Mo214  1  0.80726766  0.00451894  0.60972863  1
  Mo  Mo215  1  0.70219536  0.49638568  0.29081149  1
  Mo  Mo216  1  0.69667293  0.30014177  0.70292160  1
  Mo  Mo217  1  0.59562062  0.61329326  0.19040558  1
  Mo  Mo218  1  0.30439722  0.29807491  0.90568568  1
  Mo  Mo219  1  0.70527307  0.90509529  0.09997543  1
  Mo  Mo220  1  0.71079013  0.10381010  0.29032180  1
  Mo  Mo221  1  0.59215327  0.00214705  0.80343735  1
  Mo  Mo222  1  0.79817937  0.20014189  0.79523319  1
  Mo  Mo223  1  0.50313242  0.29274048  0.50652625  1
  Mo  Mo224  1  0.19286849  0.19420448  0.59636807  1
  Mo  Mo225  1  0.19573297  0.39697086  0.00178076  1
  Mo  Mo226  1  0.69478043  0.70628856  0.09472897  1
  Mo  Mo227  1  0.68610734  0.50037196  0.70020909  1
  Mo  Mo228  1  0.00357240  0.00404573  0.59803921  1
  Mo  Mo229  1  0.49992857  0.70269607  0.70173630  1
  Mo  Mo230  1  0.60604089  0.19987375  0.39580685  1
  Mo  Mo231  1  0.50248711  0.90014576  0.89956664  1
  Mo  Mo232  1  0.59079925  0.40074105  0.80149486  1
  Mo  Mo233  1  0.29904138  0.90299886  0.69476831  1
  Mo  Mo234  1  -0.00162236  0.80828310  0.40741165  1
  Mo  Mo235  1  0.90528251  0.09869257  0.49698089  1
  Mo  Mo236  1  0.59895894  0.60042160  0.61220108  1
  Mo  Mo237  1  0.60353138  0.38192411  0.19388992  1
  Mo  Mo238  1  0.28786074  0.69464039  0.29418420  1
  Mo  Mo239  1  0.80111887  0.20032538  0.00251467  1
  Mo  Mo240  1  0.29893135  0.29695684  0.10529939  1
  Mo  Mo241  1  0.81119929  0.00038927  0.37954760  1
  Mo  Mo242  1  0.90046773  0.70010717  0.09246909  1
  Mo  Mo243  1  0.39040430  0.39432225  0.19829059  1
  Mo  Mo244  1  0.20075868  0.60433008  0.19873341  1
  Mo  Mo245  1  0.79042380  0.39348298  -0.00659634  1
  Mo  Mo246  1  -0.00212439  0.40250901  0.39511230  1
  Mo  Mo247  1  0.20195612  -0.00063339  0.60181701  1
  Mo  Mo248  1  0.70353527  0.70444776  0.49597350  1
  Mo  Mo249  1  0.20161302  0.18840373  0.80643737  1
