# generated using pymatgen
data_HfZrTaTiMo
_symmetry_space_group_name_H-M   'P 1'
_cell_length_a   16.88281940
_cell_length_b   16.89255990
_cell_length_c   16.88759870
_cell_angle_alpha   89.96994444
_cell_angle_beta   90.04241287
_cell_angle_gamma   89.95671183
_symmetry_Int_Tables_number   1
_chemical_formula_structural   HfZrTaTiMo
_chemical_formula_sum   'Hf50 Zr50 Ta50 Ti50 Mo50'
_cell_volume   4816.23910581
_cell_formula_units_Z   50
loop_
 _symmetry_equiv_pos_site_id
 _symmetry_equiv_pos_as_xyz
  1  'x, y, z'
loop_
 _atom_site_type_symbol
 _atom_site_label
 _atom_site_symmetry_multiplicity
 _atom_site_fract_x
 _atom_site_fract_y
 _atom_site_fract_z
 _atom_site_occupancy
  Hf  Hf0  1  0.30762690  0.48077023  0.49716520  1
  Hf  Hf1  1  0.40575856  0.19874717  0.00370033  1
  Hf  Hf2  1  0.49680663  0.69930062  0.70311069  1
  Hf  Hf3  1  0.10650819  0.70334165  0.29292758  1
  Hf  Hf4  1  0.20585277  0.59151014  0.40219022  1
  Hf  Hf5  1  0.30068646  0.69534115  0.29564492  1
  Hf  Hf6  1  0.69358821  0.10700275  0.89586842  1
  Hf  Hf7  1  0.90094081  0.49202391  0.29859016  1
  Hf  Hf8  1  0.19849192  0.20191411  0.00161535  1
  Hf  Hf9  1  -0.00151683  0.21397250  0.79895445  1
  Hf  Hf10  1  0.11033404  0.70961137  0.51342472  1
  Hf  Hf11  1  0.29550764  0.49757680  0.90235499  1
  Hf  Hf12  1  0.60058378  0.80353017  0.60625613  1
  Hf  Hf13  1  0.10533943  0.10124146  0.69979173  1
  Hf  Hf14  1  -0.00064836  0.00096544  -0.01066928  1
  Hf  Hf15  1  0.19980989  -0.00065514  0.00290531  1
  Hf  Hf16  1  0.58666813  0.39016205  0.59524366  1
  Hf  Hf17  1  0.59084441  0.79323391  0.19288589  1
  Hf  Hf18  1  0.20293450  0.81090386  0.40205867  1
  Hf  Hf19  1  0.31335396  0.30455771  0.29084144  1
  Hf  Hf20  1  0.10007034  0.49557206  0.29867462  1
  Hf  Hf21  1  0.80006417  0.00949205  0.20620098  1
  Hf  Hf22  1  0.79983460  0.00481721  -0.00449311  1
  Hf  Hf23  1  0.69172139  0.90797835  0.89684274  1
  Hf  Hf24  1  0.59745993  0.79402645  0.39851831  1
  Hf  Hf25  1  0.40126231  0.79838228  0.19103779  1
  Hf  Hf26  1  0.70663592  0.70015723  0.50590267  1
  Hf  Hf27  1  0.30112817  0.10162426  0.70540179  1
  Hf  Hf28  1  0.20569517  0.19553795  0.19966291  1
  Hf  Hf29  1  0.59942875  0.19948397  0.60024100  1
  Hf  Hf30  1  0.60500923  0.39408051  0.80880803  1
  Hf  Hf31  1  0.60245999  0.80351776  0.79845337  1
  Hf  Hf32  1  0.69623986  0.49317228  0.09134749  1
  Hf  Hf33  1  0.69247825  0.90445027  0.09722598  1
  Hf  Hf34  1  0.70190779  0.90261619  0.50318144  1
  Hf  Hf35  1  0.49989313  0.50117003  0.71378254  1
  Hf  Hf36  1  0.49108157  0.91722280  0.09190660  1
  Hf  Hf37  1  0.29093900  0.09933887  0.51757811  1
  Hf  Hf38  1  0.80576120  0.00939707  0.40636922  1
  Hf  Hf39  1  0.31179240  0.90968098  0.90456523  1
  Hf  Hf40  1  0.10121990  0.69861512  0.70701737  1
  Hf  Hf41  1  0.09846628  0.89690972  0.89481248  1
  Hf  Hf42  1  -0.00456067  -0.00158588  0.59814058  1
  Hf  Hf43  1  0.69307089  0.90750866  0.30074295  1
  Hf  Hf44  1  0.21262806  0.80383391  0.80366042  1
  Hf  Hf45  1  0.89911346  0.30088104  0.29806538  1
  Hf  Hf46  1  0.80172516  0.60231702  0.39669399  1
  Hf  Hf47  1  0.79995074  0.79866530  -0.00374626  1
  Hf  Hf48  1  0.30653210  0.70750220  0.50820870  1
  Hf  Hf49  1  0.09530346  0.09417134  0.10352460  1
  Zr  Zr50  1  0.49174476  0.31106466  0.09902707  1
  Zr  Zr51  1  0.40080459  0.79391111  -0.00473447  1
  Zr  Zr52  1  0.59696011  0.40716758  0.40031825  1
  Zr  Zr53  1  -0.00040129  0.19967118  0.20276544  1
  Zr  Zr54  1  0.29525916  0.69662632  0.10040366  1
  Zr  Zr55  1  0.30079885  0.70777948  0.69670989  1
  Zr  Zr56  1  0.70157964  0.29822652  0.70212380  1
  Zr  Zr57  1  -0.00276823  0.60150498  0.60660173  1
  Zr  Zr58  1  0.90243457  0.29762071  0.48821157  1
  Zr  Zr59  1  0.41827116  0.20076815  0.60223247  1
  Zr  Zr60  1  0.71004248  0.50135516  0.70014120  1
  Zr  Zr61  1  0.10614852  0.49665949  0.08327810  1
  Zr  Zr62  1  0.59869380  0.59801882  0.59669963  1
  Zr  Zr63  1  0.80039193  0.79637645  0.20187909  1
  Zr  Zr64  1  0.90210720  0.90484556  0.10305499  1
  Zr  Zr65  1  0.40002938  0.79972352  0.39660091  1
  Zr  Zr66  1  0.81117555  0.38917979  0.60511376  1
  Zr  Zr67  1  0.60068400  0.20798818  0.41545196  1
  Zr  Zr68  1  0.59862211  0.19980572  0.19154390  1
  Zr  Zr69  1  -0.00329121  0.80128794  0.20353909  1
  Zr  Zr70  1  0.89691489  0.09986095  0.70073184  1
  Zr  Zr71  1  0.01227410  0.38925709  0.61252995  1
  Zr  Zr72  1  0.89382558  0.49354263  0.09712794  1
  Zr  Zr73  1  0.30702264  0.10226347  0.89493798  1
  Zr  Zr74  1  0.90164998  0.49852145  0.50125741  1
  Zr  Zr75  1  0.49514782  0.90310990  0.50580766  1
  Zr  Zr76  1  0.10335045  0.69408820  0.89617034  1
  Zr  Zr77  1  0.20266232  0.39815366  0.79255867  1
  Zr  Zr78  1  0.80058442  0.60331641  -0.00461804  1
  Zr  Zr79  1  0.50262040  0.91167253  0.29737931  1
  Zr  Zr80  1  -0.00151123  0.20333395  0.59740349  1
  Zr  Zr81  1  0.49551269  0.30123680  0.29330025  1
  Zr  Zr82  1  0.70370095  0.50226341  0.50106629  1
  Zr  Zr83  1  0.00343852  0.60355364  0.40649302  1
  Zr  Zr84  1  0.29849090  0.28654525  0.69982204  1
  Zr  Zr85  1  -0.00332084  0.80605371  0.40337627  1
  Zr  Zr86  1  0.30829945  0.48633504  0.09271478  1
  Zr  Zr87  1  -0.00190733  0.79984690  -0.00076543  1
  Zr  Zr88  1  0.20687360  0.58040349  0.60910377  1
  Zr  Zr89  1  0.20200068  0.39260747  0.19499884  1
  Zr  Zr90  1  -0.00139936  0.20312100  -0.00904153  1
  Zr  Zr91  1  0.60576022  0.01034509  0.61712295  1
  Zr  Zr92  1  0.39269750  0.19227214  0.40190149  1
  Zr  Zr93  1  0.89450837  0.10913487  0.09814547  1
  Zr  Zr94  1  0.59180310  0.79013508  -0.00158349  1
  Zr  Zr95  1  0.40396745  0.58948198  0.59787289  1
  Zr  Zr96  1  0.40498551  0.38878751  0.80486395  1
  Zr  Zr97  1  0.20098639  0.19687807  0.39816239  1
  Zr  Zr98  1  0.80763004  0.80045018  0.39114488  1
  Zr  Zr99  1  0.38199263  -0.00057819  0.39633502  1
  Ta  Ta100  1  0.69619881  0.69151822  0.10138612  1
  Ta  Ta101  1  0.59804575  0.59959499  -0.00601194  1
  Ta  Ta102  1  -0.00512438  0.80654111  0.60703302  1
  Ta  Ta103  1  0.71467656  0.70570262  0.69870071  1
  Ta  Ta104  1  0.59299659  0.19801599  0.79591935  1
  Ta  Ta105  1  0.20247100  0.38857961  0.40233011  1
  Ta  Ta106  1  0.30725652  0.09532148  0.09982435  1
  Ta  Ta107  1  0.10125683  0.89831032  0.70213794  1
  Ta  Ta108  1  0.79717570  0.00283372  0.60374839  1
  Ta  Ta109  1  0.29917148  0.89714266  0.52235301  1
  Ta  Ta110  1  0.50107933  0.68455938  0.29708972  1
  Ta  Ta111  1  0.79174303  0.20331000  0.20394381  1
  Ta  Ta112  1  0.90405527  0.50020865  0.89222168  1
  Ta  Ta113  1  0.20035781  0.59242653  0.19793494  1
  Ta  Ta114  1  0.40497890  0.59012350  0.39877740  1
  Ta  Ta115  1  0.39694249  0.39667583  0.61222895  1
  Ta  Ta116  1  0.69075923  0.68861119  0.29668904  1
  Ta  Ta117  1  0.09574186  0.29948029  0.30199526  1
  Ta  Ta118  1  0.79794950  0.59852727  0.20066459  1
  Ta  Ta119  1  -0.01025552  0.80209125  0.79127272  1
  Ta  Ta120  1  -0.00139475  0.59902347  -0.00353274  1
  Ta  Ta121  1  0.10132957  0.90702911  0.30057714  1
  Ta  Ta122  1  0.80454793  0.60353920  0.79747065  1
  Ta  Ta123  1  0.79957048  0.20567454  0.79992341  1
  Ta  Ta124  1  0.79340971  0.18981053  0.59168283  1
  Ta  Ta125  1  0.09959598  0.50113625  0.71484409  1
  Ta  Ta126  1  0.89759545  0.90209724  0.50551251  1
  Ta  Ta127  1  0.18987661  0.20087303  0.81136411  1
  Ta  Ta128  1  0.20266956  -0.00037834  0.20062049  1
  Ta  Ta129  1  0.09947192  0.31351327  0.90084135  1
  Ta  Ta130  1  0.79024751  -0.00113997  0.78896219  1
  Ta  Ta131  1  0.00111470  0.39572311  0.19197829  1
  Ta  Ta132  1  0.61033247  0.60152201  0.80567079  1
  Ta  Ta133  1  0.79472457  0.19559181  0.40203075  1
  Ta  Ta134  1  0.49953328  0.09835389  0.29825862  1
  Ta  Ta135  1  0.70573806  0.49679185  0.89848734  1
  Ta  Ta136  1  0.60273456  0.40414437  0.19930428  1
  Ta  Ta137  1  0.50245748  0.49678947  0.09454895  1
  Ta  Ta138  1  0.10013210  0.09281405  0.49813520  1
  Ta  Ta139  1  0.40644041  0.59962996  -0.00301576  1
  Ta  Ta140  1  0.40355627  0.80598199  0.80159499  1
  Ta  Ta141  1  0.10466643  0.69843650  0.10013259  1
  Ta  Ta142  1  0.88979547  0.30353168  0.09813363  1
  Ta  Ta143  1  0.69065039  0.10225824  0.30649468  1
  Ta  Ta144  1  0.69628531  0.30221687  0.08739349  1
  Ta  Ta145  1  0.00194706  0.59633921  0.19087017  1
  Ta  Ta146  1  0.49711912  0.69068068  0.89104708  1
  Ta  Ta147  1  -0.00706583  0.39857101  -0.00635638  1
  Ta  Ta148  1  0.90299329  0.69845719  0.89029015  1
  Ta  Ta149  1  0.89494603  0.10071323  0.89098369  1
  Ti  Ti150  1  0.18436794  0.22032917  0.59360640  1
  Ti  Ti151  1  0.09791411  0.50081069  0.89472986  1
  Ti  Ti152  1  0.20527897  0.60538643  -0.00687337  1
  Ti  Ti153  1  0.40069753  0.59153506  0.19849194  1
  Ti  Ti154  1  0.20703250  0.80294498  0.00331894  1
  Ti  Ti155  1  0.49829587  0.69452283  0.49685158  1
  Ti  Ti156  1  0.89159377  0.89872269  0.88594239  1
  Ti  Ti157  1  0.10690647  0.48762801  0.50623561  1
  Ti  Ti158  1  0.81276100  0.39080718  0.80488590  1
  Ti  Ti159  1  0.50400476  0.08597754  0.49240177  1
  Ti  Ti160  1  0.10682919  0.89337328  0.10983848  1
  Ti  Ti161  1  0.40316543  0.00027200  0.61174272  1
  Ti  Ti162  1  0.49711257  0.49863595  0.29753877  1
  Ti  Ti163  1  0.00293902  0.19064509  0.40392798  1
  Ti  Ti164  1  0.69746560  0.29851377  0.29957566  1
  Ti  Ti165  1  0.40930547  0.00309235  0.79623950  1
  Ti  Ti166  1  0.19853318  -0.00911547  0.60920777  1
  Ti  Ti167  1  0.78888021  0.39441728  0.39954565  1
  Ti  Ti168  1  0.59091052  0.02062847  0.00358341  1
  Ti  Ti169  1  -0.00392923  -0.00227089  0.79780159  1
  Ti  Ti170  1  0.69799394  0.11094947  0.09300818  1
  Ti  Ti171  1  0.09696224  0.30345718  0.09426830  1
  Ti  Ti172  1  0.20295865  -0.00196259  0.39882931  1
  Ti  Ti173  1  0.10071538  0.90587629  0.50208481  1
  Ti  Ti174  1  0.90431528  0.68953637  0.29234235  1
  Ti  Ti175  1  0.69611963  0.50476866  0.29779466  1
  Ti  Ti176  1  0.50090813  0.10168682  0.89724660  1
  Ti  Ti177  1  0.90138726  0.69490833  0.10001660  1
  Ti  Ti178  1  0.90533595  0.50407528  0.70921343  1
  Ti  Ti179  1  0.70418020  0.70047712  0.89361379  1
  Ti  Ti180  1  0.49786172  0.90389341  0.70562090  1
  Ti  Ti181  1  0.50936705  0.29587231  0.90916958  1
  Ti  Ti182  1  0.90286311  0.10341706  0.30621414  1
  Ti  Ti183  1  0.89053200  0.70630200  0.51873846  1
  Ti  Ti184  1  0.59656651  0.59529819  0.19422289  1
  Ti  Ti185  1  -0.00291475  -0.00203619  0.21120237  1
  Ti  Ti186  1  0.79924592  0.39160684  -0.01463562  1
  Ti  Ti187  1  0.46876577  0.32098590  0.48519161  1
  Ti  Ti188  1  0.09947514  0.09155829  0.30641607  1
  Ti  Ti189  1  0.59880439  0.01257531  0.19456005  1
  Ti  Ti190  1  0.30118732  0.30246472  0.91005585  1
  Ti  Ti191  1  0.38605371  0.60141060  0.80509997  1
  Ti  Ti192  1  0.01022131  0.39568726  0.40217853  1
  Ti  Ti193  1  0.19822051  0.00090392  0.80208257  1
  Ti  Ti194  1  0.50290784  0.91285756  0.89963126  1
  Ti  Ti195  1  0.29227897  0.89755010  0.28473105  1
  Ti  Ti196  1  0.50215122  0.49764807  0.90637164  1
  Ti  Ti197  1  0.79051820  0.39531553  0.20109924  1
  Ti  Ti198  1  0.79696500  0.20957081  -0.01017552  1
  Ti  Ti199  1  0.39264908  0.00524123  0.19909853  1
  Mo  Mo200  1  0.10093746  0.29783509  0.48855963  1
  Mo  Mo201  1  -0.00291421  0.60014134  0.80310301  1
  Mo  Mo202  1  0.59988993  0.20351734  -0.00441415  1
  Mo  Mo203  1  0.40929613  0.20028770  0.80836319  1
  Mo  Mo204  1  0.90931942  0.91575863  0.30846074  1
  Mo  Mo205  1  0.30162721  0.50016016  0.29789435  1
  Mo  Mo206  1  0.40339496  0.39834096  -0.00511542  1
  Mo  Mo207  1  0.40413028  0.00689650  -0.00218333  1
  Mo  Mo208  1  0.79991458  0.80276363  0.80000291  1
  Mo  Mo209  1  0.80838209  0.60680939  0.60931450  1
  Mo  Mo210  1  0.89815341  0.90051084  0.69936781  1
  Mo  Mo211  1  0.49749680  0.09993734  0.71392410  1
  Mo  Mo212  1  0.60348987  0.00854520  0.40151574  1
  Mo  Mo213  1  0.49736614  0.09925651  0.10341287  1
  Mo  Mo214  1  0.40502321  0.80920235  0.60957085  1
  Mo  Mo215  1  0.60126695  0.40324547  -0.00381103  1
  Mo  Mo216  1  0.39438012  0.40762564  0.38624125  1
  Mo  Mo217  1  0.40559195  0.41674934  0.19845602  1
  Mo  Mo218  1  0.49510707  0.49527132  0.49596428  1
  Mo  Mo219  1  0.20047039  0.39169385  0.59842849  1
  Mo  Mo220  1  0.19460421  0.81494147  0.60597955  1
  Mo  Mo221  1  0.29934481  0.09284260  0.29219590  1
  Mo  Mo222  1  0.29638546  0.30222716  0.50403513  1
  Mo  Mo223  1  0.29810726  0.90486567  0.10114712  1
  Mo  Mo224  1  0.59468020  0.60004512  0.39361593  1
  Mo  Mo225  1  -0.00130471  0.40511906  0.80317452  1
  Mo  Mo226  1  0.30190170  0.49614427  0.70370238  1
  Mo  Mo227  1  0.80505529  0.80764329  0.60788872  1
  Mo  Mo228  1  0.50019098  0.29771371  0.70973530  1
  Mo  Mo229  1  0.70233975  0.30004194  0.90114416  1
  Mo  Mo230  1  0.70915856  0.29751380  0.49763368  1
  Mo  Mo231  1  0.30511604  0.90993636  0.70542614  1
  Mo  Mo232  1  0.59373145  0.00259735  0.80232861  1
  Mo  Mo233  1  0.70491403  0.89891258  0.70338921  1
  Mo  Mo234  1  0.10206163  0.30101957  0.70742196  1
  Mo  Mo235  1  0.19878466  0.39089804  -0.00604205  1
  Mo  Mo236  1  0.69902275  0.10305729  0.70470437  1
  Mo  Mo237  1  0.30383114  0.29479048  0.09531664  1
  Mo  Mo238  1  0.89650226  0.29813230  0.70567035  1
  Mo  Mo239  1  0.19922239  0.80622429  0.19717319  1
  Mo  Mo240  1  0.09533583  0.09602641  0.89207690  1
  Mo  Mo241  1  0.20278488  0.59614667  0.80358174  1
  Mo  Mo242  1  0.39955815  0.18278593  0.19686127  1
  Mo  Mo243  1  0.89800045  0.30390745  0.90125216  1
  Mo  Mo244  1  0.89681709  0.70385338  0.70263314  1
  Mo  Mo245  1  0.70063181  0.09954442  0.50035356  1
  Mo  Mo246  1  0.90066070  0.09964337  0.49812340  1
  Mo  Mo247  1  0.50141986  0.67968901  0.10141388  1
  Mo  Mo248  1  0.30585223  0.69716103  0.89994424  1
  Mo  Mo249  1  0.00217344  0.00281122  0.40222027  1
