# generated using pymatgen
data_HfZrTaTiMo
_symmetry_space_group_name_H-M   'P 1'
_cell_length_a   16.88273575
_cell_length_b   16.88637226
_cell_length_c   16.87676666
_cell_angle_alpha   90.01551328
_cell_angle_beta   89.97953726
_cell_angle_gamma   90.03111044
_symmetry_Int_Tables_number   1
_chemical_formula_structural   HfZrTaTiMo
_chemical_formula_sum   'Hf50 Zr50 Ta50 Ti50 Mo50'
_cell_volume   4811.36517237
_cell_formula_units_Z   50
loop_
 _symmetry_equiv_pos_site_id
 _symmetry_equiv_pos_as_xyz
  1  'x, y, z'
loop_
 _atom_site_type_symbol
 _atom_site_label
 _atom_site_symmetry_multiplicity
 _atom_site_fract_x
 _atom_site_fract_y
 _atom_site_fract_z
 _atom_site_occupancy
  Hf  Hf0  1  0.90245080  0.09220705  0.29685630  1
  Hf  Hf1  1  0.79479830  0.20446690  0.20342794  1
  Hf  Hf2  1  0.59847757  -0.00404573  0.19991925  1
  Hf  Hf3  1  0.00507750  0.41200927  0.20366903  1
  Hf  Hf4  1  0.69576175  0.89355507  0.29923484  1
  Hf  Hf5  1  0.70154878  0.09474878  0.49834195  1
  Hf  Hf6  1  -0.01372774  0.79598892  0.60778236  1
  Hf  Hf7  1  0.59718375  0.19176591  0.60546460  1
  Hf  Hf8  1  0.40068276  0.19121199  0.40066566  1
  Hf  Hf9  1  0.90945200  0.89244535  0.29598515  1
  Hf  Hf10  1  0.89942623  0.89269545  0.90658818  1
  Hf  Hf11  1  0.10026334  0.88788897  0.71128079  1
  Hf  Hf12  1  0.09952742  0.69952335  0.69934274  1
  Hf  Hf13  1  0.19268466  0.79951699  0.00436747  1
  Hf  Hf14  1  0.01199282  0.20039221  0.19888189  1
  Hf  Hf15  1  0.40419193  0.19163719  0.59715699  1
  Hf  Hf16  1  0.49931920  0.09626226  0.89598279  1
  Hf  Hf17  1  0.10444771  0.31121512  0.32117752  1
  Hf  Hf18  1  0.30914790  0.50655597  0.70396708  1
  Hf  Hf19  1  0.38862241  0.00141289  0.40606184  1
  Hf  Hf20  1  0.20051749  0.59672954  0.79959448  1
  Hf  Hf21  1  0.60293918  0.40750694  0.59965813  1
  Hf  Hf22  1  0.39396307  0.00257669  0.78914374  1
  Hf  Hf23  1  0.90335686  0.30425683  0.09857505  1
  Hf  Hf24  1  0.21090517  0.80072032  0.40730736  1
  Hf  Hf25  1  0.89979079  0.69953760  0.10429911  1
  Hf  Hf26  1  0.60057901  0.59459518  0.00101530  1
  Hf  Hf27  1  0.09745496  0.11036584  0.69702064  1
  Hf  Hf28  1  0.50457521  0.30321356  0.89323922  1
  Hf  Hf29  1  0.49660107  0.69893646  0.89543070  1
  Hf  Hf30  1  0.79352733  0.39885091  0.20243378  1
  Hf  Hf31  1  0.80854575  0.79232546  0.79113870  1
  Hf  Hf32  1  0.48492981  0.08918079  0.09404742  1
  Hf  Hf33  1  0.38796217  0.80183012  0.78863227  1
  Hf  Hf34  1  0.40844999  0.40017377  0.60417332  1
  Hf  Hf35  1  0.69323268  0.89838311  0.50240193  1
  Hf  Hf36  1  0.49169249  0.50022437  0.89243424  1
  Hf  Hf37  1  0.20816187  -0.00840214  0.59445936  1
  Hf  Hf38  1  -0.00284313  0.19508396  0.40790349  1
  Hf  Hf39  1  0.59783734  0.20090081  0.19976100  1
  Hf  Hf40  1  0.50081432  0.69821829  0.29980445  1
  Hf  Hf41  1  0.19982243  0.39712718  0.80998146  1
  Hf  Hf42  1  0.00344345  0.20212246  -0.00048305  1
  Hf  Hf43  1  0.60064993  0.20483744  0.00094707  1
  Hf  Hf44  1  0.30131517  0.50706367  0.49427630  1
  Hf  Hf45  1  0.79970736  0.39799526  -0.00507344  1
  Hf  Hf46  1  0.19425430  0.40661736  0.60452298  1
  Hf  Hf47  1  0.70384303  0.88340918  0.09173575  1
  Hf  Hf48  1  0.39776783  -0.00033599  0.59641652  1
  Hf  Hf49  1  0.10004381  0.10047860  0.50778264  1
  Zr  Zr50  1  0.09305460  0.89419120  0.49792429  1
  Zr  Zr51  1  0.90424751  0.50102368  0.90218977  1
  Zr  Zr52  1  0.70434385  0.29824928  0.50026680  1
  Zr  Zr53  1  0.08572143  0.70779862  0.30452011  1
  Zr  Zr54  1  0.50599265  0.70543974  0.10276060  1
  Zr  Zr55  1  0.90033635  0.90060461  0.10431784  1
  Zr  Zr56  1  0.09473506  0.90306310  0.30306520  1
  Zr  Zr57  1  0.59381735  0.20069663  0.38810759  1
  Zr  Zr58  1  0.91292322  0.30105423  0.69863185  1
  Zr  Zr59  1  0.70229909  0.70776934  0.91174582  1
  Zr  Zr60  1  0.50074081  0.90015657  0.90049196  1
  Zr  Zr61  1  0.09835941  0.69484832  0.50274037  1
  Zr  Zr62  1  0.49715029  0.50880705  0.29283780  1
  Zr  Zr63  1  0.79940473  0.19926562  0.80083613  1
  Zr  Zr64  1  0.30073553  0.90879185  0.10332669  1
  Zr  Zr65  1  0.29045503  0.30085013  0.50187036  1
  Zr  Zr66  1  0.58586801  0.00419710  0.40329211  1
  Zr  Zr67  1  0.20078949  -0.00250717  0.80136006  1
  Zr  Zr68  1  0.59338611  0.38590070  0.20197022  1
  Zr  Zr69  1  0.09820940  0.10963179  0.89624176  1
  Zr  Zr70  1  0.30531910  0.51379465  0.29693282  1
  Zr  Zr71  1  0.29830933  0.69321245  0.90050756  1
  Zr  Zr72  1  0.90561283  0.09912902  0.70781797  1
  Zr  Zr73  1  0.60444335  0.79624410  0.79313009  1
  Zr  Zr74  1  0.70899264  0.09507161  0.09887611  1
  Zr  Zr75  1  0.30215777  0.32001138  0.09885027  1
  Zr  Zr76  1  0.79785123  0.79663343  0.59960531  1
  Zr  Zr77  1  0.20322474  0.19820044  0.20117208  1
  Zr  Zr78  1  -0.00092066  -0.00506031  0.81357738  1
  Zr  Zr79  1  0.09627309  0.70632705  0.89290110  1
  Zr  Zr80  1  0.59930029  0.59336633  0.78962355  1
  Zr  Zr81  1  0.39706871  0.80327084  0.00316147  1
  Zr  Zr82  1  0.80400723  0.19411608  0.59980184  1
  Zr  Zr83  1  0.90176521  0.30487927  0.30889511  1
  Zr  Zr84  1  0.39650276  0.20233140  0.79698481  1
  Zr  Zr85  1  0.89660516  0.51504874  0.29927485  1
  Zr  Zr86  1  0.41312760  0.39844530  0.39887701  1
  Zr  Zr87  1  0.29889357  0.31234702  0.30536474  1
  Zr  Zr88  1  0.40640381  0.21207081  0.20094490  1
  Zr  Zr89  1  0.79914184  0.41383066  0.41093009  1
  Zr  Zr90  1  0.90104100  0.69048743  0.48969828  1
  Zr  Zr91  1  0.70077107  0.51326203  0.29677347  1
  Zr  Zr92  1  0.19317025  0.41753120  0.20576658  1
  Zr  Zr93  1  0.09318973  0.90307858  0.11602358  1
  Zr  Zr94  1  0.80456878  0.59804726  0.79135945  1
  Zr  Zr95  1  0.70291232  0.08946133  0.88798524  1
  Zr  Zr96  1  0.20581059  0.20937163  -0.00363553  1
  Zr  Zr97  1  0.29221109  0.90760138  0.29609813  1
  Zr  Zr98  1  0.60081703  -0.00675194  -0.00001985  1
  Zr  Zr99  1  0.50358392  0.89628321  0.69348713  1
  Ta  Ta100  1  0.79736408  0.79789621  0.39777896  1
  Ta  Ta101  1  0.60275000  0.59910498  0.40887895  1
  Ta  Ta102  1  0.29654072  0.69276118  0.10682990  1
  Ta  Ta103  1  0.49120710  0.49747738  0.10130606  1
  Ta  Ta104  1  0.60152101  0.59719203  0.59715110  1
  Ta  Ta105  1  0.10387997  0.50933076  0.08997796  1
  Ta  Ta106  1  0.60362878  0.40065701  0.39858743  1
  Ta  Ta107  1  0.00470171  0.79854687  0.00367669  1
  Ta  Ta108  1  0.89488350  0.69813186  0.29851975  1
  Ta  Ta109  1  0.20574598  0.18558680  0.40243479  1
  Ta  Ta110  1  0.79996024  0.59896280  0.00341627  1
  Ta  Ta111  1  0.30040926  0.51003306  0.09558166  1
  Ta  Ta112  1  0.29354981  0.29796320  0.69830077  1
  Ta  Ta113  1  0.39770307  0.79842258  0.40143556  1
  Ta  Ta114  1  0.00609404  0.40254715  -0.00176092  1
  Ta  Ta115  1  0.09932843  0.29575005  0.69868541  1
  Ta  Ta116  1  0.59968657  0.78974794  0.59722205  1
  Ta  Ta117  1  0.59920070  0.40091911  0.00173260  1
  Ta  Ta118  1  0.10573449  0.31302209  0.09342164  1
  Ta  Ta119  1  0.80540859  -0.00204827  0.60000302  1
  Ta  Ta120  1  0.49541647  0.89197519  0.29691958  1
  Ta  Ta121  1  0.80042115  0.58924302  0.59511425  1
  Ta  Ta122  1  0.80476101  -0.00379382  0.40426874  1
  Ta  Ta123  1  0.49266365  0.69286786  0.69280813  1
  Ta  Ta124  1  0.69973730  0.49463545  0.89979259  1
  Ta  Ta125  1  0.90524413  0.09667904  0.10054267  1
  Ta  Ta126  1  0.70893204  0.89791437  0.89709428  1
  Ta  Ta127  1  0.90906157  0.30542199  0.50432877  1
  Ta  Ta128  1  0.89983777  0.50745213  0.10077781  1
  Ta  Ta129  1  0.21586979  0.79967651  0.60283231  1
  Ta  Ta130  1  0.80055451  0.40008617  0.79558722  1
  Ta  Ta131  1  0.90759021  0.29938041  0.89429667  1
  Ta  Ta132  1  0.70122495  0.50198459  0.09939281  1
  Ta  Ta133  1  0.19261429  0.00493606  0.00131924  1
  Ta  Ta134  1  0.29050613  0.90172714  0.90032499  1
  Ta  Ta135  1  0.39450436  0.79752781  0.20442092  1
  Ta  Ta136  1  0.80632819  0.40998561  0.60426991  1
  Ta  Ta137  1  0.28643257  0.11089604  0.69258336  1
  Ta  Ta138  1  0.49723076  0.88836109  0.50061198  1
  Ta  Ta139  1  0.80614389  0.19995583  -0.00589698  1
  Ta  Ta140  1  0.09667250  0.30135448  0.50533709  1
  Ta  Ta141  1  0.39776240  0.20699955  -0.00368082  1
  Ta  Ta142  1  0.10164118  0.50528860  0.90588002  1
  Ta  Ta143  1  0.49679403  0.69777759  0.50117509  1
  Ta  Ta144  1  0.30825015  0.69285781  0.50228323  1
  Ta  Ta145  1  0.50597956  0.29847082  0.50022524  1
  Ta  Ta146  1  0.70167767  0.90967847  0.70242062  1
  Ta  Ta147  1  0.70716806  0.09430751  0.30306593  1
  Ta  Ta148  1  0.10139329  0.09085134  0.30630108  1
  Ta  Ta149  1  -0.00457434  0.59925187  0.79450921  1
  Ti  Ti150  1  0.59395665  0.00615929  0.60412053  1
  Ti  Ti151  1  0.90368227  0.70133229  0.90324538  1
  Ti  Ti152  1  0.50262835  0.50497665  0.49751839  1
  Ti  Ti153  1  0.39573375  0.39698301  0.79800685  1
  Ti  Ti154  1  0.80932320  0.00627045  -0.00666436  1
  Ti  Ti155  1  -0.00690845  0.00184019  0.40949037  1
  Ti  Ti156  1  0.89845549  0.89656272  0.49587896  1
  Ti  Ti157  1  0.70359629  0.49753852  0.69939814  1
  Ti  Ti158  1  0.00634652  0.00372745  0.00308548  1
  Ti  Ti159  1  0.00646838  0.40146727  0.80358468  1
  Ti  Ti160  1  0.48605160  0.08781441  0.28867195  1
  Ti  Ti161  1  0.19771347  0.59801143  0.59910992  1
  Ti  Ti162  1  0.70155951  0.69437346  0.49628836  1
  Ti  Ti163  1  0.69959468  0.69469642  0.69046194  1
  Ti  Ti164  1  0.30300417  0.69483586  0.69336628  1
  Ti  Ti165  1  -0.01077736  0.58817924  0.60521435  1
  Ti  Ti166  1  0.20265451  0.21099470  0.80699302  1
  Ti  Ti167  1  0.30578879  0.69323730  0.30053952  1
  Ti  Ti168  1  0.39931771  0.59985203  0.00279847  1
  Ti  Ti169  1  0.89923908  0.90324541  0.70786550  1
  Ti  Ti170  1  0.70076623  0.30207620  0.09382127  1
  Ti  Ti171  1  0.79741727  0.79271698  0.20398129  1
  Ti  Ti172  1  -0.00092619  0.40930050  0.59834014  1
  Ti  Ti173  1  0.19143009  0.60620263  0.19990071  1
  Ti  Ti174  1  0.80509119  0.19595281  0.40135375  1
  Ti  Ti175  1  0.40911271  0.59493730  0.60006159  1
  Ti  Ti176  1  0.60333955  0.40374076  0.79438085  1
  Ti  Ti177  1  -0.00856319  -0.00192403  0.59825864  1
  Ti  Ti178  1  0.19369247  0.59963510  0.39553549  1
  Ti  Ti179  1  0.50385262  0.30154560  0.70224332  1
  Ti  Ti180  1  0.30588902  0.09565548  0.09901582  1
  Ti  Ti181  1  0.09691569  0.49528711  0.49196818  1
  Ti  Ti182  1  0.69917507  0.69847310  0.29727776  1
  Ti  Ti183  1  0.70182043  0.30371502  0.70125780  1
  Ti  Ti184  1  0.00054148  0.58814797  0.40073115  1
  Ti  Ti185  1  0.60291919  0.60153267  0.19313336  1
  Ti  Ti186  1  0.70091800  0.70242727  0.10170097  1
  Ti  Ti187  1  0.69834509  0.30255951  0.89286711  1
  Ti  Ti188  1  0.30022026  0.50034631  0.90846209  1
  Ti  Ti189  1  0.00880486  0.60172106  0.19747215  1
  Ti  Ti190  1  0.60229265  0.18849917  0.78587402  1
  Ti  Ti191  1  0.30207913  0.09765627  0.90435122  1
  Ti  Ti192  1  0.40216763  0.39818722  -0.00346752  1
  Ti  Ti193  1  0.19771829  0.78883557  0.20036714  1
  Ti  Ti194  1  0.59924761  0.79286364  0.40187802  1
  Ti  Ti195  1  0.79924190  -0.00286530  0.20242105  1
  Ti  Ti196  1  0.49755982  0.89594362  0.10522551  1
  Ti  Ti197  1  0.09478236  0.50077223  0.70346852  1
  Ti  Ti198  1  0.00461967  0.60526051  0.00201722  1
  Ti  Ti199  1  0.19812791  0.01608609  0.19900138  1
  Mo  Mo200  1  0.80308928  -0.00919460  0.79916055  1
  Mo  Mo201  1  0.00416792  0.21051659  0.80455663  1
  Mo  Mo202  1  0.30543463  0.89038199  0.50035583  1
  Mo  Mo203  1  0.79204470  0.61028125  0.40081184  1
  Mo  Mo204  1  0.50114408  0.30370379  0.30433901  1
  Mo  Mo205  1  0.70024568  0.29193183  0.30661022  1
  Mo  Mo206  1  0.10198523  0.10067190  0.09992732  1
  Mo  Mo207  1  0.30655634  0.30675304  0.89797721  1
  Mo  Mo208  1  0.09731183  0.30956868  0.89813957  1
  Mo  Mo209  1  0.79166131  0.60589172  0.19311947  1
  Mo  Mo210  1  0.69925266  0.08455926  0.69707784  1
  Mo  Mo211  1  0.80523596  0.79217932  -0.00055177  1
  Mo  Mo212  1  -0.01328599  0.80184624  0.40237002  1
  Mo  Mo213  1  0.39554538  0.60626834  0.19344293  1
  Mo  Mo214  1  0.19891720  0.20615598  0.59904560  1
  Mo  Mo215  1  -0.00695877  0.79256445  0.80362434  1
  Mo  Mo216  1  0.59779792  0.79804969  0.20214906  1
  Mo  Mo217  1  0.20064571  0.60062892  0.00072265  1
  Mo  Mo218  1  0.00196561  0.20626719  0.59787462  1
  Mo  Mo219  1  0.90181945  0.68920726  0.69525835  1
  Mo  Mo220  1  0.38705334  0.00469195  -0.00496593  1
  Mo  Mo221  1  0.50127169  0.50030942  0.70066664  1
  Mo  Mo222  1  0.09894862  0.89708643  0.90923179  1
  Mo  Mo223  1  0.29393816  0.09793367  0.50041970  1
  Mo  Mo224  1  0.20572792  0.79882019  0.79556237  1
  Mo  Mo225  1  0.60412483  0.80088070  0.00144684  1
  Mo  Mo226  1  0.09905979  0.69620926  0.10373844  1
  Mo  Mo227  1  0.40020794  0.79259360  0.59508571  1
  Mo  Mo228  1  0.40655905  0.60702887  0.40501979  1
  Mo  Mo229  1  0.39688751  0.59958050  0.79584741  1
  Mo  Mo230  1  0.29428337  0.09672777  0.29747129  1
  Mo  Mo231  1  0.09924149  0.51184750  0.30540921  1
  Mo  Mo232  1  0.19220273  0.41218981  0.40803512  1
  Mo  Mo233  1  0.20051372  0.00503341  0.40336622  1
  Mo  Mo234  1  0.20060253  0.41094751  -0.00387640  1
  Mo  Mo235  1  0.90597410  0.49492124  0.69882793  1
  Mo  Mo236  1  -0.00275351  0.78748501  0.19898300  1
  Mo  Mo237  1  0.29627234  0.89449049  0.70024435  1
  Mo  Mo238  1  0.49682535  0.30650501  0.08777407  1
  Mo  Mo239  1  0.39897039  -0.00560583  0.20052101  1
  Mo  Mo240  1  0.60440695  -0.00000800  0.79180268  1
  Mo  Mo241  1  0.69888278  0.50560050  0.50286464  1
  Mo  Mo242  1  0.90400740  0.50047802  0.50277113  1
  Mo  Mo243  1  0.00025775  0.40664948  0.41103948  1
  Mo  Mo244  1  0.50470847  0.09746995  0.70210503  1
  Mo  Mo245  1  0.00272870  0.01294638  0.19774208  1
  Mo  Mo246  1  0.40081511  0.40830272  0.19053463  1
  Mo  Mo247  1  0.49994753  0.09703454  0.50329472  1
  Mo  Mo248  1  0.90028096  0.09210244  0.50134022  1
  Mo  Mo249  1  0.90041706  0.10092046  0.90972909  1
