# generated using pymatgen
data_HfZrTaTiMo
_symmetry_space_group_name_H-M   'P 1'
_cell_length_a   16.89618020
_cell_length_b   16.89688654
_cell_length_c   16.89208852
_cell_angle_alpha   89.99769914
_cell_angle_beta   89.96558156
_cell_angle_gamma   89.97230973
_symmetry_Int_Tables_number   1
_chemical_formula_structural   HfZrTaTiMo
_chemical_formula_sum   'Hf50 Zr50 Ta50 Ti50 Mo50'
_cell_volume   4822.56888272
_cell_formula_units_Z   50
loop_
 _symmetry_equiv_pos_site_id
 _symmetry_equiv_pos_as_xyz
  1  'x, y, z'
loop_
 _atom_site_type_symbol
 _atom_site_label
 _atom_site_symmetry_multiplicity
 _atom_site_fract_x
 _atom_site_fract_y
 _atom_site_fract_z
 _atom_site_occupancy
  Hf  Hf0  1  0.01168657  0.80462673  0.00345909  1
  Hf  Hf1  1  0.59971432  -0.00194494  0.19920200  1
  Hf  Hf2  1  0.19586922  0.19939375  0.18831458  1
  Hf  Hf3  1  0.79909107  0.39423216  0.79092545  1
  Hf  Hf4  1  0.30253441  0.50239213  0.89812234  1
  Hf  Hf5  1  0.58942139  0.59985580  0.80295146  1
  Hf  Hf6  1  0.80303339  0.78885033  0.00720082  1
  Hf  Hf7  1  0.60148633  0.39408046  0.79362133  1
  Hf  Hf8  1  0.60285614  0.19885690  0.79509802  1
  Hf  Hf9  1  0.89693354  0.10160617  0.49964748  1
  Hf  Hf10  1  0.29738420  0.09262680  0.90274674  1
  Hf  Hf11  1  0.09696398  0.29693995  0.50362688  1
  Hf  Hf12  1  0.10220580  0.89760641  0.29569041  1
  Hf  Hf13  1  0.47073366  0.31246020  0.10690055  1
  Hf  Hf14  1  0.69965631  0.29771427  0.30447217  1
  Hf  Hf15  1  0.80271460  0.80654580  0.60391572  1
  Hf  Hf16  1  -0.00327575  0.39931876  0.59763277  1
  Hf  Hf17  1  0.60351853  -0.00171374  0.40526867  1
  Hf  Hf18  1  0.80279970  0.60262462  0.80156079  1
  Hf  Hf19  1  0.29330914  0.30203367  0.70314072  1
  Hf  Hf20  1  0.78460074  0.39735207  0.18327682  1
  Hf  Hf21  1  0.19258134  0.00664545  0.18713125  1
  Hf  Hf22  1  0.31297789  0.29971967  0.28802170  1
  Hf  Hf23  1  0.69386675  0.70544725  0.69862874  1
  Hf  Hf24  1  0.30165498  0.89594131  0.29552572  1
  Hf  Hf25  1  0.59006451  0.80884432  0.81040279  1
  Hf  Hf26  1  0.49737930  0.49556759  0.91351393  1
  Hf  Hf27  1  0.60754700  0.38885366  0.60374830  1
  Hf  Hf28  1  0.29634330  0.29885319  0.49810160  1
  Hf  Hf29  1  0.79775537  0.61439567  0.38630493  1
  Hf  Hf30  1  0.70507171  0.10201836  0.30915968  1
  Hf  Hf31  1  0.10885028  0.69867789  0.89887047  1
  Hf  Hf32  1  0.48922320  0.29691709  0.50424127  1
  Hf  Hf33  1  0.40100489  -0.00186249  0.41020093  1
  Hf  Hf34  1  0.80238757  0.19848663  0.19217957  1
  Hf  Hf35  1  0.91625347  0.30203259  0.88292925  1
  Hf  Hf36  1  0.19048922  0.40593105  0.39420416  1
  Hf  Hf37  1  0.18963318  0.18836161  0.61647904  1
  Hf  Hf38  1  0.90601589  0.90669305  0.90240306  1
  Hf  Hf39  1  0.89792834  0.09991688  0.30436930  1
  Hf  Hf40  1  0.49056740  0.50232055  0.50324774  1
  Hf  Hf41  1  0.07974487  0.29776747  0.71644260  1
  Hf  Hf42  1  0.48662550  0.90345773  0.70660458  1
  Hf  Hf43  1  0.59459720  0.19791333  -0.00360956  1
  Hf  Hf44  1  0.20775541  0.79225663  0.40085911  1
  Hf  Hf45  1  0.30536479  0.48924894  0.09901508  1
  Hf  Hf46  1  0.49516329  0.30393431  0.29952368  1
  Hf  Hf47  1  0.50226948  0.08971540  0.70629464  1
  Hf  Hf48  1  0.70156756  0.49857899  0.90897986  1
  Hf  Hf49  1  0.90906333  0.91019312  0.70804224  1
  Zr  Zr50  1  0.49704051  0.11640998  0.30378628  1
  Zr  Zr51  1  0.60406900  0.00492494  0.59590263  1
  Zr  Zr52  1  0.40436279  0.00042307  0.18967719  1
  Zr  Zr53  1  0.69963492  0.51543569  0.50645496  1
  Zr  Zr54  1  0.39410483  0.19156044  0.61037260  1
  Zr  Zr55  1  0.49941778  0.69727078  0.09049919  1
  Zr  Zr56  1  0.90563684  0.49816842  0.70646350  1
  Zr  Zr57  1  0.38762484  0.60675713  0.60930584  1
  Zr  Zr58  1  0.60226710  0.80105827  0.40054679  1
  Zr  Zr59  1  0.11568275  0.68308243  0.50298983  1
  Zr  Zr60  1  0.69153048  0.69443826  0.90983773  1
  Zr  Zr61  1  0.79792552  0.79479130  0.21036674  1
  Zr  Zr62  1  0.70008185  0.90233727  0.09594620  1
  Zr  Zr63  1  0.38687495  0.61142754  0.39464754  1
  Zr  Zr64  1  0.61111341  0.38906909  0.02329165  1
  Zr  Zr65  1  0.70232000  0.90761089  0.90207827  1
  Zr  Zr66  1  0.90485927  0.69756029  0.50073348  1
  Zr  Zr67  1  0.59201685  0.61004958  0.39768194  1
  Zr  Zr68  1  0.19805210  0.00254026  0.39976053  1
  Zr  Zr69  1  0.18653624  0.19787909  0.38863059  1
  Zr  Zr70  1  0.49555573  0.89318386  0.30170241  1
  Zr  Zr71  1  0.48528943  0.71164752  0.70381126  1
  Zr  Zr72  1  0.79720059  0.80392747  0.38932521  1
  Zr  Zr73  1  0.29918292  0.10367067  0.50039407  1
  Zr  Zr74  1  0.31024165  0.10932826  0.29524273  1
  Zr  Zr75  1  0.19566238  0.39671963  0.80570559  1
  Zr  Zr76  1  0.79405366  0.61007210  0.19627162  1
  Zr  Zr77  1  0.90018539  0.50437108  0.49800153  1
  Zr  Zr78  1  0.70783686  0.30018819  0.90130490  1
  Zr  Zr79  1  0.30372538  0.89816646  0.08945156  1
  Zr  Zr80  1  0.48925867  0.49813550  0.70486577  1
  Zr  Zr81  1  0.90459262  0.91184590  0.49832703  1
  Zr  Zr82  1  0.90208930  0.30333257  0.08747305  1
  Zr  Zr83  1  0.89974933  0.49500846  0.29026138  1
  Zr  Zr84  1  0.60312418  0.21121997  0.18554968  1
  Zr  Zr85  1  -0.00091096  0.79573655  0.20068679  1
  Zr  Zr86  1  0.79667690  0.38615914  0.60311810  1
  Zr  Zr87  1  0.90330559  0.09008302  0.09143840  1
  Zr  Zr88  1  0.39831075  0.19722926  0.80736085  1
  Zr  Zr89  1  0.59989545  0.40034251  0.40843389  1
  Zr  Zr90  1  0.01294204  0.80216185  0.60510470  1
  Zr  Zr91  1  0.79793192  0.39741956  0.40409559  1
  Zr  Zr92  1  0.90187327  0.90875271  0.09864244  1
  Zr  Zr93  1  0.27828975  0.51053356  0.50387144  1
  Zr  Zr94  1  0.20307962  0.80382546  -0.00493416  1
  Zr  Zr95  1  0.01691031  0.19540442  -0.00880755  1
  Zr  Zr96  1  0.00181930  0.79408503  0.39472120  1
  Zr  Zr97  1  0.90789822  0.08857464  0.89222819  1
  Zr  Zr98  1  0.80416779  0.79961769  0.80081594  1
  Zr  Zr99  1  0.00854365  0.59919896  0.00695516  1
  Ta  Ta100  1  0.00400142  0.39823823  0.39518520  1
  Ta  Ta101  1  0.58907729  0.00217297  -0.00597446  1
  Ta  Ta102  1  0.59347518  0.80229641  0.00013000  1
  Ta  Ta103  1  0.03373410  -0.00647407  0.00067488  1
  Ta  Ta104  1  0.90234976  0.29919179  0.29781069  1
  Ta  Ta105  1  0.39536581  0.78845732  0.19241663  1
  Ta  Ta106  1  0.20834922  0.80663099  0.60759808  1
  Ta  Ta107  1  0.90660622  0.09771101  0.70041964  1
  Ta  Ta108  1  0.69839197  0.70524142  0.50793897  1
  Ta  Ta109  1  0.19620764  0.39221511  -0.00026340  1
  Ta  Ta110  1  0.00968010  0.00695369  0.39740677  1
  Ta  Ta111  1  0.60399977  0.79537189  0.19863438  1
  Ta  Ta112  1  0.79435608  -0.00361597  0.20667972  1
  Ta  Ta113  1  0.00854268  0.59614546  0.60409638  1
  Ta  Ta114  1  0.80430138  0.60000952  0.00407940  1
  Ta  Ta115  1  0.18854564  0.19208143  0.80894036  1
  Ta  Ta116  1  0.80235910  0.19616616  0.78833175  1
  Ta  Ta117  1  0.79666545  0.00592726  0.60705057  1
  Ta  Ta118  1  0.39443723  0.60434676  0.00158545  1
  Ta  Ta119  1  0.20068309  -0.00425625  0.60606127  1
  Ta  Ta120  1  0.01021435  0.40178968  -0.00371637  1
  Ta  Ta121  1  0.49688976  0.50004135  0.10386804  1
  Ta  Ta122  1  0.80472125  0.60979033  0.60748303  1
  Ta  Ta123  1  0.90415346  0.49851328  0.90343334  1
  Ta  Ta124  1  0.59602209  0.60395495  0.19836204  1
  Ta  Ta125  1  0.11018260  0.68962346  0.29407780  1
  Ta  Ta126  1  0.91322041  0.70093965  0.70448120  1
  Ta  Ta127  1  0.49301505  0.30435287  0.90572036  1
  Ta  Ta128  1  0.90065284  0.49582709  0.09365924  1
  Ta  Ta129  1  0.49505766  0.49724367  0.29120016  1
  Ta  Ta130  1  0.69252008  0.90850882  0.70412670  1
  Ta  Ta131  1  0.39584928  0.60335862  0.19816943  1
  Ta  Ta132  1  0.68768876  0.49926263  0.29208604  1
  Ta  Ta133  1  0.91008512  0.69657285  0.89965089  1
  Ta  Ta134  1  0.00628643  0.19825228  0.19806051  1
  Ta  Ta135  1  0.10322009  0.50144621  0.89965851  1
  Ta  Ta136  1  0.01250534  0.80189523  0.80336585  1
  Ta  Ta137  1  0.20509832  0.60562861  0.79680383  1
  Ta  Ta138  1  0.20707661  0.80497687  0.79554823  1
  Ta  Ta139  1  -0.00020762  0.20163393  0.39488794  1
  Ta  Ta140  1  0.00636111  0.39889889  0.19327325  1
  Ta  Ta141  1  0.40811728  -0.00031844  -0.00878450  1
  Ta  Ta142  1  0.70281074  0.09414869  0.08881702  1
  Ta  Ta143  1  0.48933769  0.89321354  0.51006480  1
  Ta  Ta144  1  0.01409468  0.58804768  0.39506662  1
  Ta  Ta145  1  0.10618924  0.90357446  0.50273096  1
  Ta  Ta146  1  0.00915061  0.60194525  0.80003288  1
  Ta  Ta147  1  0.69760654  0.09569956  0.89551858  1
  Ta  Ta148  1  0.60320288  0.20132809  0.41753715  1
  Ta  Ta149  1  0.80067275  0.19594378  -0.00984497  1
  Ti  Ti150  1  0.29672641  0.50127675  0.29406584  1
  Ti  Ti151  1  0.10614881  0.50131095  0.28780271  1
  Ti  Ti152  1  0.30866546  0.70293714  0.89459865  1
  Ti  Ti153  1  0.00292275  0.59639633  0.19908329  1
  Ti  Ti154  1  0.49465422  0.71059054  0.51044961  1
  Ti  Ti155  1  0.70743385  0.90449980  0.50059881  1
  Ti  Ti156  1  0.10697454  0.49886833  0.10136555  1
  Ti  Ti157  1  0.69312803  0.51446306  0.09601746  1
  Ti  Ti158  1  0.30103077  0.29884564  0.90889481  1
  Ti  Ti159  1  0.19062677  0.40595063  0.60383422  1
  Ti  Ti160  1  0.19946250  0.39286461  0.19467991  1
  Ti  Ti161  1  0.21210600  0.60494105  0.19608827  1
  Ti  Ti162  1  0.49680933  0.89323089  0.09305167  1
  Ti  Ti163  1  0.59412946  0.60666588  0.60246022  1
  Ti  Ti164  1  0.30118539  0.10122608  0.08869836  1
  Ti  Ti165  1  0.39871377  0.19891685  0.00009323  1
  Ti  Ti166  1  0.48679256  0.70344325  0.90252533  1
  Ti  Ti167  1  0.30832753  0.90377612  0.89020543  1
  Ti  Ti168  1  0.20762429  0.60170558  0.00402372  1
  Ti  Ti169  1  0.89986724  0.91503778  0.30359042  1
  Ti  Ti170  1  0.10688539  0.90894128  0.70797751  1
  Ti  Ti171  1  0.10960345  0.69779030  0.10554518  1
  Ti  Ti172  1  0.49562478  0.10449233  0.09723035  1
  Ti  Ti173  1  0.09338733  0.30167231  0.29269909  1
  Ti  Ti174  1  0.49610798  0.29596849  0.69689899  1
  Ti  Ti175  1  0.10700452  0.69977056  0.70105920  1
  Ti  Ti176  1  0.69795389  0.50897870  0.69707015  1
  Ti  Ti177  1  0.39156582  0.40765954  0.39956057  1
  Ti  Ti178  1  0.20569724  0.79320880  0.19320956  1
  Ti  Ti179  1  0.49851715  0.10468558  0.50784631  1
  Ti  Ti180  1  0.09552563  0.10004374  0.50289211  1
  Ti  Ti181  1  0.79166375  0.00686885  0.79273895  1
  Ti  Ti182  1  0.00849728  0.00580963  0.19744682  1
  Ti  Ti183  1  0.38943110  0.40271719  0.60428971  1
  Ti  Ti184  1  0.59926339  0.80823567  0.59885622  1
  Ti  Ti185  1  0.71230286  0.11043363  0.50394869  1
  Ti  Ti186  1  0.19659835  0.19954380  -0.00219165  1
  Ti  Ti187  1  0.29453533  0.70142179  0.51342461  1
  Ti  Ti188  1  0.90674850  0.69315482  0.10131814  1
  Ti  Ti189  1  0.01136290  0.00530085  0.60468860  1
  Ti  Ti190  1  0.10177386  0.50228441  0.70293604  1
  Ti  Ti191  1  0.29499143  0.08178742  0.71523815  1
  Ti  Ti192  1  0.29718681  0.50293143  0.70702133  1
  Ti  Ti193  1  0.49246177  0.70254886  0.29505059  1
  Ti  Ti194  1  0.39892436  0.39465358  0.80307157  1
  Ti  Ti195  1  0.10043210  0.30218767  0.09575473  1
  Ti  Ti196  1  0.38572365  -0.00830744  0.60056310  1
  Ti  Ti197  1  0.39255354  0.79570350  0.40561379  1
  Ti  Ti198  1  -0.00605601  0.19736863  0.60615790  1
  Ti  Ti199  1  0.89421085  0.28767754  0.49500292  1
  Mo  Mo200  1  0.40960050  0.20057014  0.41036398  1
  Mo  Mo201  1  0.39481252  0.19423313  0.18024024  1
  Mo  Mo202  1  0.19823491  0.59572082  0.37901714  1
  Mo  Mo203  1  0.39903265  -0.00346174  0.80530639  1
  Mo  Mo204  1  0.00183900  0.18314499  0.79649114  1
  Mo  Mo205  1  0.39259985  0.41215987  0.20590105  1
  Mo  Mo206  1  0.10624422  0.89937302  0.10587583  1
  Mo  Mo207  1  0.00215187  0.41376547  0.80461217  1
  Mo  Mo208  1  0.11020755  0.09186382  0.89625559  1
  Mo  Mo209  1  0.39261945  0.60458592  0.80945296  1
  Mo  Mo210  1  0.30008144  0.69447853  0.09426239  1
  Mo  Mo211  1  0.10350309  0.10131984  0.09565458  1
  Mo  Mo212  1  0.39001858  0.39945164  -0.00572932  1
  Mo  Mo213  1  0.29887736  0.89590184  0.50425066  1
  Mo  Mo214  1  0.70056806  0.28504552  0.69500844  1
  Mo  Mo215  1  0.01665273  -0.00407338  0.80185326  1
  Mo  Mo216  1  0.59356768  0.60024011  0.00359203  1
  Mo  Mo217  1  0.70207747  0.28237866  0.50431741  1
  Mo  Mo218  1  0.92437026  0.68491454  0.29634694  1
  Mo  Mo219  1  0.29980419  0.90286425  0.70249568  1
  Mo  Mo220  1  0.11074019  0.90014553  0.89155039  1
  Mo  Mo221  1  0.70463745  0.09737401  0.70149276  1
  Mo  Mo222  1  0.49943878  0.10067711  0.90173968  1
  Mo  Mo223  1  0.80907477  0.40612372  -0.00144294  1
  Mo  Mo224  1  0.29985208  0.70175270  0.28809994  1
  Mo  Mo225  1  0.49406591  0.90179033  0.90228858  1
  Mo  Mo226  1  0.39157884  0.80172522  0.80561457  1
  Mo  Mo227  1  0.10385274  0.29876736  0.90160137  1
  Mo  Mo228  1  0.80322684  0.20294518  0.40318019  1
  Mo  Mo229  1  0.79064839  0.00598720  -0.00444288  1
  Mo  Mo230  1  0.20186164  -0.00521410  0.79970751  1
  Mo  Mo231  1  0.80148241  0.19494111  0.60467806  1
  Mo  Mo232  1  0.68094017  0.69991504  0.29768061  1
  Mo  Mo233  1  0.40141838  0.80120430  -0.00759216  1
  Mo  Mo234  1  0.79908081  0.00083903  0.40494193  1
  Mo  Mo235  1  0.59734914  0.00264869  0.80430260  1
  Mo  Mo236  1  0.08918906  0.10136126  0.29240949  1
  Mo  Mo237  1  0.29164384  0.29792660  0.09193972  1
  Mo  Mo238  1  0.20665768  0.00011211  -0.00445196  1
  Mo  Mo239  1  0.70014617  0.90271181  0.29927085  1
  Mo  Mo240  1  0.09461571  0.09359276  0.70285936  1
  Mo  Mo241  1  0.19612252  0.60097915  0.62172030  1
  Mo  Mo242  1  0.38853331  0.80504947  0.59730340  1
  Mo  Mo243  1  0.69122236  0.69875050  0.09920093  1
  Mo  Mo244  1  0.29530364  0.70671034  0.70843040  1
  Mo  Mo245  1  0.71152076  0.28804978  0.09409001  1
  Mo  Mo246  1  0.90027065  0.28769129  0.69705262  1
  Mo  Mo247  1  0.60510797  0.19859845  0.60115480  1
  Mo  Mo248  1  0.59719325  0.40935144  0.19916897  1
  Mo  Mo249  1  0.09701004  0.49460771  0.50271210  1
