# generated using pymatgen
data_HfZrTaTiMo
_symmetry_space_group_name_H-M   'P 1'
_cell_length_a   16.88917464
_cell_length_b   16.89483848
_cell_length_c   16.88868486
_cell_angle_alpha   89.98652437
_cell_angle_beta   89.95759911
_cell_angle_gamma   89.98918797
_symmetry_Int_Tables_number   1
_chemical_formula_structural   HfZrTaTiMo
_chemical_formula_sum   'Hf50 Zr50 Ta50 Ti50 Mo50'
_cell_volume   4819.01373269
_cell_formula_units_Z   50
loop_
 _symmetry_equiv_pos_site_id
 _symmetry_equiv_pos_as_xyz
  1  'x, y, z'
loop_
 _atom_site_type_symbol
 _atom_site_label
 _atom_site_symmetry_multiplicity
 _atom_site_fract_x
 _atom_site_fract_y
 _atom_site_fract_z
 _atom_site_occupancy
  Hf  Hf0  1  0.80569783  0.40236826  -0.00757968  1
  Hf  Hf1  1  0.09137398  0.69746406  0.90019250  1
  Hf  Hf2  1  0.70106371  0.10064050  0.30505069  1
  Hf  Hf3  1  0.18603770  0.19758556  -0.00876500  1
  Hf  Hf4  1  0.50283006  0.88757347  0.29857030  1
  Hf  Hf5  1  0.79623529  0.21020755  0.20577305  1
  Hf  Hf6  1  0.31279902  0.89931159  0.09703596  1
  Hf  Hf7  1  0.11053470  0.90675343  0.50415814  1
  Hf  Hf8  1  0.50573583  0.10421457  0.69857522  1
  Hf  Hf9  1  0.01058105  0.80364549  0.39411684  1
  Hf  Hf10  1  0.19513334  0.00285446  -0.00175446  1
  Hf  Hf11  1  0.09698189  0.70349931  0.70784366  1
  Hf  Hf12  1  0.19924167  0.19511467  0.39961203  1
  Hf  Hf13  1  0.20219866  0.59628967  0.80976441  1
  Hf  Hf14  1  0.39089125  0.19206494  0.20767198  1
  Hf  Hf15  1  0.29936307  0.30425924  0.09786578  1
  Hf  Hf16  1  0.19740270  0.59338763  0.59954005  1
  Hf  Hf17  1  0.60640855  0.20364843  -0.00492854  1
  Hf  Hf18  1  0.78696779  0.59316629  0.39993773  1
  Hf  Hf19  1  0.29887274  0.70246430  0.28899863  1
  Hf  Hf20  1  0.00090367  -0.00010590  0.60482122  1
  Hf  Hf21  1  0.19388373  0.39380977  0.80475280  1
  Hf  Hf22  1  0.89259156  0.89256924  0.50049518  1
  Hf  Hf23  1  0.49279027  0.30025451  0.09725612  1
  Hf  Hf24  1  0.90106389  0.70197774  0.69481299  1
  Hf  Hf25  1  0.39943892  0.79550813  0.80671555  1
  Hf  Hf26  1  0.41054540  0.60308735  0.19646622  1
  Hf  Hf27  1  0.30032398  0.49390634  0.70487256  1
  Hf  Hf28  1  0.20540287  0.78725613  0.59408637  1
  Hf  Hf29  1  0.70402292  0.70335960  0.69323007  1
  Hf  Hf30  1  0.50444253  0.29700333  0.50439982  1
  Hf  Hf31  1  0.79642642  0.20780852  0.00011084  1
  Hf  Hf32  1  -0.00281499  0.41141231  0.20195663  1
  Hf  Hf33  1  0.00531425  0.59332523  0.59385149  1
  Hf  Hf34  1  0.39976038  0.00388557  0.79467121  1
  Hf  Hf35  1  0.89824015  0.10116045  0.30594335  1
  Hf  Hf36  1  0.60131683  0.61060196  -0.00036199  1
  Hf  Hf37  1  0.80188824  -0.00998627  0.79912934  1
  Hf  Hf38  1  0.40554733  0.60281034  0.80507615  1
  Hf  Hf39  1  0.89932566  0.09384275  0.09871544  1
  Hf  Hf40  1  0.89959260  0.30977953  0.10431551  1
  Hf  Hf41  1  0.29377403  0.49381581  0.29363047  1
  Hf  Hf42  1  0.19316345  0.59813466  0.18457378  1
  Hf  Hf43  1  0.69756244  0.10588081  0.50435239  1
  Hf  Hf44  1  0.69200537  0.90146453  0.09545739  1
  Hf  Hf45  1  0.19825098  0.79857787  0.00113175  1
  Hf  Hf46  1  0.40118218  0.60156644  0.59860325  1
  Hf  Hf47  1  -0.00520990  0.79905737  0.00127282  1
  Hf  Hf48  1  0.80031418  0.39850060  0.59491897  1
  Hf  Hf49  1  0.79402281  0.79474442  -0.00675494  1
  Zr  Zr50  1  0.79718388  0.80203500  0.80454756  1
  Zr  Zr51  1  0.49706989  0.09278332  0.08707452  1
  Zr  Zr52  1  0.69598196  0.09441097  0.89715094  1
  Zr  Zr53  1  0.79684012  -0.00481876  0.60628608  1
  Zr  Zr54  1  0.18936358  0.40238880  0.41260717  1
  Zr  Zr55  1  0.59653914  0.60731660  0.80368666  1
  Zr  Zr56  1  0.70004729  0.49350968  0.88855351  1
  Zr  Zr57  1  0.00809112  0.79720562  0.19566504  1
  Zr  Zr58  1  0.49982207  0.30234836  0.30441739  1
  Zr  Zr59  1  0.70060758  0.88849934  0.30487964  1
  Zr  Zr60  1  0.50491346  0.91080791  0.90609339  1
  Zr  Zr61  1  0.90572724  0.10771396  0.70677221  1
  Zr  Zr62  1  0.61515973  0.38304845  -0.00105776  1
  Zr  Zr63  1  0.59558148  -0.00209513  0.20108856  1
  Zr  Zr64  1  0.20430898  -0.00013425  0.20586137  1
  Zr  Zr65  1  0.60638662  0.20668936  0.19640016  1
  Zr  Zr66  1  0.00129841  0.20544562  -0.00283245  1
  Zr  Zr67  1  0.29545338  0.90381926  0.69574092  1
  Zr  Zr68  1  0.29824542  0.90672502  0.50462431  1
  Zr  Zr69  1  0.89828162  0.90647805  0.09860812  1
  Zr  Zr70  1  0.59584849  0.00119822  0.40925053  1
  Zr  Zr71  1  0.40237707  0.39961248  0.60469020  1
  Zr  Zr72  1  0.59956569  0.59542437  0.59470093  1
  Zr  Zr73  1  0.40634371  0.61058258  -0.00456692  1
  Zr  Zr74  1  0.20362688  0.60499483  0.40714948  1
  Zr  Zr75  1  0.88834474  0.89539798  0.30242090  1
  Zr  Zr76  1  0.20067428  0.60291525  0.00152136  1
  Zr  Zr77  1  0.70543192  0.50009362  0.11450494  1
  Zr  Zr78  1  0.10264058  0.30923093  0.29652600  1
  Zr  Zr79  1  0.40638175  0.59713451  0.39888020  1
  Zr  Zr80  1  0.00672612  0.00124311  0.39919969  1
  Zr  Zr81  1  0.50504488  0.49156988  0.09819590  1
  Zr  Zr82  1  0.10341850  0.10571482  0.70345023  1
  Zr  Zr83  1  0.89409885  0.70344428  0.49893144  1
  Zr  Zr84  1  0.39253706  0.79113933  0.40192284  1
  Zr  Zr85  1  0.19647532  0.00495181  0.80450272  1
  Zr  Zr86  1  0.30275732  0.29676418  0.50264933  1
  Zr  Zr87  1  0.39427475  0.00428778  0.39517200  1
  Zr  Zr88  1  0.80123039  0.20933028  0.59707500  1
  Zr  Zr89  1  0.19993764  0.18974900  0.19457859  1
  Zr  Zr90  1  0.89360581  0.69680956  0.29866976  1
  Zr  Zr91  1  0.79803511  0.60574810  -0.00464891  1
  Zr  Zr92  1  0.30493921  0.29932806  0.90203538  1
  Zr  Zr93  1  0.00021117  0.20119913  0.20515460  1
  Zr  Zr94  1  0.49904201  0.89665171  0.50470719  1
  Zr  Zr95  1  0.89985236  0.29950945  0.70930028  1
  Zr  Zr96  1  0.19200903  0.40957306  0.00156228  1
  Zr  Zr97  1  0.69727808  0.11242973  0.70765522  1
  Zr  Zr98  1  0.31020212  0.10776719  0.89989393  1
  Zr  Zr99  1  0.89960423  0.49635695  0.69957841  1
  Ta  Ta100  1  0.30529691  0.70879817  0.09983120  1
  Ta  Ta101  1  0.90054304  0.10639240  0.49699608  1
  Ta  Ta102  1  0.00164531  0.39922264  0.80910736  1
  Ta  Ta103  1  0.60035040  0.20079502  0.40361697  1
  Ta  Ta104  1  0.40560722  0.39263209  0.79685259  1
  Ta  Ta105  1  0.70391217  0.09356856  0.09498037  1
  Ta  Ta106  1  0.00840793  0.39472600  0.58826022  1
  Ta  Ta107  1  0.00564917  0.20799791  0.58845853  1
  Ta  Ta108  1  -0.00192236  0.21369574  0.40582603  1
  Ta  Ta109  1  0.50024986  0.48400796  0.90086679  1
  Ta  Ta110  1  0.09899804  0.70009216  0.49417470  1
  Ta  Ta111  1  0.08055526  0.50268409  0.91034001  1
  Ta  Ta112  1  0.80206747  0.21621599  0.40079236  1
  Ta  Ta113  1  0.60107868  -0.00240402  0.60335095  1
  Ta  Ta114  1  0.90377227  0.09561558  0.90185961  1
  Ta  Ta115  1  0.40148759  0.79098975  0.60343602  1
  Ta  Ta116  1  0.39662775  -0.00039472  0.20636544  1
  Ta  Ta117  1  -0.00132346  -0.00821568  0.80531086  1
  Ta  Ta118  1  0.30142541  0.49580254  0.50272771  1
  Ta  Ta119  1  0.70300571  0.88661143  0.50467422  1
  Ta  Ta120  1  0.90335084  0.49531322  0.49140271  1
  Ta  Ta121  1  0.70075950  0.49057800  0.69960849  1
  Ta  Ta122  1  0.69090570  0.30571516  0.49991974  1
  Ta  Ta123  1  0.80089187  0.39877536  0.39722686  1
  Ta  Ta124  1  0.60102907  0.60798763  0.20320582  1
  Ta  Ta125  1  0.20171677  0.20624721  0.60699045  1
  Ta  Ta126  1  0.51261548  0.49286768  0.29783074  1
  Ta  Ta127  1  0.09716201  0.50426223  0.29968531  1
  Ta  Ta128  1  0.39908966  0.40074294  0.20308986  1
  Ta  Ta129  1  0.00195414  0.60125117  0.19387748  1
  Ta  Ta130  1  0.60097921  0.59886106  0.39538601  1
  Ta  Ta131  1  0.79597577  0.00136301  0.20131045  1
  Ta  Ta132  1  0.09857551  0.31482569  0.09969387  1
  Ta  Ta133  1  0.69992221  0.69940457  0.29446860  1
  Ta  Ta134  1  0.49972400  0.10451137  0.30528631  1
  Ta  Ta135  1  0.20146939  0.80393184  0.39130000  1
  Ta  Ta136  1  0.29385467  0.09764040  0.50979048  1
  Ta  Ta137  1  0.60054421  0.79086436  -0.00140707  1
  Ta  Ta138  1  0.60017513  0.79894872  0.60124553  1
  Ta  Ta139  1  0.29870207  0.69781437  0.70442314  1
  Ta  Ta140  1  0.10311991  0.69607439  0.29772207  1
  Ta  Ta141  1  0.39990969  0.40248629  0.39813304  1
  Ta  Ta142  1  0.80086861  0.59978216  0.79976827  1
  Ta  Ta143  1  0.71569214  0.29580815  0.86989925  1
  Ta  Ta144  1  0.50510500  0.89999169  0.70094436  1
  Ta  Ta145  1  0.19109700  0.39640079  0.60385897  1
  Ta  Ta146  1  0.50361806  0.69944469  0.49993213  1
  Ta  Ta147  1  0.31330479  0.49268472  0.90377171  1
  Ta  Ta148  1  0.79380088  0.59439249  0.59295171  1
  Ta  Ta149  1  0.50625325  0.29607848  0.69529917  1
  Ti  Ti150  1  0.00717836  0.80120375  0.59807190  1
  Ti  Ti151  1  0.10431621  0.10094938  0.50351236  1
  Ti  Ti152  1  0.79711742  0.00074904  0.40619536  1
  Ti  Ti153  1  0.50865723  0.49174973  0.70321691  1
  Ti  Ti154  1  0.09369813  0.90134824  0.90216193  1
  Ti  Ti155  1  0.40340142  0.00935315  0.60110254  1
  Ti  Ti156  1  0.30585530  0.90298059  0.90724193  1
  Ti  Ti157  1  0.20629918  0.79935337  0.80993167  1
  Ti  Ti158  1  0.60346384  0.78468391  0.40346086  1
  Ti  Ti159  1  0.09647696  0.90546057  0.09917539  1
  Ti  Ti160  1  0.69158629  0.48828818  0.49569582  1
  Ti  Ti161  1  0.90217408  0.30303879  0.89589631  1
  Ti  Ti162  1  0.89511716  0.69231077  0.10413775  1
  Ti  Ti163  1  0.89763964  0.50517883  0.30120159  1
  Ti  Ti164  1  0.59485748  0.20687061  0.80075242  1
  Ti  Ti165  1  0.19561778  0.80523479  0.19847765  1
  Ti  Ti166  1  0.50116484  0.89793653  0.09539134  1
  Ti  Ti167  1  0.31132720  0.09840792  0.08650180  1
  Ti  Ti168  1  0.20540650  -0.00164996  0.38799208  1
  Ti  Ti169  1  0.01357782  0.20239045  0.81475873  1
  Ti  Ti170  1  0.79862762  0.40321241  0.21236195  1
  Ti  Ti171  1  0.60154649  0.80095520  0.80159527  1
  Ti  Ti172  1  0.59918663  0.38935189  0.79421941  1
  Ti  Ti173  1  0.50205773  0.70586248  0.69903947  1
  Ti  Ti174  1  0.09818181  0.09937569  0.30273673  1
  Ti  Ti175  1  0.10548306  0.89711927  0.70085432  1
  Ti  Ti176  1  0.39543802  0.20557695  0.78772870  1
  Ti  Ti177  1  0.09812672  0.29752852  0.70402465  1
  Ti  Ti178  1  0.49254996  0.29700047  0.90003946  1
  Ti  Ti179  1  0.79043399  0.79295325  0.19056481  1
  Ti  Ti180  1  0.68809803  0.90517056  0.89915459  1
  Ti  Ti181  1  0.29548450  0.30513553  0.29782914  1
  Ti  Ti182  1  0.41179472  0.79527393  0.19654593  1
  Ti  Ti183  1  -0.00628632  0.59220847  0.80240259  1
  Ti  Ti184  1  0.40674872  0.79226251  -0.00446852  1
  Ti  Ti185  1  0.30869987  0.49434963  0.09750805  1
  Ti  Ti186  1  0.39839730  0.19300731  0.40383542  1
  Ti  Ti187  1  0.50110034  0.09881823  0.90063714  1
  Ti  Ti188  1  0.90188727  0.50832957  0.09594948  1
  Ti  Ti189  1  0.00330523  -0.00633551  0.20971264  1
  Ti  Ti190  1  0.39541777  0.19497276  0.60554671  1
  Ti  Ti191  1  0.08598395  0.08988799  0.09621296  1
  Ti  Ti192  1  0.80134948  -0.00597713  -0.00784534  1
  Ti  Ti193  1  0.00394131  0.59510473  0.39852159  1
  Ti  Ti194  1  0.90394409  0.69287280  0.89617633  1
  Ti  Ti195  1  0.69038572  0.31682318  0.30606019  1
  Ti  Ti196  1  -0.00600934  0.80968881  0.80416849  1
  Ti  Ti197  1  0.50622298  0.48977697  0.49462803  1
  Ti  Ti198  1  0.89889260  0.88897384  0.69492209  1
  Ti  Ti199  1  0.09546776  0.49553396  0.70531256  1
  Mo  Mo200  1  0.69824137  0.70332633  0.89127351  1
  Mo  Mo201  1  0.09232960  0.09751589  0.89652460  1
  Mo  Mo202  1  0.10000043  0.29734338  0.50303299  1
  Mo  Mo203  1  0.70644007  0.30390570  0.11407989  1
  Mo  Mo204  1  0.90275011  0.50416531  0.89676877  1
  Mo  Mo205  1  0.30242859  0.69438327  0.50521335  1
  Mo  Mo206  1  0.69859998  0.50050569  0.30134819  1
  Mo  Mo207  1  0.40597994  0.20033205  -0.00484773  1
  Mo  Mo208  1  0.68729206  0.89815898  0.69969172  1
  Mo  Mo209  1  0.59702445  0.79139410  0.19179301  1
  Mo  Mo210  1  0.29872699  0.70549927  0.89975579  1
  Mo  Mo211  1  0.30240687  0.10877098  0.69543548  1
  Mo  Mo212  1  0.79311116  0.79631134  0.60114188  1
  Mo  Mo213  1  0.30285889  0.89566336  0.28951719  1
  Mo  Mo214  1  0.08465741  0.50483809  0.09814508  1
  Mo  Mo215  1  -0.00569563  0.40673429  0.39731062  1
  Mo  Mo216  1  0.59746563  -0.00295049  0.79470093  1
  Mo  Mo217  1  0.20040738  0.40874609  0.19430871  1
  Mo  Mo218  1  0.19766046  0.01190447  0.60348702  1
  Mo  Mo219  1  0.50159917  0.70943768  0.10197494  1
  Mo  Mo220  1  0.60077231  0.40273184  0.40370510  1
  Mo  Mo221  1  0.40194690  0.39891384  -0.00312641  1
  Mo  Mo222  1  0.30126650  0.09974435  0.30954237  1
  Mo  Mo223  1  0.29895689  0.29595396  0.70294016  1
  Mo  Mo224  1  0.69424198  0.69830933  0.49729380  1
  Mo  Mo225  1  0.49502439  0.10653120  0.50504650  1
  Mo  Mo226  1  0.60217167  0.40271072  0.20654255  1
  Mo  Mo227  1  0.89803876  0.31065226  0.30516949  1
  Mo  Mo228  1  -0.00693006  0.60398397  0.00654662  1
  Mo  Mo229  1  0.69351143  0.30416377  0.69897728  1
  Mo  Mo230  1  0.00299851  -0.00210153  -0.00735239  1
  Mo  Mo231  1  0.50379976  0.71053171  0.89969927  1
  Mo  Mo232  1  0.09508314  0.49954944  0.49744302  1
  Mo  Mo233  1  0.60199477  -0.00162017  -0.00211811  1
  Mo  Mo234  1  0.80668353  0.40203193  0.79546888  1
  Mo  Mo235  1  0.59809513  0.20160082  0.59802648  1
  Mo  Mo236  1  0.50820434  0.69726712  0.30028392  1
  Mo  Mo237  1  0.40060575  -0.00134600  0.00067584  1
  Mo  Mo238  1  0.78681366  0.79003122  0.40433960  1
  Mo  Mo239  1  0.60332096  0.39981882  0.60408768  1
  Mo  Mo240  1  0.90390460  0.90158092  0.89913464  1
  Mo  Mo241  1  0.80423775  0.59937969  0.20271624  1
  Mo  Mo242  1  0.09889857  0.70374088  0.10205815  1
  Mo  Mo243  1  -0.00701710  0.40583162  -0.00043636  1
  Mo  Mo244  1  0.69849979  0.70186507  0.10767371  1
  Mo  Mo245  1  0.11127923  0.89763532  0.29820330  1
  Mo  Mo246  1  0.81281285  0.19578849  0.80599158  1
  Mo  Mo247  1  0.90274104  0.30533495  0.49510101  1
  Mo  Mo248  1  0.19742926  0.20713370  0.79511720  1
  Mo  Mo249  1  0.09449595  0.30587665  0.90028538  1
