# generated using pymatgen
data_HfZrTaTiMo
_symmetry_space_group_name_H-M   'P 1'
_cell_length_a   16.88479772
_cell_length_b   16.87821946
_cell_length_c   16.88311498
_cell_angle_alpha   90.01210064
_cell_angle_beta   90.00193138
_cell_angle_gamma   89.99162907
_symmetry_Int_Tables_number   1
_chemical_formula_structural   HfZrTaTiMo
_chemical_formula_sum   'Hf50 Zr50 Ta50 Ti50 Mo50'
_cell_volume   4811.43979111
_cell_formula_units_Z   50
loop_
 _symmetry_equiv_pos_site_id
 _symmetry_equiv_pos_as_xyz
  1  'x, y, z'
loop_
 _atom_site_type_symbol
 _atom_site_label
 _atom_site_symmetry_multiplicity
 _atom_site_fract_x
 _atom_site_fract_y
 _atom_site_fract_z
 _atom_site_occupancy
  Hf  Hf0  1  0.79929417  -0.00862828  0.40188062  1
  Hf  Hf1  1  0.29812163  0.49454477  0.90827151  1
  Hf  Hf2  1  0.09722781  0.09808435  0.29175433  1
  Hf  Hf3  1  0.29685278  0.89780405  0.90442559  1
  Hf  Hf4  1  0.19751769  0.19648618  0.40109753  1
  Hf  Hf5  1  0.30031568  0.69636776  0.30496105  1
  Hf  Hf6  1  0.70249436  0.70245615  0.70398693  1
  Hf  Hf7  1  0.80738459  0.40206481  0.19834848  1
  Hf  Hf8  1  0.48853888  0.70485784  0.30096858  1
  Hf  Hf9  1  0.59417714  0.59151283  0.39215446  1
  Hf  Hf10  1  0.29995070  0.29999070  0.90609782  1
  Hf  Hf11  1  0.10266794  0.29800168  0.70662460  1
  Hf  Hf12  1  0.39752708  0.40601218  0.59984274  1
  Hf  Hf13  1  0.80354054  0.19314754  0.39956556  1
  Hf  Hf14  1  0.30375476  0.10059352  0.29174046  1
  Hf  Hf15  1  0.90009662  0.29770688  0.70343702  1
  Hf  Hf16  1  0.10357834  0.89739724  0.51390390  1
  Hf  Hf17  1  0.09837585  0.30642387  0.91015889  1
  Hf  Hf18  1  0.50839925  0.49212709  0.90849542  1
  Hf  Hf19  1  0.09217630  0.90349148  0.09440555  1
  Hf  Hf20  1  0.59685118  0.19741717  0.59369194  1
  Hf  Hf21  1  0.10823173  0.70000640  0.49964592  1
  Hf  Hf22  1  0.29655697  0.30230273  0.49836491  1
  Hf  Hf23  1  0.68663675  0.30292889  0.90443013  1
  Hf  Hf24  1  0.79836825  0.79487965  0.81437619  1
  Hf  Hf25  1  0.69748774  0.50180239  0.70236611  1
  Hf  Hf26  1  0.69782781  0.70022046  0.09730689  1
  Hf  Hf27  1  0.19430039  0.59869209  0.18977810  1
  Hf  Hf28  1  0.41182009  0.79258678  0.80682803  1
  Hf  Hf29  1  0.00714414  0.40806554  0.60648117  1
  Hf  Hf30  1  0.91232773  0.29547720  0.08890380  1
  Hf  Hf31  1  0.30239367  0.29658388  0.29765830  1
  Hf  Hf32  1  0.29734962  0.90559904  0.09456966  1
  Hf  Hf33  1  0.19697596  0.39966526  0.19182740  1
  Hf  Hf34  1  0.30399777  0.29715883  0.10239577  1
  Hf  Hf35  1  0.59561540  0.19901219  0.19182483  1
  Hf  Hf36  1  0.91169171  0.89899933  0.51415163  1
  Hf  Hf37  1  0.69415013  0.09549872  0.69700288  1
  Hf  Hf38  1  -0.00646527  0.60356860  0.39361400  1
  Hf  Hf39  1  0.89870319  0.30132216  0.49631634  1
  Hf  Hf40  1  0.30372424  0.69926160  0.10220573  1
  Hf  Hf41  1  0.90911538  0.89495929  0.69789782  1
  Hf  Hf42  1  0.49850888  0.89588502  0.69575788  1
  Hf  Hf43  1  0.89523607  0.50014881  0.49925293  1
  Hf  Hf44  1  0.19338821  0.20188654  0.01438760  1
  Hf  Hf45  1  0.58792096  0.59824402  0.20045724  1
  Hf  Hf46  1  0.69620440  0.51157055  0.89823341  1
  Hf  Hf47  1  0.40086657  0.60433098  0.80375390  1
  Hf  Hf48  1  0.29929820  0.89638453  0.69728919  1
  Hf  Hf49  1  0.90872126  0.70796908  0.70562128  1
  Zr  Zr50  1  0.48802945  0.70423804  0.49668275  1
  Zr  Zr51  1  0.00759170  0.60460470  0.60520906  1
  Zr  Zr52  1  0.70251389  0.49563735  0.49603201  1
  Zr  Zr53  1  0.80322341  0.80420699  0.39943633  1
  Zr  Zr54  1  0.09221558  0.10003413  0.91104030  1
  Zr  Zr55  1  0.90798190  0.09779198  0.29086679  1
  Zr  Zr56  1  0.59282648  0.40089599  0.20183827  1
  Zr  Zr57  1  0.20090105  -0.00983622  0.39789316  1
  Zr  Zr58  1  0.29954850  0.29768217  0.70436731  1
  Zr  Zr59  1  0.49838843  0.49828299  0.70466519  1
  Zr  Zr60  1  0.69032852  0.09551456  0.30001118  1
  Zr  Zr61  1  0.49510181  0.09198786  0.70103923  1
  Zr  Zr62  1  0.88973817  0.51130849  0.70546100  1
  Zr  Zr63  1  0.90878882  0.90478958  0.91047974  1
  Zr  Zr64  1  0.79350347  -0.00574006  0.79468123  1
  Zr  Zr65  1  0.91310989  0.29074642  0.89855086  1
  Zr  Zr66  1  0.49785016  0.29868339  0.49037302  1
  Zr  Zr67  1  0.79346614  0.19498749  0.59353584  1
  Zr  Zr68  1  -0.00038847  0.79967832  0.39746917  1
  Zr  Zr69  1  0.79603152  -0.00730595  0.19066293  1
  Zr  Zr70  1  0.69405851  0.90693197  0.90996157  1
  Zr  Zr71  1  0.69985626  0.29661671  0.30274784  1
  Zr  Zr72  1  0.00605617  0.19844264  0.60122534  1
  Zr  Zr73  1  0.10398359  0.09110579  0.51223280  1
  Zr  Zr74  1  -0.00225697  0.40077500  0.39071690  1
  Zr  Zr75  1  0.69468051  0.10099534  0.90917063  1
  Zr  Zr76  1  0.00721631  0.61085447  0.00194619  1
  Zr  Zr77  1  0.01176816  0.00238556  0.79138750  1
  Zr  Zr78  1  0.00055594  0.59877560  0.19422233  1
  Zr  Zr79  1  0.80480921  0.40262157  -0.00294817  1
  Zr  Zr80  1  0.79936909  0.39870697  0.80287684  1
  Zr  Zr81  1  0.49774821  0.09681110  0.91216525  1
  Zr  Zr82  1  0.89915094  0.09981871  0.90758169  1
  Zr  Zr83  1  0.40055518  0.19369027  0.59917560  1
  Zr  Zr84  1  0.49117415  0.91902276  0.10407739  1
  Zr  Zr85  1  0.69343660  0.50266775  0.08814355  1
  Zr  Zr86  1  0.49661844  0.29532566  0.90858864  1
  Zr  Zr87  1  0.90329346  0.09616733  0.69523258  1
  Zr  Zr88  1  0.30312813  0.09737896  0.91017684  1
  Zr  Zr89  1  0.59874340  0.80886082  0.19386499  1
  Zr  Zr90  1  0.00336872  0.40814048  0.19272479  1
  Zr  Zr91  1  0.59422385  0.62032672  0.80435466  1
  Zr  Zr92  1  0.70290212  0.70546262  0.29327217  1
  Zr  Zr93  1  0.19815191  -0.00012068  0.79310509  1
  Zr  Zr94  1  0.30651648  0.89558862  0.29718588  1
  Zr  Zr95  1  0.30106186  0.69821602  0.69852743  1
  Zr  Zr96  1  0.58958886  0.60433625  0.60070259  1
  Zr  Zr97  1  0.11028985  0.50294073  0.49356717  1
  Zr  Zr98  1  0.30951110  0.09275070  0.10121360  1
  Zr  Zr99  1  0.69470065  0.70349512  0.49463095  1
  Ta  Ta100  1  0.40297192  0.40517680  0.20262499  1
  Ta  Ta101  1  0.01055234  0.60484615  0.80289090  1
  Ta  Ta102  1  0.60195352  -0.01054749  0.58942887  1
  Ta  Ta103  1  0.19641606  0.19415362  0.80053149  1
  Ta  Ta104  1  0.59794109  0.39760981  0.59563993  1
  Ta  Ta105  1  0.49516118  0.29473535  0.30268382  1
  Ta  Ta106  1  0.00582358  0.41220212  0.80048854  1
  Ta  Ta107  1  0.50343009  0.30240942  0.70734577  1
  Ta  Ta108  1  0.19594939  0.79841414  0.19741623  1
  Ta  Ta109  1  0.69468068  0.29693358  0.09139559  1
  Ta  Ta110  1  0.19506511  0.60106733  0.80215258  1
  Ta  Ta111  1  0.59614445  0.80166591  0.00359411  1
  Ta  Ta112  1  0.10968843  0.50413517  0.30184386  1
  Ta  Ta113  1  0.10511039  0.70069827  0.29902449  1
  Ta  Ta114  1  0.59851544  0.19891142  0.79832976  1
  Ta  Ta115  1  0.79789240  0.80375665  0.00682817  1
  Ta  Ta116  1  0.40159878  0.80039540  0.19580299  1
  Ta  Ta117  1  0.79600438  0.80201691  0.59839210  1
  Ta  Ta118  1  0.19717770  0.60343284  -0.00066971  1
  Ta  Ta119  1  0.80502935  0.61719296  -0.01070936  1
  Ta  Ta120  1  0.09606847  0.09202608  0.10423307  1
  Ta  Ta121  1  0.20069176  0.40639924  0.60383085  1
  Ta  Ta122  1  0.79150424  0.20018076  0.79926964  1
  Ta  Ta123  1  0.39968251  -0.00010660  0.40505240  1
  Ta  Ta124  1  0.89839033  0.70531135  0.28855024  1
  Ta  Ta125  1  0.49993135  0.09470228  0.29878138  1
  Ta  Ta126  1  0.80711994  0.60305640  0.39256564  1
  Ta  Ta127  1  0.90648847  0.51125316  0.89822390  1
  Ta  Ta128  1  0.80777586  0.59739872  0.19548787  1
  Ta  Ta129  1  0.80229898  0.19983122  0.18894991  1
  Ta  Ta130  1  0.90774904  0.08507864  0.50327558  1
  Ta  Ta131  1  0.80343358  0.61340953  0.59175994  1
  Ta  Ta132  1  0.10680820  0.30213843  0.50040994  1
  Ta  Ta133  1  0.29805938  0.50921992  0.49768347  1
  Ta  Ta134  1  0.69202661  0.30157469  0.69953461  1
  Ta  Ta135  1  0.10373004  0.89566581  0.90470218  1
  Ta  Ta136  1  0.10102225  0.29595282  0.29681335  1
  Ta  Ta137  1  0.49332374  0.50492546  0.09784605  1
  Ta  Ta138  1  0.59784174  0.81396723  0.40045753  1
  Ta  Ta139  1  0.30049472  0.50416088  0.30037928  1
  Ta  Ta140  1  0.29583363  0.09281593  0.50681383  1
  Ta  Ta141  1  0.40056636  0.60477243  0.00168096  1
  Ta  Ta142  1  0.59283207  0.40454180  0.39398384  1
  Ta  Ta143  1  0.40537367  0.79699694  0.00264483  1
  Ta  Ta144  1  0.69463692  0.30278940  0.49260864  1
  Ta  Ta145  1  0.49793913  0.90914807  0.30205191  1
  Ta  Ta146  1  -0.00047062  -0.00677638  0.39589236  1
  Ta  Ta147  1  0.90510115  0.29180913  0.29361683  1
  Ta  Ta148  1  0.10297117  0.49909240  0.90487709  1
  Ta  Ta149  1  0.19533811  0.79194837  0.00309714  1
  Ti  Ti150  1  0.70595232  0.50173439  0.29725451  1
  Ti  Ti151  1  0.29906620  0.50405786  0.70057310  1
  Ti  Ti152  1  0.40007237  0.18971741  0.40119207  1
  Ti  Ti153  1  0.79423859  0.39742130  0.59971552  1
  Ti  Ti154  1  0.50504032  0.09195131  0.48803309  1
  Ti  Ti155  1  0.20594573  0.79764948  0.40090682  1
  Ti  Ti156  1  0.39887749  0.39954678  0.80094674  1
  Ti  Ti157  1  0.20214251  0.40176264  0.39541051  1
  Ti  Ti158  1  0.60122793  0.00235577  0.01600528  1
  Ti  Ti159  1  0.68976589  0.09374338  0.48942469  1
  Ti  Ti160  1  0.80258393  0.40159538  0.38905413  1
  Ti  Ti161  1  0.39537443  0.59718294  0.40311354  1
  Ti  Ti162  1  0.10012090  0.87850257  0.70054553  1
  Ti  Ti163  1  0.69097058  0.90544635  0.29583430  1
  Ti  Ti164  1  0.91042864  0.09152234  0.09534422  1
  Ti  Ti165  1  0.19645557  -0.00436287  0.19956622  1
  Ti  Ti166  1  0.49230103  0.50200727  0.49923409  1
  Ti  Ti167  1  0.40125561  0.40892456  0.39361259  1
  Ti  Ti168  1  0.90218360  0.50397057  0.08684170  1
  Ti  Ti169  1  0.30240810  0.89330452  0.50301919  1
  Ti  Ti170  1  0.29486152  0.70228987  0.90231238  1
  Ti  Ti171  1  0.00463086  0.79520863  0.19511530  1
  Ti  Ti172  1  0.60417950  0.80632164  0.59894652  1
  Ti  Ti173  1  0.28970898  0.09774033  0.68899583  1
  Ti  Ti174  1  0.09664062  0.89626386  0.29393995  1
  Ti  Ti175  1  0.59896147  0.80276529  0.80539119  1
  Ti  Ti176  1  0.79804010  0.19551760  0.00606476  1
  Ti  Ti177  1  0.39929972  -0.00254056  0.59292334  1
  Ti  Ti178  1  0.78533577  -0.01159006  0.59473266  1
  Ti  Ti179  1  0.49527679  0.89807593  0.49520754  1
  Ti  Ti180  1  0.10227889  0.71015996  0.89140753  1
  Ti  Ti181  1  0.41213620  0.20074263  0.19268575  1
  Ti  Ti182  1  0.90474955  0.89499947  0.28531025  1
  Ti  Ti183  1  -0.00122863  0.79255128  -0.00240199  1
  Ti  Ti184  1  0.59927576  -0.00673073  0.79450195  1
  Ti  Ti185  1  0.00203835  0.19638332  0.40247243  1
  Ti  Ti186  1  0.69756105  0.09788835  0.09845329  1
  Ti  Ti187  1  0.19803186  0.40734351  0.79813494  1
  Ti  Ti188  1  0.40443405  0.39708305  0.01220660  1
  Ti  Ti189  1  0.90204202  0.89942345  0.09943629  1
  Ti  Ti190  1  0.39813418  0.79268132  0.59686689  1
  Ti  Ti191  1  0.49927324  0.90661924  0.90734863  1
  Ti  Ti192  1  0.20404633  0.79129613  0.60128932  1
  Ti  Ti193  1  0.39772269  -0.00160922  0.80199650  1
  Ti  Ti194  1  0.89559882  0.71008605  0.10280525  1
  Ti  Ti195  1  0.30387247  0.50153095  0.09726644  1
  Ti  Ti196  1  0.00803770  0.20365675  0.19055882  1
  Ti  Ti197  1  0.39711294  0.19431262  0.79927030  1
  Ti  Ti198  1  0.20281936  0.59869569  0.60589921  1
  Ti  Ti199  1  0.50620128  0.69920205  0.91708950  1
  Mo  Mo200  1  0.20371323  0.60141789  0.39413413  1
  Mo  Mo201  1  0.11140502  0.10939907  0.69967977  1
  Mo  Mo202  1  0.50047517  0.10496859  0.10062404  1
  Mo  Mo203  1  0.19974254  0.79471467  0.80640915  1
  Mo  Mo204  1  0.49809630  0.30494461  0.10115104  1
  Mo  Mo205  1  0.69955836  0.90112943  0.09659776  1
  Mo  Mo206  1  0.69735808  0.89921751  0.50053805  1
  Mo  Mo207  1  0.11186987  0.50205108  0.70976002  1
  Mo  Mo208  1  0.49561203  0.69975383  0.09777545  1
  Mo  Mo209  1  0.00319574  0.19330172  0.01105428  1
  Mo  Mo210  1  0.59343367  0.40083331  0.00677816  1
  Mo  Mo211  1  0.90709810  0.70370399  0.90146556  1
  Mo  Mo212  1  0.80726147  0.60883518  0.80910094  1
  Mo  Mo213  1  0.89816480  0.70299491  0.50192722  1
  Mo  Mo214  1  0.20273959  0.40474526  0.00535603  1
  Mo  Mo215  1  0.10628722  0.49577079  0.08718035  1
  Mo  Mo216  1  0.59900648  0.00549150  0.20199766  1
  Mo  Mo217  1  0.00844542  0.79860554  0.80625275  1
  Mo  Mo218  1  0.19484698  -0.00596357  0.00390430  1
  Mo  Mo219  1  0.29793779  0.69829847  0.50136824  1
  Mo  Mo220  1  0.00732949  0.79473414  0.60575799  1
  Mo  Mo221  1  0.80046608  -0.00086713  0.01363442  1
  Mo  Mo222  1  0.00482073  0.41200474  -0.00314256  1
  Mo  Mo223  1  0.39967054  0.80848107  0.40337223  1
  Mo  Mo224  1  0.40328595  -0.00430857  -0.00544448  1
  Mo  Mo225  1  0.69679193  0.70827222  0.90741881  1
  Mo  Mo226  1  0.39469689  0.59506508  0.19653206  1
  Mo  Mo227  1  0.59742367  0.39329361  0.79543973  1
  Mo  Mo228  1  -0.00231643  -0.01002686  0.20154008  1
  Mo  Mo229  1  0.39107194  0.59837548  0.59551875  1
  Mo  Mo230  1  0.59456232  0.60660014  0.00427823  1
  Mo  Mo231  1  -0.00280052  -0.00300956  0.00691960  1
  Mo  Mo232  1  0.80580662  0.80105671  0.19431379  1
  Mo  Mo233  1  0.20305380  0.20296570  0.60204966  1
  Mo  Mo234  1  0.59871586  0.19864604  0.00783791  1
  Mo  Mo235  1  0.10760783  0.70187061  0.70405324  1
  Mo  Mo236  1  0.59346249  -0.00374187  0.40236827  1
  Mo  Mo237  1  0.00378943  0.20289129  0.80110570  1
  Mo  Mo238  1  0.09992600  0.29795792  0.10252181  1
  Mo  Mo239  1  0.40395793  0.20128590  0.01168454  1
  Mo  Mo240  1  0.69215386  0.89399888  0.69580030  1
  Mo  Mo241  1  0.10170813  0.70905736  0.09942362  1
  Mo  Mo242  1  0.49900310  0.71271030  0.69393727  1
  Mo  Mo243  1  0.40161842  0.00285629  0.20890169  1
  Mo  Mo244  1  0.20821387  -0.00965203  0.60531306  1
  Mo  Mo245  1  0.01370296  -0.00478032  0.60471613  1
  Mo  Mo246  1  0.19089041  0.20145321  0.20112842  1
  Mo  Mo247  1  0.59318520  0.19895677  0.39894921  1
  Mo  Mo248  1  0.48656876  0.49902617  0.30131901  1
  Mo  Mo249  1  0.89427832  0.50356992  0.29709408  1
