# generated using pymatgen
data_HfZrTaTiMo
_symmetry_space_group_name_H-M   'P 1'
_cell_length_a   16.88729717
_cell_length_b   16.89038330
_cell_length_c   16.88160453
_cell_angle_alpha   90.02110573
_cell_angle_beta   90.00548926
_cell_angle_gamma   89.99669539
_symmetry_Int_Tables_number   1
_chemical_formula_structural   HfZrTaTiMo
_chemical_formula_sum   'Hf50 Zr50 Ta50 Ti50 Mo50'
_cell_volume   4815.18903170
_cell_formula_units_Z   50
loop_
 _symmetry_equiv_pos_site_id
 _symmetry_equiv_pos_as_xyz
  1  'x, y, z'
loop_
 _atom_site_type_symbol
 _atom_site_label
 _atom_site_symmetry_multiplicity
 _atom_site_fract_x
 _atom_site_fract_y
 _atom_site_fract_z
 _atom_site_occupancy
  Hf  Hf0  1  0.19973179  -0.00341230  0.59807494  1
  Hf  Hf1  1  0.28661267  0.69402517  0.89538435  1
  Hf  Hf2  1  0.50157171  0.71151414  0.08992694  1
  Hf  Hf3  1  0.50090171  0.30480303  0.89883033  1
  Hf  Hf4  1  0.38902120  0.59762492  0.18546301  1
  Hf  Hf5  1  0.40008448  0.19281679  -0.00577677  1
  Hf  Hf6  1  0.20696953  0.19780899  0.58620720  1
  Hf  Hf7  1  0.70603999  0.71067360  0.49816952  1
  Hf  Hf8  1  0.79832665  0.60155197  0.60169702  1
  Hf  Hf9  1  0.10793963  0.50036312  0.29471012  1
  Hf  Hf10  1  0.89897159  0.10492324  0.09946322  1
  Hf  Hf11  1  0.29881450  0.49693626  0.29117336  1
  Hf  Hf12  1  0.48933726  0.10321713  0.50251927  1
  Hf  Hf13  1  0.00307761  0.39851574  0.39605014  1
  Hf  Hf14  1  0.70226335  0.70049733  0.29422754  1
  Hf  Hf15  1  -0.00312033  0.60608738  0.60429261  1
  Hf  Hf16  1  0.89799457  0.49686473  0.50135919  1
  Hf  Hf17  1  0.70140566  0.09800664  0.69682738  1
  Hf  Hf18  1  0.38852842  0.80802069  0.80193868  1
  Hf  Hf19  1  0.20310863  0.40285375  0.79525723  1
  Hf  Hf20  1  0.21047621  0.37090208  0.20187769  1
  Hf  Hf21  1  -0.00522857  0.79663125  0.21078643  1
  Hf  Hf22  1  0.39957061  0.60188656  -0.00350452  1
  Hf  Hf23  1  0.10633272  0.51107618  0.90704508  1
  Hf  Hf24  1  0.00510987  0.61355654  0.39822447  1
  Hf  Hf25  1  0.69488703  0.49871638  0.29933200  1
  Hf  Hf26  1  0.79729957  0.80406854  0.00106579  1
  Hf  Hf27  1  0.60403992  0.00506525  0.39376168  1
  Hf  Hf28  1  0.10189414  0.09300225  0.09815404  1
  Hf  Hf29  1  0.77880417  0.39813048  0.41954854  1
  Hf  Hf30  1  0.60689574  0.19421864  0.39945043  1
  Hf  Hf31  1  0.71558953  0.10732936  0.10564291  1
  Hf  Hf32  1  0.59962452  -0.00005137  0.59951386  1
  Hf  Hf33  1  0.70211017  0.29871346  0.29489807  1
  Hf  Hf34  1  0.59438647  0.19530398  0.79960825  1
  Hf  Hf35  1  0.89990619  0.09634945  0.50066001  1
  Hf  Hf36  1  0.89518138  0.09950855  0.29559033  1
  Hf  Hf37  1  0.70090684  0.71044242  0.70723806  1
  Hf  Hf38  1  0.61663314  0.40039512  0.58164408  1
  Hf  Hf39  1  0.30412430  0.30431807  0.90459614  1
  Hf  Hf40  1  0.51304463  0.88954292  0.90741731  1
  Hf  Hf41  1  0.50101640  0.29571147  0.49810731  1
  Hf  Hf42  1  0.21085711  -0.00499547  0.80357541  1
  Hf  Hf43  1  0.10106631  0.89799695  0.30587357  1
  Hf  Hf44  1  0.27682898  0.90082658  0.09284627  1
  Hf  Hf45  1  0.71045273  0.10474016  0.90765398  1
  Hf  Hf46  1  0.50392266  0.70208293  0.70329226  1
  Hf  Hf47  1  0.00215111  0.60526955  0.20053473  1
  Hf  Hf48  1  0.09975119  0.10093292  0.69887980  1
  Hf  Hf49  1  0.60548399  0.00392033  0.20560768  1
  Zr  Zr50  1  0.01255962  0.20365898  0.20884911  1
  Zr  Zr51  1  0.60168866  0.80225650  0.39967024  1
  Zr  Zr52  1  0.29696521  0.49902487  0.50446670  1
  Zr  Zr53  1  0.48719827  0.90226165  0.49271069  1
  Zr  Zr54  1  -0.00339096  -0.00807197  0.00025745  1
  Zr  Zr55  1  0.60112889  0.60168204  0.59376866  1
  Zr  Zr56  1  0.40470738  0.40330330  0.79025845  1
  Zr  Zr57  1  0.29123581  0.90009315  0.48704933  1
  Zr  Zr58  1  0.20554656  0.38526365  0.40224529  1
  Zr  Zr59  1  0.38884525  0.80481556  0.60792912  1
  Zr  Zr60  1  0.61403539  0.81185905  0.19059970  1
  Zr  Zr61  1  0.19640239  0.80270288  0.79735214  1
  Zr  Zr62  1  -0.00199143  0.39464013  0.80859740  1
  Zr  Zr63  1  0.29374131  0.89634133  0.30128368  1
  Zr  Zr64  1  0.20572934  0.19517373  0.80548197  1
  Zr  Zr65  1  0.00140153  0.40407714  0.60689965  1
  Zr  Zr66  1  0.49169841  0.89787195  0.09848471  1
  Zr  Zr67  1  0.10528981  0.30002409  0.69874966  1
  Zr  Zr68  1  0.10630493  0.49173564  0.10466473  1
  Zr  Zr69  1  0.00097915  0.60982650  0.80268525  1
  Zr  Zr70  1  -0.00152945  -0.00462886  0.59905688  1
  Zr  Zr71  1  0.21012950  0.59981823  0.02655601  1
  Zr  Zr72  1  0.48276869  0.89961188  0.30015438  1
  Zr  Zr73  1  0.38830586  0.00114323  -0.01323265  1
  Zr  Zr74  1  0.60473721  0.00154130  0.80755507  1
  Zr  Zr75  1  0.49718719  0.49445783  0.09923170  1
  Zr  Zr76  1  0.50878206  0.89703174  0.70322525  1
  Zr  Zr77  1  -0.00266742  0.40055626  -0.00146760  1
  Zr  Zr78  1  0.18827008  0.60333987  0.59768290  1
  Zr  Zr79  1  0.00210951  -0.00909080  0.80447709  1
  Zr  Zr80  1  0.49216600  0.29885444  0.29582257  1
  Zr  Zr81  1  0.29112456  0.70773883  0.29227213  1
  Zr  Zr82  1  0.49327698  0.09879353  0.10531262  1
  Zr  Zr83  1  0.89604426  0.29659381  0.09817858  1
  Zr  Zr84  1  0.60324858  0.40164667  -0.00502820  1
  Zr  Zr85  1  0.88794233  0.49733670  0.71161152  1
  Zr  Zr86  1  0.60910482  0.60348154  -0.01301216  1
  Zr  Zr87  1  0.80739359  0.20147575  0.79693572  1
  Zr  Zr88  1  0.40327936  0.60004074  0.39864938  1
  Zr  Zr89  1  0.29883958  0.49756796  0.90364015  1
  Zr  Zr90  1  0.09553272  0.29760948  0.50360977  1
  Zr  Zr91  1  0.59872281  0.19740750  0.19931123  1
  Zr  Zr92  1  0.80351265  0.60295238  -0.00394247  1
  Zr  Zr93  1  0.29615741  0.70479581  0.49827017  1
  Zr  Zr94  1  0.79844120  0.20350482  0.60015854  1
  Zr  Zr95  1  0.89604878  0.30215384  0.30482558  1
  Zr  Zr96  1  0.40471873  0.00711148  0.80184013  1
  Zr  Zr97  1  0.49058564  0.70845127  0.28884662  1
  Zr  Zr98  1  0.70400045  0.50263232  0.10255456  1
  Zr  Zr99  1  0.80337004  0.60501348  0.39878795  1
  Ta  Ta100  1  0.80204715  0.40492399  0.19611898  1
  Ta  Ta101  1  0.59679048  0.59791899  0.39924841  1
  Ta  Ta102  1  0.89625735  0.29867925  0.50326045  1
  Ta  Ta103  1  0.28920030  0.09955033  0.10235320  1
  Ta  Ta104  1  0.29249044  0.69240464  0.69985809  1
  Ta  Ta105  1  0.81013215  0.60531628  0.19952274  1
  Ta  Ta106  1  0.50051596  0.49238103  0.29649417  1
  Ta  Ta107  1  0.30747575  0.10362483  0.69308318  1
  Ta  Ta108  1  0.38587750  0.00159700  0.19877241  1
  Ta  Ta109  1  0.71384494  0.90403355  0.49888222  1
  Ta  Ta110  1  0.40334743  0.59913316  0.79365344  1
  Ta  Ta111  1  0.90023707  0.10027708  0.90354361  1
  Ta  Ta112  1  0.00050391  0.80317891  0.81029336  1
  Ta  Ta113  1  0.38403484  0.79905342  -0.00874865  1
  Ta  Ta114  1  -0.00635164  0.19787927  0.60433703  1
  Ta  Ta115  1  0.80269112  -0.00958728  -0.00219861  1
  Ta  Ta116  1  0.11120637  0.89450422  0.91903876  1
  Ta  Ta117  1  0.40691507  0.19236392  0.79654025  1
  Ta  Ta118  1  0.29125548  0.09774495  0.29932952  1
  Ta  Ta119  1  0.40149415  0.39820198  0.59460566  1
  Ta  Ta120  1  0.80635526  -0.01107205  0.80737588  1
  Ta  Ta121  1  0.00512798  0.20053698  -0.01052531  1
  Ta  Ta122  1  0.71355078  0.90268695  0.30169013  1
  Ta  Ta123  1  0.89857810  0.49879136  0.29694158  1
  Ta  Ta124  1  0.20305408  0.19695331  -0.00033096  1
  Ta  Ta125  1  0.90488005  0.71461227  0.50321836  1
  Ta  Ta126  1  0.59985810  0.39511958  0.19566929  1
  Ta  Ta127  1  0.80840710  0.80027442  0.19975988  1
  Ta  Ta128  1  0.19699875  0.19872585  0.39448240  1
  Ta  Ta129  1  0.70218078  0.49494530  0.70301424  1
  Ta  Ta130  1  0.50147648  0.49370913  0.49219556  1
  Ta  Ta131  1  0.00071161  -0.00178822  0.40030708  1
  Ta  Ta132  1  -0.00129338  0.20096547  0.80528502  1
  Ta  Ta133  1  0.61277474  -0.00309162  0.00677242  1
  Ta  Ta134  1  0.50557791  0.29646795  0.68835864  1
  Ta  Ta135  1  0.81549465  0.80543493  0.39014546  1
  Ta  Ta136  1  0.70522912  0.09358510  0.50210917  1
  Ta  Ta137  1  0.39681894  0.39485652  0.39741574  1
  Ta  Ta138  1  0.70765448  0.29764073  0.09473690  1
  Ta  Ta139  1  0.60227960  0.59537517  0.80083083  1
  Ta  Ta140  1  0.69920324  0.30701803  0.70034039  1
  Ta  Ta141  1  0.47660756  0.10167105  0.30334298  1
  Ta  Ta142  1  0.59996592  0.19908421  0.00003074  1
  Ta  Ta143  1  0.50502465  0.70591492  0.89399703  1
  Ta  Ta144  1  0.70600768  0.30219213  0.89964956  1
  Ta  Ta145  1  0.50538651  0.49604067  0.69247164  1
  Ta  Ta146  1  0.79589029  0.19521035  0.40184031  1
  Ta  Ta147  1  0.00046079  0.79788963  0.00373821  1
  Ta  Ta148  1  0.10629029  0.29264209  0.09439813  1
  Ta  Ta149  1  0.30787041  0.29713313  0.68996679  1
  Ti  Ti150  1  0.90541470  0.50229129  0.10053633  1
  Ti  Ti151  1  0.80422268  -0.00833492  0.60627674  1
  Ti  Ti152  1  0.79148681  0.60411217  0.80996501  1
  Ti  Ti153  1  -0.00056747  -0.00742632  0.20443631  1
  Ti  Ti154  1  0.09587405  0.89503600  0.49950181  1
  Ti  Ti155  1  0.10749955  0.30244066  0.90673261  1
  Ti  Ti156  1  0.90276360  0.09461561  0.70628181  1
  Ti  Ti157  1  0.60515226  0.40412133  0.79870914  1
  Ti  Ti158  1  0.59700082  0.60115354  0.19786732  1
  Ti  Ti159  1  0.70327316  0.89544088  0.70444801  1
  Ti  Ti160  1  0.90556608  0.89523730  0.49716649  1
  Ti  Ti161  1  0.10360317  0.09505120  0.30575244  1
  Ti  Ti162  1  0.37901380  0.20816747  0.19717999  1
  Ti  Ti163  1  0.30164087  0.09385556  0.49254701  1
  Ti  Ti164  1  0.90359931  0.70291034  0.90305696  1
  Ti  Ti165  1  0.60357478  0.80706430  0.59562218  1
  Ti  Ti166  1  0.89154534  0.29711308  0.90431263  1
  Ti  Ti167  1  0.38277957  0.20528300  0.40415473  1
  Ti  Ti168  1  0.90245765  0.89776114  0.10426275  1
  Ti  Ti169  1  0.10560695  0.50463701  0.70401198  1
  Ti  Ti170  1  0.18118360  0.78757593  0.39941588  1
  Ti  Ti171  1  0.80153378  0.80767027  0.81355330  1
  Ti  Ti172  1  0.10219262  0.09565820  0.90275687  1
  Ti  Ti173  1  0.48886508  0.30458915  0.09724147  1
  Ti  Ti174  1  0.09999182  0.70836037  0.69943149  1
  Ti  Ti175  1  0.29893335  0.50301483  0.69407437  1
  Ti  Ti176  1  0.09863229  0.88914007  0.69115400  1
  Ti  Ti177  1  0.19019808  0.60647108  0.39872364  1
  Ti  Ti178  1  0.39532592  -0.00027004  0.60672867  1
  Ti  Ti179  1  0.10326085  0.49494871  0.50206015  1
  Ti  Ti180  1  0.10020034  0.69754823  0.91275904  1
  Ti  Ti181  1  0.08878626  0.72068457  0.51193565  1
  Ti  Ti182  1  0.90209927  0.89082422  0.70411759  1
  Ti  Ti183  1  0.00451683  0.19512516  0.40412625  1
  Ti  Ti184  1  0.90528600  0.69763444  0.09515786  1
  Ti  Ti185  1  0.79938044  0.40626003  -0.00535235  1
  Ti  Ti186  1  0.80230161  -0.00975994  0.19888125  1
  Ti  Ti187  1  0.29381190  0.71868435  0.10743376  1
  Ti  Ti188  1  0.70130231  0.70184585  0.09910636  1
  Ti  Ti189  1  0.19175071  -0.00144719  0.20237152  1
  Ti  Ti190  1  0.10500828  0.70796636  0.10528699  1
  Ti  Ti191  1  0.80455160  -0.00201388  0.39729181  1
  Ti  Ti192  1  0.89880228  0.50476963  0.90053607  1
  Ti  Ti193  1  0.80458504  0.80748387  0.60033967  1
  Ti  Ti194  1  0.89409936  0.30849708  0.69924193  1
  Ti  Ti195  1  0.49893686  0.50043932  0.89440419  1
  Ti  Ti196  1  0.49536023  0.70490470  0.49897763  1
  Ti  Ti197  1  0.00264740  0.39502885  0.20227552  1
  Ti  Ti198  1  0.89782289  0.71176775  0.70459661  1
  Ti  Ti199  1  0.40481840  0.59707698  0.60191508  1
  Mo  Mo200  1  0.10021181  0.29234125  0.30165018  1
  Mo  Mo201  1  0.59451345  0.40268244  0.39474473  1
  Mo  Mo202  1  0.40075257  0.79347017  0.40882710  1
  Mo  Mo203  1  0.18839151  0.01077611  0.40509842  1
  Mo  Mo204  1  0.90286309  0.90753837  0.29916543  1
  Mo  Mo205  1  0.51172387  0.10053617  0.90998596  1
  Mo  Mo206  1  0.79703901  0.39753034  0.80631273  1
  Mo  Mo207  1  0.39067977  0.80839817  0.18278509  1
  Mo  Mo208  1  0.40098338  0.39987412  0.00393573  1
  Mo  Mo209  1  0.19953949  0.60924823  0.20141147  1
  Mo  Mo210  1  0.19150669  0.79280992  0.00165436  1
  Mo  Mo211  1  0.30487557  0.47459510  0.09979951  1
  Mo  Mo212  1  0.70435439  0.89919883  0.90436594  1
  Mo  Mo213  1  0.40004811  0.39415306  0.19803807  1
  Mo  Mo214  1  0.09524263  0.09998833  0.49375445  1
  Mo  Mo215  1  0.80153273  0.20758969  0.20319248  1
  Mo  Mo216  1  0.38915329  0.01192321  0.39496114  1
  Mo  Mo217  1  0.90350353  0.89362371  0.90104109  1
  Mo  Mo218  1  0.69754853  0.28340226  0.50218310  1
  Mo  Mo219  1  0.19068671  0.80238665  0.60243177  1
  Mo  Mo220  1  0.69946381  0.70410514  0.89394320  1
  Mo  Mo221  1  0.29588863  0.90552767  0.69617188  1
  Mo  Mo222  1  0.30276238  0.28772740  0.30351954  1
  Mo  Mo223  1  0.79666448  0.39691373  0.60447272  1
  Mo  Mo224  1  0.60101003  0.19853590  0.60094957  1
  Mo  Mo225  1  0.19871268  0.60018515  0.78828509  1
  Mo  Mo226  1  0.49648295  0.10711734  0.68852727  1
  Mo  Mo227  1  -0.00540343  0.80280519  0.60926393  1
  Mo  Mo228  1  -0.00197510  0.80539906  0.40652364  1
  Mo  Mo229  1  -0.00219313  0.60863788  0.00471556  1
  Mo  Mo230  1  0.20991011  0.40333163  0.60469482  1
  Mo  Mo231  1  0.10058475  0.69972749  0.29938786  1
  Mo  Mo232  1  0.30082205  0.28975622  0.09474270  1
  Mo  Mo233  1  0.09480585  0.89669345  0.10637875  1
  Mo  Mo234  1  0.71026189  0.90620741  0.10405968  1
  Mo  Mo235  1  0.61053147  0.79486676  0.80452732  1
  Mo  Mo236  1  0.29895011  0.10427946  0.89724015  1
  Mo  Mo237  1  0.61344380  0.80107317  -0.00500470  1
  Mo  Mo238  1  0.80426509  0.20387318  -0.00404896  1
  Mo  Mo239  1  0.90014086  0.70034004  0.29935856  1
  Mo  Mo240  1  0.19978658  0.19011083  0.19984529  1
  Mo  Mo241  1  0.20440772  0.38980949  0.00664088  1
  Mo  Mo242  1  0.71566734  0.09449821  0.30206239  1
  Mo  Mo243  1  0.19457613  0.00759605  -0.00467049  1
  Mo  Mo244  1  0.70779580  0.49731449  0.88586877  1
  Mo  Mo245  1  0.18648861  0.80190451  0.19654948  1
  Mo  Mo246  1  0.29234448  0.89747678  0.90260873  1
  Mo  Mo247  1  0.30571194  0.29670133  0.50060203  1
  Mo  Mo248  1  0.39909821  0.20100663  0.59997461  1
  Mo  Mo249  1  0.69538361  0.51393079  0.49828584  1
