# generated using pymatgen
data_HfZrTaTiMo
_symmetry_space_group_name_H-M   'P 1'
_cell_length_a   16.88550113
_cell_length_b   16.88003740
_cell_length_c   16.88814748
_cell_angle_alpha   89.98411439
_cell_angle_beta   89.97450836
_cell_angle_gamma   90.02816939
_symmetry_Int_Tables_number   1
_chemical_formula_structural   HfZrTaTiMo
_chemical_formula_sum   'Hf50 Zr50 Ta50 Ti50 Mo50'
_cell_volume   4813.59180883
_cell_formula_units_Z   50
loop_
 _symmetry_equiv_pos_site_id
 _symmetry_equiv_pos_as_xyz
  1  'x, y, z'
loop_
 _atom_site_type_symbol
 _atom_site_label
 _atom_site_symmetry_multiplicity
 _atom_site_fract_x
 _atom_site_fract_y
 _atom_site_fract_z
 _atom_site_occupancy
  Hf  Hf0  1  0.09421062  0.09152209  0.70456823  1
  Hf  Hf1  1  0.59737281  0.79583944  0.19620194  1
  Hf  Hf2  1  0.29278635  0.10167646  0.70402407  1
  Hf  Hf3  1  0.19893158  0.79890374  0.59268842  1
  Hf  Hf4  1  0.18611881  0.19325202  0.20278621  1
  Hf  Hf5  1  0.59613732  0.00325175  0.39539913  1
  Hf  Hf6  1  0.19905075  0.19738262  0.39104005  1
  Hf  Hf7  1  0.79533635  0.00625906  0.61433220  1
  Hf  Hf8  1  0.19612430  0.00458703  0.19417401  1
  Hf  Hf9  1  0.31312437  0.09524111  0.29438647  1
  Hf  Hf10  1  0.20663744  0.40024239  0.59971100  1
  Hf  Hf11  1  0.70579553  0.89454770  0.89916062  1
  Hf  Hf12  1  0.00880143  0.01832172  0.20298380  1
  Hf  Hf13  1  0.69423309  0.09804916  0.89363254  1
  Hf  Hf14  1  0.39816158  0.60530911  0.80679379  1
  Hf  Hf15  1  0.50065915  0.69624072  0.09972491  1
  Hf  Hf16  1  0.59079257  0.79974861  0.39368238  1
  Hf  Hf17  1  0.79871551  0.20024731  0.79181117  1
  Hf  Hf18  1  0.40277369  0.59653626  -0.00189913  1
  Hf  Hf19  1  0.19219158  0.19889230  -0.00322653  1
  Hf  Hf20  1  0.90450554  0.08880832  0.89761229  1
  Hf  Hf21  1  -0.00327534  0.39665282  0.39864003  1
  Hf  Hf22  1  0.89310114  0.31237438  0.68800132  1
  Hf  Hf23  1  0.49772326  0.69853351  0.50534129  1
  Hf  Hf24  1  0.70913158  0.69418841  0.90196008  1
  Hf  Hf25  1  0.89365020  0.09967923  0.49825885  1
  Hf  Hf26  1  0.10608638  0.29193720  0.70209029  1
  Hf  Hf27  1  0.40421555  -0.00175175  0.79822082  1
  Hf  Hf28  1  0.49895577  0.09950955  0.50737799  1
  Hf  Hf29  1  0.69495414  0.69621588  0.70701020  1
  Hf  Hf30  1  0.00042332  0.40097183  0.80686001  1
  Hf  Hf31  1  0.40301084  0.40344511  0.19511010  1
  Hf  Hf32  1  0.79942721  0.00393684  0.19526870  1
  Hf  Hf33  1  0.70535473  0.69408818  0.30310646  1
  Hf  Hf34  1  0.80136890  0.21209345  -0.00316623  1
  Hf  Hf35  1  0.90601245  0.70247384  0.29893620  1
  Hf  Hf36  1  0.50194294  0.30359202  0.89722150  1
  Hf  Hf37  1  0.60317519  0.59370263  0.00183688  1
  Hf  Hf38  1  0.19623255  0.79426282  0.18946517  1
  Hf  Hf39  1  0.50114149  0.88331562  0.88425980  1
  Hf  Hf40  1  0.20355230  0.60529981  0.80040241  1
  Hf  Hf41  1  0.00609672  0.59748946  0.40284845  1
  Hf  Hf42  1  0.70066125  0.49605642  0.30444626  1
  Hf  Hf43  1  0.39983098  0.80190367  0.40071419  1
  Hf  Hf44  1  0.50446005  0.50290334  0.70202640  1
  Hf  Hf45  1  0.50064471  0.71157650  0.71328466  1
  Hf  Hf46  1  0.79584845  0.39744077  0.19324744  1
  Hf  Hf47  1  0.80687448  0.79055857  0.18778585  1
  Hf  Hf48  1  0.29891912  0.50500183  0.69728544  1
  Hf  Hf49  1  0.50351841  0.30123521  0.10071767  1
  Zr  Zr50  1  0.58876952  -0.00880079  0.00168612  1
  Zr  Zr51  1  0.19201269  0.60047110  0.20011196  1
  Zr  Zr52  1  0.29647953  0.29961357  0.90017613  1
  Zr  Zr53  1  0.70615047  0.90044483  0.29558684  1
  Zr  Zr54  1  0.79661812  0.00536820  0.00366637  1
  Zr  Zr55  1  0.49151953  0.91578373  0.28514489  1
  Zr  Zr56  1  -0.01111125  0.19440921  0.59894269  1
  Zr  Zr57  1  -0.00087221  0.79051892  0.01013534  1
  Zr  Zr58  1  0.80512016  0.80315755  0.79730846  1
  Zr  Zr59  1  0.49275786  0.09146224  0.11140202  1
  Zr  Zr60  1  0.19741404  -0.00581780  0.40650142  1
  Zr  Zr61  1  0.40294254  0.19503137  -0.00488219  1
  Zr  Zr62  1  0.00572638  0.19939996  0.39005264  1
  Zr  Zr63  1  0.60454831  0.20712603  0.39735079  1
  Zr  Zr64  1  0.91677536  0.91253220  0.70984118  1
  Zr  Zr65  1  0.00924793  0.80005983  0.59430699  1
  Zr  Zr66  1  0.30109455  0.89544300  0.70756794  1
  Zr  Zr67  1  0.09405954  0.89000522  0.29967135  1
  Zr  Zr68  1  0.69546417  0.90392093  0.50307027  1
  Zr  Zr69  1  0.39780490  0.20945608  0.60387777  1
  Zr  Zr70  1  0.89732946  0.49472749  0.50936251  1
  Zr  Zr71  1  0.28959496  0.49101837  0.08848022  1
  Zr  Zr72  1  -0.00379300  0.39755919  -0.00823208  1
  Zr  Zr73  1  0.69553046  0.70171783  0.50245608  1
  Zr  Zr74  1  0.80385839  0.80503948  0.60322387  1
  Zr  Zr75  1  0.60480577  0.59433244  0.19602211  1
  Zr  Zr76  1  0.30154624  0.50084873  0.31001588  1
  Zr  Zr77  1  0.00445606  0.60596052  0.19140022  1
  Zr  Zr78  1  0.90413596  0.69244701  0.50376320  1
  Zr  Zr79  1  0.90578006  0.90373241  0.10062403  1
  Zr  Zr80  1  0.60466304  0.20074846  0.00180074  1
  Zr  Zr81  1  0.10193995  0.30093056  0.50155223  1
  Zr  Zr82  1  0.69971349  0.10405756  0.50046128  1
  Zr  Zr83  1  0.19421260  0.39859233  0.80284805  1
  Zr  Zr84  1  0.40510062  0.80082347  0.00257848  1
  Zr  Zr85  1  -0.00667444  0.20517885  0.80557159  1
  Zr  Zr86  1  0.89957430  0.50457656  0.70059491  1
  Zr  Zr87  1  0.50431178  0.10095405  0.69616432  1
  Zr  Zr88  1  0.29671615  0.89644127  0.29891739  1
  Zr  Zr89  1  0.09100966  0.29768979  0.09920395  1
  Zr  Zr90  1  0.89059586  0.10578796  0.29963081  1
  Zr  Zr91  1  0.30342065  0.30015288  0.49353186  1
  Zr  Zr92  1  0.10142884  0.71043205  0.89450016  1
  Zr  Zr93  1  0.91160344  0.69089794  0.70841012  1
  Zr  Zr94  1  0.51238263  0.30830043  0.50086058  1
  Zr  Zr95  1  0.40378006  0.59849484  0.20329731  1
  Zr  Zr96  1  0.29456702  0.89825357  0.90406875  1
  Zr  Zr97  1  0.39405330  0.80144783  0.60259832  1
  Zr  Zr98  1  0.19225617  0.39133306  0.21005172  1
  Zr  Zr99  1  0.69124698  0.49431128  0.49956173  1
  Ta  Ta100  1  0.91158690  0.89846040  0.90347042  1
  Ta  Ta101  1  0.39884396  -0.00124559  0.40820688  1
  Ta  Ta102  1  0.49775858  0.48978003  0.90433789  1
  Ta  Ta103  1  0.30348011  0.50826674  0.49914187  1
  Ta  Ta104  1  0.89681815  0.50040912  0.09505235  1
  Ta  Ta105  1  0.50476819  0.30560622  0.70425448  1
  Ta  Ta106  1  0.00357505  0.00037003  0.40307291  1
  Ta  Ta107  1  0.19696248  0.60256538  0.40140990  1
  Ta  Ta108  1  0.29956656  0.69431322  0.49443950  1
  Ta  Ta109  1  0.10705555  0.50372641  0.50458591  1
  Ta  Ta110  1  0.29805623  0.69995956  0.09636593  1
  Ta  Ta111  1  -0.00511520  0.40344169  0.20222641  1
  Ta  Ta112  1  0.60615438  -0.00885391  0.78458784  1
  Ta  Ta113  1  0.39908153  0.79838512  0.19701879  1
  Ta  Ta114  1  0.90622745  0.89706040  0.30107879  1
  Ta  Ta115  1  0.10084122  0.89365418  0.71311558  1
  Ta  Ta116  1  0.50357509  0.30477955  0.29690736  1
  Ta  Ta117  1  0.30114770  0.09600916  0.09260389  1
  Ta  Ta118  1  0.60448513  0.40276614  0.80348821  1
  Ta  Ta119  1  0.00076447  0.59843441  0.00104923  1
  Ta  Ta120  1  0.88803846  0.50697162  0.90332571  1
  Ta  Ta121  1  0.58611633  0.59882900  0.39889600  1
  Ta  Ta122  1  0.89260772  0.49997424  0.29701780  1
  Ta  Ta123  1  0.29621720  0.09473618  0.89917886  1
  Ta  Ta124  1  0.90808358  0.11306025  0.09755428  1
  Ta  Ta125  1  0.40351286  0.40666045  0.60062606  1
  Ta  Ta126  1  0.49730957  0.90929640  0.51329833  1
  Ta  Ta127  1  0.89644214  0.69441854  0.90338396  1
  Ta  Ta128  1  0.70045779  0.50176168  0.70699510  1
  Ta  Ta129  1  0.79161309  0.59723936  0.60495748  1
  Ta  Ta130  1  0.79762708  0.38865239  0.40401159  1
  Ta  Ta131  1  0.80774407  0.80278986  0.40135253  1
  Ta  Ta132  1  0.19795335  -0.00920088  0.59813050  1
  Ta  Ta133  1  0.70064667  0.89015916  0.09303860  1
  Ta  Ta134  1  0.50494896  0.49404438  0.30577982  1
  Ta  Ta135  1  0.89671020  0.30084071  0.29327821  1
  Ta  Ta136  1  0.29990923  0.69967398  0.30484721  1
  Ta  Ta137  1  0.40041907  0.40137734  0.79647903  1
  Ta  Ta138  1  0.69786198  0.10793538  0.29245030  1
  Ta  Ta139  1  0.29984290  0.49297374  0.90519544  1
  Ta  Ta140  1  0.79770957  0.39892635  0.80532916  1
  Ta  Ta141  1  0.09639346  0.90180319  0.09590042  1
  Ta  Ta142  1  0.29956722  0.29850528  0.09541950  1
  Ta  Ta143  1  0.79343010  0.20883875  0.19213245  1
  Ta  Ta144  1  0.19273413  -0.00417010  0.80649840  1
  Ta  Ta145  1  0.09615205  0.50893073  0.69420323  1
  Ta  Ta146  1  0.09822717  0.09614493  0.90058416  1
  Ta  Ta147  1  0.60253886  0.79099567  -0.00115032  1
  Ta  Ta148  1  0.30294927  0.09569699  0.50552675  1
  Ta  Ta149  1  0.40815229  0.40529582  0.40573225  1
  Ti  Ti150  1  0.09920815  0.70161404  0.70513198  1
  Ti  Ti151  1  0.19693071  0.80308554  0.00404203  1
  Ti  Ti152  1  0.79816528  0.00346292  0.79274313  1
  Ti  Ti153  1  0.89995429  0.30296879  0.09885410  1
  Ti  Ti154  1  0.61121127  0.20336007  0.60730340  1
  Ti  Ti155  1  0.60029776  0.81614807  0.61597722  1
  Ti  Ti156  1  0.50088641  0.10565327  0.29164878  1
  Ti  Ti157  1  0.70751742  0.50030537  0.90002673  1
  Ti  Ti158  1  0.59604571  0.59749408  0.81316179  1
  Ti  Ti159  1  0.69912168  0.30966815  0.69743765  1
  Ti  Ti160  1  0.90230200  0.90529757  0.49472884  1
  Ti  Ti161  1  0.50107044  0.09500603  0.89514865  1
  Ti  Ti162  1  0.19714638  0.61000880  0.59806710  1
  Ti  Ti163  1  0.10241745  0.09730079  0.50133283  1
  Ti  Ti164  1  0.69574320  0.10826410  0.10543711  1
  Ti  Ti165  1  0.29973371  0.71103181  0.89800474  1
  Ti  Ti166  1  0.29911562  0.29604112  0.70655421  1
  Ti  Ti167  1  0.79662263  0.21421135  0.40145728  1
  Ti  Ti168  1  0.39747595  0.20432126  0.19820121  1
  Ti  Ti169  1  0.69999966  0.30898866  0.90097402  1
  Ti  Ti170  1  0.00638614  0.59438799  0.81139110  1
  Ti  Ti171  1  0.30914476  0.30104589  0.30074967  1
  Ti  Ti172  1  0.30721169  0.90854763  0.09643212  1
  Ti  Ti173  1  0.71236337  0.49780261  0.08776451  1
  Ti  Ti174  1  0.80185153  0.60204041  0.18768964  1
  Ti  Ti175  1  0.39874635  0.60156263  0.60071829  1
  Ti  Ti176  1  0.79462401  0.20482389  0.60097233  1
  Ti  Ti177  1  -0.00196260  0.20322444  -0.00652578  1
  Ti  Ti178  1  0.80068551  -0.00343900  0.39730194  1
  Ti  Ti179  1  0.60101738  0.40226620  0.60450823  1
  Ti  Ti180  1  0.00515063  0.40101833  0.59636954  1
  Ti  Ti181  1  0.60566301  0.20374556  0.79391620  1
  Ti  Ti182  1  0.59765660  0.59752300  0.59902649  1
  Ti  Ti183  1  0.19838010  0.39950888  0.39880165  1
  Ti  Ti184  1  0.80142720  0.59665793  0.40567145  1
  Ti  Ti185  1  0.00605202  -0.00376330  0.59210934  1
  Ti  Ti186  1  0.19579807  0.60897309  0.00063847  1
  Ti  Ti187  1  0.69325779  0.30215920  0.29389661  1
  Ti  Ti188  1  0.40536508  0.20060716  0.39740757  1
  Ti  Ti189  1  0.09711791  0.49636018  0.30385277  1
  Ti  Ti190  1  0.19098210  0.00042361  0.00100020  1
  Ti  Ti191  1  0.10020105  0.49521583  0.09202726  1
  Ti  Ti192  1  0.00485768  0.80173990  0.40924900  1
  Ti  Ti193  1  0.11028637  0.49913852  0.90938576  1
  Ti  Ti194  1  0.40123057  0.20013898  0.80099036  1
  Ti  Ti195  1  0.60333844  0.40309121  0.19197919  1
  Ti  Ti196  1  0.20109069  0.19477502  0.59688631  1
  Ti  Ti197  1  0.10116238  0.70765047  0.30619684  1
  Ti  Ti198  1  0.60522408  0.40348510  0.00309677  1
  Ti  Ti199  1  0.60498832  -0.00208951  0.19305277  1
  Mo  Mo200  1  0.40013132  0.39920095  -0.00223929  1
  Mo  Mo201  1  0.29691532  0.69657776  0.69664287  1
  Mo  Mo202  1  0.30110570  0.90262431  0.50201898  1
  Mo  Mo203  1  0.88945203  0.29907687  0.49660166  1
  Mo  Mo204  1  0.80244966  0.79359476  0.00019413  1
  Mo  Mo205  1  0.50358045  0.89532094  0.09746765  1
  Mo  Mo206  1  0.19616833  0.39477238  -0.00134963  1
  Mo  Mo207  1  0.00674135  0.00306977  0.00259887  1
  Mo  Mo208  1  0.09579097  0.29156605  0.89845536  1
  Mo  Mo209  1  0.39579026  -0.00057086  -0.00382187  1
  Mo  Mo210  1  0.39300029  -0.00274701  0.19119915  1
  Mo  Mo211  1  0.10779225  0.69897555  0.49316295  1
  Mo  Mo212  1  0.60156485  0.20263240  0.20309411  1
  Mo  Mo213  1  0.70297886  0.30382866  0.51103815  1
  Mo  Mo214  1  0.50844790  0.49138301  0.09694268  1
  Mo  Mo215  1  0.79711212  0.40141633  -0.00211638  1
  Mo  Mo216  1  0.49248376  0.69227015  0.30037023  1
  Mo  Mo217  1  0.09078532  0.30438628  0.29741199  1
  Mo  Mo218  1  0.39294691  -0.00105370  0.59859764  1
  Mo  Mo219  1  0.69931284  0.89937863  0.70353368  1
  Mo  Mo220  1  0.39424061  0.79097587  0.80236542  1
  Mo  Mo221  1  -0.00853022  0.20755790  0.19553712  1
  Mo  Mo222  1  0.59900890  -0.00236757  0.60624307  1
  Mo  Mo223  1  0.40052598  0.59966197  0.40321666  1
  Mo  Mo224  1  0.69809001  0.10702788  0.70201943  1
  Mo  Mo225  1  0.01561559  0.60045004  0.59903449  1
  Mo  Mo226  1  0.50803757  0.69416294  0.90058061  1
  Mo  Mo227  1  0.90014165  0.68848969  0.09682306  1
  Mo  Mo228  1  0.00409321  0.79874311  0.20117108  1
  Mo  Mo229  1  0.00299119  0.80063676  0.80845763  1
  Mo  Mo230  1  0.49730645  0.50234304  0.50422161  1
  Mo  Mo231  1  0.19801369  0.79816962  0.79603115  1
  Mo  Mo232  1  0.79793594  0.59370395  0.80212150  1
  Mo  Mo233  1  0.09919026  0.90211526  0.90494615  1
  Mo  Mo234  1  0.89763137  0.09979895  0.69785382  1
  Mo  Mo235  1  0.70552129  0.70045690  0.09369730  1
  Mo  Mo236  1  0.09697010  0.90115595  0.50164631  1
  Mo  Mo237  1  0.09445567  0.09958127  0.08869146  1
  Mo  Mo238  1  0.60107136  0.40198933  0.39299992  1
  Mo  Mo239  1  0.78746881  0.39978059  0.60330456  1
  Mo  Mo240  1  0.69728226  0.30489121  0.10009326  1
  Mo  Mo241  1  0.00630975  -0.00330564  0.81034596  1
  Mo  Mo242  1  0.10502143  0.69990343  0.09223851  1
  Mo  Mo243  1  0.80271305  0.59814641  0.00361054  1
  Mo  Mo244  1  0.89166519  0.30679262  0.89995552  1
  Mo  Mo245  1  0.60469726  0.79846118  0.80198294  1
  Mo  Mo246  1  0.10039179  0.10032761  0.30363297  1
  Mo  Mo247  1  0.20063406  0.79048787  0.40423060  1
  Mo  Mo248  1  0.19962756  0.18985095  0.80295953  1
  Mo  Mo249  1  0.50234605  0.90048470  0.69802338  1
