# generated using pymatgen
data_HfZrTaTiMo
_symmetry_space_group_name_H-M   'P 1'
_cell_length_a   16.89103282
_cell_length_b   16.89074044
_cell_length_c   16.88521713
_cell_angle_alpha   90.03195660
_cell_angle_beta   90.06332722
_cell_angle_gamma   90.00056903
_symmetry_Int_Tables_number   1
_chemical_formula_structural   HfZrTaTiMo
_chemical_formula_sum   'Hf50 Zr50 Ta50 Ti50 Mo50'
_cell_volume   4817.38339106
_cell_formula_units_Z   50
loop_
 _symmetry_equiv_pos_site_id
 _symmetry_equiv_pos_as_xyz
  1  'x, y, z'
loop_
 _atom_site_type_symbol
 _atom_site_label
 _atom_site_symmetry_multiplicity
 _atom_site_fract_x
 _atom_site_fract_y
 _atom_site_fract_z
 _atom_site_occupancy
  Hf  Hf0  1  0.20512165  0.39653871  0.19839275  1
  Hf  Hf1  1  0.59366040  0.20858648  0.39997884  1
  Hf  Hf2  1  0.40016612  0.60946646  0.59861102  1
  Hf  Hf3  1  0.60096231  0.79829589  -0.00255506  1
  Hf  Hf4  1  0.29779120  0.10400607  0.70179392  1
  Hf  Hf5  1  0.70552114  0.70714738  0.51571212  1
  Hf  Hf6  1  0.50065003  0.50127228  0.50325372  1
  Hf  Hf7  1  0.70200017  0.10281458  0.49683751  1
  Hf  Hf8  1  0.10229319  0.89938738  0.10605739  1
  Hf  Hf9  1  0.89267450  0.10036805  0.29906072  1
  Hf  Hf10  1  0.29616043  0.70785007  0.89743975  1
  Hf  Hf11  1  0.30144938  0.88978285  0.50682694  1
  Hf  Hf12  1  -0.00296998  0.00438639  -0.00060788  1
  Hf  Hf13  1  0.59677875  0.39508275  0.40122474  1
  Hf  Hf14  1  0.59865864  0.39176025  0.00774802  1
  Hf  Hf15  1  0.79555666  0.80793307  0.40299101  1
  Hf  Hf16  1  0.39565538  0.00613294  0.40320865  1
  Hf  Hf17  1  0.10466650  0.30958048  0.49852277  1
  Hf  Hf18  1  0.89727989  0.89895619  0.51017988  1
  Hf  Hf19  1  0.70571314  0.09991991  0.29477476  1
  Hf  Hf20  1  0.39214907  -0.01263839  0.79253460  1
  Hf  Hf21  1  0.50146013  0.89683486  0.89441823  1
  Hf  Hf22  1  0.90065538  0.69402555  0.09354099  1
  Hf  Hf23  1  0.10311300  0.29155053  0.09660859  1
  Hf  Hf24  1  0.00608769  0.60242759  0.60304384  1
  Hf  Hf25  1  0.39932447  0.20840036  0.79721913  1
  Hf  Hf26  1  0.79411423  0.20241376  0.79841116  1
  Hf  Hf27  1  0.69016439  0.09218915  0.70468747  1
  Hf  Hf28  1  0.21388658  0.20037110  0.40142075  1
  Hf  Hf29  1  0.39399713  0.79727931  0.19875071  1
  Hf  Hf30  1  0.39858197  0.59359291  0.20354627  1
  Hf  Hf31  1  0.21009501  -0.00102763  0.20793033  1
  Hf  Hf32  1  0.39614369  0.38747673  0.40608265  1
  Hf  Hf33  1  0.50216750  0.89522742  0.29498695  1
  Hf  Hf34  1  0.70612542  0.50656616  0.51695568  1
  Hf  Hf35  1  0.59842407  0.59621503  0.00112501  1
  Hf  Hf36  1  0.30205730  0.49403223  0.30370082  1
  Hf  Hf37  1  0.20115215  0.79505747  0.39610260  1
  Hf  Hf38  1  -0.00363847  0.40676352  0.39285665  1
  Hf  Hf39  1  0.69688476  0.90228267  0.28946361  1
  Hf  Hf40  1  0.39718322  0.20026659  0.40208481  1
  Hf  Hf41  1  0.78862693  0.40730252  0.78960248  1
  Hf  Hf42  1  0.40135093  0.20523513  -0.00176299  1
  Hf  Hf43  1  0.09737520  0.49761362  0.71040902  1
  Hf  Hf44  1  0.79616091  0.21066111  0.60651938  1
  Hf  Hf45  1  0.09633314  0.09685384  0.29940431  1
  Hf  Hf46  1  0.39794502  0.59882499  -0.00028270  1
  Hf  Hf47  1  0.81076045  0.40055798  0.19743735  1
  Hf  Hf48  1  0.88842577  0.70428961  0.69888940  1
  Hf  Hf49  1  0.00629790  0.79932129  0.80316546  1
  Zr  Zr50  1  0.29087947  0.69370688  0.09725225  1
  Zr  Zr51  1  0.69795034  0.50622318  0.30690822  1
  Zr  Zr52  1  0.69653560  0.69753856  0.10227249  1
  Zr  Zr53  1  0.20905624  0.39980807  0.61623283  1
  Zr  Zr54  1  0.19809044  0.60642345  0.40041915  1
  Zr  Zr55  1  0.50002001  0.09624783  0.29036589  1
  Zr  Zr56  1  0.70499715  0.29967336  0.90415895  1
  Zr  Zr57  1  0.69342635  0.70633827  0.29423852  1
  Zr  Zr58  1  0.39841843  0.39768479  0.60294039  1
  Zr  Zr59  1  0.20048164  0.60232738  0.80144444  1
  Zr  Zr60  1  0.59598314  0.20923224  0.59807142  1
  Zr  Zr61  1  0.10920031  0.89525120  0.90293738  1
  Zr  Zr62  1  0.59740798  0.19579711  0.00267633  1
  Zr  Zr63  1  0.61635620  0.39715016  0.19785772  1
  Zr  Zr64  1  0.90476155  0.49991977  0.89641822  1
  Zr  Zr65  1  0.69751247  0.88876347  0.69370163  1
  Zr  Zr66  1  0.00624866  0.79434921  0.39385036  1
  Zr  Zr67  1  0.60156404  0.20054434  0.18461371  1
  Zr  Zr68  1  0.29007407  0.10156597  0.89886195  1
  Zr  Zr69  1  0.50036175  0.89420787  0.50572301  1
  Zr  Zr70  1  0.80095542  0.59003664  0.19812027  1
  Zr  Zr71  1  0.90531682  0.31265858  0.70556841  1
  Zr  Zr72  1  0.90219715  0.09734520  0.69898120  1
  Zr  Zr73  1  0.89644643  0.50479044  0.50739472  1
  Zr  Zr74  1  0.10613179  0.10259488  0.09375151  1
  Zr  Zr75  1  0.00823607  0.80108129  0.60764130  1
  Zr  Zr76  1  0.10274100  0.50614378  0.09465211  1
  Zr  Zr77  1  0.50343795  0.09047126  0.89053809  1
  Zr  Zr78  1  0.59183126  0.60759556  0.40769379  1
  Zr  Zr79  1  0.00073366  0.20645954  0.39834780  1
  Zr  Zr80  1  0.37921940  0.40281351  0.79432891  1
  Zr  Zr81  1  0.20244573  0.39420764  -0.01514404  1
  Zr  Zr82  1  0.89978206  0.10171079  0.50256761  1
  Zr  Zr83  1  -0.00399655  0.79992964  0.00357269  1
  Zr  Zr84  1  0.39634418  0.20529075  0.58796572  1
  Zr  Zr85  1  0.80213955  0.39999640  0.39368064  1
  Zr  Zr86  1  0.48774381  0.31127451  0.27715489  1
  Zr  Zr87  1  0.09990432  0.09798795  0.50482008  1
  Zr  Zr88  1  0.49382520  0.48745696  0.11190840  1
  Zr  Zr89  1  0.20496069  0.60482546  0.60126261  1
  Zr  Zr90  1  0.59938931  0.59810688  0.80137004  1
  Zr  Zr91  1  0.89846776  0.70252910  0.29560927  1
  Zr  Zr92  1  0.89518055  0.10291905  0.90215869  1
  Zr  Zr93  1  0.10228814  0.10564154  0.70722254  1
  Zr  Zr94  1  0.30015436  0.09891208  0.09684637  1
  Zr  Zr95  1  0.90253167  0.90774802  0.28954569  1
  Zr  Zr96  1  0.89100911  0.90129399  0.89949891  1
  Zr  Zr97  1  0.49541598  0.49449673  0.89815345  1
  Zr  Zr98  1  0.00229265  0.39299182  -0.00462510  1
  Zr  Zr99  1  0.10274818  0.90180900  0.50202173  1
  Ta  Ta100  1  0.10323684  0.49839021  0.29986162  1
  Ta  Ta101  1  0.70021859  0.69949860  0.69914264  1
  Ta  Ta102  1  0.79522601  -0.00354733  0.40352396  1
  Ta  Ta103  1  0.89285247  0.69591470  0.90228071  1
  Ta  Ta104  1  0.90625994  0.50082398  0.09261486  1
  Ta  Ta105  1  0.50273442  0.70334730  0.10594645  1
  Ta  Ta106  1  -0.00346286  0.20385415  0.19713079  1
  Ta  Ta107  1  0.00726164  0.21396763  0.60526317  1
  Ta  Ta108  1  0.19925218  -0.01341802  0.79301370  1
  Ta  Ta109  1  0.40216374  0.78295544  0.40544147  1
  Ta  Ta110  1  0.30411484  0.89472131  0.30387308  1
  Ta  Ta111  1  0.89600621  0.69860468  0.50571638  1
  Ta  Ta112  1  0.00459576  -0.00346689  0.79942576  1
  Ta  Ta113  1  0.00403448  0.60157058  0.39704664  1
  Ta  Ta114  1  0.30260478  0.71681246  0.70219848  1
  Ta  Ta115  1  0.40165383  0.60867624  0.79381649  1
  Ta  Ta116  1  0.50213228  0.09270298  0.69924758  1
  Ta  Ta117  1  0.21001366  0.00359248  0.40079282  1
  Ta  Ta118  1  0.60408267  -0.00428846  0.40371414  1
  Ta  Ta119  1  0.59775225  0.20740137  0.79630408  1
  Ta  Ta120  1  0.69858285  0.09322778  0.90086967  1
  Ta  Ta121  1  0.60155821  0.39894088  0.79211714  1
  Ta  Ta122  1  0.59768986  0.80092615  0.40710471  1
  Ta  Ta123  1  0.60645696  0.00004119  0.18415242  1
  Ta  Ta124  1  0.19602550  0.79444325  0.20799597  1
  Ta  Ta125  1  0.00082461  0.61199651  0.80408439  1
  Ta  Ta126  1  0.40393555  0.79816073  -0.00099413  1
  Ta  Ta127  1  0.39993631  -0.01206051  0.00150784  1
  Ta  Ta128  1  0.59423388  0.78867284  0.79984147  1
  Ta  Ta129  1  0.72223949  0.29507372  0.09157704  1
  Ta  Ta130  1  0.19860643  0.22673651  0.80032241  1
  Ta  Ta131  1  0.79528253  -0.00356948  0.80041616  1
  Ta  Ta132  1  0.39000860  0.39662591  0.00491184  1
  Ta  Ta133  1  0.59656093  -0.00525103  0.59761306  1
  Ta  Ta134  1  0.89481121  0.90050028  0.70316982  1
  Ta  Ta135  1  0.00296479  0.59614832  0.20427044  1
  Ta  Ta136  1  0.60253650  -0.00261728  0.00365099  1
  Ta  Ta137  1  0.20639879  0.20125394  0.20989199  1
  Ta  Ta138  1  0.79140721  0.80539156  -0.00054168  1
  Ta  Ta139  1  0.50199358  0.89690946  0.10096393  1
  Ta  Ta140  1  0.89639160  0.30450852  0.50440343  1
  Ta  Ta141  1  0.50058847  0.69934875  0.29789833  1
  Ta  Ta142  1  0.00211373  0.40321679  0.60076945  1
  Ta  Ta143  1  0.29941636  0.50193591  0.49430724  1
  Ta  Ta144  1  0.20427161  0.20629501  0.60001429  1
  Ta  Ta145  1  0.09925270  0.69379446  0.09768802  1
  Ta  Ta146  1  0.39890080  -0.00032060  0.60254076  1
  Ta  Ta147  1  0.79749336  0.80944633  0.18576988  1
  Ta  Ta148  1  0.20752643  -0.00440517  0.60599994  1
  Ta  Ta149  1  0.79411117  0.59771110  0.79952971  1
  Ti  Ti150  1  0.40612765  0.79435787  0.60507127  1
  Ti  Ti151  1  0.30439596  0.69517702  0.30427617  1
  Ti  Ti152  1  0.60924283  0.39842064  0.60947742  1
  Ti  Ti153  1  -0.00731981  0.01072055  0.18922136  1
  Ti  Ti154  1  0.10408135  0.70444050  0.50497340  1
  Ti  Ti155  1  0.49756499  0.30710405  0.89704381  1
  Ti  Ti156  1  0.70116653  0.49372159  0.90624333  1
  Ti  Ti157  1  -0.00359178  0.19761570  -0.00041210  1
  Ti  Ti158  1  0.89976299  0.29654177  0.09221266  1
  Ti  Ti159  1  0.50149116  0.30373122  0.70066944  1
  Ti  Ti160  1  0.00783494  -0.00440849  0.61241772  1
  Ti  Ti161  1  0.89535564  0.29073262  0.29964454  1
  Ti  Ti162  1  0.10697111  0.10551341  0.89851247  1
  Ti  Ti163  1  0.50078488  0.50187715  0.69961371  1
  Ti  Ti164  1  0.19878722  0.59991926  0.20289747  1
  Ti  Ti165  1  0.20610222  -0.00507953  -0.00346516  1
  Ti  Ti166  1  0.29876521  0.89471003  0.09770569  1
  Ti  Ti167  1  0.49310610  0.09275769  0.09859561  1
  Ti  Ti168  1  0.89869883  0.50505586  0.69883899  1
  Ti  Ti169  1  0.00500098  0.20610421  0.80365639  1
  Ti  Ti170  1  0.19723293  0.79485491  0.00339510  1
  Ti  Ti171  1  0.59472748  0.59121275  0.20126101  1
  Ti  Ti172  1  0.00311354  0.79588710  0.19881366  1
  Ti  Ti173  1  0.38965854  0.20070715  0.19983971  1
  Ti  Ti174  1  0.02086473  0.38774067  0.80896690  1
  Ti  Ti175  1  0.79557089  0.59275963  -0.00264430  1
  Ti  Ti176  1  0.29843928  0.29576883  0.09842994  1
  Ti  Ti177  1  -0.00189375  -0.00272150  0.40139500  1
  Ti  Ti178  1  0.50394511  0.09611498  0.50348967  1
  Ti  Ti179  1  0.50218273  0.89449445  0.70160754  1
  Ti  Ti180  1  0.10679902  0.49710905  0.49591505  1
  Ti  Ti181  1  0.70383417  0.69685261  0.89897541  1
  Ti  Ti182  1  0.79221820  -0.00467019  0.59927209  1
  Ti  Ti183  1  0.29446650  0.50519883  0.90007668  1
  Ti  Ti184  1  0.09952683  0.90376196  0.29791055  1
  Ti  Ti185  1  0.59251961  0.61132872  0.61007483  1
  Ti  Ti186  1  0.69451434  0.90595717  0.89566648  1
  Ti  Ti187  1  0.11281980  0.71138091  0.70613425  1
  Ti  Ti188  1  -0.00290659  0.39941451  0.20304293  1
  Ti  Ti189  1  0.80787759  0.60277505  0.39815447  1
  Ti  Ti190  1  0.10455064  0.30449607  0.29973411  1
  Ti  Ti191  1  0.80792393  0.19008747  0.18415218  1
  Ti  Ti192  1  0.88771173  0.91355754  0.09828574  1
  Ti  Ti193  1  0.71463890  0.28559203  0.29799850  1
  Ti  Ti194  1  0.39660256  -0.00446767  0.19678511  1
  Ti  Ti195  1  0.29937775  0.88892021  0.89627195  1
  Ti  Ti196  1  0.70794241  0.30765459  0.50179680  1
  Ti  Ti197  1  0.89579045  0.30035234  0.90415103  1
  Ti  Ti198  1  0.09848186  0.51282271  0.90383008  1
  Ti  Ti199  1  0.79257385  0.79845725  0.80634083  1
  Mo  Mo200  1  0.50286783  0.70289015  0.50404270  1
  Mo  Mo201  1  0.40341703  0.79837069  0.79945357  1
  Mo  Mo202  1  0.19885214  0.40128488  0.39942932  1
  Mo  Mo203  1  0.30565925  0.70173312  0.50241673  1
  Mo  Mo204  1  0.09843995  0.69679083  0.90773239  1
  Mo  Mo205  1  0.30265067  0.51672691  0.70308457  1
  Mo  Mo206  1  0.79716018  0.00211054  0.18999479  1
  Mo  Mo207  1  0.80175380  0.40424944  0.60271838  1
  Mo  Mo208  1  0.59465644  0.80281474  0.19827751  1
  Mo  Mo209  1  0.49414030  0.70282676  0.90134490  1
  Mo  Mo210  1  0.30165053  0.89417614  0.69631722  1
  Mo  Mo211  1  0.29721516  0.49807901  0.09920829  1
  Mo  Mo212  1  0.20239471  0.20070541  -0.00614745  1
  Mo  Mo213  1  0.09630774  0.28413061  0.90185212  1
  Mo  Mo214  1  0.69440929  0.30586704  0.70022022  1
  Mo  Mo215  1  0.51026667  0.30687120  0.50602527  1
  Mo  Mo216  1  0.09843834  0.30392144  0.70186534  1
  Mo  Mo217  1  -0.00006147  0.60327993  -0.00349252  1
  Mo  Mo218  1  0.79765383  0.20409025  0.40317597  1
  Mo  Mo219  1  0.29935347  0.30178474  0.89996150  1
  Mo  Mo220  1  0.29775359  0.29666618  0.29626000  1
  Mo  Mo221  1  0.10114112  0.69377404  0.28876677  1
  Mo  Mo222  1  0.69454761  0.50611885  0.69676474  1
  Mo  Mo223  1  0.71040178  0.49183226  0.08783128  1
  Mo  Mo224  1  0.40130078  0.59867894  0.39949931  1
  Mo  Mo225  1  0.20515349  0.80034052  0.60274848  1
  Mo  Mo226  1  0.80114274  0.80151970  0.60152509  1
  Mo  Mo227  1  0.49377195  0.50604319  0.30515807  1
  Mo  Mo228  1  0.49980972  0.70660234  0.70238533  1
  Mo  Mo229  1  0.80580611  0.19671416  0.00010042  1
  Mo  Mo230  1  0.19601767  0.40474809  0.80639345  1
  Mo  Mo231  1  0.19713265  0.60014137  -0.00388072  1
  Mo  Mo232  1  0.38396427  0.39762791  0.19291053  1
  Mo  Mo233  1  0.69704408  0.90378734  0.50018067  1
  Mo  Mo234  1  0.90050136  0.10293720  0.09942983  1
  Mo  Mo235  1  0.20252889  0.80294575  0.79740058  1
  Mo  Mo236  1  0.91131925  0.50204298  0.29739443  1
  Mo  Mo237  1  0.80134020  0.60187195  0.61259778  1
  Mo  Mo238  1  0.69860767  0.90140802  0.09407228  1
  Mo  Mo239  1  0.78999761  -0.00004979  -0.00072247  1
  Mo  Mo240  1  0.29305703  0.30414748  0.50005398  1
  Mo  Mo241  1  0.29806503  0.29563376  0.69976382  1
  Mo  Mo242  1  0.30378857  0.09448358  0.29787033  1
  Mo  Mo243  1  0.59459272  0.79667909  0.60502831  1
  Mo  Mo244  1  0.10332354  0.90212303  0.70218408  1
  Mo  Mo245  1  0.48300739  0.29732459  0.09668503  1
  Mo  Mo246  1  0.71122514  0.09617650  0.09281445  1
  Mo  Mo247  1  0.80562186  0.40214972  0.00104905  1
  Mo  Mo248  1  0.59998162  -0.00580907  0.79666001  1
  Mo  Mo249  1  0.29814698  0.09192069  0.50721823  1
