# generated using pymatgen
data_HfZrTaTiMo
_symmetry_space_group_name_H-M   'P 1'
_cell_length_a   16.88394060
_cell_length_b   16.88430893
_cell_length_c   16.88752800
_cell_angle_alpha   90.00745786
_cell_angle_beta   89.95131594
_cell_angle_gamma   89.98878939
_symmetry_Int_Tables_number   1
_chemical_formula_structural   HfZrTaTiMo
_chemical_formula_sum   'Hf50 Zr50 Ta50 Ti50 Mo50'
_cell_volume   4814.18769814
_cell_formula_units_Z   50
loop_
 _symmetry_equiv_pos_site_id
 _symmetry_equiv_pos_as_xyz
  1  'x, y, z'
loop_
 _atom_site_type_symbol
 _atom_site_label
 _atom_site_symmetry_multiplicity
 _atom_site_fract_x
 _atom_site_fract_y
 _atom_site_fract_z
 _atom_site_occupancy
  Hf  Hf0  1  0.69606716  0.11387230  0.09977527  1
  Hf  Hf1  1  0.19953557  0.00256885  0.39908128  1
  Hf  Hf2  1  0.80252383  -0.00221074  0.19490489  1
  Hf  Hf3  1  0.70251592  0.30383616  0.49714309  1
  Hf  Hf4  1  0.69575817  0.70862113  0.30138783  1
  Hf  Hf5  1  0.48873533  0.11097121  0.49843201  1
  Hf  Hf6  1  0.69087467  0.29722193  0.29581910  1
  Hf  Hf7  1  0.49547281  0.69867436  0.90434230  1
  Hf  Hf8  1  0.59874125  -0.00460486  0.59491577  1
  Hf  Hf9  1  0.40500435  0.59970909  0.80272208  1
  Hf  Hf10  1  0.80733844  0.79909260  0.79666231  1
  Hf  Hf11  1  0.09350331  0.70211683  0.29588162  1
  Hf  Hf12  1  0.18794800  0.80474464  -0.00271370  1
  Hf  Hf13  1  0.00220709  0.80332158  0.61122358  1
  Hf  Hf14  1  0.90954452  0.09801038  0.89454502  1
  Hf  Hf15  1  -0.01313444  0.60176495  0.01251202  1
  Hf  Hf16  1  0.40028863  0.39506627  0.39310316  1
  Hf  Hf17  1  0.09400243  0.30052436  0.09685138  1
  Hf  Hf18  1  0.90042328  0.10289157  0.09930438  1
  Hf  Hf19  1  0.89363816  0.28919011  0.28994393  1
  Hf  Hf20  1  0.30526876  0.71174582  0.29926892  1
  Hf  Hf21  1  0.50577677  0.29050487  0.90643223  1
  Hf  Hf22  1  0.81478200  0.79622909  0.60839544  1
  Hf  Hf23  1  0.40439557  0.00694518  0.19613516  1
  Hf  Hf24  1  0.88784005  0.68981626  0.90227013  1
  Hf  Hf25  1  -0.00071874  0.39892866  0.40153397  1
  Hf  Hf26  1  0.10677421  0.69952518  0.70776030  1
  Hf  Hf27  1  0.80231176  0.20299735  0.60749174  1
  Hf  Hf28  1  0.19681928  0.59830598  0.39958129  1
  Hf  Hf29  1  0.10271801  0.09886654  0.51056943  1
  Hf  Hf30  1  0.49807312  0.89655623  0.29839586  1
  Hf  Hf31  1  0.08943415  0.49769033  0.90451091  1
  Hf  Hf32  1  0.49631044  0.10101943  0.90504878  1
  Hf  Hf33  1  0.20189765  0.39239001  0.60365313  1
  Hf  Hf34  1  0.09271390  0.49752473  0.10053563  1
  Hf  Hf35  1  0.09354185  0.09153663  0.71446778  1
  Hf  Hf36  1  0.60242322  0.40814535  0.81406368  1
  Hf  Hf37  1  0.90306662  0.90171498  0.30293326  1
  Hf  Hf38  1  0.20331696  0.39331864  0.80181104  1
  Hf  Hf39  1  0.60075910  0.60590877  0.19738353  1
  Hf  Hf40  1  0.00136349  0.80144938  0.80351755  1
  Hf  Hf41  1  0.70183958  0.50210124  0.70203356  1
  Hf  Hf42  1  0.19136983  0.60855768  0.19244644  1
  Hf  Hf43  1  0.41508328  0.40725148  -0.00367073  1
  Hf  Hf44  1  0.00396715  0.19708228  0.39548196  1
  Hf  Hf45  1  0.30011088  0.89982800  0.29047790  1
  Hf  Hf46  1  0.69969093  0.49509388  0.50304207  1
  Hf  Hf47  1  0.50408498  0.50174795  0.70204339  1
  Hf  Hf48  1  0.31241400  0.30342606  0.90289347  1
  Hf  Hf49  1  0.69829347  0.69376076  0.70639242  1
  Zr  Zr50  1  0.10091867  0.49654213  0.50301098  1
  Zr  Zr51  1  0.80546026  0.40390873  0.39960413  1
  Zr  Zr52  1  0.48768474  0.90289463  0.90109499  1
  Zr  Zr53  1  0.30313230  0.70234385  0.70378066  1
  Zr  Zr54  1  0.30027497  0.09546813  0.09192592  1
  Zr  Zr55  1  0.79977147  0.00124427  0.80549426  1
  Zr  Zr56  1  0.50883640  0.29662441  0.48442494  1
  Zr  Zr57  1  0.49469799  0.09544490  0.70217805  1
  Zr  Zr58  1  0.70590262  0.10594383  0.29347241  1
  Zr  Zr59  1  0.19717721  0.19783105  0.80249048  1
  Zr  Zr60  1  0.70049242  0.29472993  0.90713639  1
  Zr  Zr61  1  0.80121472  0.00631694  0.60832851  1
  Zr  Zr62  1  0.09842516  0.89986462  0.29758932  1
  Zr  Zr63  1  0.90290255  0.50182459  0.28963540  1
  Zr  Zr64  1  0.29864403  0.50173583  0.29855749  1
  Zr  Zr65  1  0.57079785  0.80455318  0.43702482  1
  Zr  Zr66  1  0.20081949  0.38939556  0.39681431  1
  Zr  Zr67  1  0.60800063  0.19924914  0.60082523  1
  Zr  Zr68  1  0.90343258  0.09516466  0.49865314  1
  Zr  Zr69  1  0.69606464  0.89459898  0.30346843  1
  Zr  Zr70  1  0.30848800  0.70541935  0.09421337  1
  Zr  Zr71  1  0.70004316  0.69554085  0.08771682  1
  Zr  Zr72  1  0.69994330  0.70302199  0.50782058  1
  Zr  Zr73  1  0.90924157  0.90577451  0.49481286  1
  Zr  Zr74  1  0.10081623  0.70222934  0.50326833  1
  Zr  Zr75  1  0.40834349  0.39156277  0.20261159  1
  Zr  Zr76  1  0.60312529  0.00814566  0.40670398  1
  Zr  Zr77  1  0.60279206  -0.00031190  0.00200859  1
  Zr  Zr78  1  0.80859802  0.80112909  0.19236813  1
  Zr  Zr79  1  0.41011371  0.60361850  0.19868109  1
  Zr  Zr80  1  0.50859855  0.11742702  0.30056362  1
  Zr  Zr81  1  0.29610948  0.10437875  0.50381273  1
  Zr  Zr82  1  0.59749753  0.60229386  0.39886508  1
  Zr  Zr83  1  0.19854312  0.20081383  -0.00711517  1
  Zr  Zr84  1  0.71596130  0.90047212  0.49641492  1
  Zr  Zr85  1  0.29910138  0.50101953  0.09540092  1
  Zr  Zr86  1  0.38559121  0.19212614  0.79713141  1
  Zr  Zr87  1  0.39852429  0.38954924  0.60258194  1
  Zr  Zr88  1  -0.00688865  0.59585879  0.60468082  1
  Zr  Zr89  1  0.69888241  0.89172134  0.90006460  1
  Zr  Zr90  1  0.30788893  0.69864846  0.49516170  1
  Zr  Zr91  1  0.69489783  0.10565924  0.71500646  1
  Zr  Zr92  1  0.41151260  0.80520732  0.58812770  1
  Zr  Zr93  1  0.50958270  0.50584538  0.09245603  1
  Zr  Zr94  1  0.81104767  0.60122196  0.18549617  1
  Zr  Zr95  1  0.30398208  0.50608091  0.90277771  1
  Zr  Zr96  1  0.09988433  0.49695276  0.70775938  1
  Zr  Zr97  1  0.50448110  0.29560400  0.71398969  1
  Zr  Zr98  1  0.20163771  0.20282442  0.20013543  1
  Zr  Zr99  1  0.89099079  0.29755866  0.09111709  1
  Ta  Ta100  1  0.19935664  0.80616777  0.40477482  1
  Ta  Ta101  1  0.59661167  -0.00077597  0.19309951  1
  Ta  Ta102  1  0.80845510  0.59514624  0.59947108  1
  Ta  Ta103  1  0.50656350  0.70186158  0.69818850  1
  Ta  Ta104  1  -0.00141424  0.80215176  0.00070107  1
  Ta  Ta105  1  0.19548864  0.39829149  -0.00166141  1
  Ta  Ta106  1  0.50408066  0.49345468  0.50041778  1
  Ta  Ta107  1  0.00089091  -0.00253865  0.19357616  1
  Ta  Ta108  1  0.59641161  0.79663841  0.00157595  1
  Ta  Ta109  1  0.81529239  0.78829230  0.39887436  1
  Ta  Ta110  1  0.49438945  0.89424573  0.10135497  1
  Ta  Ta111  1  0.19297421  0.60737325  -0.00236765  1
  Ta  Ta112  1  0.40160928  0.20701028  0.19744006  1
  Ta  Ta113  1  0.80027198  -0.00462378  0.00282623  1
  Ta  Ta114  1  0.09842480  0.08869450  0.90348211  1
  Ta  Ta115  1  0.89970147  0.30088768  0.50670330  1
  Ta  Ta116  1  0.89937548  0.30148950  0.70789771  1
  Ta  Ta117  1  0.19216123  0.80564083  0.18589079  1
  Ta  Ta118  1  0.49505017  0.71713224  0.29705430  1
  Ta  Ta119  1  0.80093269  0.39961706  0.80490350  1
  Ta  Ta120  1  0.80594362  0.60083851  0.40248437  1
  Ta  Ta121  1  0.69089536  0.89243414  0.70037915  1
  Ta  Ta122  1  0.29849584  0.09995002  0.29565756  1
  Ta  Ta123  1  0.30569334  0.30173184  0.09328194  1
  Ta  Ta124  1  -0.00691101  0.59631379  0.40019246  1
  Ta  Ta125  1  -0.01167481  0.59755032  0.80212062  1
  Ta  Ta126  1  0.70362962  0.49171832  0.08987898  1
  Ta  Ta127  1  0.30803232  0.50082803  0.50310104  1
  Ta  Ta128  1  0.59476944  0.79775482  0.80239622  1
  Ta  Ta129  1  0.00063702  0.79840259  0.18135275  1
  Ta  Ta130  1  -0.00283639  0.20045827  0.61008834  1
  Ta  Ta131  1  0.80258164  0.19336501  0.40161962  1
  Ta  Ta132  1  0.10203462  0.08921787  0.09508220  1
  Ta  Ta133  1  -0.00956700  0.39639507  0.60334786  1
  Ta  Ta134  1  0.19731276  0.20669711  0.61210793  1
  Ta  Ta135  1  0.09528378  0.30179312  0.29162595  1
  Ta  Ta136  1  0.30595917  0.49619135  0.70375152  1
  Ta  Ta137  1  0.09975945  0.90404095  0.50294214  1
  Ta  Ta138  1  0.20376240  0.80947874  0.60210869  1
  Ta  Ta139  1  -0.00570388  0.39972590  0.19458807  1
  Ta  Ta140  1  0.21000178  0.59613668  0.60473075  1
  Ta  Ta141  1  0.80553925  0.80391773  0.00241273  1
  Ta  Ta142  1  0.50042573  0.89811731  0.70178406  1
  Ta  Ta143  1  0.69952585  0.49723546  0.29339346  1
  Ta  Ta144  1  0.08771138  0.29891947  0.70788628  1
  Ta  Ta145  1  0.59887116  -0.00293995  0.80317334  1
  Ta  Ta146  1  0.00282127  0.19677798  -0.00408090  1
  Ta  Ta147  1  0.69757916  0.30088937  0.09641121  1
  Ta  Ta148  1  0.39733554  0.00050368  0.39895464  1
  Ta  Ta149  1  0.69923810  0.69205201  0.89714942  1
  Ti  Ti150  1  0.39016581  -0.00393953  0.60379813  1
  Ti  Ti151  1  0.60514244  0.39243136  0.60849510  1
  Ti  Ti152  1  0.41034262  0.59994976  0.40000917  1
  Ti  Ti153  1  0.30120598  0.90113391  0.49545282  1
  Ti  Ti154  1  0.70976836  0.50745041  0.90412359  1
  Ti  Ti155  1  0.51189620  0.29171077  0.09298463  1
  Ti  Ti156  1  0.10091000  0.91272506  0.89363323  1
  Ti  Ti157  1  0.79976389  0.19126764  -0.00975672  1
  Ti  Ti158  1  0.00326259  0.00964608  0.38990561  1
  Ti  Ti159  1  0.19997560  0.39617422  0.19871624  1
  Ti  Ti160  1  0.09447980  0.49914884  0.29204046  1
  Ti  Ti161  1  0.29703187  0.29328050  0.49860489  1
  Ti  Ti162  1  -0.01156883  0.40217861  0.80458700  1
  Ti  Ti163  1  0.19650717  0.20286597  0.39533834  1
  Ti  Ti164  1  0.00080753  0.19272390  0.19867538  1
  Ti  Ti165  1  0.90903671  0.69708558  0.29377171  1
  Ti  Ti166  1  0.90233190  0.30219701  0.90282101  1
  Ti  Ti167  1  0.90414821  0.69480967  0.49938718  1
  Ti  Ti168  1  0.91047649  0.91651994  0.71130758  1
  Ti  Ti169  1  0.59834200  0.59663899  -0.00948931  1
  Ti  Ti170  1  0.00216587  -0.00038979  0.61179722  1
  Ti  Ti171  1  0.59558592  0.60322189  0.59674604  1
  Ti  Ti172  1  0.29608382  0.90807366  0.90470408  1
  Ti  Ti173  1  0.29956963  0.08433047  0.90912075  1
  Ti  Ti174  1  0.19981078  -0.01391312  0.61154072  1
  Ti  Ti175  1  0.51110743  0.49394297  0.30334474  1
  Ti  Ti176  1  0.00105462  -0.00813697  0.00555348  1
  Ti  Ti177  1  0.20100706  0.59914849  0.80498092  1
  Ti  Ti178  1  0.69263667  0.89485440  0.10256153  1
  Ti  Ti179  1  0.28805565  0.08937519  0.70058697  1
  Ti  Ti180  1  0.08530653  0.30175359  0.89886570  1
  Ti  Ti181  1  0.80264909  0.20329515  0.80099776  1
  Ti  Ti182  1  0.49904463  0.10860658  0.09246156  1
  Ti  Ti183  1  0.29781119  0.90718838  0.09583819  1
  Ti  Ti184  1  0.29889808  0.70449660  0.90093947  1
  Ti  Ti185  1  0.00092798  0.79535909  0.40362236  1
  Ti  Ti186  1  0.90456247  0.90358220  0.90418821  1
  Ti  Ti187  1  0.39584860  0.80500791  0.79714629  1
  Ti  Ti188  1  0.09680918  0.69571937  0.89846481  1
  Ti  Ti189  1  0.89134799  0.49586885  0.70505850  1
  Ti  Ti190  1  0.10504708  0.09680071  0.28829004  1
  Ti  Ti191  1  0.38713920  -0.00728209  0.79451115  1
  Ti  Ti192  1  0.09477406  0.29357830  0.50598431  1
  Ti  Ti193  1  0.79904417  0.40089786  0.19195513  1
  Ti  Ti194  1  0.20281865  0.81851629  0.79482556  1
  Ti  Ti195  1  0.38707925  0.20957500  0.38266629  1
  Ti  Ti196  1  0.40295085  0.59718869  0.59915347  1
  Ti  Ti197  1  0.38508140  0.20517593  0.61127939  1
  Ti  Ti198  1  0.39782920  0.80404149  0.00145135  1
  Ti  Ti199  1  0.59864935  0.39803549  0.19560235  1
  Mo  Mo200  1  0.59992566  0.19858772  0.00303979  1
  Mo  Mo201  1  0.60749594  0.40145966  0.00269071  1
  Mo  Mo202  1  0.30384656  0.90005946  0.70305330  1
  Mo  Mo203  1  0.80227611  0.40344840  -0.00571528  1
  Mo  Mo204  1  0.40387928  0.40659877  0.80066434  1
  Mo  Mo205  1  0.39421397  0.80597072  0.39960205  1
  Mo  Mo206  1  0.90047100  0.70725718  0.09307828  1
  Mo  Mo207  1  0.61167042  0.20221792  0.40272067  1
  Mo  Mo208  1  0.59481684  0.80150412  0.61020224  1
  Mo  Mo209  1  -0.00314998  0.20466689  0.80519419  1
  Mo  Mo210  1  0.09766346  0.90371464  0.09519951  1
  Mo  Mo211  1  0.20449337  -0.00459213  0.80553977  1
  Mo  Mo212  1  0.79879745  0.20233943  0.19734717  1
  Mo  Mo213  1  0.19788450  -0.00656924  -0.00380750  1
  Mo  Mo214  1  -0.00377598  0.39504767  -0.00280986  1
  Mo  Mo215  1  0.70288935  0.10117932  0.90318860  1
  Mo  Mo216  1  0.29630210  0.30291567  0.70215183  1
  Mo  Mo217  1  0.59373551  0.80059071  0.18758081  1
  Mo  Mo218  1  0.70837868  0.30692248  0.70795137  1
  Mo  Mo219  1  0.70708066  0.10484381  0.49233540  1
  Mo  Mo220  1  0.19673954  0.00024791  0.19530165  1
  Mo  Mo221  1  0.89899248  0.68806736  0.70644726  1
  Mo  Mo222  1  0.00259344  -0.00473495  0.80614296  1
  Mo  Mo223  1  0.40144618  0.19880342  0.00741121  1
  Mo  Mo224  1  0.80466675  0.39811865  0.61025623  1
  Mo  Mo225  1  -0.00039551  0.60063640  0.20049587  1
  Mo  Mo226  1  0.80069014  0.59123609  0.79903385  1
  Mo  Mo227  1  0.80953405  0.00685302  0.39212032  1
  Mo  Mo228  1  0.60652112  0.19326901  0.80997016  1
  Mo  Mo229  1  0.29461115  0.29400681  0.29365623  1
  Mo  Mo230  1  0.50262460  0.70834210  0.09511099  1
  Mo  Mo231  1  0.79778161  0.59449530  -0.00371993  1
  Mo  Mo232  1  0.50841641  0.50690056  0.89890778  1
  Mo  Mo233  1  0.90463882  0.09635795  0.29588871  1
  Mo  Mo234  1  0.89425943  0.49456239  0.90050747  1
  Mo  Mo235  1  0.48430497  0.92440151  0.50583665  1
  Mo  Mo236  1  0.60165923  0.60244548  0.80585888  1
  Mo  Mo237  1  0.90356363  0.90469077  0.09106399  1
  Mo  Mo238  1  0.59994638  0.40633833  0.39233491  1
  Mo  Mo239  1  0.10569570  0.89983915  0.70202490  1
  Mo  Mo240  1  0.50428915  0.30005297  0.29287999  1
  Mo  Mo241  1  0.90757584  0.10797871  0.70735502  1
  Mo  Mo242  1  0.09674774  0.70286254  0.09474526  1
  Mo  Mo243  1  0.89583436  0.48722637  0.09202260  1
  Mo  Mo244  1  0.59418597  0.20596388  0.19401000  1
  Mo  Mo245  1  0.89711068  0.49879184  0.50295184  1
  Mo  Mo246  1  0.49529195  0.67851955  0.50506286  1
  Mo  Mo247  1  0.39857621  0.60688818  -0.00493255  1
  Mo  Mo248  1  0.39663572  -0.00275199  0.00394353  1
  Mo  Mo249  1  0.39737785  0.80643912  0.19245313  1
