# generated using pymatgen
data_HfZrTaTiMo
_symmetry_space_group_name_H-M   'P 1'
_cell_length_a   16.88529650
_cell_length_b   16.88622929
_cell_length_c   16.88042405
_cell_angle_alpha   89.98578530
_cell_angle_beta   89.99470667
_cell_angle_gamma   89.98645485
_symmetry_Int_Tables_number   1
_chemical_formula_structural   HfZrTaTiMo
_chemical_formula_sum   'Hf50 Zr50 Ta50 Ti50 Mo50'
_cell_volume   4813.09792631
_cell_formula_units_Z   50
loop_
 _symmetry_equiv_pos_site_id
 _symmetry_equiv_pos_as_xyz
  1  'x, y, z'
loop_
 _atom_site_type_symbol
 _atom_site_label
 _atom_site_symmetry_multiplicity
 _atom_site_fract_x
 _atom_site_fract_y
 _atom_site_fract_z
 _atom_site_occupancy
  Hf  Hf0  1  0.10102069  0.88452738  0.71510709  1
  Hf  Hf1  1  0.49521217  0.89406445  0.50922088  1
  Hf  Hf2  1  0.59849812  0.60239298  0.79988567  1
  Hf  Hf3  1  0.30307025  0.30105540  0.11245829  1
  Hf  Hf4  1  0.60031882  0.00627855  0.60445755  1
  Hf  Hf5  1  0.20786567  0.60562452  0.80054914  1
  Hf  Hf6  1  0.80065083  0.79428910  0.00544675  1
  Hf  Hf7  1  0.29883076  0.90083335  0.50293596  1
  Hf  Hf8  1  0.59500832  0.00342983  0.79708113  1
  Hf  Hf9  1  0.90087142  0.30331680  0.48569437  1
  Hf  Hf10  1  0.48255924  0.50813920  0.69570167  1
  Hf  Hf11  1  0.70963096  0.30167885  0.30583352  1
  Hf  Hf12  1  0.79425234  0.19521627  0.59739902  1
  Hf  Hf13  1  0.69365987  0.08918839  0.09810588  1
  Hf  Hf14  1  0.40410506  0.81130514  0.79936857  1
  Hf  Hf15  1  0.70700473  0.30220265  0.10060000  1
  Hf  Hf16  1  0.60314883  0.19914516  0.20119067  1
  Hf  Hf17  1  0.80042157  0.59534114  0.00526672  1
  Hf  Hf18  1  0.49719358  0.10192869  0.50131429  1
  Hf  Hf19  1  0.30478129  0.50326994  0.50704690  1
  Hf  Hf20  1  0.89884284  0.69635226  0.89361908  1
  Hf  Hf21  1  0.19766510  0.60395426  0.59687781  1
  Hf  Hf22  1  0.79629412  0.80492162  0.59839725  1
  Hf  Hf23  1  0.19177519  0.00065103  0.19039115  1
  Hf  Hf24  1  0.10649476  0.09829005  0.69962441  1
  Hf  Hf25  1  0.08981718  0.89340501  0.09332130  1
  Hf  Hf26  1  0.11113525  0.48970345  0.68965328  1
  Hf  Hf27  1  0.49181103  0.29944129  0.30527122  1
  Hf  Hf28  1  0.89486057  0.30326541  0.90179819  1
  Hf  Hf29  1  0.70614869  0.50128865  0.89808434  1
  Hf  Hf30  1  0.70468483  0.90308252  0.10757537  1
  Hf  Hf31  1  0.19893812  0.79449521  0.40398894  1
  Hf  Hf32  1  0.39309979  0.40212732  -0.00948555  1
  Hf  Hf33  1  0.20045530  0.60696191  -0.00994462  1
  Hf  Hf34  1  0.30597060  0.09845671  0.89783133  1
  Hf  Hf35  1  0.39928883  0.79750515  0.38980757  1
  Hf  Hf36  1  0.29263667  0.09991312  0.30408931  1
  Hf  Hf37  1  0.10248496  0.30186975  0.69282549  1
  Hf  Hf38  1  0.10421268  0.09575926  0.49377767  1
  Hf  Hf39  1  0.09555133  0.73079162  0.88247249  1
  Hf  Hf40  1  0.39619409  -0.00745520  0.19038260  1
  Hf  Hf41  1  0.40096948  0.19644625  0.61238187  1
  Hf  Hf42  1  0.59600273  0.39279834  0.59824798  1
  Hf  Hf43  1  0.59668733  0.78577952  0.00539367  1
  Hf  Hf44  1  0.49631003  0.69933259  0.50407625  1
  Hf  Hf45  1  0.20059851  0.39767080  -0.00043653  1
  Hf  Hf46  1  -0.00034639  0.59936802  -0.00395242  1
  Hf  Hf47  1  0.00777054  0.20197479  0.00489662  1
  Hf  Hf48  1  0.90017089  0.70176444  0.69987653  1
  Hf  Hf49  1  0.39813566  0.60712217  -0.00152208  1
  Zr  Zr50  1  0.00285367  -0.00001153  0.79982844  1
  Zr  Zr51  1  0.29794263  0.09480757  0.08685624  1
  Zr  Zr52  1  0.90364241  0.88170667  0.29966497  1
  Zr  Zr53  1  0.08722030  0.29140684  0.30892082  1
  Zr  Zr54  1  -0.00781444  -0.00058606  0.39969709  1
  Zr  Zr55  1  0.40484874  0.79996919  0.19637378  1
  Zr  Zr56  1  0.49829394  0.70361572  0.69624154  1
  Zr  Zr57  1  0.60510654  0.59474002  0.19690007  1
  Zr  Zr58  1  0.59241998  0.38467948  0.79305559  1
  Zr  Zr59  1  0.70255355  0.49812595  0.70061310  1
  Zr  Zr60  1  0.50028129  0.10101769  0.29954025  1
  Zr  Zr61  1  0.90095261  0.09767593  0.10007147  1
  Zr  Zr62  1  0.31248431  0.69602264  0.69527667  1
  Zr  Zr63  1  0.69054937  0.90619272  0.90840542  1
  Zr  Zr64  1  0.00154329  0.59943081  0.59343684  1
  Zr  Zr65  1  0.40430676  -0.00799550  0.39063036  1
  Zr  Zr66  1  0.09601352  0.30342301  0.50303726  1
  Zr  Zr67  1  0.08706364  0.70590339  0.29717638  1
  Zr  Zr68  1  0.40468113  0.20939810  -0.01192060  1
  Zr  Zr69  1  0.29898947  0.91228015  0.90522633  1
  Zr  Zr70  1  -0.00075939  0.40095180  0.19902565  1
  Zr  Zr71  1  0.21290318  0.40390176  0.80643596  1
  Zr  Zr72  1  0.69962734  0.09310802  0.30648157  1
  Zr  Zr73  1  -0.00048946  0.20070790  0.80158851  1
  Zr  Zr74  1  0.79342074  0.80819791  0.80423268  1
  Zr  Zr75  1  0.39975974  0.80582431  0.00579948  1
  Zr  Zr76  1  0.00832334  0.59854939  0.79312245  1
  Zr  Zr77  1  0.60459983  0.40261542  0.00195993  1
  Zr  Zr78  1  -0.00740006  0.19277603  0.59894227  1
  Zr  Zr79  1  0.69964704  0.90019525  0.49110423  1
  Zr  Zr80  1  0.51960709  0.91669139  0.09435155  1
  Zr  Zr81  1  0.60239736  0.40913544  0.20475988  1
  Zr  Zr82  1  -0.00430337  0.40426839  0.80421824  1
  Zr  Zr83  1  0.09659338  0.89926318  0.30456320  1
  Zr  Zr84  1  0.70013032  0.70005631  0.70484954  1
  Zr  Zr85  1  0.09521044  0.50762008  0.30614796  1
  Zr  Zr86  1  0.69345019  0.70630037  0.49739943  1
  Zr  Zr87  1  0.79279334  0.19924754  -0.00463805  1
  Zr  Zr88  1  0.70382296  0.29831587  0.49420747  1
  Zr  Zr89  1  0.89632125  0.09760025  0.89729934  1
  Zr  Zr90  1  0.29531022  0.69769540  0.10423526  1
  Zr  Zr91  1  0.19866231  0.40162198  0.40976882  1
  Zr  Zr92  1  0.30207175  0.09253982  0.49962528  1
  Zr  Zr93  1  0.92126126  0.89177394  0.90939258  1
  Zr  Zr94  1  0.21463474  0.20370818  0.79986005  1
  Zr  Zr95  1  0.30386559  0.50228693  0.30002596  1
  Zr  Zr96  1  0.60559391  0.59390774  0.39505276  1
  Zr  Zr97  1  0.49751151  0.30266855  0.10616088  1
  Zr  Zr98  1  0.49921111  0.50443366  0.89805689  1
  Zr  Zr99  1  0.19621876  0.39861511  0.20364122  1
  Ta  Ta100  1  0.21003638  0.19831633  0.59947805  1
  Ta  Ta101  1  0.80153671  0.59834586  0.20614293  1
  Ta  Ta102  1  0.39546915  0.39178232  0.80112755  1
  Ta  Ta103  1  0.89176487  0.30504710  0.69636566  1
  Ta  Ta104  1  0.19982374  0.80192827  0.19400451  1
  Ta  Ta105  1  0.79674914  0.59671935  0.58936008  1
  Ta  Ta106  1  0.60456789  0.79262561  0.20246851  1
  Ta  Ta107  1  0.69885897  0.10393872  0.70536992  1
  Ta  Ta108  1  0.49495355  0.49798272  0.49776359  1
  Ta  Ta109  1  0.40692610  0.00894168  0.78779077  1
  Ta  Ta110  1  0.19906008  -0.00560665  0.60604223  1
  Ta  Ta111  1  0.49962776  0.70173502  0.89518640  1
  Ta  Ta112  1  -0.00917145  0.40638471  0.59698516  1
  Ta  Ta113  1  0.89920175  0.29760558  0.30331049  1
  Ta  Ta114  1  0.00132060  0.40275511  0.00226513  1
  Ta  Ta115  1  0.20177538  0.20091259  0.40221313  1
  Ta  Ta116  1  -0.00174417  -0.00555735  0.60047149  1
  Ta  Ta117  1  0.90013569  0.30090887  0.10638091  1
  Ta  Ta118  1  0.80803411  -0.00122294  0.20932044  1
  Ta  Ta119  1  0.79936464  0.00407227  0.59894633  1
  Ta  Ta120  1  0.89004610  0.50218840  0.70107692  1
  Ta  Ta121  1  0.70214624  0.69315883  0.10439665  1
  Ta  Ta122  1  0.89372487  0.49792381  0.49418514  1
  Ta  Ta123  1  0.50475516  0.09799563  0.09100551  1
  Ta  Ta124  1  0.09423441  0.10475462  0.29988865  1
  Ta  Ta125  1  0.80025591  0.60271298  0.39699973  1
  Ta  Ta126  1  0.79766627  0.40136010  0.59602556  1
  Ta  Ta127  1  0.28811570  0.90056846  0.29752005  1
  Ta  Ta128  1  0.90365056  0.89536559  0.10437638  1
  Ta  Ta129  1  0.40599870  0.60023619  0.19910639  1
  Ta  Ta130  1  0.59926568  0.20321866  0.61134834  1
  Ta  Ta131  1  -0.00194401  0.00614198  0.19920504  1
  Ta  Ta132  1  0.59833026  0.40318121  0.40418004  1
  Ta  Ta133  1  0.20065539  0.80426928  -0.00268676  1
  Ta  Ta134  1  0.10152243  0.49847603  0.90289874  1
  Ta  Ta135  1  0.50306033  0.69611314  0.29715204  1
  Ta  Ta136  1  0.89790425  0.49563107  0.30565635  1
  Ta  Ta137  1  -0.00916126  0.60291270  0.40348874  1
  Ta  Ta138  1  0.89811387  0.90334556  0.69674646  1
  Ta  Ta139  1  0.19890672  0.79722047  0.60349923  1
  Ta  Ta140  1  0.80684832  0.19523185  0.20480136  1
  Ta  Ta141  1  0.39856704  0.39489984  0.60279953  1
  Ta  Ta142  1  0.30019327  0.50185887  0.10431731  1
  Ta  Ta143  1  0.60231105  0.59069571  0.59292902  1
  Ta  Ta144  1  0.90088147  0.89468781  0.50155094  1
  Ta  Ta145  1  0.90288297  0.50035824  0.10353110  1
  Ta  Ta146  1  0.30633768  0.29391457  0.30321492  1
  Ta  Ta147  1  0.10051726  0.50802156  0.09910735  1
  Ta  Ta148  1  0.11381904  0.09505045  0.90600997  1
  Ta  Ta149  1  0.90361977  0.70328876  0.10949326  1
  Ti  Ti150  1  0.49408225  0.29520089  0.49751858  1
  Ti  Ti151  1  0.39990524  0.39726680  0.40459135  1
  Ti  Ti152  1  0.89352428  0.09618731  0.70114746  1
  Ti  Ti153  1  0.79090521  0.20309915  0.79478863  1
  Ti  Ti154  1  0.19574634  0.60292924  0.19930348  1
  Ti  Ti155  1  0.59796414  0.80880391  0.61476917  1
  Ti  Ti156  1  0.80719116  0.40711218  0.00292405  1
  Ti  Ti157  1  0.30135154  0.30426275  0.69693681  1
  Ti  Ti158  1  0.20558248  -0.00359494  0.79649966  1
  Ti  Ti159  1  0.01188633  0.00732926  0.00304222  1
  Ti  Ti160  1  0.09276937  0.70582812  0.50045674  1
  Ti  Ti161  1  0.79924620  0.39786432  0.79755530  1
  Ti  Ti162  1  0.69805095  0.90407325  0.70450557  1
  Ti  Ti163  1  0.60071788  0.20011176  -0.01256974  1
  Ti  Ti164  1  0.89834537  0.09431777  0.49827747  1
  Ti  Ti165  1  0.69607497  0.69486375  0.89991387  1
  Ti  Ti166  1  0.30878416  0.70135030  0.50417958  1
  Ti  Ti167  1  0.79546786  0.00232230  0.79998928  1
  Ti  Ti168  1  0.69979832  0.89946667  0.29806947  1
  Ti  Ti169  1  0.29728585  0.69653711  0.29698673  1
  Ti  Ti170  1  0.80135350  -0.00121367  -0.00273100  1
  Ti  Ti171  1  0.69778600  0.29716566  0.89280068  1
  Ti  Ti172  1  0.60188957  0.19822191  0.40838228  1
  Ti  Ti173  1  0.40062869  0.60392377  0.39697842  1
  Ti  Ti174  1  0.49439595  0.50234991  0.09948164  1
  Ti  Ti175  1  0.19260073  0.19588300  0.19969788  1
  Ti  Ti176  1  0.30550823  0.90154154  0.69344837  1
  Ti  Ti177  1  0.50334550  0.10779525  0.89312595  1
  Ti  Ti178  1  0.30299540  0.29682793  0.49987368  1
  Ti  Ti179  1  0.09287493  0.70319557  0.09965982  1
  Ti  Ti180  1  0.39955765  0.19079736  0.19888817  1
  Ti  Ti181  1  0.10292369  0.30033266  0.89954632  1
  Ti  Ti182  1  0.60045999  0.79730980  0.38708598  1
  Ti  Ti183  1  0.00261222  0.80090797  0.60089021  1
  Ti  Ti184  1  0.19821233  0.20428958  0.00228739  1
  Ti  Ti185  1  0.50160756  0.90854520  0.90373215  1
  Ti  Ti186  1  -0.00786772  0.60161597  0.20252694  1
  Ti  Ti187  1  0.71095766  0.49359223  0.30753810  1
  Ti  Ti188  1  0.09879414  0.89952148  0.50232622  1
  Ti  Ti189  1  0.80262140  0.40559672  0.19834291  1
  Ti  Ti190  1  0.79712366  0.78941212  0.20666076  1
  Ti  Ti191  1  0.80598451  0.18436719  0.39839233  1
  Ti  Ti192  1  0.19389822  0.60462487  0.40838934  1
  Ti  Ti193  1  0.51192446  0.89993211  0.29374614  1
  Ti  Ti194  1  0.89924559  0.70551617  0.49683977  1
  Ti  Ti195  1  0.60024602  -0.00096898  0.40308361  1
  Ti  Ti196  1  0.09732234  0.29665988  0.10621342  1
  Ti  Ti197  1  0.49131668  0.49661065  0.30230349  1
  Ti  Ti198  1  0.79931470  0.78892403  0.39254287  1
  Ti  Ti199  1  0.80266422  0.00023804  0.40185016  1
  Mo  Mo200  1  0.30579166  0.49582962  0.69805075  1
  Mo  Mo201  1  -0.00275823  0.79465064  0.41809171  1
  Mo  Mo202  1  0.49810415  0.90347901  0.69836163  1
  Mo  Mo203  1  0.49309132  0.29750429  0.69928645  1
  Mo  Mo204  1  0.30264852  0.71009403  0.89553131  1
  Mo  Mo205  1  0.10725399  0.90614118  0.90254757  1
  Mo  Mo206  1  0.39943272  -0.00141160  0.61254570  1
  Mo  Mo207  1  0.69817163  0.10300718  0.89342505  1
  Mo  Mo208  1  0.21104284  0.39460038  0.60093310  1
  Mo  Mo209  1  0.79885362  0.40732447  0.39809066  1
  Mo  Mo210  1  0.69907475  0.49855056  0.49811069  1
  Mo  Mo211  1  0.09943654  0.10633934  0.10180003  1
  Mo  Mo212  1  0.21859043  0.80371537  0.79953044  1
  Mo  Mo213  1  0.90058744  0.49442135  0.90107673  1
  Mo  Mo214  1  0.89966530  0.10151652  0.30095216  1
  Mo  Mo215  1  0.60662727  -0.00556311  0.21206308  1
  Mo  Mo216  1  0.50049159  0.29509046  0.89101550  1
  Mo  Mo217  1  0.30035625  0.50456772  0.89967913  1
  Mo  Mo218  1  0.19351587  -0.00203112  0.40061542  1
  Mo  Mo219  1  -0.00649208  0.40936222  0.40415229  1
  Mo  Mo220  1  0.70682108  0.29486466  0.70013468  1
  Mo  Mo221  1  0.39431534  0.20779901  0.40650506  1
  Mo  Mo222  1  0.70005705  0.09769732  0.50057143  1
  Mo  Mo223  1  0.00002458  0.79051941  0.00748266  1
  Mo  Mo224  1  -0.00080725  0.79563173  0.19572622  1
  Mo  Mo225  1  0.28931759  0.89915132  0.09959983  1
  Mo  Mo226  1  0.60094043  0.19862232  0.79996190  1
  Mo  Mo227  1  0.79944940  0.59479874  0.80091857  1
  Mo  Mo228  1  0.39870969  0.41070545  0.20445544  1
  Mo  Mo229  1  0.39559947  0.80326984  0.59769502  1
  Mo  Mo230  1  0.60080568  0.60256020  0.00290076  1
  Mo  Mo231  1  0.50847210  0.68880202  0.10156492  1
  Mo  Mo232  1  0.70237538  0.70361450  0.29758048  1
  Mo  Mo233  1  0.18967712  -0.00221391  -0.00100649  1
  Mo  Mo234  1  0.40843213  0.20449929  0.79514333  1
  Mo  Mo235  1  -0.00423544  0.19993525  0.20097603  1
  Mo  Mo236  1  0.89609187  0.69197075  0.30180404  1
  Mo  Mo237  1  0.40235931  0.59731840  0.58794421  1
  Mo  Mo238  1  0.30014642  0.09071971  0.69907692  1
  Mo  Mo239  1  -0.01175364  0.80173343  0.78807633  1
  Mo  Mo240  1  0.41343777  0.00685954  -0.00879266  1
  Mo  Mo241  1  0.10457390  0.70954078  0.69339031  1
  Mo  Mo242  1  -0.00621556  0.19183545  0.39683175  1
  Mo  Mo243  1  0.50241894  0.10601225  0.70246335  1
  Mo  Mo244  1  0.71461361  0.49936958  0.10071757  1
  Mo  Mo245  1  0.59451186  0.80351441  0.80654298  1
  Mo  Mo246  1  0.30179193  0.29656848  0.89937259  1
  Mo  Mo247  1  0.39357099  0.59805376  0.81253594  1
  Mo  Mo248  1  0.60253232  0.01692092  -0.01439702  1
  Mo  Mo249  1  0.09329195  0.50424567  0.50006992  1
