# generated using pymatgen
data_HfZrTaTiMo
_symmetry_space_group_name_H-M   'P 1'
_cell_length_a   16.88440642
_cell_length_b   16.88848174
_cell_length_c   16.88192412
_cell_angle_alpha   90.03422019
_cell_angle_beta   90.01110949
_cell_angle_gamma   89.99540928
_symmetry_Int_Tables_number   1
_chemical_formula_structural   HfZrTaTiMo
_chemical_formula_sum   'Hf50 Zr50 Ta50 Ti50 Mo50'
_cell_volume   4813.91328523
_cell_formula_units_Z   50
loop_
 _symmetry_equiv_pos_site_id
 _symmetry_equiv_pos_as_xyz
  1  'x, y, z'
loop_
 _atom_site_type_symbol
 _atom_site_label
 _atom_site_symmetry_multiplicity
 _atom_site_fract_x
 _atom_site_fract_y
 _atom_site_fract_z
 _atom_site_occupancy
  Hf  Hf0  1  0.80312460  0.60212478  0.61400584  1
  Hf  Hf1  1  0.19983344  -0.00459984  0.59733102  1
  Hf  Hf2  1  0.58778212  0.59874243  -0.00598506  1
  Hf  Hf3  1  -0.00014119  0.79361559  0.79282282  1
  Hf  Hf4  1  0.39769739  0.60024381  0.39962724  1
  Hf  Hf5  1  0.09262054  0.89584395  0.10699386  1
  Hf  Hf6  1  0.90522235  0.69562841  0.90710058  1
  Hf  Hf7  1  0.79892213  0.40482435  0.39724761  1
  Hf  Hf8  1  0.70525704  0.68975666  0.89746893  1
  Hf  Hf9  1  0.91028588  0.51066205  0.30119126  1
  Hf  Hf10  1  0.60676592  0.00502648  0.60561479  1
  Hf  Hf11  1  0.79886440  0.21305141  0.39816134  1
  Hf  Hf12  1  0.90840479  0.70219080  0.51288378  1
  Hf  Hf13  1  0.09236956  0.09594153  0.69902588  1
  Hf  Hf14  1  0.59842400  0.40172566  -0.00163940  1
  Hf  Hf15  1  0.41037501  -0.00333122  0.21198882  1
  Hf  Hf16  1  0.39264418  -0.00438578  0.59712322  1
  Hf  Hf17  1  0.10435554  0.30874424  0.29201542  1
  Hf  Hf18  1  0.92410556  0.90329555  0.27959650  1
  Hf  Hf19  1  0.59963192  0.59852408  0.39903559  1
  Hf  Hf20  1  0.90494850  0.49638344  0.90547007  1
  Hf  Hf21  1  0.58295737  0.77628664  0.79772543  1
  Hf  Hf22  1  0.50442326  0.49934596  0.70221719  1
  Hf  Hf23  1  0.69508258  0.70225930  0.10626284  1
  Hf  Hf24  1  0.81274566  0.79920757  0.39600662  1
  Hf  Hf25  1  0.70398712  0.10361343  0.09424242  1
  Hf  Hf26  1  0.00174977  0.21739471  0.60845836  1
  Hf  Hf27  1  0.50117500  0.49618399  0.50577144  1
  Hf  Hf28  1  -0.00812556  -0.01288769  0.80180776  1
  Hf  Hf29  1  0.18182993  0.00789697  0.00155241  1
  Hf  Hf30  1  -0.00396460  0.20936592  0.40098217  1
  Hf  Hf31  1  0.91070849  0.50779693  0.50479087  1
  Hf  Hf32  1  0.79955156  0.20268804  -0.01652878  1
  Hf  Hf33  1  0.49045352  0.49947923  0.89168369  1
  Hf  Hf34  1  0.70763004  0.30292973  0.09310329  1
  Hf  Hf35  1  0.49724973  0.30593143  0.89588750  1
  Hf  Hf36  1  0.29348445  0.89700815  0.29823245  1
  Hf  Hf37  1  0.29564992  0.49229620  0.49502896  1
  Hf  Hf38  1  0.10097348  0.69811796  0.49757729  1
  Hf  Hf39  1  0.30915873  0.50204091  0.71280557  1
  Hf  Hf40  1  0.89915502  0.09809835  0.70043160  1
  Hf  Hf41  1  -0.00193395  0.39897349  0.19072884  1
  Hf  Hf42  1  0.00436325  0.81126171  0.40697252  1
  Hf  Hf43  1  0.80325770  0.80818357  0.00373149  1
  Hf  Hf44  1  0.50242971  0.70851535  0.29072201  1
  Hf  Hf45  1  0.68826697  0.88475396  0.29315098  1
  Hf  Hf46  1  0.50316558  0.88373122  0.11114957  1
  Hf  Hf47  1  0.60670451  0.39663454  0.39523190  1
  Hf  Hf48  1  0.59747791  0.40303868  0.20100589  1
  Hf  Hf49  1  0.20189725  0.79440169  -0.00125845  1
  Zr  Zr50  1  0.29798837  0.09991113  0.30006829  1
  Zr  Zr51  1  0.70517834  0.50403109  0.09596631  1
  Zr  Zr52  1  0.20033465  0.19893743  0.40324737  1
  Zr  Zr53  1  0.58936254  0.00249009  0.38956676  1
  Zr  Zr54  1  0.40314316  -0.00627905  0.00285211  1
  Zr  Zr55  1  0.39360517  0.78948392  0.60252367  1
  Zr  Zr56  1  0.70978766  0.10286908  0.29945656  1
  Zr  Zr57  1  0.90258876  0.09392876  0.50158145  1
  Zr  Zr58  1  0.18674497  0.20237486  0.80425397  1
  Zr  Zr59  1  0.59649161  0.20359198  0.60527706  1
  Zr  Zr60  1  0.49235764  0.10173804  0.49786331  1
  Zr  Zr61  1  0.61475684  0.20149267  0.80489036  1
  Zr  Zr62  1  0.18988769  -0.00368192  0.80559909  1
  Zr  Zr63  1  0.59740476  0.79882269  -0.00460330  1
  Zr  Zr64  1  0.49964950  0.89412832  0.69873074  1
  Zr  Zr65  1  0.39646215  0.78856825  -0.01039493  1
  Zr  Zr66  1  0.60573068  0.00239931  0.80090314  1
  Zr  Zr67  1  0.60356958  0.20941311  0.20845666  1
  Zr  Zr68  1  0.69775738  0.69762455  0.29742364  1
  Zr  Zr69  1  0.30285662  0.30222762  0.70483792  1
  Zr  Zr70  1  0.81233871  -0.01088751  0.39843087  1
  Zr  Zr71  1  0.69935278  0.89199521  0.50103650  1
  Zr  Zr72  1  0.59878434  0.00018551  0.19660607  1
  Zr  Zr73  1  0.10507870  0.31578109  0.49927285  1
  Zr  Zr74  1  0.40321117  0.20367358  0.79725899  1
  Zr  Zr75  1  0.29366716  0.89804869  0.10838309  1
  Zr  Zr76  1  0.09312699  0.49935876  0.90647051  1
  Zr  Zr77  1  0.49979080  0.09660236  0.90343753  1
  Zr  Zr78  1  0.70280936  0.89135131  0.88724102  1
  Zr  Zr79  1  0.90909623  0.10120131  0.29269496  1
  Zr  Zr80  1  0.50715240  0.89166863  0.49658879  1
  Zr  Zr81  1  0.30268755  0.09986913  0.89912133  1
  Zr  Zr82  1  0.18897374  0.20576783  -0.00138434  1
  Zr  Zr83  1  0.09249987  0.09445695  0.49948775  1
  Zr  Zr84  1  0.10034755  0.50070411  0.09575945  1
  Zr  Zr85  1  0.30216726  0.30745025  0.49944572  1
  Zr  Zr86  1  0.29568810  0.09982957  0.10839870  1
  Zr  Zr87  1  0.29546735  0.31905380  0.30090758  1
  Zr  Zr88  1  0.19063588  0.40172887  0.80513021  1
  Zr  Zr89  1  0.10060977  0.09636088  0.28662854  1
  Zr  Zr90  1  0.80225213  0.20410529  0.60354097  1
  Zr  Zr91  1  0.80394961  -0.01026533  0.18029126  1
  Zr  Zr92  1  0.09693184  0.50916196  0.50112957  1
  Zr  Zr93  1  0.39899819  0.79996481  0.39957289  1
  Zr  Zr94  1  0.80620426  0.40142265  0.19725603  1
  Zr  Zr95  1  0.69775892  0.70603951  0.50661757  1
  Zr  Zr96  1  0.91523079  0.48977715  0.70250751  1
  Zr  Zr97  1  0.69631467  0.50029282  0.51524664  1
  Zr  Zr98  1  0.19768704  0.79778253  0.59945883  1
  Zr  Zr99  1  0.09957940  0.69193870  0.90693762  1
  Ta  Ta100  1  0.40279017  0.20616860  0.40035718  1
  Ta  Ta101  1  0.70039910  0.30502283  0.50737620  1
  Ta  Ta102  1  0.90822585  0.70005034  0.10052264  1
  Ta  Ta103  1  0.10319921  0.90207552  0.29517680  1
  Ta  Ta104  1  0.80152419  0.59262711  0.79664158  1
  Ta  Ta105  1  0.60219317  0.20889199  0.40181881  1
  Ta  Ta106  1  0.49272013  0.30662917  0.30470582  1
  Ta  Ta107  1  0.90111015  0.31969285  0.50887004  1
  Ta  Ta108  1  0.49106234  0.49582373  0.30078474  1
  Ta  Ta109  1  0.49152947  0.10181643  0.69905035  1
  Ta  Ta110  1  0.40605135  0.39654409  0.60666517  1
  Ta  Ta111  1  0.29673805  0.89743650  0.71041715  1
  Ta  Ta112  1  -0.00002495  0.40397610  0.39638089  1
  Ta  Ta113  1  0.49396043  0.69467007  0.10531188  1
  Ta  Ta114  1  0.39797666  0.21045255  0.00889233  1
  Ta  Ta115  1  0.80857191  0.79866706  0.19465076  1
  Ta  Ta116  1  0.39854046  0.40343764  0.00939471  1
  Ta  Ta117  1  0.81015948  0.60390019  0.19868751  1
  Ta  Ta118  1  0.19550868  -0.00648297  0.40280089  1
  Ta  Ta119  1  0.19410756  0.40629967  0.61491965  1
  Ta  Ta120  1  0.70289515  0.10148405  0.49852366  1
  Ta  Ta121  1  0.09939543  0.69981881  0.30168171  1
  Ta  Ta122  1  0.80551725  0.60364207  0.39827617  1
  Ta  Ta123  1  0.39470307  0.59546385  0.00502510  1
  Ta  Ta124  1  0.39552910  0.60249240  0.60043659  1
  Ta  Ta125  1  0.10429769  0.50323418  0.29973622  1
  Ta  Ta126  1  0.70303971  0.88309172  0.69571714  1
  Ta  Ta127  1  0.30502285  0.31095050  0.90475784  1
  Ta  Ta128  1  -0.00416396  0.19640511  -0.00286058  1
  Ta  Ta129  1  0.29500796  0.49776087  0.10309613  1
  Ta  Ta130  1  0.79906631  -0.00796166  0.60269389  1
  Ta  Ta131  1  0.39411880  0.79349132  0.80319672  1
  Ta  Ta132  1  0.60966398  -0.00263068  0.00186706  1
  Ta  Ta133  1  0.39954468  0.21134730  0.19832618  1
  Ta  Ta134  1  0.39784025  0.40345072  0.19505040  1
  Ta  Ta135  1  0.50123455  0.10867453  0.09925921  1
  Ta  Ta136  1  0.60724656  0.40062537  0.79671779  1
  Ta  Ta137  1  0.70389562  0.30650324  0.70046284  1
  Ta  Ta138  1  0.29407156  0.70158435  0.29745856  1
  Ta  Ta139  1  -0.00463527  0.20747932  0.80361610  1
  Ta  Ta140  1  0.29932184  0.09854427  0.69726163  1
  Ta  Ta141  1  0.08858518  0.89105931  0.90923310  1
  Ta  Ta142  1  0.80519760  -0.00190867  -0.00848412  1
  Ta  Ta143  1  0.60243434  0.19978060  -0.00559814  1
  Ta  Ta144  1  0.19974575  0.20194568  0.60630511  1
  Ta  Ta145  1  0.20185084  0.60038479  0.20058595  1
  Ta  Ta146  1  0.89448233  0.10008164  0.88968797  1
  Ta  Ta147  1  0.20323396  0.59981448  0.61037319  1
  Ta  Ta148  1  0.39441651  0.59396781  0.20071286  1
  Ta  Ta149  1  0.79681688  0.39863988  0.80159571  1
  Ti  Ti150  1  0.20329634  0.59867906  0.39086696  1
  Ti  Ti151  1  0.01286134  0.61247417  0.62283104  1
  Ti  Ti152  1  0.19780655  0.79576256  0.80338895  1
  Ti  Ti153  1  0.20316542  0.39047069  0.01050225  1
  Ti  Ti154  1  0.91637452  0.89196728  0.09081412  1
  Ti  Ti155  1  0.50037249  0.30679251  0.50131621  1
  Ti  Ti156  1  0.30037171  0.49849326  0.90372273  1
  Ti  Ti157  1  0.10016618  0.89108498  0.69729653  1
  Ti  Ti158  1  0.89643914  0.30533649  0.89327304  1
  Ti  Ti159  1  0.89529419  0.88621185  0.68870371  1
  Ti  Ti160  1  0.80779547  0.59494711  0.00644481  1
  Ti  Ti161  1  0.19646225  0.21403448  0.18348805  1
  Ti  Ti162  1  0.50045412  0.29916825  0.10113733  1
  Ti  Ti163  1  0.80028941  0.40321919  0.61038714  1
  Ti  Ti164  1  -0.01417404  0.38884618  0.01128237  1
  Ti  Ti165  1  0.59863827  0.60894583  0.61833001  1
  Ti  Ti166  1  0.41103814  0.61443881  0.79956643  1
  Ti  Ti167  1  0.70460987  0.49903796  0.89812378  1
  Ti  Ti168  1  0.29006205  0.69772963  0.49388265  1
  Ti  Ti169  1  0.39894053  0.20432403  0.60075193  1
  Ti  Ti170  1  0.09187624  0.70038128  0.09944596  1
  Ti  Ti171  1  0.80310043  -0.01030001  0.79817463  1
  Ti  Ti172  1  0.20745600  0.60230427  0.00814504  1
  Ti  Ti173  1  0.49338892  0.11289477  0.30235788  1
  Ti  Ti174  1  0.49754155  0.89890868  0.89701545  1
  Ti  Ti175  1  -0.00228807  0.20877045  0.17714721  1
  Ti  Ti176  1  0.00052628  0.02135017  0.17031636  1
  Ti  Ti177  1  0.70319700  0.50825806  0.29532402  1
  Ti  Ti178  1  0.71250662  0.10056569  0.70650328  1
  Ti  Ti179  1  0.29463453  0.90007488  0.89660226  1
  Ti  Ti180  1  0.39711286  -0.00457305  0.79733032  1
  Ti  Ti181  1  0.18970237  0.59813290  0.79299981  1
  Ti  Ti182  1  0.29465941  0.89837198  0.48989712  1
  Ti  Ti183  1  0.00363376  0.60198467  0.19561318  1
  Ti  Ti184  1  0.59063376  0.59034749  0.19553081  1
  Ti  Ti185  1  -0.00126523  -0.02447467  0.59129497  1
  Ti  Ti186  1  0.70304060  0.70172839  0.70446790  1
  Ti  Ti187  1  -0.00728266  0.00790314  -0.00754024  1
  Ti  Ti188  1  0.81202624  0.79197008  0.79633176  1
  Ti  Ti189  1  0.29714888  0.69746936  0.70766920  1
  Ti  Ti190  1  0.00324243  0.60227241  0.79443321  1
  Ti  Ti191  1  0.29741633  0.68599950  0.89307077  1
  Ti  Ti192  1  0.08599977  0.30848419  0.90380528  1
  Ti  Ti193  1  0.81280878  0.20485228  0.19262667  1
  Ti  Ti194  1  0.19386292  0.79021254  0.20062143  1
  Ti  Ti195  1  0.50845902  0.70078043  0.50747454  1
  Ti  Ti196  1  0.30157620  0.10032916  0.49735379  1
  Ti  Ti197  1  0.91251162  0.70035489  0.29686154  1
  Ti  Ti198  1  0.30383371  0.69911954  0.10960152  1
  Ti  Ti199  1  0.90262571  0.30307523  0.29598837  1
  Mo  Mo200  1  0.49346015  0.69155506  0.69751976  1
  Mo  Mo201  1  0.38969830  0.00624648  0.40025754  1
  Mo  Mo202  1  0.49661861  0.89169041  0.30073785  1
  Mo  Mo203  1  0.29858046  0.30674409  0.10014827  1
  Mo  Mo204  1  0.09660789  0.30190185  0.09495452  1
  Mo  Mo205  1  0.89754086  0.29653488  0.09267437  1
  Mo  Mo206  1  0.19052149  -0.00114217  0.20021054  1
  Mo  Mo207  1  0.00418725  0.78814602  0.19886236  1
  Mo  Mo208  1  0.80270635  0.79697360  0.60776615  1
  Mo  Mo209  1  0.00263054  0.80083796  0.60548495  1
  Mo  Mo210  1  0.29833754  0.50583023  0.29675730  1
  Mo  Mo211  1  0.90074552  0.89997223  0.89892303  1
  Mo  Mo212  1  0.89885234  0.10494865  0.08637531  1
  Mo  Mo213  1  0.60189297  0.78841874  0.60587118  1
  Mo  Mo214  1  0.59900007  0.39195856  0.60510365  1
  Mo  Mo215  1  0.40762100  0.40101038  0.40292584  1
  Mo  Mo216  1  0.60997464  0.59361489  0.79773479  1
  Mo  Mo217  1  0.00583443  0.40209666  0.60465342  1
  Mo  Mo218  1  0.89685400  0.30405906  0.70644905  1
  Mo  Mo219  1  0.00101550  0.79875203  0.00025455  1
  Mo  Mo220  1  0.90050188  0.69658703  0.70735204  1
  Mo  Mo221  1  0.10814253  0.69928596  0.70477770  1
  Mo  Mo222  1  0.00097793  0.60593599  0.39080802  1
  Mo  Mo223  1  0.49082779  0.69149260  0.90287643  1
  Mo  Mo224  1  0.39340716  0.79022316  0.20055626  1
  Mo  Mo225  1  0.70079459  0.31068694  0.89699685  1
  Mo  Mo226  1  0.70138822  0.30162358  0.30150997  1
  Mo  Mo227  1  0.80449808  0.20623457  0.79846321  1
  Mo  Mo228  1  0.07930706  0.09839828  0.89733423  1
  Mo  Mo229  1  0.59421107  0.79662176  0.40051353  1
  Mo  Mo230  1  0.19830800  0.79833419  0.39604631  1
  Mo  Mo231  1  0.10103338  0.89857106  0.49607802  1
  Mo  Mo232  1  -0.00410628  0.60061492  0.01005680  1
  Mo  Mo233  1  0.70736788  0.08996539  0.89842771  1
  Mo  Mo234  1  0.69949649  0.49973316  0.70746842  1
  Mo  Mo235  1  0.90019076  0.89404975  0.51213262  1
  Mo  Mo236  1  0.09577357  0.30441825  0.70252055  1
  Mo  Mo237  1  0.60068164  0.79525073  0.19626662  1
  Mo  Mo238  1  0.50570068  0.30335786  0.69670014  1
  Mo  Mo239  1  0.10273685  0.50289232  0.70321529  1
  Mo  Mo240  1  0.80294443  0.40031399  -0.00938881  1
  Mo  Mo241  1  0.19554047  0.41441478  0.39417792  1
  Mo  Mo242  1  0.00877093  -0.00861181  0.40577736  1
  Mo  Mo243  1  0.90211976  0.50802317  0.09763486  1
  Mo  Mo244  1  0.20080242  0.40863637  0.19639400  1
  Mo  Mo245  1  0.49107593  0.50214864  0.10459220  1
  Mo  Mo246  1  0.09594162  0.10786502  0.09342381  1
  Mo  Mo247  1  0.40181680  0.40192726  0.80444300  1
  Mo  Mo248  1  -0.00214201  0.38882771  0.80145183  1
  Mo  Mo249  1  0.70249195  0.89854936  0.09848840  1
