# generated using pymatgen
data_HfZrTaTiMo
_symmetry_space_group_name_H-M   'P 1'
_cell_length_a   16.89081842
_cell_length_b   16.89406344
_cell_length_c   16.88900110
_cell_angle_alpha   89.95414101
_cell_angle_beta   89.93565871
_cell_angle_gamma   89.94683844
_symmetry_Int_Tables_number   1
_chemical_formula_structural   HfZrTaTiMo
_chemical_formula_sum   'Hf50 Zr50 Ta50 Ti50 Mo50'
_cell_volume   4819.34679073
_cell_formula_units_Z   50
loop_
 _symmetry_equiv_pos_site_id
 _symmetry_equiv_pos_as_xyz
  1  'x, y, z'
loop_
 _atom_site_type_symbol
 _atom_site_label
 _atom_site_symmetry_multiplicity
 _atom_site_fract_x
 _atom_site_fract_y
 _atom_site_fract_z
 _atom_site_occupancy
  Hf  Hf0  1  0.59544931  0.80241491  0.19861436  1
  Hf  Hf1  1  0.40080278  0.59408642  0.19792328  1
  Hf  Hf2  1  0.80482921  0.60464586  0.79918742  1
  Hf  Hf3  1  0.08950866  0.10879006  0.50835579  1
  Hf  Hf4  1  0.09650290  0.50473666  0.69957970  1
  Hf  Hf5  1  0.80324012  0.79676716  0.79711660  1
  Hf  Hf6  1  0.29686845  0.90346486  0.30226593  1
  Hf  Hf7  1  0.10163163  0.10665873  0.70417111  1
  Hf  Hf8  1  0.00333171  0.61386351  0.39834959  1
  Hf  Hf9  1  0.80211584  0.20179681  -0.00886296  1
  Hf  Hf10  1  0.19016059  -0.00156695  0.41229685  1
  Hf  Hf11  1  0.39310447  0.79942113  0.40688353  1
  Hf  Hf12  1  0.09979393  0.68538330  0.09931232  1
  Hf  Hf13  1  0.21438396  0.38041653  0.19597650  1
  Hf  Hf14  1  0.90071530  0.90080257  0.89626635  1
  Hf  Hf15  1  0.70030995  0.09095856  0.89885369  1
  Hf  Hf16  1  0.10223374  0.49745273  0.09459661  1
  Hf  Hf17  1  0.30284876  0.50378067  0.69517805  1
  Hf  Hf18  1  0.29239669  0.49712836  0.90688800  1
  Hf  Hf19  1  0.11019992  0.10824240  0.89954365  1
  Hf  Hf20  1  0.49764087  0.49227315  0.91034054  1
  Hf  Hf21  1  0.18273043  0.00915818  0.21115739  1
  Hf  Hf22  1  0.88722217  0.08753568  0.29498568  1
  Hf  Hf23  1  0.90578059  0.29831166  0.09074839  1
  Hf  Hf24  1  0.50084130  0.31060076  0.49289110  1
  Hf  Hf25  1  0.40458891  0.00247504  0.40518593  1
  Hf  Hf26  1  0.90123627  0.29685205  0.49927618  1
  Hf  Hf27  1  0.10263678  0.50138745  0.28948674  1
  Hf  Hf28  1  0.60662730  0.40181473  0.19547127  1
  Hf  Hf29  1  0.60459604  0.19724031  0.58990579  1
  Hf  Hf30  1  0.28997785  0.70253067  0.90126267  1
  Hf  Hf31  1  0.39723998  0.79969183  0.19590508  1
  Hf  Hf32  1  0.59849790  0.00068970  0.59483826  1
  Hf  Hf33  1  0.19257355  0.79543547  0.41383601  1
  Hf  Hf34  1  0.58991377  0.00844466  0.39999763  1
  Hf  Hf35  1  0.71290268  0.49679701  0.91093861  1
  Hf  Hf36  1  0.39274273  0.60692684  0.01239334  1
  Hf  Hf37  1  -0.00338987  0.79793721  0.00216832  1
  Hf  Hf38  1  0.50525555  0.09624885  0.90311964  1
  Hf  Hf39  1  0.20066389  0.60890128  0.39799768  1
  Hf  Hf40  1  0.59381780  0.80047436  0.39993257  1
  Hf  Hf41  1  0.70098711  0.69621644  0.49876944  1
  Hf  Hf42  1  0.38750292  -0.00369355  0.81260400  1
  Hf  Hf43  1  0.08317487  0.89687955  0.31190403  1
  Hf  Hf44  1  0.70942201  0.91064949  0.29989608  1
  Hf  Hf45  1  0.79974034  0.20208942  0.60476430  1
  Hf  Hf46  1  0.39976238  0.81229394  0.00467780  1
  Hf  Hf47  1  0.10723252  0.89279660  0.89037485  1
  Hf  Hf48  1  0.60154129  0.59015554  0.60132184  1
  Hf  Hf49  1  0.20053151  0.20865736  0.60042250  1
  Zr  Zr50  1  0.10272815  0.50605251  0.50048224  1
  Zr  Zr51  1  0.60089611  0.59436733  0.80197041  1
  Zr  Zr52  1  0.60293020  0.79512760  0.80045016  1
  Zr  Zr53  1  0.70716597  0.89677279  0.49543796  1
  Zr  Zr54  1  0.09589759  0.90652205  0.10453142  1
  Zr  Zr55  1  0.00354704  0.19415244  0.20035838  1
  Zr  Zr56  1  0.20665615  0.80051230  0.01207977  1
  Zr  Zr57  1  0.90505651  0.50244625  0.70461938  1
  Zr  Zr58  1  0.90132471  0.49712825  0.09273894  1
  Zr  Zr59  1  0.00083016  0.78883458  0.20551474  1
  Zr  Zr60  1  0.49838115  0.30088664  0.69782879  1
  Zr  Zr61  1  -0.00200888  0.40375677  0.59552852  1
  Zr  Zr62  1  0.60301734  0.20503462  0.00283581  1
  Zr  Zr63  1  0.30048764  0.30078686  0.70072017  1
  Zr  Zr64  1  0.89314204  0.30955781  0.29489922  1
  Zr  Zr65  1  0.49766876  0.30376123  0.10126078  1
  Zr  Zr66  1  0.60792454  0.40204425  0.60340471  1
  Zr  Zr67  1  0.19340026  0.59786551  0.80072885  1
  Zr  Zr68  1  0.60106859  0.58951503  0.19597578  1
  Zr  Zr69  1  -0.01073137  0.20489450  0.80590660  1
  Zr  Zr70  1  0.39522010  0.19917723  0.80907035  1
  Zr  Zr71  1  0.30833271  0.50625009  0.49900740  1
  Zr  Zr72  1  0.69724149  0.69595411  0.29993022  1
  Zr  Zr73  1  0.09938063  0.11163084  0.09196508  1
  Zr  Zr74  1  0.61187696  0.21354010  0.80144464  1
  Zr  Zr75  1  0.49227703  0.69545492  0.69323624  1
  Zr  Zr76  1  -0.00244569  0.19984806  0.39405451  1
  Zr  Zr77  1  0.00077457  -0.00661674  0.60253270  1
  Zr  Zr78  1  0.29503646  0.10281992  0.50643685  1
  Zr  Zr79  1  0.50018169  0.09879450  0.70213537  1
  Zr  Zr80  1  0.39387414  -0.00446934  0.59614839  1
  Zr  Zr81  1  0.40364465  0.59662708  0.80145382  1
  Zr  Zr82  1  0.59454053  0.80217948  0.00481366  1
  Zr  Zr83  1  0.78645570  0.20403509  0.19587861  1
  Zr  Zr84  1  0.70247413  0.90584390  0.10451986  1
  Zr  Zr85  1  0.38188731  0.22051934  0.19864662  1
  Zr  Zr86  1  0.90972432  0.89011833  0.48959328  1
  Zr  Zr87  1  0.21725648  0.60131161  0.19505127  1
  Zr  Zr88  1  0.49519228  0.49419854  0.31059832  1
  Zr  Zr89  1  0.28693502  0.88617673  0.70521612  1
  Zr  Zr90  1  0.59851964  0.59178625  0.01248723  1
  Zr  Zr91  1  0.80839956  -0.00126915  0.60266816  1
  Zr  Zr92  1  0.90651568  0.49953732  0.29146930  1
  Zr  Zr93  1  -0.00453932  0.00588418  -0.00082846  1
  Zr  Zr94  1  0.49818751  0.89440349  0.70144354  1
  Zr  Zr95  1  0.40356999  0.20262291  0.40300257  1
  Zr  Zr96  1  0.70194997  0.90296779  0.90154512  1
  Zr  Zr97  1  0.71395736  0.09803185  0.48446112  1
  Zr  Zr98  1  0.29023229  0.10632134  0.09698509  1
  Zr  Zr99  1  0.29513735  0.10503995  0.29767874  1
  Ta  Ta100  1  0.89869652  0.90856214  0.11309729  1
  Ta  Ta101  1  0.90387664  0.49306855  0.89747217  1
  Ta  Ta102  1  0.79874646  0.38960140  0.80109585  1
  Ta  Ta103  1  0.38886334  0.79409973  0.59221105  1
  Ta  Ta104  1  0.90008815  0.68958364  0.09931021  1
  Ta  Ta105  1  0.79821776  0.40418566  0.59857089  1
  Ta  Ta106  1  0.10163369  0.71058127  0.69821801  1
  Ta  Ta107  1  0.39804261  0.00084971  0.00404977  1
  Ta  Ta108  1  0.80443430  0.79441699  0.19908081  1
  Ta  Ta109  1  0.19979512  0.39957276  0.59911384  1
  Ta  Ta110  1  0.20233852  0.00039173  0.80008135  1
  Ta  Ta111  1  0.71016665  0.69615793  0.09631834  1
  Ta  Ta112  1  0.80338292  0.59683915  0.59566829  1
  Ta  Ta113  1  0.19360569  0.39368107  -0.00382244  1
  Ta  Ta114  1  0.49528795  0.50295375  0.49849518  1
  Ta  Ta115  1  0.39427470  0.20012097  -0.00588258  1
  Ta  Ta116  1  0.40347858  0.39720971  0.80598869  1
  Ta  Ta117  1  0.60255462  0.39831739  0.80408695  1
  Ta  Ta118  1  0.49525766  0.69268787  0.30728941  1
  Ta  Ta119  1  0.80470116  0.59755083  0.40253746  1
  Ta  Ta120  1  0.80753764  0.80021459  0.00617345  1
  Ta  Ta121  1  0.80943627  0.00473877  0.79264396  1
  Ta  Ta122  1  0.00479673  0.39334978  -0.01141221  1
  Ta  Ta123  1  0.20020874  0.39487339  0.40115311  1
  Ta  Ta124  1  0.09927245  0.30154857  0.50131513  1
  Ta  Ta125  1  0.19388448  0.39759256  0.80092159  1
  Ta  Ta126  1  0.80611382  0.00680214  0.00603012  1
  Ta  Ta127  1  0.50098169  0.30686132  0.29864266  1
  Ta  Ta128  1  0.70723002  0.49733966  0.70485429  1
  Ta  Ta129  1  0.29455110  0.70108624  0.69624904  1
  Ta  Ta130  1  0.80689460  0.78956175  0.60028829  1
  Ta  Ta131  1  0.60625168  0.20793189  0.38822215  1
  Ta  Ta132  1  0.09982767  0.29600237  0.89645518  1
  Ta  Ta133  1  0.19114925  -0.01402435  0.60232134  1
  Ta  Ta134  1  0.09488801  0.30229688  0.70188506  1
  Ta  Ta135  1  0.70838855  0.69673627  0.91197981  1
  Ta  Ta136  1  0.00767966  0.39935409  0.39668653  1
  Ta  Ta137  1  0.79909646  0.20469530  0.79882007  1
  Ta  Ta138  1  0.81098278  0.78955823  0.39493675  1
  Ta  Ta139  1  0.50405270  0.11288192  0.28809436  1
  Ta  Ta140  1  0.10013883  0.69555703  0.90178334  1
  Ta  Ta141  1  0.60031922  0.79525458  0.59665767  1
  Ta  Ta142  1  0.49217161  0.68843920  0.49740428  1
  Ta  Ta143  1  0.90215686  0.30382975  0.70023314  1
  Ta  Ta144  1  0.79866165  0.59641797  0.19620133  1
  Ta  Ta145  1  0.89756469  0.90142014  0.29797671  1
  Ta  Ta146  1  0.19606431  0.20702524  0.39612416  1
  Ta  Ta147  1  0.39463745  0.79943996  0.80882004  1
  Ta  Ta148  1  0.70661166  0.30371026  0.49257554  1
  Ta  Ta149  1  0.20008372  0.79384824  0.20854245  1
  Ti  Ti150  1  0.70679875  0.50006128  0.30326788  1
  Ti  Ti151  1  0.79745192  0.20413313  0.39164708  1
  Ti  Ti152  1  0.70558043  0.30940915  0.08997130  1
  Ti  Ti153  1  0.30432309  0.48505696  0.09458920  1
  Ti  Ti154  1  -0.00219380  0.61369529  0.59119338  1
  Ti  Ti155  1  0.59106118  0.00414668  0.19834262  1
  Ti  Ti156  1  0.49790197  0.89179344  0.50565283  1
  Ti  Ti157  1  0.30658638  0.69884445  0.30390461  1
  Ti  Ti158  1  0.10509315  0.29741610  0.29647282  1
  Ti  Ti159  1  0.21305819  -0.00264098  -0.01141714  1
  Ti  Ti160  1  0.90134857  0.50308073  0.49565908  1
  Ti  Ti161  1  0.49847212  0.10774956  0.10561953  1
  Ti  Ti162  1  0.59029469  -0.00202065  0.01430424  1
  Ti  Ti163  1  0.40603344  0.40823001  0.60377829  1
  Ti  Ti164  1  0.90979733  0.70110580  0.69343921  1
  Ti  Ti165  1  0.69673454  0.09813497  0.29268793  1
  Ti  Ti166  1  0.40409218  0.19593609  0.59474484  1
  Ti  Ti167  1  0.29579340  0.90912554  0.10975494  1
  Ti  Ti168  1  0.90001165  0.69411629  0.90748968  1
  Ti  Ti169  1  0.00305100  0.59196862  -0.01064753  1
  Ti  Ti170  1  0.19997464  0.61454185  0.59311162  1
  Ti  Ti171  1  0.61190012  0.40247569  0.39947807  1
  Ti  Ti172  1  0.70396073  0.89671667  0.69580368  1
  Ti  Ti173  1  0.39506127  0.38623285  -0.00291498  1
  Ti  Ti174  1  0.90858238  0.88950144  0.69927754  1
  Ti  Ti175  1  0.70162035  0.69744663  0.69582886  1
  Ti  Ti176  1  0.69657194  0.09734202  0.10530702  1
  Ti  Ti177  1  0.40468201  0.00307763  0.19549902  1
  Ti  Ti178  1  0.00231059  0.60379801  0.80645954  1
  Ti  Ti179  1  0.90071600  0.69553512  0.29566324  1
  Ti  Ti180  1  0.28931068  0.29395028  0.89902022  1
  Ti  Ti181  1  0.70312867  0.09644193  0.70359819  1
  Ti  Ti182  1  0.01154151  0.39064737  0.19179090  1
  Ti  Ti183  1  0.90097185  0.10022279  0.89958059  1
  Ti  Ti184  1  0.30833254  0.48841647  0.30705095  1
  Ti  Ti185  1  0.50069190  0.70062470  0.10492606  1
  Ti  Ti186  1  0.60434440  0.59143250  0.40448330  1
  Ti  Ti187  1  0.00140285  -0.00172971  0.79483902  1
  Ti  Ti188  1  0.00238742  0.79333788  0.79847800  1
  Ti  Ti189  1  0.30339102  0.30892323  0.49914498  1
  Ti  Ti190  1  -0.00483570  0.00912188  0.40322427  1
  Ti  Ti191  1  0.29305612  0.10164001  0.70372902  1
  Ti  Ti192  1  0.90694020  0.10690703  0.69562708  1
  Ti  Ti193  1  0.79804308  0.40731916  0.40376378  1
  Ti  Ti194  1  0.79044029  0.40353474  0.19450702  1
  Ti  Ti195  1  0.50118668  0.69978040  0.90464834  1
  Ti  Ti196  1  0.50224509  0.90397623  0.90164575  1
  Ti  Ti197  1  0.60344316  0.39898851  0.00148470  1
  Ti  Ti198  1  0.49544366  0.90343861  0.29568261  1
  Ti  Ti199  1  0.60497791  -0.00620993  0.79342434  1
  Mo  Mo200  1  0.70089755  0.30641779  0.90040125  1
  Mo  Mo201  1  0.89925366  0.30417482  0.89638828  1
  Mo  Mo202  1  0.39690335  0.60256205  0.39832321  1
  Mo  Mo203  1  0.39715726  0.40273789  0.19977525  1
  Mo  Mo204  1  0.10073923  0.29935617  0.09152129  1
  Mo  Mo205  1  0.71295709  0.49655783  0.09705148  1
  Mo  Mo206  1  -0.00598016  0.00155884  0.20375384  1
  Mo  Mo207  1  0.80350159  -0.00321380  0.39442413  1
  Mo  Mo208  1  0.09557022  0.89790074  0.70591532  1
  Mo  Mo209  1  0.00070848  0.79601153  0.60250971  1
  Mo  Mo210  1  0.49933193  0.30541366  0.90367628  1
  Mo  Mo211  1  0.19999994  0.20372811  0.79878570  1
  Mo  Mo212  1  0.80886932  0.60313999  -0.00247728  1
  Mo  Mo213  1  0.40107333  0.60125701  0.59852231  1
  Mo  Mo214  1  0.48384065  0.48575787  0.09867625  1
  Mo  Mo215  1  0.49517702  0.91459938  0.10594372  1
  Mo  Mo216  1  0.89631475  0.09960118  0.09845110  1
  Mo  Mo217  1  0.50654343  0.11045866  0.49098889  1
  Mo  Mo218  1  0.00117630  0.40005586  0.80259018  1
  Mo  Mo219  1  0.19914330  0.59005913  0.00029366  1
  Mo  Mo220  1  0.70795050  0.49976265  0.49657546  1
  Mo  Mo221  1  0.19614934  0.79510590  0.80062780  1
  Mo  Mo222  1  0.69846704  0.31050253  0.30657657  1
  Mo  Mo223  1  0.09528406  0.10148518  0.30789649  1
  Mo  Mo224  1  0.80569041  0.39573474  -0.00636859  1
  Mo  Mo225  1  0.09478627  0.89485829  0.50687591  1
  Mo  Mo226  1  0.60323774  0.20221499  0.20276114  1
  Mo  Mo227  1  -0.00215039  0.20453126  -0.00496187  1
  Mo  Mo228  1  0.89793802  0.10264935  0.49383140  1
  Mo  Mo229  1  0.29924568  0.90101494  0.90255278  1
  Mo  Mo230  1  0.19363837  0.20665935  0.20414775  1
  Mo  Mo231  1  0.29567351  0.30023229  0.08004853  1
  Mo  Mo232  1  0.79603931  0.00247752  0.19447861  1
  Mo  Mo233  1  0.29800171  0.69892417  0.50703222  1
  Mo  Mo234  1  0.19307581  0.79986871  0.59956787  1
  Mo  Mo235  1  0.50107791  0.49236140  0.70225245  1
  Mo  Mo236  1  -0.00634392  0.59800143  0.19942512  1
  Mo  Mo237  1  0.39737855  0.40019112  0.40073538  1
  Mo  Mo238  1  0.70880703  0.30487595  0.69785982  1
  Mo  Mo239  1  0.10220325  0.70014085  0.29689036  1
  Mo  Mo240  1  0.29420671  0.89808055  0.50606560  1
  Mo  Mo241  1  0.30001851  0.30579551  0.31784499  1
  Mo  Mo242  1  -0.00352493  0.20532644  0.60442424  1
  Mo  Mo243  1  0.30140255  0.70656362  0.10492788  1
  Mo  Mo244  1  -0.00253255  0.78983110  0.40173230  1
  Mo  Mo245  1  0.09444895  0.49600411  0.89885721  1
  Mo  Mo246  1  0.89805064  0.69635534  0.50255594  1
  Mo  Mo247  1  0.20017318  0.20983875  -0.00477276  1
  Mo  Mo248  1  0.09370871  0.70615042  0.51048616  1
  Mo  Mo249  1  0.29693633  0.09902134  0.90439296  1
