# generated using pymatgen
data_HfZrTaTiMo
_symmetry_space_group_name_H-M   'P 1'
_cell_length_a   16.89878977
_cell_length_b   16.89833352
_cell_length_c   16.89716032
_cell_angle_alpha   89.92869328
_cell_angle_beta   89.94963815
_cell_angle_gamma   90.01067068
_symmetry_Int_Tables_number   1
_chemical_formula_structural   HfZrTaTiMo
_chemical_formula_sum   'Hf50 Zr50 Ta50 Ti50 Mo50'
_cell_volume   4825.17082700
_cell_formula_units_Z   50
loop_
 _symmetry_equiv_pos_site_id
 _symmetry_equiv_pos_as_xyz
  1  'x, y, z'
loop_
 _atom_site_type_symbol
 _atom_site_label
 _atom_site_symmetry_multiplicity
 _atom_site_fract_x
 _atom_site_fract_y
 _atom_site_fract_z
 _atom_site_occupancy
  Hf  Hf0  1  0.79410619  0.59823972  0.59830109  1
  Hf  Hf1  1  -0.00196273  0.40370581  0.39897586  1
  Hf  Hf2  1  0.70170913  0.09949993  0.29017619  1
  Hf  Hf3  1  0.30467155  0.09508068  0.08846309  1
  Hf  Hf4  1  0.10421291  0.09534301  0.30554691  1
  Hf  Hf5  1  0.00297404  0.61109700  0.79956646  1
  Hf  Hf6  1  0.79962210  0.00518300  0.79291410  1
  Hf  Hf7  1  0.09527990  0.30269075  0.29335080  1
  Hf  Hf8  1  0.20717726  0.79381525  0.20677948  1
  Hf  Hf9  1  0.40542528  -0.00438340  0.80236747  1
  Hf  Hf10  1  0.30945614  0.10532892  0.69739583  1
  Hf  Hf11  1  0.90429772  0.90221717  0.89516643  1
  Hf  Hf12  1  0.20286281  0.59875560  0.00653517  1
  Hf  Hf13  1  0.30053806  0.69465344  0.69458335  1
  Hf  Hf14  1  0.39709633  -0.00305251  0.40329803  1
  Hf  Hf15  1  0.49788870  0.49996169  0.09728524  1
  Hf  Hf16  1  0.09871134  0.90332399  0.70524872  1
  Hf  Hf17  1  0.10298656  0.89809658  0.09517299  1
  Hf  Hf18  1  0.39628444  0.80071341  -0.00648690  1
  Hf  Hf19  1  0.50892579  0.90053721  0.50213960  1
  Hf  Hf20  1  0.60523936  -0.00045032  0.81732592  1
  Hf  Hf21  1  0.80218284  0.59404238  0.19212883  1
  Hf  Hf22  1  0.49610303  0.31129274  0.49914035  1
  Hf  Hf23  1  0.39692237  0.80582539  0.60143939  1
  Hf  Hf24  1  0.69313670  0.50260393  0.89945764  1
  Hf  Hf25  1  0.70306070  0.89450236  0.30583781  1
  Hf  Hf26  1  0.70164877  0.70393620  0.30057641  1
  Hf  Hf27  1  0.78786436  0.39731682  0.40910234  1
  Hf  Hf28  1  0.49998323  0.69303476  0.50840169  1
  Hf  Hf29  1  0.49111490  0.70242137  0.10343124  1
  Hf  Hf30  1  0.79112019  0.20741453  -0.00615480  1
  Hf  Hf31  1  0.90352532  0.10109733  0.89032832  1
  Hf  Hf32  1  0.29785450  0.30108868  0.30522513  1
  Hf  Hf33  1  0.39814490  -0.00691034  0.20929129  1
  Hf  Hf34  1  0.89559224  0.70810663  0.09642148  1
  Hf  Hf35  1  0.09350009  0.49356072  0.10637203  1
  Hf  Hf36  1  0.69249607  0.70013511  0.70614007  1
  Hf  Hf37  1  0.50628495  0.10583351  0.69985225  1
  Hf  Hf38  1  0.10756288  0.07774541  0.09709633  1
  Hf  Hf39  1  0.59867689  0.81594794  -0.00102780  1
  Hf  Hf40  1  0.11057377  0.70042785  0.68989930  1
  Hf  Hf41  1  0.90414387  0.50019901  0.90327595  1
  Hf  Hf42  1  0.50844573  0.69312706  0.70135550  1
  Hf  Hf43  1  0.59189583  -0.00816530  0.19593207  1
  Hf  Hf44  1  0.59838243  0.60336709  0.19777191  1
  Hf  Hf45  1  0.00517208  0.39416309  0.60532146  1
  Hf  Hf46  1  -0.01695349  0.01149806  0.60330513  1
  Hf  Hf47  1  0.00593459  0.61074410  0.00363645  1
  Hf  Hf48  1  0.19733983  0.20273684  0.19212513  1
  Hf  Hf49  1  0.68469053  0.50886464  0.71223062  1
  Zr  Zr50  1  0.71184165  0.90568876  0.10123743  1
  Zr  Zr51  1  0.88120640  0.90285167  0.50182198  1
  Zr  Zr52  1  0.10483941  0.50853100  0.49860424  1
  Zr  Zr53  1  0.11481928  0.70097581  0.49333440  1
  Zr  Zr54  1  0.68938181  0.49291648  0.30077267  1
  Zr  Zr55  1  0.60719822  0.20698262  0.41132232  1
  Zr  Zr56  1  0.51067303  0.50170476  0.89331431  1
  Zr  Zr57  1  0.79187139  0.39544834  0.60191556  1
  Zr  Zr58  1  0.70126683  0.70607158  0.90154603  1
  Zr  Zr59  1  0.50952371  0.10465260  0.29856461  1
  Zr  Zr60  1  0.20111032  0.20082276  0.60318302  1
  Zr  Zr61  1  0.00340132  0.19361130  0.00762232  1
  Zr  Zr62  1  0.79294717  0.39147763  0.80596432  1
  Zr  Zr63  1  0.10565161  0.90130119  0.30831860  1
  Zr  Zr64  1  0.79588801  0.39900428  0.00743873  1
  Zr  Zr65  1  0.11067282  0.50890171  0.69306079  1
  Zr  Zr66  1  0.09982762  0.10186556  0.49616322  1
  Zr  Zr67  1  0.69033658  0.09720879  0.09473318  1
  Zr  Zr68  1  0.60331956  0.40405008  0.59521465  1
  Zr  Zr69  1  0.20933476  -0.00030492  0.59669917  1
  Zr  Zr70  1  0.40133739  0.19937769  0.19917019  1
  Zr  Zr71  1  0.50206799  0.09765189  0.51525165  1
  Zr  Zr72  1  0.69088082  0.29687233  0.29358935  1
  Zr  Zr73  1  -0.00689547  0.79573669  0.60284683  1
  Zr  Zr74  1  0.19825375  0.20087549  -0.00154684  1
  Zr  Zr75  1  0.29748209  0.89755523  0.09882865  1
  Zr  Zr76  1  0.40001442  0.80686960  0.80263467  1
  Zr  Zr77  1  0.93063189  0.32416545  0.11002087  1
  Zr  Zr78  1  0.00312848  0.79177330  0.19864896  1
  Zr  Zr79  1  0.90051432  0.49876463  0.70413489  1
  Zr  Zr80  1  0.90816190  0.29854888  0.89759327  1
  Zr  Zr81  1  0.10223341  0.29437852  0.49336045  1
  Zr  Zr82  1  0.38804795  0.80085234  0.40267454  1
  Zr  Zr83  1  -0.00497048  0.18361802  0.19734698  1
  Zr  Zr84  1  0.79916188  0.40320436  0.19235945  1
  Zr  Zr85  1  0.41637242  -0.00632595  -0.00874476  1
  Zr  Zr86  1  -0.01076050  0.79827557  0.39359602  1
  Zr  Zr87  1  -0.00670691  0.60109295  0.39246391  1
  Zr  Zr88  1  -0.02552102  -0.01374339  0.20554742  1
  Zr  Zr89  1  0.30250388  0.30359407  0.50232150  1
  Zr  Zr90  1  0.89732027  0.28658505  0.50747930  1
  Zr  Zr91  1  0.39705618  0.19375325  0.40797641  1
  Zr  Zr92  1  0.09892791  0.90011169  0.49789702  1
  Zr  Zr93  1  0.39832246  0.59506143  0.80020404  1
  Zr  Zr94  1  0.49672013  0.48975301  0.30840363  1
  Zr  Zr95  1  0.10644233  0.50066220  0.89404787  1
  Zr  Zr96  1  0.39372147  0.40677437  -0.00462511  1
  Zr  Zr97  1  0.71169907  0.09582608  0.51203214  1
  Zr  Zr98  1  0.79312477  0.80232350  0.60405299  1
  Zr  Zr99  1  0.80536399  0.20274082  0.18648864  1
  Ta  Ta100  1  0.59379531  0.79901953  0.20187981  1
  Ta  Ta101  1  0.19806173  0.79790543  0.80719085  1
  Ta  Ta102  1  0.19928709  0.59717398  0.20216920  1
  Ta  Ta103  1  0.80297362  0.60603298  0.80656555  1
  Ta  Ta104  1  0.79483446  0.59521573  0.40157572  1
  Ta  Ta105  1  0.39312326  0.40172399  0.19800134  1
  Ta  Ta106  1  0.29903929  0.69716839  0.90205605  1
  Ta  Ta107  1  0.40324006  0.20459617  0.79965487  1
  Ta  Ta108  1  0.20148184  0.20179346  0.79695215  1
  Ta  Ta109  1  0.59929955  0.20210120  -0.00693769  1
  Ta  Ta110  1  0.69424656  0.70067751  0.49802687  1
  Ta  Ta111  1  -0.01101313  0.19152643  0.39581386  1
  Ta  Ta112  1  0.00792874  0.79683585  -0.00620036  1
  Ta  Ta113  1  0.19322305  0.79080611  -0.00384296  1
  Ta  Ta114  1  0.30153662  0.49606251  0.69468637  1
  Ta  Ta115  1  0.30777241  0.30187721  0.69769762  1
  Ta  Ta116  1  0.79923096  0.59875663  0.00493040  1
  Ta  Ta117  1  0.00018817  0.60047309  0.20221246  1
  Ta  Ta118  1  0.50206745  0.69834314  0.90236699  1
  Ta  Ta119  1  -0.01867753  0.00764907  0.39897388  1
  Ta  Ta120  1  0.39218479  0.59290153  0.41210382  1
  Ta  Ta121  1  0.00907750  0.19880706  0.79472754  1
  Ta  Ta122  1  0.40300951  0.39731252  0.79269854  1
  Ta  Ta123  1  0.39084495  0.59628400  0.20493479  1
  Ta  Ta124  1  0.30328327  0.29683705  0.89665223  1
  Ta  Ta125  1  0.70284649  0.10956486  0.70317382  1
  Ta  Ta126  1  0.29045541  0.10236035  0.30743723  1
  Ta  Ta127  1  0.59850592  0.59359286  0.40938491  1
  Ta  Ta128  1  0.10627359  0.29745184  0.89775813  1
  Ta  Ta129  1  0.89661949  0.50113889  0.50013635  1
  Ta  Ta130  1  0.89999833  0.30026128  0.30123125  1
  Ta  Ta131  1  0.20323241  0.39877932  0.00154450  1
  Ta  Ta132  1  0.09486079  0.09853074  0.70406261  1
  Ta  Ta133  1  0.30432606  0.30179337  0.09511868  1
  Ta  Ta134  1  0.20423355  0.40433459  0.19731733  1
  Ta  Ta135  1  0.20137756  0.41116251  0.39567498  1
  Ta  Ta136  1  0.00645115  0.79708177  0.80556469  1
  Ta  Ta137  1  0.60559192  0.21287623  0.60608645  1
  Ta  Ta138  1  0.30204616  0.69787313  0.10397401  1
  Ta  Ta139  1  -0.01282234  0.60629188  0.59585948  1
  Ta  Ta140  1  0.30021169  0.10174848  0.89711939  1
  Ta  Ta141  1  0.49829931  0.30054534  0.89691753  1
  Ta  Ta142  1  0.80126479  0.00324211  0.39531253  1
  Ta  Ta143  1  0.60396802  0.60951547  0.00521005  1
  Ta  Ta144  1  0.01293354  0.39047729  0.79319138  1
  Ta  Ta145  1  0.49466646  0.29661192  0.09169850  1
  Ta  Ta146  1  0.10168133  0.09180144  0.89334911  1
  Ta  Ta147  1  0.90077254  0.28588101  0.70207427  1
  Ta  Ta148  1  0.49470245  0.69549626  0.30397975  1
  Ta  Ta149  1  0.20537567  0.39282700  0.79536983  1
  Ti  Ti150  1  0.59916644  0.79571986  0.40187523  1
  Ti  Ti151  1  0.40301877  0.41039096  0.60137194  1
  Ti  Ti152  1  0.30051958  0.69394164  0.30677514  1
  Ti  Ti153  1  0.39389535  -0.00620368  0.59709509  1
  Ti  Ti154  1  0.50047243  0.10957003  0.90378606  1
  Ti  Ti155  1  0.59268930  0.38988571  0.18839841  1
  Ti  Ti156  1  0.49892181  0.88665845  0.30099467  1
  Ti  Ti157  1  0.01342765  0.40073525  -0.00841040  1
  Ti  Ti158  1  0.80312592  0.80834310  -0.00431136  1
  Ti  Ti159  1  0.28853174  0.90392797  0.90215138  1
  Ti  Ti160  1  0.21123719  -0.00494850  0.20956072  1
  Ti  Ti161  1  0.29457413  0.89962894  0.70443230  1
  Ti  Ti162  1  0.70175274  0.29436236  0.70680724  1
  Ti  Ti163  1  0.78276399  0.00100832  -0.02192352  1
  Ti  Ti164  1  0.70440182  0.71111997  0.10307185  1
  Ti  Ti165  1  0.29886925  0.50141307  0.30392060  1
  Ti  Ti166  1  0.88624439  0.69932862  0.49365587  1
  Ti  Ti167  1  0.11168970  0.69127199  0.30603691  1
  Ti  Ti168  1  0.21689949  -0.00679053  0.40770698  1
  Ti  Ti169  1  0.68945493  0.49767500  0.09468011  1
  Ti  Ti170  1  0.20352384  0.60391368  0.80257887  1
  Ti  Ti171  1  0.59840398  0.80992678  0.80676156  1
  Ti  Ti172  1  0.80015442  0.80569209  0.80252082  1
  Ti  Ti173  1  0.89750745  0.70425368  0.90069321  1
  Ti  Ti174  1  0.50428866  0.50551174  0.69785117  1
  Ti  Ti175  1  0.90255838  0.90264519  0.70600485  1
  Ti  Ti176  1  0.21376428  0.80623194  0.58842809  1
  Ti  Ti177  1  0.61295059  -0.00468800  0.60648703  1
  Ti  Ti178  1  0.39427132  0.59773568  0.00156362  1
  Ti  Ti179  1  0.81703548  0.81998525  0.20290849  1
  Ti  Ti180  1  0.88123249  0.07482529  0.09439470  1
  Ti  Ti181  1  0.60237660  0.20848554  0.80512212  1
  Ti  Ti182  1  0.70103418  0.90303250  0.70135296  1
  Ti  Ti183  1  -0.00283029  -0.00515812  -0.00282001  1
  Ti  Ti184  1  0.22749286  0.59546240  0.57914961  1
  Ti  Ti185  1  0.49296321  0.89220445  0.10560716  1
  Ti  Ti186  1  0.50721871  0.90311104  0.69902057  1
  Ti  Ti187  1  0.60188118  0.39034076  -0.00439169  1
  Ti  Ti188  1  0.80316910  0.19497324  0.40011105  1
  Ti  Ti189  1  0.88631441  0.70190532  0.30023897  1
  Ti  Ti190  1  0.89562312  0.70366995  0.70598641  1
  Ti  Ti191  1  0.10186712  0.90675504  0.89744942  1
  Ti  Ti192  1  0.29681952  0.49769218  0.89207125  1
  Ti  Ti193  1  0.60520115  0.80572173  0.60017076  1
  Ti  Ti194  1  0.60646184  -0.00268938  0.40324931  1
  Ti  Ti195  1  0.20164414  0.39929265  0.60124324  1
  Ti  Ti196  1  0.49980842  0.30572826  0.30158033  1
  Ti  Ti197  1  0.89835724  0.49573159  0.29654653  1
  Ti  Ti198  1  0.20275636  0.00301362  0.80066339  1
  Ti  Ti199  1  0.50114333  0.10600496  0.09252345  1
  Mo  Mo200  1  0.40105372  0.79173439  0.20849864  1
  Mo  Mo201  1  0.68760581  0.30096469  0.89690366  1
  Mo  Mo202  1  0.00255373  0.00082322  0.79788994  1
  Mo  Mo203  1  -0.00291087  0.19559597  0.60673472  1
  Mo  Mo204  1  0.79866984  -0.00283947  0.20401068  1
  Mo  Mo205  1  0.10648189  0.50311538  0.29768377  1
  Mo  Mo206  1  0.89439108  0.10154328  0.49980086  1
  Mo  Mo207  1  0.79547693  -0.00031615  0.60951872  1
  Mo  Mo208  1  0.00300363  0.41508227  0.21557296  1
  Mo  Mo209  1  0.21145956  0.59812490  0.39314648  1
  Mo  Mo210  1  0.30319139  0.09909342  0.50018658  1
  Mo  Mo211  1  0.69188469  0.90021851  0.49764041  1
  Mo  Mo212  1  0.59893705  0.61092413  0.80686017  1
  Mo  Mo213  1  0.59604122  0.40202538  0.40452813  1
  Mo  Mo214  1  0.29961713  0.50138464  0.10767322  1
  Mo  Mo215  1  0.59068017  0.20905967  0.18622731  1
  Mo  Mo216  1  0.89168484  0.89679845  0.31175390  1
  Mo  Mo217  1  0.30453746  0.49225688  0.49876331  1
  Mo  Mo218  1  0.39589073  0.40465108  0.39587328  1
  Mo  Mo219  1  0.59996069  0.59854982  0.59523566  1
  Mo  Mo220  1  0.10540567  0.29633458  0.70249031  1
  Mo  Mo221  1  0.30549910  0.69779419  0.49913067  1
  Mo  Mo222  1  0.49839263  0.30167729  0.70076612  1
  Mo  Mo223  1  0.89743201  0.10979631  0.69738892  1
  Mo  Mo224  1  0.59701719  0.00707132  -0.00149885  1
  Mo  Mo225  1  0.40258177  0.58864468  0.60016142  1
  Mo  Mo226  1  0.90770756  0.51162231  0.09876355  1
  Mo  Mo227  1  0.10668587  0.70252194  0.89727330  1
  Mo  Mo228  1  0.10971838  0.31277463  0.09756010  1
  Mo  Mo229  1  0.10505834  0.69915678  0.10445994  1
  Mo  Mo230  1  0.49719950  0.50133489  0.50261753  1
  Mo  Mo231  1  0.79191098  0.79122093  0.40360423  1
  Mo  Mo232  1  0.59152217  0.38658924  0.79311247  1
  Mo  Mo233  1  0.70439990  0.89985482  0.89576044  1
  Mo  Mo234  1  0.40308810  0.19988881  -0.00828677  1
  Mo  Mo235  1  0.69775577  0.10758583  0.89546589  1
  Mo  Mo236  1  0.30088455  0.89845271  0.50033719  1
  Mo  Mo237  1  0.90003897  0.90008814  0.07757775  1
  Mo  Mo238  1  0.67989975  0.30020016  0.09575330  1
  Mo  Mo239  1  0.79643258  0.19902132  0.80062977  1
  Mo  Mo240  1  0.19606864  0.19861225  0.39713206  1
  Mo  Mo241  1  0.89044622  0.10263496  0.30153709  1
  Mo  Mo242  1  0.40924417  0.20904771  0.60833977  1
  Mo  Mo243  1  0.69631453  0.50670639  0.49900765  1
  Mo  Mo244  1  0.79881830  0.19727631  0.61028524  1
  Mo  Mo245  1  0.50660966  0.89480629  0.89885349  1
  Mo  Mo246  1  0.29906374  0.90212255  0.30299523  1
  Mo  Mo247  1  0.70264526  0.29350380  0.50544261  1
  Mo  Mo248  1  0.20556847  0.79528139  0.39936070  1
  Mo  Mo249  1  0.19816690  -0.00468891  -0.01560842  1
