# generated using pymatgen
data_HfZrTaTiMo
_symmetry_space_group_name_H-M   'P 1'
_cell_length_a   16.88530254
_cell_length_b   16.89109277
_cell_length_c   16.88365060
_cell_angle_alpha   89.93949770
_cell_angle_beta   90.01266366
_cell_angle_gamma   90.02960104
_symmetry_Int_Tables_number   1
_chemical_formula_structural   HfZrTaTiMo
_chemical_formula_sum   'Hf50 Zr50 Ta50 Ti50 Mo50'
_cell_volume   4815.40299869
_cell_formula_units_Z   50
loop_
 _symmetry_equiv_pos_site_id
 _symmetry_equiv_pos_as_xyz
  1  'x, y, z'
loop_
 _atom_site_type_symbol
 _atom_site_label
 _atom_site_symmetry_multiplicity
 _atom_site_fract_x
 _atom_site_fract_y
 _atom_site_fract_z
 _atom_site_occupancy
  Hf  Hf0  1  0.30177107  0.10597730  0.69607443  1
  Hf  Hf1  1  0.61037083  -0.00108774  0.00191822  1
  Hf  Hf2  1  0.49925863  0.10147243  0.09462421  1
  Hf  Hf3  1  -0.00664674  0.80227556  0.60197034  1
  Hf  Hf4  1  0.39655130  0.79553864  0.80420985  1
  Hf  Hf5  1  0.70269939  0.89675749  0.49719440  1
  Hf  Hf6  1  0.50745240  0.10247677  0.29734726  1
  Hf  Hf7  1  0.30722678  0.49657057  0.70985891  1
  Hf  Hf8  1  -0.00469512  0.20267285  0.39640977  1
  Hf  Hf9  1  0.79578702  0.20194044  0.40069516  1
  Hf  Hf10  1  0.49497130  0.89466065  0.09888056  1
  Hf  Hf11  1  0.20329326  -0.00723027  0.00481914  1
  Hf  Hf12  1  0.48946086  0.69013335  0.90634167  1
  Hf  Hf13  1  0.49776727  0.90569667  0.69781946  1
  Hf  Hf14  1  -0.00611548  0.40877953  0.40397097  1
  Hf  Hf15  1  0.70719190  0.69238880  0.69554976  1
  Hf  Hf16  1  0.10052120  0.70582887  0.71101499  1
  Hf  Hf17  1  0.50143918  0.09560125  0.49920726  1
  Hf  Hf18  1  0.89442027  0.70065688  0.29243020  1
  Hf  Hf19  1  0.40044815  0.40776246  0.39839191  1
  Hf  Hf20  1  0.60063763  0.59759030  0.00022807  1
  Hf  Hf21  1  0.89490522  0.09554956  0.29492547  1
  Hf  Hf22  1  0.18654780  0.19457487  0.80435495  1
  Hf  Hf23  1  0.61043947  -0.01140168  0.19843176  1
  Hf  Hf24  1  0.38742895  0.79204033  0.00948434  1
  Hf  Hf25  1  0.60433367  0.39895838  0.58998792  1
  Hf  Hf26  1  0.79984208  0.20754044  0.19373147  1
  Hf  Hf27  1  0.69485863  0.90166750  0.69316283  1
  Hf  Hf28  1  0.39987838  -0.01059234  0.38939563  1
  Hf  Hf29  1  0.69777673  0.30382614  0.70767963  1
  Hf  Hf30  1  0.50207567  0.50426668  0.10463189  1
  Hf  Hf31  1  0.69742537  0.31089566  0.29339915  1
  Hf  Hf32  1  0.19597254  0.59669085  0.60164233  1
  Hf  Hf33  1  0.20185875  0.60532641  0.38718171  1
  Hf  Hf34  1  0.00330927  0.40814890  0.60483960  1
  Hf  Hf35  1  0.39208809  0.20148935  0.19656989  1
  Hf  Hf36  1  0.89909816  0.50183470  0.70595839  1
  Hf  Hf37  1  0.20099749  0.60479645  0.81447208  1
  Hf  Hf38  1  0.50649780  0.30685265  0.29579007  1
  Hf  Hf39  1  0.19556042  0.00289071  0.80410671  1
  Hf  Hf40  1  0.89145904  0.69946138  0.49982515  1
  Hf  Hf41  1  0.39399339  -0.00781795  0.19510944  1
  Hf  Hf42  1  0.80012441  0.20105080  0.60252048  1
  Hf  Hf43  1  0.69572611  0.08775677  0.49876112  1
  Hf  Hf44  1  0.90145767  0.30057781  0.50862429  1
  Hf  Hf45  1  0.29158485  0.31166084  0.90178781  1
  Hf  Hf46  1  0.40170947  0.60070886  0.39364939  1
  Hf  Hf47  1  0.80727574  0.19670391  0.80312219  1
  Hf  Hf48  1  0.20398092  0.20618257  0.19066431  1
  Hf  Hf49  1  0.10314570  0.87285543  0.89762110  1
  Zr  Zr50  1  0.79168762  0.58881795  0.39918710  1
  Zr  Zr51  1  0.10214167  0.89453245  0.69944333  1
  Zr  Zr52  1  0.38860785  0.40766157  0.19781993  1
  Zr  Zr53  1  0.10363053  0.90299989  0.49392624  1
  Zr  Zr54  1  0.00624726  0.21391162  0.19921458  1
  Zr  Zr55  1  0.70351276  0.70121535  0.49814244  1
  Zr  Zr56  1  0.09223055  0.50699151  0.29411557  1
  Zr  Zr57  1  0.69170028  0.09815239  0.69411870  1
  Zr  Zr58  1  0.49746049  0.29783877  0.71356409  1
  Zr  Zr59  1  0.49720537  0.49831701  0.70978552  1
  Zr  Zr60  1  0.80544785  -0.00053720  0.80080475  1
  Zr  Zr61  1  0.80227382  -0.00579581  0.00622065  1
  Zr  Zr62  1  0.29710401  0.89917190  0.49469024  1
  Zr  Zr63  1  0.49553504  0.29694270  0.90501932  1
  Zr  Zr64  1  0.29600095  0.09711746  0.30778709  1
  Zr  Zr65  1  0.71195310  0.49595378  0.90266219  1
  Zr  Zr66  1  0.10692758  0.10280436  0.09581805  1
  Zr  Zr67  1  0.10040369  0.08897854  0.30218913  1
  Zr  Zr68  1  0.00531476  -0.01001559  -0.00351750  1
  Zr  Zr69  1  0.29061242  0.31038725  0.30554540  1
  Zr  Zr70  1  0.00101059  0.00957079  0.79411793  1
  Zr  Zr71  1  0.60537902  0.39749829  0.00291863  1
  Zr  Zr72  1  0.58816174  0.78317875  0.59772752  1
  Zr  Zr73  1  0.38725784  0.60095174  0.20526796  1
  Zr  Zr74  1  0.40613206  0.39863397  0.59346380  1
  Zr  Zr75  1  0.00470119  0.20639601  -0.00874127  1
  Zr  Zr76  1  0.80751728  0.60689411  0.80570724  1
  Zr  Zr77  1  0.60054968  0.00306985  0.81172838  1
  Zr  Zr78  1  0.90819910  0.49262300  0.90383963  1
  Zr  Zr79  1  0.90253620  0.09800692  0.10162379  1
  Zr  Zr80  1  0.29457551  0.30082886  0.50745875  1
  Zr  Zr81  1  0.49296769  0.10497404  0.91106781  1
  Zr  Zr82  1  0.70292911  0.69830031  0.10474662  1
  Zr  Zr83  1  0.79320737  0.40536305  0.40821963  1
  Zr  Zr84  1  0.10037417  0.30365287  0.50512191  1
  Zr  Zr85  1  0.70410773  0.70123078  0.90337155  1
  Zr  Zr86  1  0.20407942  -0.02209608  0.20360639  1
  Zr  Zr87  1  0.19471563  0.20467653  0.39999382  1
  Zr  Zr88  1  0.50204360  0.29710216  0.09710583  1
  Zr  Zr89  1  0.50563251  0.90031180  0.49865229  1
  Zr  Zr90  1  0.89917929  0.50130971  0.28561753  1
  Zr  Zr91  1  0.10117742  0.70151281  0.49592909  1
  Zr  Zr92  1  -0.00081944  -0.02175145  0.19810468  1
  Zr  Zr93  1  0.09831495  0.31630873  0.89569083  1
  Zr  Zr94  1  0.00054131  0.80146923  0.38596007  1
  Zr  Zr95  1  0.30366916  0.69468420  0.70167984  1
  Zr  Zr96  1  0.29834245  0.89536258  0.69903431  1
  Zr  Zr97  1  0.59699306  0.79433634  0.80207830  1
  Zr  Zr98  1  0.09867258  0.09482970  0.50163659  1
  Zr  Zr99  1  0.49884650  0.10385626  0.69902593  1
  Ta  Ta100  1  0.59844047  0.21136784  0.58535193  1
  Ta  Ta101  1  0.30004489  0.09951410  0.50156611  1
  Ta  Ta102  1  0.90636029  0.10604919  0.90028434  1
  Ta  Ta103  1  0.39317336  0.00154380  0.80918418  1
  Ta  Ta104  1  0.51845859  0.49773482  0.29681548  1
  Ta  Ta105  1  0.40388511  0.79237780  0.39021382  1
  Ta  Ta106  1  0.40372764  0.78657053  0.59056766  1
  Ta  Ta107  1  0.19773872  0.41767195  0.19376532  1
  Ta  Ta108  1  0.10919770  0.31636215  0.08945985  1
  Ta  Ta109  1  0.60064075  0.80121474  0.00646369  1
  Ta  Ta110  1  0.70180938  0.09659875  0.29654803  1
  Ta  Ta111  1  0.70573395  0.49696864  0.10385130  1
  Ta  Ta112  1  0.49635337  0.69623143  0.10503231  1
  Ta  Ta113  1  0.61015019  0.20187654  0.19318936  1
  Ta  Ta114  1  -0.00040803  0.59675534  0.60031285  1
  Ta  Ta115  1  0.49227006  0.90076386  0.90856009  1
  Ta  Ta116  1  0.19861522  0.60680085  0.19489237  1
  Ta  Ta117  1  0.38712651  0.19951645  0.80664742  1
  Ta  Ta118  1  0.90078451  0.09188309  0.50087156  1
  Ta  Ta119  1  0.60001075  0.80006865  0.20173433  1
  Ta  Ta120  1  0.29469130  0.09969290  0.90868937  1
  Ta  Ta121  1  0.90111138  0.31368801  0.09365388  1
  Ta  Ta122  1  0.79912004  -0.00543881  0.39284148  1
  Ta  Ta123  1  0.40695000  0.60126889  0.58642998  1
  Ta  Ta124  1  0.00368137  0.79475346  0.19446317  1
  Ta  Ta125  1  0.29339346  0.50155884  0.49760939  1
  Ta  Ta126  1  0.70263591  0.89239018  0.90290364  1
  Ta  Ta127  1  0.40685218  0.20510695  0.40537084  1
  Ta  Ta128  1  0.30088558  0.70056928  0.49333552  1
  Ta  Ta129  1  0.59844245  0.59506252  0.79967799  1
  Ta  Ta130  1  0.19830647  0.00707331  0.60263854  1
  Ta  Ta131  1  0.79782045  0.40536349  0.59985269  1
  Ta  Ta132  1  0.70592911  0.29900194  0.90569449  1
  Ta  Ta133  1  0.89328860  0.90106741  0.49637705  1
  Ta  Ta134  1  0.80412106  0.20602212  -0.00147013  1
  Ta  Ta135  1  -0.00714624  -0.00831361  0.39539129  1
  Ta  Ta136  1  0.90924228  0.30329932  0.71031428  1
  Ta  Ta137  1  -0.00065651  0.19188182  0.61609382  1
  Ta  Ta138  1  0.60445554  0.20753576  0.40072176  1
  Ta  Ta139  1  0.70256444  0.50046861  0.70163208  1
  Ta  Ta140  1  0.59867781  0.59361653  0.59607372  1
  Ta  Ta141  1  0.59716102  0.79782832  0.38574525  1
  Ta  Ta142  1  0.80903522  0.80549925  0.79830434  1
  Ta  Ta143  1  0.19598870  0.40687096  0.60707436  1
  Ta  Ta144  1  0.29441417  0.30629774  0.70825152  1
  Ta  Ta145  1  0.80678263  0.80244626  0.00324765  1
  Ta  Ta146  1  0.20460408  0.79970210  0.37683749  1
  Ta  Ta147  1  0.90011396  0.31049903  0.29169711  1
  Ta  Ta148  1  0.00628954  0.60505676  0.00375274  1
  Ta  Ta149  1  0.29790584  0.89475313  0.90478002  1
  Ti  Ti150  1  0.60975115  0.60067704  0.20594522  1
  Ti  Ti151  1  0.00483890  0.40517573  0.18824000  1
  Ti  Ti152  1  0.30555062  0.50274347  0.90173127  1
  Ti  Ti153  1  -0.01431833  0.79822517  0.79603636  1
  Ti  Ti154  1  -0.00558772  0.00122237  0.60488598  1
  Ti  Ti155  1  0.50592587  0.50464189  0.49197001  1
  Ti  Ti156  1  0.10749047  0.88075898  0.09696468  1
  Ti  Ti157  1  0.81337465  0.60499866  0.00916410  1
  Ti  Ti158  1  0.60802427  0.40374586  0.40641621  1
  Ti  Ti159  1  0.19116627  0.19998071  0.60885014  1
  Ti  Ti160  1  0.90241862  0.89521801  0.90181123  1
  Ti  Ti161  1  0.10350429  0.50155142  0.49535968  1
  Ti  Ti162  1  0.20440378  0.79520261  0.59590707  1
  Ti  Ti163  1  0.38644497  0.79790916  0.20556539  1
  Ti  Ti164  1  0.48602833  0.50124534  0.89800397  1
  Ti  Ti165  1  0.40517761  0.20689278  0.59576498  1
  Ti  Ti166  1  0.39620105  -0.00100240  0.59842783  1
  Ti  Ti167  1  0.60422357  0.60109847  0.39786235  1
  Ti  Ti168  1  0.00344158  0.40946696  0.00540847  1
  Ti  Ti169  1  0.50334466  0.69802755  0.29238355  1
  Ti  Ti170  1  0.49402822  0.68568306  0.70516313  1
  Ti  Ti171  1  0.88688660  0.89581773  0.29576698  1
  Ti  Ti172  1  0.10071438  0.31652919  0.29754631  1
  Ti  Ti173  1  0.70605050  0.70710790  0.29921694  1
  Ti  Ti174  1  0.79960365  0.81029078  0.19019463  1
  Ti  Ti175  1  0.90029397  0.69417556  0.69673878  1
  Ti  Ti176  1  0.09827029  0.30676336  0.70826332  1
  Ti  Ti177  1  0.00202673  0.61043365  0.18302814  1
  Ti  Ti178  1  0.60314758  -0.01183200  0.38563709  1
  Ti  Ti179  1  0.37694269  0.19707282  0.00879285  1
  Ti  Ti180  1  0.79732058  0.40199176  0.19205365  1
  Ti  Ti181  1  0.28755080  0.31290174  0.08730249  1
  Ti  Ti182  1  0.09887089  0.49719184  0.71678401  1
  Ti  Ti183  1  -0.00749720  0.79026746  0.01123165  1
  Ti  Ti184  1  0.80657677  0.39225807  0.80578814  1
  Ti  Ti185  1  0.90651453  0.70415344  0.90513050  1
  Ti  Ti186  1  0.89986341  0.50179228  0.09818832  1
  Ti  Ti187  1  0.60090776  0.40402700  0.80976613  1
  Ti  Ti188  1  0.29414004  0.50877932  0.08639311  1
  Ti  Ti189  1  0.60876307  0.19510154  0.81775385  1
  Ti  Ti190  1  0.00502267  0.60513651  0.80958857  1
  Ti  Ti191  1  0.70574325  0.10172739  0.10156068  1
  Ti  Ti192  1  0.10771114  0.70353444  0.09583771  1
  Ti  Ti193  1  0.80807318  0.80637593  0.60917459  1
  Ti  Ti194  1  -0.00435309  0.59997806  0.40469180  1
  Ti  Ti195  1  0.19932902  0.60957007  -0.00056200  1
  Ti  Ti196  1  0.39753446  0.40733573  0.00215047  1
  Ti  Ti197  1  0.81195741  -0.00171633  0.60455650  1
  Ti  Ti198  1  0.79733548  0.59783570  0.19693512  1
  Ti  Ti199  1  0.10358790  0.49834375  0.90422188  1
  Mo  Mo200  1  0.70445819  0.89570883  0.29825102  1
  Mo  Mo201  1  0.69481790  0.50338297  0.50782712  1
  Mo  Mo202  1  0.29180901  0.69951552  0.90657787  1
  Mo  Mo203  1  0.09957198  0.50892449  0.09522369  1
  Mo  Mo204  1  0.60745783  0.40367020  0.19718531  1
  Mo  Mo205  1  0.19853378  0.40941221  0.79856301  1
  Mo  Mo206  1  0.50348385  0.29915062  0.48897880  1
  Mo  Mo207  1  0.89955783  0.88856957  0.10141513  1
  Mo  Mo208  1  0.62285593  0.19539971  0.00453699  1
  Mo  Mo209  1  0.39126622  -0.00562324  0.00035228  1
  Mo  Mo210  1  0.20163924  0.79154057  0.00445965  1
  Mo  Mo211  1  0.00245678  0.40401028  0.79936295  1
  Mo  Mo212  1  0.40015888  0.59708815  0.81076600  1
  Mo  Mo213  1  0.50080098  0.88817614  0.29378833  1
  Mo  Mo214  1  0.30175834  0.89046944  0.29785677  1
  Mo  Mo215  1  0.80571528  0.39867085  0.00517199  1
  Mo  Mo216  1  0.70782958  0.30172153  0.09767852  1
  Mo  Mo217  1  0.19852042  0.78990419  0.19563809  1
  Mo  Mo218  1  0.80230918  0.59238118  0.60193659  1
  Mo  Mo219  1  0.90296633  0.10059922  0.69765964  1
  Mo  Mo220  1  0.29954724  0.70135198  0.29547086  1
  Mo  Mo221  1  0.30228846  0.09450329  0.09458724  1
  Mo  Mo222  1  0.29804801  0.88926355  0.10049269  1
  Mo  Mo223  1  0.79563618  -0.00598234  0.20158244  1
  Mo  Mo224  1  0.09962693  0.89228467  0.29771925  1
  Mo  Mo225  1  0.90004790  0.30365731  0.90064536  1
  Mo  Mo226  1  0.19921627  0.42042187  0.00035475  1
  Mo  Mo227  1  -0.00108282  0.20421790  0.79828736  1
  Mo  Mo228  1  0.70993023  0.10581776  0.91038156  1
  Mo  Mo229  1  0.19438515  0.41256276  0.40287712  1
  Mo  Mo230  1  0.69340710  0.50082704  0.29067308  1
  Mo  Mo231  1  0.09079072  0.69899404  0.90544636  1
  Mo  Mo232  1  0.39555662  0.39635307  0.81130991  1
  Mo  Mo233  1  0.50031725  0.69236892  0.48660897  1
  Mo  Mo234  1  0.20725110  0.79394769  0.81104649  1
  Mo  Mo235  1  0.10034229  0.10401954  0.90057286  1
  Mo  Mo236  1  0.09709518  0.69905384  0.28567233  1
  Mo  Mo237  1  0.70128580  0.89182852  0.09938687  1
  Mo  Mo238  1  0.29391053  0.69694120  0.10144702  1
  Mo  Mo239  1  0.59522171  0.00474134  0.59473963  1
  Mo  Mo240  1  0.20221816  0.20110825  0.00078377  1
  Mo  Mo241  1  0.89752556  0.90038955  0.69589787  1
  Mo  Mo242  1  0.90011508  0.69708001  0.10082868  1
  Mo  Mo243  1  0.79694211  0.80481603  0.39088153  1
  Mo  Mo244  1  0.28796557  0.50100173  0.30401015  1
  Mo  Mo245  1  0.20075465  -0.00800110  0.40449318  1
  Mo  Mo246  1  0.70151299  0.30151180  0.50059473  1
  Mo  Mo247  1  0.10036940  0.10070681  0.69631163  1
  Mo  Mo248  1  0.39498896  0.59694321  0.00437582  1
  Mo  Mo249  1  0.89956647  0.50620619  0.51171982  1
