# generated using pymatgen
data_HfZrTaTiMo
_symmetry_space_group_name_H-M   'P 1'
_cell_length_a   16.88942646
_cell_length_b   16.89462847
_cell_length_c   16.89256536
_cell_angle_alpha   89.98851568
_cell_angle_beta   89.98867101
_cell_angle_gamma   90.00726816
_symmetry_Int_Tables_number   1
_chemical_formula_structural   HfZrTaTiMo
_chemical_formula_sum   'Hf50 Zr50 Ta50 Ti50 Mo50'
_cell_volume   4820.13425446
_cell_formula_units_Z   50
loop_
 _symmetry_equiv_pos_site_id
 _symmetry_equiv_pos_as_xyz
  1  'x, y, z'
loop_
 _atom_site_type_symbol
 _atom_site_label
 _atom_site_symmetry_multiplicity
 _atom_site_fract_x
 _atom_site_fract_y
 _atom_site_fract_z
 _atom_site_occupancy
  Hf  Hf0  1  -0.01314667  0.18823550  0.00685265  1
  Hf  Hf1  1  0.40644341  -0.00684642  0.19197846  1
  Hf  Hf2  1  0.68974968  0.10223424  0.10817438  1
  Hf  Hf3  1  0.77929620  0.80663963  0.20405571  1
  Hf  Hf4  1  -0.00301105  0.39050443  0.20010310  1
  Hf  Hf5  1  0.69411979  0.49501402  0.49012095  1
  Hf  Hf6  1  0.89647735  0.70448700  0.10170731  1
  Hf  Hf7  1  0.80068604  0.38995699  0.79407663  1
  Hf  Hf8  1  0.21616482  0.40373923  0.01037558  1
  Hf  Hf9  1  0.09218258  0.49069072  0.68782965  1
  Hf  Hf10  1  0.30069900  0.90340488  0.89696543  1
  Hf  Hf11  1  0.59917429  0.80882654  0.38747579  1
  Hf  Hf12  1  0.90455486  0.91413828  0.88907916  1
  Hf  Hf13  1  0.59338801  -0.00270073  0.59335740  1
  Hf  Hf14  1  0.40771894  0.80181819  0.39962039  1
  Hf  Hf15  1  0.30314665  0.29699115  0.90779845  1
  Hf  Hf16  1  -0.00798334  0.79464739  0.40665381  1
  Hf  Hf17  1  0.10594724  0.89939644  0.30371047  1
  Hf  Hf18  1  0.30136655  0.90594282  0.50704034  1
  Hf  Hf19  1  0.31091554  0.50133358  0.68886832  1
  Hf  Hf20  1  0.80069426  0.60712475  0.79791979  1
  Hf  Hf21  1  0.80006691  0.60428037  0.59730361  1
  Hf  Hf22  1  0.19698937  0.20339228  0.20739779  1
  Hf  Hf23  1  0.69444971  0.48792440  0.89560598  1
  Hf  Hf24  1  0.39479338  0.58678124  -0.00308729  1
  Hf  Hf25  1  0.88854278  0.48928531  0.30237170  1
  Hf  Hf26  1  0.89216706  0.11115254  0.30615998  1
  Hf  Hf27  1  0.20887326  0.78737711  0.40191721  1
  Hf  Hf28  1  0.10283758  0.10208941  0.09824193  1
  Hf  Hf29  1  0.00380153  0.00902016  0.40200278  1
  Hf  Hf30  1  0.30234853  0.90033601  0.30211297  1
  Hf  Hf31  1  0.20395113  -0.00120529  0.19458520  1
  Hf  Hf32  1  0.90033947  0.29141684  0.49366728  1
  Hf  Hf33  1  0.49336796  0.90286145  0.70120496  1
  Hf  Hf34  1  0.69828262  0.91179842  0.89565652  1
  Hf  Hf35  1  -0.00388133  0.60005552  0.40679219  1
  Hf  Hf36  1  0.19267686  0.81214926  0.00707178  1
  Hf  Hf37  1  0.90526669  0.49462134  0.69317158  1
  Hf  Hf38  1  0.09607163  0.29956824  0.90920981  1
  Hf  Hf39  1  0.59427497  0.19527925  0.40322638  1
  Hf  Hf40  1  0.30383798  0.69699837  0.10318854  1
  Hf  Hf41  1  0.59374969  0.19381973  0.59826152  1
  Hf  Hf42  1  0.89967318  0.29466048  0.90048105  1
  Hf  Hf43  1  0.90180874  0.70879877  0.69465146  1
  Hf  Hf44  1  0.10915406  0.90429191  0.50485960  1
  Hf  Hf45  1  0.00319553  0.01067287  0.19940113  1
  Hf  Hf46  1  0.80597122  0.01817305  -0.00110260  1
  Hf  Hf47  1  0.00921230  0.39665154  0.40242215  1
  Hf  Hf48  1  -0.00827306  0.60554401  0.00006746  1
  Hf  Hf49  1  0.19742529  0.59710326  0.59191780  1
  Zr  Zr50  1  0.50837510  0.10316403  0.28661415  1
  Zr  Zr51  1  0.00642994  0.00438443  0.59935296  1
  Zr  Zr52  1  0.10176527  0.69653592  0.29326526  1
  Zr  Zr53  1  0.50319658  0.68845502  0.49806925  1
  Zr  Zr54  1  0.59930853  0.60482611  0.79749709  1
  Zr  Zr55  1  0.10708258  0.49621257  0.29803056  1
  Zr  Zr56  1  0.60419609  0.39932276  0.19900930  1
  Zr  Zr57  1  0.80151145  0.59214180  0.00321016  1
  Zr  Zr58  1  0.89762544  0.90377231  0.29811055  1
  Zr  Zr59  1  0.49670295  0.29772136  0.29724903  1
  Zr  Zr60  1  0.68956734  0.69644300  0.10783172  1
  Zr  Zr61  1  0.41293803  0.00467265  0.40648459  1
  Zr  Zr62  1  0.01313563  0.80356181  0.18680230  1
  Zr  Zr63  1  0.70557106  0.30154805  0.30417913  1
  Zr  Zr64  1  0.20053301  0.39906515  0.79923930  1
  Zr  Zr65  1  0.89896421  0.10836960  0.49899120  1
  Zr  Zr66  1  0.69275492  0.69770138  0.49521193  1
  Zr  Zr67  1  0.59729706  0.20322831  0.00266272  1
  Zr  Zr68  1  0.79474959  0.19823324  0.60876406  1
  Zr  Zr69  1  0.10007695  0.49784186  0.09996623  1
  Zr  Zr70  1  0.40177347  0.81083801  0.00541081  1
  Zr  Zr71  1  0.69864592  0.70221146  0.90200159  1
  Zr  Zr72  1  0.78727263  -0.00403955  0.60464009  1
  Zr  Zr73  1  0.20393001  0.59799347  0.40330365  1
  Zr  Zr74  1  0.20402686  0.59604176  0.80455629  1
  Zr  Zr75  1  0.20178825  0.19343357  0.80122084  1
  Zr  Zr76  1  0.79865860  0.39455416  0.60084701  1
  Zr  Zr77  1  0.89694169  0.90148983  0.70288471  1
  Zr  Zr78  1  0.90137645  0.09107761  0.71673820  1
  Zr  Zr79  1  0.49421722  0.30480326  0.70150686  1
  Zr  Zr80  1  0.20109796  0.02323345  0.40104674  1
  Zr  Zr81  1  0.01286276  0.80511263  0.80543371  1
  Zr  Zr82  1  0.80538861  0.60900971  0.39788979  1
  Zr  Zr83  1  0.39534029  0.40715078  0.81008782  1
  Zr  Zr84  1  0.49856531  0.68842469  0.29337532  1
  Zr  Zr85  1  -0.00092275  0.60732240  0.80259196  1
  Zr  Zr86  1  0.49801369  0.69394382  0.10620198  1
  Zr  Zr87  1  0.49036336  0.30484205  0.50364208  1
  Zr  Zr88  1  0.09540199  0.49423949  0.90572344  1
  Zr  Zr89  1  0.30295492  0.29944734  0.68092568  1
  Zr  Zr90  1  0.40868782  0.80126058  0.80778994  1
  Zr  Zr91  1  0.79948300  0.80620185  -0.00207378  1
  Zr  Zr92  1  0.68415926  0.29550311  0.71210402  1
  Zr  Zr93  1  0.20448592  0.79074523  0.60213879  1
  Zr  Zr94  1  0.90050674  0.48696201  0.89880115  1
  Zr  Zr95  1  0.59088849  0.80999255  -0.00228178  1
  Zr  Zr96  1  0.39360409  0.19285655  0.80337626  1
  Zr  Zr97  1  0.31394301  0.69732262  0.70164717  1
  Zr  Zr98  1  0.90280709  0.90476560  0.09596339  1
  Zr  Zr99  1  0.79327547  0.80146072  0.39410496  1
  Ta  Ta100  1  0.59778163  0.39631037  0.00393738  1
  Ta  Ta101  1  0.50097720  0.09451239  0.90001130  1
  Ta  Ta102  1  0.31144789  0.49527259  0.49775976  1
  Ta  Ta103  1  0.10522891  0.09987217  0.69731933  1
  Ta  Ta104  1  0.20616487  0.00641805  0.80316249  1
  Ta  Ta105  1  0.29947535  0.90721624  0.69847919  1
  Ta  Ta106  1  0.79191080  0.00070503  0.39995931  1
  Ta  Ta107  1  0.09871151  0.29482095  0.50302914  1
  Ta  Ta108  1  0.79319260  0.38870937  0.01111640  1
  Ta  Ta109  1  0.69348016  0.10371436  0.89581519  1
  Ta  Ta110  1  0.19976656  0.19361859  0.59319347  1
  Ta  Ta111  1  0.60235111  0.80340816  0.60531627  1
  Ta  Ta112  1  0.69242277  0.49759950  0.69965641  1
  Ta  Ta113  1  0.20711166  0.59654238  0.19480985  1
  Ta  Ta114  1  -0.00844056  0.59381410  0.19590408  1
  Ta  Ta115  1  0.20596785  0.19441436  0.00153957  1
  Ta  Ta116  1  0.69421425  0.29573969  0.89907118  1
  Ta  Ta117  1  0.49933313  0.69478045  0.69440167  1
  Ta  Ta118  1  0.39624142  0.40065928  0.19800548  1
  Ta  Ta119  1  0.30353501  0.30199255  0.30390705  1
  Ta  Ta120  1  0.20755087  0.80249034  0.19202616  1
  Ta  Ta121  1  0.49789149  0.49548239  0.10331386  1
  Ta  Ta122  1  0.09664177  0.29350360  0.68896438  1
  Ta  Ta123  1  0.40277956  0.19616238  0.00099765  1
  Ta  Ta124  1  0.89564713  0.29549443  0.30774999  1
  Ta  Ta125  1  0.49654886  0.10163841  0.70347228  1
  Ta  Ta126  1  0.40347732  0.40478505  0.39423837  1
  Ta  Ta127  1  0.49791266  0.50336834  0.69641619  1
  Ta  Ta128  1  0.69701042  0.30276011  0.49265242  1
  Ta  Ta129  1  0.30578078  0.50001919  0.29938192  1
  Ta  Ta130  1  0.00413389  0.19314903  0.80220759  1
  Ta  Ta131  1  0.30631934  0.10254915  0.09990540  1
  Ta  Ta132  1  0.89246700  0.89798304  0.50427712  1
  Ta  Ta133  1  0.59511235  0.40548436  0.59862186  1
  Ta  Ta134  1  0.80257589  0.20433971  0.19129459  1
  Ta  Ta135  1  0.50239149  0.49469813  0.89899379  1
  Ta  Ta136  1  0.68932871  0.09632148  0.71415568  1
  Ta  Ta137  1  0.40225101  0.00786803  0.60026224  1
  Ta  Ta138  1  0.10417565  0.70463755  0.90943697  1
  Ta  Ta139  1  0.79861522  0.20201323  0.00425103  1
  Ta  Ta140  1  0.29713170  0.69701914  0.90248202  1
  Ta  Ta141  1  0.69962415  0.10153312  0.49320028  1
  Ta  Ta142  1  0.59940263  0.80222630  0.79421133  1
  Ta  Ta143  1  0.19856544  0.20491978  0.39943969  1
  Ta  Ta144  1  0.11216579  0.90877134  0.70249899  1
  Ta  Ta145  1  -0.00028354  0.20543166  0.20418465  1
  Ta  Ta146  1  0.49628438  0.29676984  0.10477696  1
  Ta  Ta147  1  0.59466627  0.58921682  0.00236065  1
  Ta  Ta148  1  0.30104449  0.30236227  0.49652885  1
  Ta  Ta149  1  0.20464172  0.00211431  -0.00063948  1
  Ti  Ti150  1  0.19480442  0.40030209  0.58487066  1
  Ti  Ti151  1  0.49873899  0.10571672  0.10272649  1
  Ti  Ti152  1  0.79522436  0.59674804  0.20250796  1
  Ti  Ti153  1  0.20017330  0.80162992  0.80194688  1
  Ti  Ti154  1  0.69812037  0.10271043  0.29723822  1
  Ti  Ti155  1  0.80210143  0.19277830  0.80850748  1
  Ti  Ti156  1  0.69920893  0.49724188  0.10026298  1
  Ti  Ti157  1  0.30830462  0.29233339  0.10637043  1
  Ti  Ti158  1  0.59176929  -0.00260833  0.80028191  1
  Ti  Ti159  1  0.39670308  0.19807528  0.40442891  1
  Ti  Ti160  1  0.79087753  0.80052382  0.79483646  1
  Ti  Ti161  1  -0.00143672  0.60107123  0.58804021  1
  Ti  Ti162  1  0.39512966  0.00706763  0.80111004  1
  Ti  Ti163  1  0.59226081  0.82176337  0.19771385  1
  Ti  Ti164  1  0.90043551  0.48755023  0.50078465  1
  Ti  Ti165  1  -0.01735149  0.39536709  0.01802408  1
  Ti  Ti166  1  0.00114342  0.38774853  0.79343125  1
  Ti  Ti167  1  0.59427209  -0.00067874  0.40352303  1
  Ti  Ti168  1  0.68947791  0.92543627  0.29211909  1
  Ti  Ti169  1  0.91371196  0.28932831  0.69342065  1
  Ti  Ti170  1  0.31087614  0.69297398  0.29207195  1
  Ti  Ti171  1  0.10082373  0.69953779  0.69983282  1
  Ti  Ti172  1  0.31056303  0.11023658  0.29357109  1
  Ti  Ti173  1  0.89883460  0.70148226  0.28811694  1
  Ti  Ti174  1  0.09487548  0.70041149  0.50363272  1
  Ti  Ti175  1  0.69890057  0.49509079  0.30918318  1
  Ti  Ti176  1  0.00449264  0.80361588  0.59871473  1
  Ti  Ti177  1  0.80310448  0.39434219  0.18887750  1
  Ti  Ti178  1  0.69777991  0.90180854  0.49639183  1
  Ti  Ti179  1  0.20510926  0.59442960  0.00102466  1
  Ti  Ti180  1  0.32005817  0.68549898  0.50165061  1
  Ti  Ti181  1  0.60119020  0.58563244  0.20658298  1
  Ti  Ti182  1  0.20177333  0.39674369  0.40198972  1
  Ti  Ti183  1  0.50170456  0.50413915  0.49131276  1
  Ti  Ti184  1  0.09912628  0.09580217  0.89955777  1
  Ti  Ti185  1  0.59132224  -0.00396008  0.00787102  1
  Ti  Ti186  1  0.00835345  -0.00379262  -0.00406893  1
  Ti  Ti187  1  0.78504742  0.80097548  0.60487435  1
  Ti  Ti188  1  0.10212704  0.69529471  0.09623612  1
  Ti  Ti189  1  0.20629688  0.39476297  0.20140153  1
  Ti  Ti190  1  0.79816972  0.00518504  0.19604196  1
  Ti  Ti191  1  0.10181558  0.29793590  0.09778475  1
  Ti  Ti192  1  0.30500435  0.10735453  0.50782190  1
  Ti  Ti193  1  0.60243600  0.59849439  0.60419572  1
  Ti  Ti194  1  0.40334388  0.81107913  0.19801183  1
  Ti  Ti195  1  0.40941022  0.80427811  0.59358001  1
  Ti  Ti196  1  0.50560385  0.30192556  0.89872110  1
  Ti  Ti197  1  0.40161684  0.00152228  0.00117274  1
  Ti  Ti198  1  0.49532366  0.68987292  0.89829857  1
  Ti  Ti199  1  0.40345568  0.39890586  0.00575685  1
  Mo  Mo200  1  0.10256708  0.11066525  0.50153736  1
  Mo  Mo201  1  0.69662917  0.70469445  0.69555569  1
  Mo  Mo202  1  0.30260000  0.90439040  0.09929202  1
  Mo  Mo203  1  0.40500919  0.40821507  0.58946717  1
  Mo  Mo204  1  0.59976957  0.59142033  0.38432699  1
  Mo  Mo205  1  0.90539799  0.71836657  0.90079653  1
  Mo  Mo206  1  0.30376916  0.50000673  0.90418309  1
  Mo  Mo207  1  0.80228825  0.39567733  0.40107527  1
  Mo  Mo208  1  0.69094253  0.68461107  0.29252420  1
  Mo  Mo209  1  0.39630100  0.58542543  0.19879455  1
  Mo  Mo210  1  0.09798486  0.10915620  0.30001221  1
  Mo  Mo211  1  0.00359131  0.79837092  -0.00677326  1
  Mo  Mo212  1  0.50034292  0.91792462  0.89813775  1
  Mo  Mo213  1  0.89998002  0.10094317  0.89994021  1
  Mo  Mo214  1  0.59672413  0.40292039  0.40296663  1
  Mo  Mo215  1  0.78746809  0.19683255  0.39612669  1
  Mo  Mo216  1  0.40061777  0.59199449  0.39523321  1
  Mo  Mo217  1  0.00208261  0.39226536  0.59485531  1
  Mo  Mo218  1  0.89076926  0.49676550  0.10868605  1
  Mo  Mo219  1  0.01629771  0.20253871  0.39331096  1
  Mo  Mo220  1  0.89630448  0.29806531  0.10477855  1
  Mo  Mo221  1  0.10238859  0.49399676  0.50115491  1
  Mo  Mo222  1  0.89846788  0.10355358  0.10722167  1
  Mo  Mo223  1  0.40907735  0.59743642  0.59413777  1
  Mo  Mo224  1  0.49820152  0.49624912  0.29876202  1
  Mo  Mo225  1  0.20772038  0.00907806  0.60514581  1
  Mo  Mo226  1  0.69131322  0.89855899  0.70538113  1
  Mo  Mo227  1  0.30320522  0.49629309  0.10611641  1
  Mo  Mo228  1  0.39519797  0.19233338  0.59775015  1
  Mo  Mo229  1  0.50281630  0.89804995  0.50439454  1
  Mo  Mo230  1  0.02289878  0.00385515  0.80478874  1
  Mo  Mo231  1  0.59067409  0.19494182  0.80690718  1
  Mo  Mo232  1  0.40617271  0.60142782  0.80444069  1
  Mo  Mo233  1  0.30437704  0.09582938  0.91087717  1
  Mo  Mo234  1  0.30028214  0.09532693  0.69401724  1
  Mo  Mo235  1  0.69379441  0.91343776  0.10212912  1
  Mo  Mo236  1  0.39450331  0.20206866  0.19496033  1
  Mo  Mo237  1  0.00628133  0.19786518  0.60484562  1
  Mo  Mo238  1  0.49747284  0.10114285  0.50265459  1
  Mo  Mo239  1  0.10254249  0.90842666  0.09475739  1
  Mo  Mo240  1  0.59951192  -0.00070592  0.19365403  1
  Mo  Mo241  1  0.59496070  0.40110626  0.80174686  1
  Mo  Mo242  1  0.90252350  0.71597935  0.51528787  1
  Mo  Mo243  1  0.10673122  0.29958780  0.30285958  1
  Mo  Mo244  1  0.50411003  0.90123522  0.29764179  1
  Mo  Mo245  1  0.78371039  0.00512245  0.80390577  1
  Mo  Mo246  1  0.69894758  0.29858581  0.09973739  1
  Mo  Mo247  1  0.50073354  0.90710862  0.09939903  1
  Mo  Mo248  1  0.60211462  0.20091040  0.19833200  1
  Mo  Mo249  1  0.10601549  0.90715172  0.89708775  1
