# generated using pymatgen
data_HfZrTaTiMo
_symmetry_space_group_name_H-M   'P 1'
_cell_length_a   16.89473541
_cell_length_b   16.88924125
_cell_length_c   16.88789073
_cell_angle_alpha   90.00844228
_cell_angle_beta   89.99596031
_cell_angle_gamma   90.00125469
_symmetry_Int_Tables_number   1
_chemical_formula_structural   HfZrTaTiMo
_chemical_formula_sum   'Hf50 Zr50 Ta50 Ti50 Mo50'
_cell_volume   4818.77821785
_cell_formula_units_Z   50
loop_
 _symmetry_equiv_pos_site_id
 _symmetry_equiv_pos_as_xyz
  1  'x, y, z'
loop_
 _atom_site_type_symbol
 _atom_site_label
 _atom_site_symmetry_multiplicity
 _atom_site_fract_x
 _atom_site_fract_y
 _atom_site_fract_z
 _atom_site_occupancy
  Hf  Hf0  1  0.79679934  0.20336733  0.80643773  1
  Hf  Hf1  1  0.49788830  0.10077378  0.49504940  1
  Hf  Hf2  1  0.41182845  0.39853211  0.59644144  1
  Hf  Hf3  1  0.29141817  0.70281618  0.29991025  1
  Hf  Hf4  1  0.70628293  0.70075770  0.89503203  1
  Hf  Hf5  1  0.70749813  0.69675629  0.69782803  1
  Hf  Hf6  1  0.41177479  0.19659749  0.79005609  1
  Hf  Hf7  1  0.20886988  -0.00153898  0.78991137  1
  Hf  Hf8  1  -0.01429799  0.20424885  0.00957460  1
  Hf  Hf9  1  0.19223826  0.59029903  -0.00309744  1
  Hf  Hf10  1  0.09630113  0.10307125  0.90093517  1
  Hf  Hf11  1  0.80782160  0.00785597  0.00849653  1
  Hf  Hf12  1  -0.00290523  0.40223797  0.80767394  1
  Hf  Hf13  1  0.28750197  0.70167194  0.10205789  1
  Hf  Hf14  1  0.80303388  0.20560029  0.61081220  1
  Hf  Hf15  1  0.50024844  0.10523541  0.09123463  1
  Hf  Hf16  1  -0.00525386  -0.00203145  0.19580998  1
  Hf  Hf17  1  0.39753963  0.80154085  0.78884176  1
  Hf  Hf18  1  0.29110080  0.89547446  0.30149969  1
  Hf  Hf19  1  0.79445396  -0.00864494  0.60188282  1
  Hf  Hf20  1  0.40566814  0.39502940  0.20694693  1
  Hf  Hf21  1  0.51342989  0.69362105  0.50242510  1
  Hf  Hf22  1  0.50935644  0.69654896  0.89377424  1
  Hf  Hf23  1  0.09483320  0.90339322  0.89504748  1
  Hf  Hf24  1  0.90433277  0.70841037  0.10912853  1
  Hf  Hf25  1  0.39727987  0.00745306  0.19924964  1
  Hf  Hf26  1  0.08857227  0.89875212  0.70304197  1
  Hf  Hf27  1  0.80630840  0.81159678  -0.00189104  1
  Hf  Hf28  1  0.28949340  0.49879128  0.30218751  1
  Hf  Hf29  1  0.70885933  0.49306743  0.89635516  1
  Hf  Hf30  1  0.19142524  0.79886380  0.58857454  1
  Hf  Hf31  1  0.09898449  0.30157501  0.70173315  1
  Hf  Hf32  1  0.09382638  0.09977010  0.70029087  1
  Hf  Hf33  1  0.60240679  0.39573758  0.19998783  1
  Hf  Hf34  1  0.69746078  0.30746154  0.49682807  1
  Hf  Hf35  1  0.71269557  0.90466562  0.88790956  1
  Hf  Hf36  1  0.61101436  0.38755721  0.79409219  1
  Hf  Hf37  1  0.79758461  0.39808665  0.60476271  1
  Hf  Hf38  1  0.40155864  0.39887513  0.00741977  1
  Hf  Hf39  1  0.60604457  0.58994496  0.00062165  1
  Hf  Hf40  1  0.60964143  -0.00226207  0.40387441  1
  Hf  Hf41  1  0.40652782  0.21586551  0.39915893  1
  Hf  Hf42  1  0.89887170  0.89545770  0.49411654  1
  Hf  Hf43  1  0.09394227  0.49608789  0.29899348  1
  Hf  Hf44  1  0.30096226  0.30582760  0.89169820  1
  Hf  Hf45  1  0.39934814  0.00011241  0.60342036  1
  Hf  Hf46  1  0.09180540  0.69582674  0.69908801  1
  Hf  Hf47  1  0.09436281  0.10243096  0.50530122  1
  Hf  Hf48  1  0.61669006  0.01027787  -0.00521059  1
  Hf  Hf49  1  0.40449668  0.59388908  0.59995982  1
  Zr  Zr50  1  -0.00639886  0.39877638  0.39800117  1
  Zr  Zr51  1  0.50028634  0.90800060  0.08931507  1
  Zr  Zr52  1  0.89605722  0.10241147  0.49522627  1
  Zr  Zr53  1  0.70027230  0.50018738  0.31291723  1
  Zr  Zr54  1  0.61193413  0.81169067  0.59443343  1
  Zr  Zr55  1  0.59568855  0.00931850  0.79568581  1
  Zr  Zr56  1  0.60132059  0.80928211  0.79418141  1
  Zr  Zr57  1  0.09563486  0.11150807  0.29607530  1
  Zr  Zr58  1  0.60866113  0.00728234  0.19783823  1
  Zr  Zr59  1  0.71561262  0.90158794  0.29595703  1
  Zr  Zr60  1  0.09499064  0.70696192  0.90058155  1
  Zr  Zr61  1  0.19724058  0.59197952  0.80638486  1
  Zr  Zr62  1  0.39618902  0.20748593  0.00357588  1
  Zr  Zr63  1  0.39573644  0.59336199  -0.00009253  1
  Zr  Zr64  1  0.40250902  0.59782258  0.78900553  1
  Zr  Zr65  1  0.60505210  0.00132642  0.59890662  1
  Zr  Zr66  1  0.10605686  0.88357132  0.10604451  1
  Zr  Zr67  1  0.70322431  0.70349524  0.10778445  1
  Zr  Zr68  1  0.40772353  0.79675478  0.20398797  1
  Zr  Zr69  1  0.40463112  0.59189632  0.40092689  1
  Zr  Zr70  1  0.20160070  0.20261736  0.79845282  1
  Zr  Zr71  1  -0.01045074  0.39547040  0.59984448  1
  Zr  Zr72  1  0.59901472  0.20587966  0.60742245  1
  Zr  Zr73  1  0.40129022  0.40001375  0.40103281  1
  Zr  Zr74  1  0.60702040  0.20190310  0.19466748  1
  Zr  Zr75  1  0.30319263  0.09740924  0.90809938  1
  Zr  Zr76  1  0.50006285  0.48757550  0.88998370  1
  Zr  Zr77  1  0.80908406  0.59349035  0.00501868  1
  Zr  Zr78  1  0.40686441  0.79409183  -0.00721463  1
  Zr  Zr79  1  0.80603705  0.59163969  0.20999564  1
  Zr  Zr80  1  0.20912635  0.79974511  0.79107682  1
  Zr  Zr81  1  -0.01665398  0.60994745  0.59564632  1
  Zr  Zr82  1  0.19261195  0.21038740  0.40367970  1
  Zr  Zr83  1  0.19286423  0.39975884  0.00034559  1
  Zr  Zr84  1  0.19567057  0.00456691  0.20267565  1
  Zr  Zr85  1  0.00209003  -0.00683119  0.39410735  1
  Zr  Zr86  1  0.40905181  0.79349056  0.40250763  1
  Zr  Zr87  1  0.29556687  0.89607168  0.09566964  1
  Zr  Zr88  1  0.29958747  0.10090374  0.49572241  1
  Zr  Zr89  1  0.29179927  0.48719537  0.69846600  1
  Zr  Zr90  1  0.18388229  0.61359270  0.40608651  1
  Zr  Zr91  1  0.50869542  0.69384557  0.10130880  1
  Zr  Zr92  1  0.30100960  0.89729670  0.49136742  1
  Zr  Zr93  1  -0.01032130  0.80962920  0.00106863  1
  Zr  Zr94  1  -0.01020951  -0.00004007  0.00523278  1
  Zr  Zr95  1  0.30026709  0.90245180  0.90931388  1
  Zr  Zr96  1  0.60218539  0.80505195  0.20626237  1
  Zr  Zr97  1  0.58775951  0.39249567  0.39359947  1
  Zr  Zr98  1  0.09752248  0.50503032  0.50825674  1
  Zr  Zr99  1  -0.00362781  0.59632787  0.20370571  1
  Ta  Ta100  1  0.30081420  0.10355424  0.30502349  1
  Ta  Ta101  1  -0.00813362  0.79972856  0.59760984  1
  Ta  Ta102  1  0.70403355  0.10007870  0.70609961  1
  Ta  Ta103  1  0.50325600  0.49675425  0.10382392  1
  Ta  Ta104  1  0.40302727  0.59329416  0.20400904  1
  Ta  Ta105  1  0.60858276  0.81103147  -0.00441321  1
  Ta  Ta106  1  0.29234813  0.29878759  0.29613996  1
  Ta  Ta107  1  0.60906696  0.38938766  0.00364789  1
  Ta  Ta108  1  0.60095778  0.20287780  0.39347042  1
  Ta  Ta109  1  0.39580028  0.20327101  0.20178210  1
  Ta  Ta110  1  0.79906566  0.79272986  0.40293861  1
  Ta  Ta111  1  0.49685228  0.90255988  0.69643645  1
  Ta  Ta112  1  0.70627258  0.49895411  0.69813757  1
  Ta  Ta113  1  0.51596858  0.68807786  0.30528867  1
  Ta  Ta114  1  0.19636584  -0.00596590  0.59815885  1
  Ta  Ta115  1  0.40335550  0.20702493  0.60121872  1
  Ta  Ta116  1  0.49785851  0.10057621  0.30341652  1
  Ta  Ta117  1  0.80328750  0.39049097  0.00934765  1
  Ta  Ta118  1  0.60586007  0.19880681  0.80525327  1
  Ta  Ta119  1  0.70755308  0.68916704  0.50033887  1
  Ta  Ta120  1  0.89629752  0.50334308  0.70317055  1
  Ta  Ta121  1  0.29499938  0.49772584  0.11073981  1
  Ta  Ta122  1  0.89656546  0.10651743  0.29639349  1
  Ta  Ta123  1  0.09443701  0.49489037  0.10374369  1
  Ta  Ta124  1  0.70964384  0.29796118  0.29784802  1
  Ta  Ta125  1  0.09862218  0.11531024  0.10008817  1
  Ta  Ta126  1  0.09578388  0.50384668  0.69927844  1
  Ta  Ta127  1  0.09478184  0.29505118  0.90853017  1
  Ta  Ta128  1  0.80650977  0.20401316  0.19110618  1
  Ta  Ta129  1  -0.00613156  0.40091433  0.00716005  1
  Ta  Ta130  1  0.52104053  0.49813765  0.50169928  1
  Ta  Ta131  1  -0.00572505  -0.00544494  0.60107303  1
  Ta  Ta132  1  0.19021347  -0.00595966  0.40184688  1
  Ta  Ta133  1  -0.00398355  0.21367502  0.39636252  1
  Ta  Ta134  1  0.71117048  0.10548408  0.30046473  1
  Ta  Ta135  1  0.19163562  0.39223932  0.40244561  1
  Ta  Ta136  1  -0.01159260  0.60801530  0.39975629  1
  Ta  Ta137  1  0.90055912  0.70529295  0.89014155  1
  Ta  Ta138  1  0.29952867  0.10424093  0.69054046  1
  Ta  Ta139  1  0.39891688  0.79729075  0.60320929  1
  Ta  Ta140  1  0.28764343  0.49970336  0.50585994  1
  Ta  Ta141  1  0.60922732  0.80090625  0.40282488  1
  Ta  Ta142  1  0.79720980  0.19787856  0.00448181  1
  Ta  Ta143  1  0.80672940  0.59964849  0.79581230  1
  Ta  Ta144  1  0.19025096  0.39318637  0.20016312  1
  Ta  Ta145  1  -0.00687017  0.20579416  0.60222394  1
  Ta  Ta146  1  -0.00258125  0.59092182  -0.00068212  1
  Ta  Ta147  1  -0.01148713  0.20512941  0.79955985  1
  Ta  Ta148  1  0.80983157  0.39637744  0.19993344  1
  Ta  Ta149  1  0.80676733  0.79549653  0.60119448  1
  Ti  Ti150  1  0.89673552  0.30232835  0.90525085  1
  Ti  Ti151  1  0.30143745  0.30491305  0.70099456  1
  Ti  Ti152  1  0.80303926  0.39084646  0.79681249  1
  Ti  Ti153  1  0.49722228  0.90874423  0.30964224  1
  Ti  Ti154  1  0.49657409  0.90204391  0.49619380  1
  Ti  Ti155  1  0.29710469  0.30609135  0.50374202  1
  Ti  Ti156  1  0.80059469  0.00080419  0.39930076  1
  Ti  Ti157  1  0.09838467  0.70115543  0.10199072  1
  Ti  Ti158  1  0.09722063  0.71403814  0.29322273  1
  Ti  Ti159  1  0.88594069  0.50573893  0.50039045  1
  Ti  Ti160  1  0.30770850  0.48905157  0.89177344  1
  Ti  Ti161  1  0.19398881  0.20937282  0.19779789  1
  Ti  Ti162  1  0.19267931  0.39353483  0.59489603  1
  Ti  Ti163  1  0.60337304  0.59065438  0.79080329  1
  Ti  Ti164  1  0.89644106  0.49838768  0.90118783  1
  Ti  Ti165  1  0.80651168  0.60201265  0.40367096  1
  Ti  Ti166  1  0.50370942  0.29857304  0.90039068  1
  Ti  Ti167  1  0.50421371  0.30666259  0.69941005  1
  Ti  Ti168  1  0.70037059  0.69655332  0.30507011  1
  Ti  Ti169  1  0.89570531  0.29834644  0.49694525  1
  Ti  Ti170  1  0.80250379  0.20685898  0.39458294  1
  Ti  Ti171  1  0.90374690  0.09560026  0.70200342  1
  Ti  Ti172  1  0.29182536  0.10841418  0.09881801  1
  Ti  Ti173  1  0.61922930  0.20313150  -0.00911259  1
  Ti  Ti174  1  0.28929644  0.29913932  0.10259124  1
  Ti  Ti175  1  0.40007371  0.00253532  0.79116309  1
  Ti  Ti176  1  0.90039353  0.09400774  0.89089656  1
  Ti  Ti177  1  0.90023227  0.89121256  0.29488470  1
  Ti  Ti178  1  0.61074701  0.58859342  0.60153231  1
  Ti  Ti179  1  0.20035086  0.20595733  0.59921929  1
  Ti  Ti180  1  0.29262229  0.69098987  0.68731980  1
  Ti  Ti181  1  0.80697461  0.40138240  0.39529318  1
  Ti  Ti182  1  0.49678530  0.09881268  0.90430563  1
  Ti  Ti183  1  -0.00781930  0.38826120  0.19903165  1
  Ti  Ti184  1  0.19400383  0.00729217  0.00626834  1
  Ti  Ti185  1  0.00772258  0.79541858  0.40543129  1
  Ti  Ti186  1  0.50535966  0.29760342  0.09727028  1
  Ti  Ti187  1  0.70495650  0.10958231  0.49552934  1
  Ti  Ti188  1  0.90039520  0.70904554  0.30186390  1
  Ti  Ti189  1  0.50927316  0.69867700  0.69375818  1
  Ti  Ti190  1  0.60030615  0.58986297  0.20527603  1
  Ti  Ti191  1  0.19265039  0.59824303  0.19926982  1
  Ti  Ti192  1  0.70417174  0.49331749  0.10354115  1
  Ti  Ti193  1  0.80677542  -0.00374657  0.79092437  1
  Ti  Ti194  1  0.18588235  0.40448638  0.80717698  1
  Ti  Ti195  1  0.71278897  0.90203777  0.10782508  1
  Ti  Ti196  1  0.49575764  0.91115173  0.90040669  1
  Ti  Ti197  1  0.29635189  0.69988500  0.90227727  1
  Ti  Ti198  1  0.29548290  0.69540015  0.50209329  1
  Ti  Ti199  1  -0.00645629  0.59654997  0.80414664  1
  Mo  Mo200  1  -0.00341508  0.20787476  0.20164402  1
  Mo  Mo201  1  0.89889797  0.49544243  0.30622234  1
  Mo  Mo202  1  -0.01060322  0.00541905  0.79672652  1
  Mo  Mo203  1  0.79822892  0.59592309  0.59964099  1
  Mo  Mo204  1  -0.00112322  0.79976504  0.20962731  1
  Mo  Mo205  1  0.60891455  0.60154353  0.40451909  1
  Mo  Mo206  1  0.89591694  0.70282218  0.49306950  1
  Mo  Mo207  1  0.90372855  0.49206960  0.10268454  1
  Mo  Mo208  1  0.49835598  0.10135537  0.69980736  1
  Mo  Mo209  1  0.88648741  0.89935177  0.12494561  1
  Mo  Mo210  1  0.19429472  0.79114118  0.20308095  1
  Mo  Mo211  1  0.70607346  0.30080545  0.09967370  1
  Mo  Mo212  1  0.40197266  0.00301221  0.39307365  1
  Mo  Mo213  1  0.80718307  0.00827038  0.20211041  1
  Mo  Mo214  1  0.80722846  0.79960369  0.79156681  1
  Mo  Mo215  1  0.90090143  0.10551265  0.11027086  1
  Mo  Mo216  1  0.70653531  0.90205782  0.69843031  1
  Mo  Mo217  1  0.41104816  0.39063308  0.79297700  1
  Mo  Mo218  1  0.70689151  0.10753121  0.09998754  1
  Mo  Mo219  1  0.70621359  0.50202683  0.50195618  1
  Mo  Mo220  1  0.90015312  0.30038157  0.10351808  1
  Mo  Mo221  1  0.90043710  0.30293512  0.70945302  1
  Mo  Mo222  1  0.09502750  0.30044942  0.10334081  1
  Mo  Mo223  1  0.70485261  0.29914114  0.90533013  1
  Mo  Mo224  1  0.50098217  0.28762266  0.28965472  1
  Mo  Mo225  1  0.09408505  0.90059734  0.50237266  1
  Mo  Mo226  1  0.50451921  0.29916573  0.50716238  1
  Mo  Mo227  1  0.19259695  0.20405850  0.00833324  1
  Mo  Mo228  1  0.70253686  0.29747519  0.70349869  1
  Mo  Mo229  1  0.08540413  0.49541839  0.90259909  1
  Mo  Mo230  1  0.39892062  0.01041652  0.00203616  1
  Mo  Mo231  1  0.60391850  0.40295475  0.60302134  1
  Mo  Mo232  1  0.90103476  0.90319866  0.87837999  1
  Mo  Mo233  1  0.09620474  0.30306464  0.29392908  1
  Mo  Mo234  1  0.09714038  0.29689574  0.50712532  1
  Mo  Mo235  1  0.19429722  0.78879022  -0.00301262  1
  Mo  Mo236  1  0.50261772  0.50871272  0.29659540  1
  Mo  Mo237  1  0.89890404  0.89542334  0.69678818  1
  Mo  Mo238  1  0.89867363  0.70017771  0.70399277  1
  Mo  Mo239  1  0.09994717  0.88891713  0.30425471  1
  Mo  Mo240  1  0.19836433  0.60139363  0.59995043  1
  Mo  Mo241  1  -0.01287312  0.80365682  0.79376782  1
  Mo  Mo242  1  0.18494679  0.80174840  0.40014229  1
  Mo  Mo243  1  0.71001781  0.89054656  0.49449377  1
  Mo  Mo244  1  0.08918463  0.70585341  0.49851457  1
  Mo  Mo245  1  0.70919338  0.10114716  0.89632013  1
  Mo  Mo246  1  0.89591071  0.29761107  0.29913353  1
  Mo  Mo247  1  0.80297553  0.79634875  0.20949153  1
  Mo  Mo248  1  0.30381798  0.90362634  0.68979107  1
  Mo  Mo249  1  0.51600778  0.49873208  0.69282162  1
