# generated using pymatgen
data_HfZrTaTiMo
_symmetry_space_group_name_H-M   'P 1'
_cell_length_a   16.88157839
_cell_length_b   16.88407877
_cell_length_c   16.88924056
_cell_angle_alpha   90.00760728
_cell_angle_beta   89.98963271
_cell_angle_gamma   89.99301544
_symmetry_Int_Tables_number   1
_chemical_formula_structural   HfZrTaTiMo
_chemical_formula_sum   'Hf50 Zr50 Ta50 Ti50 Mo50'
_cell_volume   4813.93837980
_cell_formula_units_Z   50
loop_
 _symmetry_equiv_pos_site_id
 _symmetry_equiv_pos_as_xyz
  1  'x, y, z'
loop_
 _atom_site_type_symbol
 _atom_site_label
 _atom_site_symmetry_multiplicity
 _atom_site_fract_x
 _atom_site_fract_y
 _atom_site_fract_z
 _atom_site_occupancy
  Hf  Hf0  1  0.90314806  0.10174840  0.89843191  1
  Hf  Hf1  1  0.38103367  0.00089836  0.60357522  1
  Hf  Hf2  1  0.09419122  0.90319029  0.29669821  1
  Hf  Hf3  1  0.30401921  0.71080961  0.90745498  1
  Hf  Hf4  1  -0.00665366  0.59342380  0.18300427  1
  Hf  Hf5  1  0.30672320  0.49128067  0.29416232  1
  Hf  Hf6  1  -0.00353049  0.79930562  0.40144708  1
  Hf  Hf7  1  0.69284438  0.29717655  0.49912241  1
  Hf  Hf8  1  0.20012106  0.59485013  0.00278683  1
  Hf  Hf9  1  0.41781681  0.59541372  0.60699171  1
  Hf  Hf10  1  0.10501870  0.10979788  0.70710640  1
  Hf  Hf11  1  0.29961196  0.90224136  0.90487362  1
  Hf  Hf12  1  0.51303501  0.91043610  0.68204256  1
  Hf  Hf13  1  0.70329112  0.70313280  0.49252396  1
  Hf  Hf14  1  0.59198534  0.60340908  0.79695277  1
  Hf  Hf15  1  0.79971956  0.19821525  0.40065827  1
  Hf  Hf16  1  0.41301899  0.80482386  0.39864327  1
  Hf  Hf17  1  0.60784758  0.00488598  0.79387430  1
  Hf  Hf18  1  0.00537720  0.58975230  -0.00311962  1
  Hf  Hf19  1  0.79654992  0.59923616  0.19337819  1
  Hf  Hf20  1  0.89129868  0.90159044  0.10214891  1
  Hf  Hf21  1  0.88876333  0.69963666  0.30343937  1
  Hf  Hf22  1  0.40395995  0.80746211  0.78991958  1
  Hf  Hf23  1  0.40381608  0.80343288  0.60083534  1
  Hf  Hf24  1  0.59953659  0.80591065  0.20432871  1
  Hf  Hf25  1  0.09235438  0.90785671  0.09320847  1
  Hf  Hf26  1  0.20593815  0.00186690  0.19340332  1
  Hf  Hf27  1  0.50532432  0.10232276  0.89997527  1
  Hf  Hf28  1  0.59257576  0.40685461  0.59807390  1
  Hf  Hf29  1  0.41122945  0.00369798  0.19791560  1
  Hf  Hf30  1  0.38989593  0.20650088  0.80974777  1
  Hf  Hf31  1  0.89952468  0.10840742  0.70432055  1
  Hf  Hf32  1  0.09473973  0.89687554  0.50954746  1
  Hf  Hf33  1  0.40489135  0.19788816  0.18988457  1
  Hf  Hf34  1  -0.00157771  0.21157745  -0.00305386  1
  Hf  Hf35  1  0.48965005  0.70386390  0.10137424  1
  Hf  Hf36  1  0.31131839  0.29792889  0.30427195  1
  Hf  Hf37  1  0.09215458  0.09846867  0.09496877  1
  Hf  Hf38  1  0.89181521  0.29014619  0.70302353  1
  Hf  Hf39  1  0.00047949  -0.00289795  0.60588541  1
  Hf  Hf40  1  0.89856830  0.69648659  0.49968253  1
  Hf  Hf41  1  0.30041982  0.89922689  0.29900820  1
  Hf  Hf42  1  0.80446019  0.39388206  -0.00480664  1
  Hf  Hf43  1  0.69080557  0.49688596  0.09360115  1
  Hf  Hf44  1  0.18517001  0.40073800  0.00423374  1
  Hf  Hf45  1  0.49527541  0.30076291  0.70471347  1
  Hf  Hf46  1  0.79808394  0.39756917  0.19202813  1
  Hf  Hf47  1  0.30420621  0.69835346  0.50333843  1
  Hf  Hf48  1  0.01041886  0.39983913  0.17802923  1
  Hf  Hf49  1  0.50470489  0.11454799  0.31528729  1
  Zr  Zr50  1  0.10491261  0.90542548  0.90485535  1
  Zr  Zr51  1  -0.00018609  0.39682222  0.80455236  1
  Zr  Zr52  1  0.79886318  -0.00266935  0.60396119  1
  Zr  Zr53  1  0.90070426  0.30106502  0.50248995  1
  Zr  Zr54  1  0.78897783  0.20452419  0.00015154  1
  Zr  Zr55  1  0.80525336  0.59711115  -0.00022977  1
  Zr  Zr56  1  0.40457883  0.59917305  0.79766625  1
  Zr  Zr57  1  0.20573300  0.59159537  0.18104264  1
  Zr  Zr58  1  0.38836184  0.58692681  0.01161575  1
  Zr  Zr59  1  0.00085865  0.39638848  0.60778377  1
  Zr  Zr60  1  0.40291255  0.39638747  0.59586084  1
  Zr  Zr61  1  0.60002096  0.20082600  0.19017388  1
  Zr  Zr62  1  0.19689125  0.60376520  0.80192114  1
  Zr  Zr63  1  0.90729135  0.50632402  0.49578527  1
  Zr  Zr64  1  0.30302670  0.10752807  0.30747344  1
  Zr  Zr65  1  0.60398097  0.80850940  0.00805355  1
  Zr  Zr66  1  0.09827088  0.49183957  0.30327559  1
  Zr  Zr67  1  0.79466167  0.59281673  0.60323981  1
  Zr  Zr68  1  0.90249940  0.89965442  0.90655761  1
  Zr  Zr69  1  0.10190432  0.09332694  0.90073321  1
  Zr  Zr70  1  0.10233711  0.70873423  0.89773945  1
  Zr  Zr71  1  0.09105311  0.69288166  0.29487162  1
  Zr  Zr72  1  0.50375581  0.10235670  0.50861573  1
  Zr  Zr73  1  0.19513831  0.79401284  0.40204686  1
  Zr  Zr74  1  0.20631897  0.20493699  -0.00317330  1
  Zr  Zr75  1  0.20081888  0.60145610  0.40296860  1
  Zr  Zr76  1  0.30978771  0.69804743  0.29049274  1
  Zr  Zr77  1  0.70447456  0.89855219  0.90791355  1
  Zr  Zr78  1  0.29984113  0.49156605  0.70413474  1
  Zr  Zr79  1  0.70297342  0.09851557  0.29962704  1
  Zr  Zr80  1  0.20859981  0.39161189  0.40808062  1
  Zr  Zr81  1  0.79456177  0.39583805  0.80336589  1
  Zr  Zr82  1  0.51520926  0.70410750  0.50052817  1
  Zr  Zr83  1  0.69349246  0.49851893  0.70744079  1
  Zr  Zr84  1  0.90915891  0.29877026  0.29428085  1
  Zr  Zr85  1  0.49846643  0.10600018  0.69845514  1
  Zr  Zr86  1  0.79794920  -0.00345145  0.79629695  1
  Zr  Zr87  1  0.10143858  0.50084933  0.69913413  1
  Zr  Zr88  1  0.00582357  0.19700075  0.40407836  1
  Zr  Zr89  1  0.90710172  0.50351192  0.30996222  1
  Zr  Zr90  1  0.49958540  0.30503046  0.08985680  1
  Zr  Zr91  1  0.89653404  0.09665211  0.29217869  1
  Zr  Zr92  1  0.79203486  0.40239479  0.40158357  1
  Zr  Zr93  1  0.20111621  0.00399764  0.41199566  1
  Zr  Zr94  1  0.40285985  -0.00514076  0.41174471  1
  Zr  Zr95  1  0.59814815  0.80034049  0.79665164  1
  Zr  Zr96  1  0.69498889  0.50448897  0.30238779  1
  Zr  Zr97  1  0.30463635  0.49831444  0.50157906  1
  Zr  Zr98  1  0.49661644  0.70530132  0.91175738  1
  Zr  Zr99  1  0.09731448  0.10357591  0.29801073  1
  Ta  Ta100  1  0.29722115  0.09441834  0.89837353  1
  Ta  Ta101  1  0.80416076  0.79266757  0.79677798  1
  Ta  Ta102  1  0.59488637  0.60226082  0.19503628  1
  Ta  Ta103  1  0.20286625  0.80031464  0.01422328  1
  Ta  Ta104  1  0.40496040  0.00713040  0.00044262  1
  Ta  Ta105  1  0.10537000  0.29907278  0.29653365  1
  Ta  Ta106  1  0.89382617  0.89539975  0.49851515  1
  Ta  Ta107  1  -0.00082521  0.79672173  0.00119061  1
  Ta  Ta108  1  0.29912333  0.48658805  0.89785963  1
  Ta  Ta109  1  0.90487403  0.69785652  0.69561684  1
  Ta  Ta110  1  0.10393793  0.29870174  0.50362204  1
  Ta  Ta111  1  -0.00275157  0.60163081  0.80069124  1
  Ta  Ta112  1  0.29986941  0.30584506  0.10156485  1
  Ta  Ta113  1  0.90178286  0.49821988  0.89619358  1
  Ta  Ta114  1  0.60024507  -0.00627426  0.40125042  1
  Ta  Ta115  1  0.49868547  0.48815613  0.90234155  1
  Ta  Ta116  1  0.80385473  0.60354741  0.80238711  1
  Ta  Ta117  1  0.59723530  0.39722760  0.20051308  1
  Ta  Ta118  1  0.20044077  0.79955614  0.19177088  1
  Ta  Ta119  1  0.19909159  0.20593644  0.19329946  1
  Ta  Ta120  1  0.00478364  -0.00800310  0.79336986  1
  Ta  Ta121  1  0.79028557  0.39684167  0.60414660  1
  Ta  Ta122  1  0.39551542  0.00009854  0.79466009  1
  Ta  Ta123  1  0.70542508  0.69840089  0.90116561  1
  Ta  Ta124  1  0.70145301  0.70383897  0.69735581  1
  Ta  Ta125  1  0.00622595  0.20275855  0.60410891  1
  Ta  Ta126  1  0.69268846  0.50344766  0.90085927  1
  Ta  Ta127  1  0.60264098  0.20639598  0.60378506  1
  Ta  Ta128  1  0.89777791  0.10016124  0.50841770  1
  Ta  Ta129  1  0.19128591  0.79578177  0.61030992  1
  Ta  Ta130  1  0.49945044  0.49753663  0.29446263  1
  Ta  Ta131  1  0.70650555  0.90306417  0.30182202  1
  Ta  Ta132  1  0.41166229  0.59377091  0.39916394  1
  Ta  Ta133  1  0.00167879  0.79876584  0.79304553  1
  Ta  Ta134  1  0.89945828  0.29225708  0.10188264  1
  Ta  Ta135  1  0.89135369  0.90030525  0.30028811  1
  Ta  Ta136  1  0.89772121  0.10284239  0.10518262  1
  Ta  Ta137  1  0.49562171  0.29333803  0.48866160  1
  Ta  Ta138  1  0.69890250  0.89696156  0.49920530  1
  Ta  Ta139  1  0.69822195  0.10053456  0.50217527  1
  Ta  Ta140  1  0.79311185  0.00513253  0.00848523  1
  Ta  Ta141  1  0.09583547  0.50132139  0.50230908  1
  Ta  Ta142  1  0.69282868  0.29458137  0.29715471  1
  Ta  Ta143  1  0.20883356  -0.00221591  0.78782258  1
  Ta  Ta144  1  0.10046026  0.29306186  0.88782002  1
  Ta  Ta145  1  0.89602449  0.71023545  0.09581370  1
  Ta  Ta146  1  0.40004927  0.20003655  -0.00387027  1
  Ta  Ta147  1  0.10192638  0.10232464  0.51085954  1
  Ta  Ta148  1  0.59932800  -0.00332543  0.19953297  1
  Ta  Ta149  1  0.19515645  0.60699440  0.60364930  1
  Ti  Ti150  1  0.49849000  0.90819724  0.90409805  1
  Ti  Ti151  1  0.70458066  0.11404077  0.69197987  1
  Ti  Ti152  1  0.59836264  0.81108520  0.39302017  1
  Ti  Ti153  1  0.20250013  -0.00312960  0.60970683  1
  Ti  Ti154  1  0.59398775  0.59702413  0.60666881  1
  Ti  Ti155  1  0.30672034  0.90054967  0.09530590  1
  Ti  Ti156  1  -0.00317692  0.80013604  0.19707818  1
  Ti  Ti157  1  0.90411959  0.88799188  0.69630169  1
  Ti  Ti158  1  0.40084465  0.59163676  0.19366374  1
  Ti  Ti159  1  -0.00581072  0.00075948  0.40590920  1
  Ti  Ti160  1  0.50069417  0.69546738  0.29458310  1
  Ti  Ti161  1  0.28955724  0.89157577  0.50601053  1
  Ti  Ti162  1  0.40753878  0.39758910  0.19794666  1
  Ti  Ti163  1  0.69244251  0.50541914  0.49433180  1
  Ti  Ti164  1  0.78920818  0.80317250  0.19786831  1
  Ti  Ti165  1  0.29338375  0.29848524  0.70699317  1
  Ti  Ti166  1  0.68702916  0.30168746  0.89903166  1
  Ti  Ti167  1  0.50032471  0.49447987  0.09683829  1
  Ti  Ti168  1  0.69715522  0.10078051  0.90203881  1
  Ti  Ti169  1  0.70011889  0.70101273  0.30569739  1
  Ti  Ti170  1  0.59380445  0.59863041  0.39404300  1
  Ti  Ti171  1  0.39449449  0.38838930  -0.01291400  1
  Ti  Ti172  1  0.19721761  0.80721028  0.78735173  1
  Ti  Ti173  1  -0.00701017  0.00051877  0.19861712  1
  Ti  Ti174  1  0.40438847  0.80951784  0.19950498  1
  Ti  Ti175  1  0.29803013  0.70153186  0.69870025  1
  Ti  Ti176  1  0.89970887  0.50323515  0.70143764  1
  Ti  Ti177  1  0.59582963  0.60029571  -0.00013268  1
  Ti  Ti178  1  0.58913458  0.39733264  0.39438305  1
  Ti  Ti179  1  0.80109571  0.79872974  0.60133955  1
  Ti  Ti180  1  0.78908819  0.20673053  0.80747624  1
  Ti  Ti181  1  0.80102574  -0.00243652  0.40451896  1
  Ti  Ti182  1  0.60095813  0.20009424  0.00271762  1
  Ti  Ti183  1  0.70665052  0.09898760  0.10967299  1
  Ti  Ti184  1  0.49847792  0.90404511  0.09461909  1
  Ti  Ti185  1  0.30147163  0.09893713  0.09213191  1
  Ti  Ti186  1  0.08620387  0.69297141  0.51323826  1
  Ti  Ti187  1  0.20595399  0.20223864  0.60216756  1
  Ti  Ti188  1  0.69954583  0.89217797  0.69091817  1
  Ti  Ti189  1  0.70179814  0.70333530  0.09360892  1
  Ti  Ti190  1  0.60253987  0.00618890  0.01161453  1
  Ti  Ti191  1  0.20067173  0.39003783  0.60141542  1
  Ti  Ti192  1  0.19975946  0.39141810  0.80506478  1
  Ti  Ti193  1  0.38468588  0.20065918  0.59521253  1
  Ti  Ti194  1  0.20699785  0.20092530  0.41260437  1
  Ti  Ti195  1  0.60016226  0.39479184  -0.00482285  1
  Ti  Ti196  1  0.60598495  0.20734177  0.79732250  1
  Ti  Ti197  1  0.89860661  0.70343495  0.90018550  1
  Ti  Ti198  1  0.59233718  0.39643027  0.80315142  1
  Ti  Ti199  1  0.09627471  0.70415489  0.09872702  1
  Mo  Mo200  1  0.50464031  0.09699064  0.08954065  1
  Mo  Mo201  1  0.51052520  0.70757426  0.69306404  1
  Mo  Mo202  1  0.90318790  0.29725249  0.89806820  1
  Mo  Mo203  1  0.60207332  0.20144478  0.40397865  1
  Mo  Mo204  1  0.50681525  0.29819973  0.90072559  1
  Mo  Mo205  1  0.10200162  0.49762539  0.09458088  1
  Mo  Mo206  1  0.61022657  0.80295815  0.59771732  1
  Mo  Mo207  1  0.50707026  0.90416233  0.29787702  1
  Mo  Mo208  1  0.29496484  0.89499821  0.69957798  1
  Mo  Mo209  1  -0.00357625  0.39649643  -0.00666287  1
  Mo  Mo210  1  0.09810231  0.49326020  0.89619340  1
  Mo  Mo211  1  0.30739426  0.47773233  0.09971398  1
  Mo  Mo212  1  0.70108254  0.90803381  0.10802173  1
  Mo  Mo213  1  0.00498896  0.20309373  0.19410989  1
  Mo  Mo214  1  0.00226431  0.60146861  0.60699169  1
  Mo  Mo215  1  0.78638153  0.60608005  0.39828554  1
  Mo  Mo216  1  0.69716699  0.30252056  0.09968806  1
  Mo  Mo217  1  0.79568444  -0.00124673  0.19845096  1
  Mo  Mo218  1  0.41125236  0.39883181  0.39652809  1
  Mo  Mo219  1  0.00468069  0.60179925  0.40775036  1
  Mo  Mo220  1  -0.01716133  0.00315742  0.00058428  1
  Mo  Mo221  1  0.29651666  0.10335379  0.70267447  1
  Mo  Mo222  1  0.21700841  -0.00058989  0.00455083  1
  Mo  Mo223  1  0.69388615  0.29739184  0.70023546  1
  Mo  Mo224  1  0.50037991  0.49297788  0.71557048  1
  Mo  Mo225  1  0.90107235  0.49220769  0.08679777  1
  Mo  Mo226  1  0.50930959  0.50054166  0.48410286  1
  Mo  Mo227  1  0.79765366  0.80667863  0.39628598  1
  Mo  Mo228  1  0.10061130  0.89974809  0.70182299  1
  Mo  Mo229  1  0.20469177  0.39168979  0.19554182  1
  Mo  Mo230  1  0.29551400  0.30117649  0.90291553  1
  Mo  Mo231  1  0.28883076  0.10595887  0.50992612  1
  Mo  Mo232  1  0.20473362  0.20090426  0.79772730  1
  Mo  Mo233  1  0.39479171  0.20344626  0.41171699  1
  Mo  Mo234  1  0.40052227  0.81558389  0.00671787  1
  Mo  Mo235  1  0.00487489  0.20114736  0.79874036  1
  Mo  Mo236  1  -0.00544825  0.79907679  0.60354097  1
  Mo  Mo237  1  0.61529847  0.00496451  0.59693877  1
  Mo  Mo238  1  0.39773336  0.39534304  0.80872725  1
  Mo  Mo239  1  0.80155616  0.79436863  -0.00027662  1
  Mo  Mo240  1  0.51386158  0.90300088  0.49916064  1
  Mo  Mo241  1  0.30130176  0.29415599  0.50434499  1
  Mo  Mo242  1  0.30446543  0.71714995  0.10358556  1
  Mo  Mo243  1  0.10100923  0.29483954  0.10171541  1
  Mo  Mo244  1  0.01640621  0.39723491  0.40458179  1
  Mo  Mo245  1  0.11215989  0.29733987  0.69924701  1
  Mo  Mo246  1  0.79893393  0.20379164  0.19605210  1
  Mo  Mo247  1  0.50106776  0.30530437  0.30351673  1
  Mo  Mo248  1  0.79614587  0.19947192  0.59819744  1
  Mo  Mo249  1  0.09369565  0.70344388  0.69924617  1
