# generated using pymatgen
data_HfZrTaTiMo
_symmetry_space_group_name_H-M   'P 1'
_cell_length_a   16.89338393
_cell_length_b   16.88713396
_cell_length_c   16.88433088
_cell_angle_alpha   89.99662693
_cell_angle_beta   89.95951663
_cell_angle_gamma   90.05091644
_symmetry_Int_Tables_number   1
_chemical_formula_structural   HfZrTaTiMo
_chemical_formula_sum   'Hf50 Zr50 Ta50 Ti50 Mo50'
_cell_volume   4816.77294131
_cell_formula_units_Z   50
loop_
 _symmetry_equiv_pos_site_id
 _symmetry_equiv_pos_as_xyz
  1  'x, y, z'
loop_
 _atom_site_type_symbol
 _atom_site_label
 _atom_site_symmetry_multiplicity
 _atom_site_fract_x
 _atom_site_fract_y
 _atom_site_fract_z
 _atom_site_occupancy
  Hf  Hf0  1  0.61202628  0.21303322  0.39721022  1
  Hf  Hf1  1  0.19955518  0.39825222  0.79498466  1
  Hf  Hf2  1  0.60864222  0.00013796  0.60472127  1
  Hf  Hf3  1  0.19764603  0.39826840  0.00863130  1
  Hf  Hf4  1  0.19328555  -0.00047239  0.00419515  1
  Hf  Hf5  1  0.69773482  0.30481797  0.90502465  1
  Hf  Hf6  1  0.79731370  0.00542950  0.59849075  1
  Hf  Hf7  1  0.29113463  0.30130015  0.29199757  1
  Hf  Hf8  1  0.19364864  0.59006565  0.39904291  1
  Hf  Hf9  1  0.29317624  0.89067755  0.30176661  1
  Hf  Hf10  1  0.40753202  0.81297999  0.79487391  1
  Hf  Hf11  1  0.09495020  0.10686974  0.30043887  1
  Hf  Hf12  1  0.00085336  -0.00573555  0.79633201  1
  Hf  Hf13  1  0.40230773  0.59849266  0.79688258  1
  Hf  Hf14  1  0.10135851  0.30482657  0.49886300  1
  Hf  Hf15  1  0.40063943  0.40187755  0.60373736  1
  Hf  Hf16  1  0.80061076  0.19612787  0.38949400  1
  Hf  Hf17  1  -0.00288109  0.20349074  0.00676241  1
  Hf  Hf18  1  0.70162126  0.49526423  0.69884359  1
  Hf  Hf19  1  0.40263765  -0.00096948  0.80678796  1
  Hf  Hf20  1  0.57716253  0.20522431  0.82877953  1
  Hf  Hf21  1  0.70769250  0.50125901  0.09441014  1
  Hf  Hf22  1  0.79799225  0.59877574  0.80612020  1
  Hf  Hf23  1  0.00651885  0.80453119  0.59369495  1
  Hf  Hf24  1  0.50427726  0.69534098  0.69430542  1
  Hf  Hf25  1  0.29941829  0.50474308  0.89831620  1
  Hf  Hf26  1  0.00331929  0.40819705  0.39786098  1
  Hf  Hf27  1  0.78742816  0.20213526  0.58693964  1
  Hf  Hf28  1  0.19159623  -0.00763590  0.20234809  1
  Hf  Hf29  1  0.51659550  0.89863522  0.49122481  1
  Hf  Hf30  1  0.28877439  0.69958878  0.50803385  1
  Hf  Hf31  1  0.29141932  0.10143361  0.69892767  1
  Hf  Hf32  1  0.09970891  0.88636926  0.90469195  1
  Hf  Hf33  1  0.50326768  0.50086780  0.10006933  1
  Hf  Hf34  1  0.89196613  0.09916471  0.90049159  1
  Hf  Hf35  1  0.39315501  0.19892483  0.40090660  1
  Hf  Hf36  1  0.00229802  0.60138094  0.00343057  1
  Hf  Hf37  1  0.90625243  0.09248678  0.49307425  1
  Hf  Hf38  1  0.28994766  0.30531868  0.50345363  1
  Hf  Hf39  1  0.70723143  0.89575837  0.49246784  1
  Hf  Hf40  1  -0.01199096  0.19906258  0.19896994  1
  Hf  Hf41  1  0.18383600  -0.00449661  0.40436580  1
  Hf  Hf42  1  0.69623105  0.09839557  0.91645877  1
  Hf  Hf43  1  0.29260100  0.89082424  0.90419558  1
  Hf  Hf44  1  0.50901109  0.49194811  0.90227815  1
  Hf  Hf45  1  0.50981514  0.09698321  0.30321590  1
  Hf  Hf46  1  0.50496992  0.09838164  0.49646932  1
  Hf  Hf47  1  0.40014498  0.19925595  0.18819608  1
  Hf  Hf48  1  0.89905836  0.89757462  0.69020760  1
  Hf  Hf49  1  0.40171545  0.79620483  0.40455031  1
  Zr  Zr50  1  0.39501169  0.60638862  0.00491816  1
  Zr  Zr51  1  0.00125029  0.79792074  0.39748861  1
  Zr  Zr52  1  0.70484937  0.30164867  0.09723197  1
  Zr  Zr53  1  0.38773625  0.41004082  0.40098925  1
  Zr  Zr54  1  0.40005050  0.80118525  0.19598046  1
  Zr  Zr55  1  0.49996816  0.69866775  0.89951564  1
  Zr  Zr56  1  0.80069441  -0.00801567  0.80179551  1
  Zr  Zr57  1  0.61337780  0.00443244  0.19558422  1
  Zr  Zr58  1  0.50423931  0.10953654  0.69695852  1
  Zr  Zr59  1  0.19534664  0.00159224  0.79981412  1
  Zr  Zr60  1  0.50373413  0.70142353  0.29985135  1
  Zr  Zr61  1  0.29378038  0.09052926  0.50821933  1
  Zr  Zr62  1  0.39259087  0.19599358  0.80679411  1
  Zr  Zr63  1  0.20456096  0.20118347  -0.00505702  1
  Zr  Zr64  1  0.30271792  0.30565586  0.89650440  1
  Zr  Zr65  1  -0.00620100  -0.00492574  0.00426504  1
  Zr  Zr66  1  0.40652517  0.79860576  0.59763587  1
  Zr  Zr67  1  0.70405115  0.11641906  0.71938084  1
  Zr  Zr68  1  0.70800440  0.70136673  0.09847931  1
  Zr  Zr69  1  0.41195754  0.19315502  -0.00568306  1
  Zr  Zr70  1  0.80929339  0.80311907  0.00035199  1
  Zr  Zr71  1  0.10134685  0.50319774  0.89786153  1
  Zr  Zr72  1  0.60325978  0.39529981  0.59027630  1
  Zr  Zr73  1  0.70799343  0.50879049  0.49976572  1
  Zr  Zr74  1  0.90738850  0.69765608  0.90311728  1
  Zr  Zr75  1  0.10142852  0.29688715  0.69582797  1
  Zr  Zr76  1  0.40769099  -0.01335196  0.61070715  1
  Zr  Zr77  1  0.39431947  -0.00527889  0.39747142  1
  Zr  Zr78  1  0.39049264  0.60281199  0.40544181  1
  Zr  Zr79  1  0.90002313  0.50306717  0.10163416  1
  Zr  Zr80  1  0.40522120  -0.00052651  0.00145653  1
  Zr  Zr81  1  0.79658361  0.79861148  0.80487401  1
  Zr  Zr82  1  0.59241327  -0.01313505  0.80553385  1
  Zr  Zr83  1  0.48173922  0.50991126  0.28702350  1
  Zr  Zr84  1  0.60101691  0.40788351  0.39635762  1
  Zr  Zr85  1  0.90366781  0.69742123  0.69238353  1
  Zr  Zr86  1  0.90010685  0.30261356  0.50404949  1
  Zr  Zr87  1  0.50555446  0.69283985  0.10950659  1
  Zr  Zr88  1  0.59861340  0.80628787  -0.00104937  1
  Zr  Zr89  1  0.79436242  0.39645804  0.40024526  1
  Zr  Zr90  1  0.10718663  0.51006168  0.69053854  1
  Zr  Zr91  1  0.00216373  0.19857759  0.79960560  1
  Zr  Zr92  1  -0.00561991  0.41188962  0.60526221  1
  Zr  Zr93  1  0.60984729  0.40624206  0.20555493  1
  Zr  Zr94  1  0.00025978  -0.00711093  0.19795295  1
  Zr  Zr95  1  0.90120403  0.50325239  0.29725211  1
  Zr  Zr96  1  0.40190264  0.00121594  0.19578433  1
  Zr  Zr97  1  0.49298107  0.30536435  0.29189831  1
  Zr  Zr98  1  0.69627206  0.30100782  0.70875668  1
  Zr  Zr99  1  0.29101801  0.69506799  0.69887282  1
  Ta  Ta100  1  0.28948181  0.70550076  0.89857371  1
  Ta  Ta101  1  0.60981847  0.60210130  0.79930062  1
  Ta  Ta102  1  0.00149408  0.60175552  0.40337359  1
  Ta  Ta103  1  0.00487312  0.39530194  0.19557760  1
  Ta  Ta104  1  0.09926128  0.69917417  0.10290568  1
  Ta  Ta105  1  0.49682965  0.51360509  0.50548143  1
  Ta  Ta106  1  0.61897890  0.60062387  0.21425567  1
  Ta  Ta107  1  0.80491044  0.19608426  0.00875911  1
  Ta  Ta108  1  0.09859346  0.50182606  0.10416096  1
  Ta  Ta109  1  0.89647203  0.30173482  0.90008952  1
  Ta  Ta110  1  0.29075347  0.89306524  0.09724587  1
  Ta  Ta111  1  0.50150672  0.30500107  0.70498826  1
  Ta  Ta112  1  -0.00747330  0.40300764  0.80076133  1
  Ta  Ta113  1  0.89999293  0.49774003  0.90409534  1
  Ta  Ta114  1  0.80595678  0.40335653  0.80076030  1
  Ta  Ta115  1  -0.00143585  0.59499230  0.79444828  1
  Ta  Ta116  1  0.28988465  0.10248078  0.10318624  1
  Ta  Ta117  1  0.60595652  0.19556782  0.19436747  1
  Ta  Ta118  1  0.10476864  0.70012113  0.89677191  1
  Ta  Ta119  1  0.29014026  0.69816756  0.29499121  1
  Ta  Ta120  1  0.19974774  0.60416082  0.00547166  1
  Ta  Ta121  1  0.90007628  0.10797651  0.69567653  1
  Ta  Ta122  1  0.09782159  0.69599938  0.29377719  1
  Ta  Ta123  1  0.10127519  0.30007114  0.29866245  1
  Ta  Ta124  1  0.60290376  0.60458768  0.59807634  1
  Ta  Ta125  1  0.09988916  0.69802895  0.69987330  1
  Ta  Ta126  1  0.89896553  0.51105181  0.50626411  1
  Ta  Ta127  1  0.30185359  0.49933805  0.10698843  1
  Ta  Ta128  1  0.10077429  0.10671433  0.10506004  1
  Ta  Ta129  1  0.28152457  0.89324234  0.50821499  1
  Ta  Ta130  1  0.51429896  0.89861720  0.30138394  1
  Ta  Ta131  1  0.19328867  0.19387675  0.59540863  1
  Ta  Ta132  1  0.40000958  0.20765799  0.59962815  1
  Ta  Ta133  1  0.60638291  0.79800015  0.80247937  1
  Ta  Ta134  1  0.89472162  0.89964015  0.30030833  1
  Ta  Ta135  1  0.89062623  0.29728754  0.70145330  1
  Ta  Ta136  1  0.80465241  0.79337149  0.39455387  1
  Ta  Ta137  1  0.19439310  0.19591943  0.40190013  1
  Ta  Ta138  1  0.19818558  0.40245574  0.19942738  1
  Ta  Ta139  1  0.70247088  0.90567964  0.91295479  1
  Ta  Ta140  1  0.00099780  0.80247387  0.01107434  1
  Ta  Ta141  1  0.79946739  0.60438146  0.20628941  1
  Ta  Ta142  1  0.29783835  0.50424233  0.69628060  1
  Ta  Ta143  1  0.10042683  0.69124576  0.50779900  1
  Ta  Ta144  1  0.89619382  0.90160177  0.49427863  1
  Ta  Ta145  1  0.70787419  0.70137065  0.50212439  1
  Ta  Ta146  1  0.19808047  0.59803272  0.19827244  1
  Ta  Ta147  1  0.50880104  0.30454103  0.09183388  1
  Ta  Ta148  1  0.00216578  0.39188273  0.00264375  1
  Ta  Ta149  1  0.39897076  0.80288126  0.00244514  1
  Ti  Ti150  1  0.60348598  0.79379051  0.59752006  1
  Ti  Ti151  1  0.50653390  0.90122771  0.10288656  1
  Ti  Ti152  1  0.00250869  0.80392544  0.19711547  1
  Ti  Ti153  1  0.40456633  0.39986387  0.79483969  1
  Ti  Ti154  1  0.70947065  0.90988695  0.09773054  1
  Ti  Ti155  1  0.80064235  0.60999896  0.39176871  1
  Ti  Ti156  1  0.18668504  0.79892291  0.40170273  1
  Ti  Ti157  1  0.90232678  0.69675863  0.10857832  1
  Ti  Ti158  1  0.09860763  0.29808688  0.89499294  1
  Ti  Ti159  1  0.19533554  0.41072267  0.39560502  1
  Ti  Ti160  1  0.29244835  0.70430636  0.10174824  1
  Ti  Ti161  1  0.29160145  0.10292744  0.29431868  1
  Ti  Ti162  1  0.89753564  0.30672646  0.29103902  1
  Ti  Ti163  1  0.00467253  -0.01003820  0.39842134  1
  Ti  Ti164  1  0.80356829  0.59854981  0.60552183  1
  Ti  Ti165  1  0.69713540  0.08875017  0.47833701  1
  Ti  Ti166  1  0.29537554  0.29771249  0.69594259  1
  Ti  Ti167  1  -0.00068612  0.80183252  0.80022254  1
  Ti  Ti168  1  0.61292905  0.60498269  -0.00895976  1
  Ti  Ti169  1  0.28777552  0.50356577  0.51853250  1
  Ti  Ti170  1  0.80710415  0.40104280  -0.00366129  1
  Ti  Ti171  1  -0.00319435  0.20408569  0.39651252  1
  Ti  Ti172  1  0.61166630  0.79030481  0.39374437  1
  Ti  Ti173  1  0.00145439  0.19369471  0.59628616  1
  Ti  Ti174  1  0.89685186  0.69664802  0.50303758  1
  Ti  Ti175  1  0.01172297  -0.00193830  0.59468367  1
  Ti  Ti176  1  0.61339951  0.80286298  0.20508124  1
  Ti  Ti177  1  0.10049881  0.09830364  0.69312439  1
  Ti  Ti178  1  0.10821640  0.29350603  0.11202221  1
  Ti  Ti179  1  0.70144330  0.49646013  0.90402973  1
  Ti  Ti180  1  0.89180613  0.08322152  0.29902321  1
  Ti  Ti181  1  0.90697481  0.69895616  0.29062344  1
  Ti  Ti182  1  0.49620717  0.30228446  0.49926583  1
  Ti  Ti183  1  0.70381633  0.70200330  0.69373223  1
  Ti  Ti184  1  0.19160560  0.80074219  0.78966075  1
  Ti  Ti185  1  0.89167448  0.30581998  0.10534283  1
  Ti  Ti186  1  0.89030834  0.90348903  0.10769434  1
  Ti  Ti187  1  0.50596655  0.49939933  0.69895735  1
  Ti  Ti188  1  0.60105041  0.20593598  0.59046288  1
  Ti  Ti189  1  0.27930525  0.89949886  0.68826067  1
  Ti  Ti190  1  0.79885363  0.18261837  0.19585984  1
  Ti  Ti191  1  0.79818579  0.79950367  0.20779778  1
  Ti  Ti192  1  0.71313961  0.30160895  0.28474081  1
  Ti  Ti193  1  0.18842386  0.80069616  0.19797766  1
  Ti  Ti194  1  0.70241973  0.88681226  0.69336669  1
  Ti  Ti195  1  0.10249273  0.10452469  0.89911523  1
  Ti  Ti196  1  0.39839528  0.39567096  0.00768320  1
  Ti  Ti197  1  0.60427825  0.60553548  0.39907075  1
  Ti  Ti198  1  0.70908692  0.90976565  0.30510381  1
  Ti  Ti199  1  0.09546100  0.50327348  0.29006463  1
  Mo  Mo200  1  0.80764202  0.40317896  0.20092381  1
  Mo  Mo201  1  0.19875587  0.60622001  0.80189595  1
  Mo  Mo202  1  0.60078744  0.19885640  0.01036627  1
  Mo  Mo203  1  0.69914192  0.69803812  0.89907332  1
  Mo  Mo204  1  0.80422947  -0.00431313  0.39474451  1
  Mo  Mo205  1  0.70656376  0.70586337  0.30455674  1
  Mo  Mo206  1  0.69933737  0.29769617  0.49792056  1
  Mo  Mo207  1  0.80597981  0.20553976  0.80821043  1
  Mo  Mo208  1  0.89532395  0.49898260  0.70298557  1
  Mo  Mo209  1  0.08957297  0.10342001  0.49832182  1
  Mo  Mo210  1  0.80111459  0.79696646  0.59002538  1
  Mo  Mo211  1  -0.00198461  0.60501317  0.59618190  1
  Mo  Mo212  1  0.60852983  -0.00293016  0.39335373  1
  Mo  Mo213  1  0.19757177  0.20100020  0.20066768  1
  Mo  Mo214  1  0.90370924  0.89794153  0.90376131  1
  Mo  Mo215  1  0.51280404  0.10517032  0.09789856  1
  Mo  Mo216  1  0.70947096  0.51026010  0.30259477  1
  Mo  Mo217  1  0.89704698  0.09864601  0.10165151  1
  Mo  Mo218  1  0.51618143  0.69632361  0.49825732  1
  Mo  Mo219  1  0.50565176  0.08409234  0.91119639  1
  Mo  Mo220  1  0.09618085  0.89959866  0.50023536  1
  Mo  Mo221  1  0.38081626  0.60190421  0.20062786  1
  Mo  Mo222  1  0.29294093  0.09552201  0.90394209  1
  Mo  Mo223  1  0.59994090  -0.00063352  0.00762345  1
  Mo  Mo224  1  0.09742395  0.50291312  0.49602329  1
  Mo  Mo225  1  0.19040174  0.80173690  0.60166280  1
  Mo  Mo226  1  0.28991737  0.50127521  0.28833057  1
  Mo  Mo227  1  0.59953334  0.40532491  0.80167826  1
  Mo  Mo228  1  0.20415761  0.40109897  0.59995015  1
  Mo  Mo229  1  0.70598030  0.10320644  0.29621349  1
  Mo  Mo230  1  0.80222094  -0.00370784  0.20117352  1
  Mo  Mo231  1  0.52119842  0.88790498  0.69631691  1
  Mo  Mo232  1  0.39155947  0.39604556  0.18551514  1
  Mo  Mo233  1  0.80266359  0.59825017  -0.00073144  1
  Mo  Mo234  1  0.30332216  0.30392865  0.10150565  1
  Mo  Mo235  1  0.60276153  0.40148176  -0.00076281  1
  Mo  Mo236  1  0.80489032  0.40125510  0.60589381  1
  Mo  Mo237  1  0.50342780  0.89376008  0.90507900  1
  Mo  Mo238  1  0.19701290  0.60078478  0.59750450  1
  Mo  Mo239  1  0.09941392  0.88805511  0.10302855  1
  Mo  Mo240  1  0.70721449  0.10045567  0.09910292  1
  Mo  Mo241  1  0.09421838  0.88650545  0.30109599  1
  Mo  Mo242  1  0.49938658  0.31997270  0.90445704  1
  Mo  Mo243  1  0.40392598  0.59362101  0.60180403  1
  Mo  Mo244  1  0.19545417  0.19808664  0.79542012  1
  Mo  Mo245  1  0.18247806  -0.00233362  0.60055075  1
  Mo  Mo246  1  0.09665967  0.89531613  0.69846098  1
  Mo  Mo247  1  0.80010618  -0.00027387  0.01085502  1
  Mo  Mo248  1  0.00289610  0.60481296  0.20138991  1
  Mo  Mo249  1  0.19870548  0.79149158  0.00772149  1
