# generated using pymatgen
data_HfZrTaTiMo
_symmetry_space_group_name_H-M   'P 1'
_cell_length_a   16.88238871
_cell_length_b   16.88764841
_cell_length_c   16.87461182
_cell_angle_alpha   89.98487719
_cell_angle_beta   89.96592525
_cell_angle_gamma   90.03064212
_symmetry_Int_Tables_number   1
_chemical_formula_structural   HfZrTaTiMo
_chemical_formula_sum   'Hf50 Zr50 Ta50 Ti50 Mo50'
_cell_volume   4811.01500319
_cell_formula_units_Z   50
loop_
 _symmetry_equiv_pos_site_id
 _symmetry_equiv_pos_as_xyz
  1  'x, y, z'
loop_
 _atom_site_type_symbol
 _atom_site_label
 _atom_site_symmetry_multiplicity
 _atom_site_fract_x
 _atom_site_fract_y
 _atom_site_fract_z
 _atom_site_occupancy
  Hf  Hf0  1  0.10366502  0.09328284  0.49253000  1
  Hf  Hf1  1  0.69626861  0.09793975  0.50878212  1
  Hf  Hf2  1  0.59559670  0.40246310  -0.00596401  1
  Hf  Hf3  1  -0.00402423  0.79547379  0.80263789  1
  Hf  Hf4  1  0.79065441  0.79164235  0.79342313  1
  Hf  Hf5  1  0.90535900  0.69848697  0.29613164  1
  Hf  Hf6  1  0.39399877  0.60538618  0.20586581  1
  Hf  Hf7  1  0.09864606  0.30736336  0.50161901  1
  Hf  Hf8  1  0.89671005  0.50150876  0.69705009  1
  Hf  Hf9  1  0.79789433  0.39838924  0.20063676  1
  Hf  Hf10  1  0.80233465  0.00492961  0.19577829  1
  Hf  Hf11  1  0.09848031  0.09455226  0.30306566  1
  Hf  Hf12  1  0.60341159  0.39809528  0.60218644  1
  Hf  Hf13  1  0.49653821  0.49898269  0.30040584  1
  Hf  Hf14  1  0.89660098  0.69583871  0.50075158  1
  Hf  Hf15  1  0.30186500  0.29928126  0.89798819  1
  Hf  Hf16  1  0.48911879  0.50946762  0.70467432  1
  Hf  Hf17  1  0.39793435  0.78315254  0.40697918  1
  Hf  Hf18  1  0.29041197  0.09792280  0.30568359  1
  Hf  Hf19  1  0.69176759  0.50752546  0.09639597  1
  Hf  Hf20  1  0.29378957  0.10608210  0.09859329  1
  Hf  Hf21  1  0.80106599  0.20549951  0.20531836  1
  Hf  Hf22  1  0.20489934  0.60650511  0.80426279  1
  Hf  Hf23  1  0.89291611  0.09373629  0.49222113  1
  Hf  Hf24  1  0.40348268  0.00090467  0.20044792  1
  Hf  Hf25  1  0.00159483  0.80400201  0.59642072  1
  Hf  Hf26  1  0.40281157  0.39790732  0.00860009  1
  Hf  Hf27  1  0.29179720  0.90003994  0.10046009  1
  Hf  Hf28  1  0.80084098  0.79892302  0.20064177  1
  Hf  Hf29  1  -0.00011003  0.79686630  0.39845829  1
  Hf  Hf30  1  0.88786797  0.90182951  0.90865714  1
  Hf  Hf31  1  0.20253285  0.79638479  0.60004289  1
  Hf  Hf32  1  0.39890373  0.80095590  0.21082689  1
  Hf  Hf33  1  0.51231897  0.09609278  0.29967937  1
  Hf  Hf34  1  0.90093423  0.69577410  0.09577786  1
  Hf  Hf35  1  0.91325368  0.49920640  0.09216700  1
  Hf  Hf36  1  0.19889043  0.40030979  0.39499408  1
  Hf  Hf37  1  0.19834332  0.78887560  0.39165150  1
  Hf  Hf38  1  0.50415659  0.69575341  0.09866939  1
  Hf  Hf39  1  0.70703993  0.89916126  0.50543238  1
  Hf  Hf40  1  0.90359135  0.50507015  0.30852927  1
  Hf  Hf41  1  0.19820710  0.79509840  -0.00419858  1
  Hf  Hf42  1  0.69917484  0.90396969  0.30296702  1
  Hf  Hf43  1  0.40218986  0.19596929  0.60375514  1
  Hf  Hf44  1  0.90902878  0.49365048  0.89695906  1
  Hf  Hf45  1  0.60063151  0.79314876  -0.00556156  1
  Hf  Hf46  1  0.50259705  0.29582509  0.50236612  1
  Hf  Hf47  1  0.00127071  0.79014971  0.00115735  1
  Hf  Hf48  1  0.70065207  0.50716136  0.70063084  1
  Hf  Hf49  1  0.20117706  0.40724324  0.00309381  1
  Zr  Zr50  1  0.00278976  0.20768283  0.39296099  1
  Zr  Zr51  1  0.70573615  0.09750563  0.31290416  1
  Zr  Zr52  1  0.40237853  0.20786176  0.19936097  1
  Zr  Zr53  1  0.70014727  0.90254328  0.89482924  1
  Zr  Zr54  1  0.20080353  -0.00919365  0.80314576  1
  Zr  Zr55  1  0.10095490  0.50262964  0.30604414  1
  Zr  Zr56  1  0.50693018  0.89572954  0.89104533  1
  Zr  Zr57  1  0.79484712  0.40412668  -0.00843939  1
  Zr  Zr58  1  0.60321491  0.60521360  0.80842244  1
  Zr  Zr59  1  0.00336907  0.39676880  0.20810062  1
  Zr  Zr60  1  0.69239955  0.29727849  0.09430080  1
  Zr  Zr61  1  0.59275473  0.80032962  0.40293595  1
  Zr  Zr62  1  0.30777962  0.50324814  0.89387717  1
  Zr  Zr63  1  0.48791831  0.50560088  0.49859425  1
  Zr  Zr64  1  0.60376420  0.39408988  0.39982764  1
  Zr  Zr65  1  0.40298743  0.00256031  -0.00556076  1
  Zr  Zr66  1  0.29122536  0.29587240  0.49393482  1
  Zr  Zr67  1  0.49817059  0.70687556  0.69614288  1
  Zr  Zr68  1  0.89792016  0.69872684  0.69056334  1
  Zr  Zr69  1  0.38720206  0.39053846  0.60677261  1
  Zr  Zr70  1  0.41793845  -0.01758884  0.39798795  1
  Zr  Zr71  1  0.20261588  0.20221204  0.61444489  1
  Zr  Zr72  1  0.70396086  0.10272327  0.90157126  1
  Zr  Zr73  1  0.09634972  0.30818778  0.09645620  1
  Zr  Zr74  1  0.50518806  0.89992810  0.10051075  1
  Zr  Zr75  1  0.39583681  0.60268190  0.00084195  1
  Zr  Zr76  1  0.51990720  0.08480728  0.69273733  1
  Zr  Zr77  1  0.00149315  0.60084317  0.79883923  1
  Zr  Zr78  1  0.79641181  0.39077448  0.40102411  1
  Zr  Zr79  1  0.30256267  0.08979088  0.70234609  1
  Zr  Zr80  1  0.60259599  0.39909699  0.80356354  1
  Zr  Zr81  1  -0.00408791  0.19086051  0.60694043  1
  Zr  Zr82  1  0.29582080  0.09326492  0.49075640  1
  Zr  Zr83  1  0.40464585  0.19506738  0.79682661  1
  Zr  Zr84  1  0.89829650  0.30935368  0.71001990  1
  Zr  Zr85  1  0.29496002  0.10024243  0.90301634  1
  Zr  Zr86  1  0.30408914  0.50972450  0.69552701  1
  Zr  Zr87  1  0.90446769  0.89966240  0.10015057  1
  Zr  Zr88  1  0.09189947  0.89717649  0.28956120  1
  Zr  Zr89  1  0.69516120  0.50237860  0.29730981  1
  Zr  Zr90  1  0.70408113  0.50758637  0.50067247  1
  Zr  Zr91  1  0.00405389  0.19371595  0.80696095  1
  Zr  Zr92  1  0.89581814  0.29946990  0.50478174  1
  Zr  Zr93  1  0.60459459  0.19663670  0.79771598  1
  Zr  Zr94  1  0.19552397  -0.00895197  0.60612712  1
  Zr  Zr95  1  0.70804940  0.90117251  0.08659352  1
  Zr  Zr96  1  0.40631412  0.20355865  0.39176827  1
  Zr  Zr97  1  0.09660649  0.90089491  0.89894622  1
  Zr  Zr98  1  0.09991548  0.31024334  0.70194665  1
  Zr  Zr99  1  0.29949301  0.89814300  0.49838843  1
  Ta  Ta100  1  0.00429908  0.19710524  -0.00240240  1
  Ta  Ta101  1  0.49958817  0.29537549  0.90276475  1
  Ta  Ta102  1  0.79777669  0.60314660  0.80855644  1
  Ta  Ta103  1  0.70106439  0.10711706  0.09190996  1
  Ta  Ta104  1  0.90114973  0.50570184  0.50052217  1
  Ta  Ta105  1  0.89610446  0.10062677  0.90460037  1
  Ta  Ta106  1  0.90377952  0.30032559  0.90230473  1
  Ta  Ta107  1  0.09810924  0.49937751  0.90461490  1
  Ta  Ta108  1  0.10226092  0.69434505  0.50147496  1
  Ta  Ta109  1  0.19227252  0.00277898  0.19331718  1
  Ta  Ta110  1  0.10023156  0.69280984  0.90251040  1
  Ta  Ta111  1  0.51096483  0.11034531  0.09554919  1
  Ta  Ta112  1  0.20414021  0.40271994  0.79571507  1
  Ta  Ta113  1  0.89695859  0.10778487  0.09349698  1
  Ta  Ta114  1  0.90185422  0.90811816  0.30406726  1
  Ta  Ta115  1  0.39195358  0.79498903  0.80536090  1
  Ta  Ta116  1  0.79895686  0.60099975  -0.00752840  1
  Ta  Ta117  1  0.70033203  0.70024995  0.29858018  1
  Ta  Ta118  1  0.01396100  0.60527960  0.19208664  1
  Ta  Ta119  1  0.39329199  0.79547819  -0.00450261  1
  Ta  Ta120  1  0.59976838  0.60453449  0.20365107  1
  Ta  Ta121  1  0.59804162  0.01123200  -0.00605246  1
  Ta  Ta122  1  0.89567953  0.89995835  0.69781942  1
  Ta  Ta123  1  0.59597366  0.61222618  0.40521832  1
  Ta  Ta124  1  0.09599799  0.90418034  0.49135052  1
  Ta  Ta125  1  0.80080414  0.79905712  0.40152334  1
  Ta  Ta126  1  0.90153593  0.09491362  0.30398070  1
  Ta  Ta127  1  0.09558535  0.08921449  0.70780219  1
  Ta  Ta128  1  0.19829021  0.60634676  0.20316670  1
  Ta  Ta129  1  0.00032582  0.41269715  0.59877160  1
  Ta  Ta130  1  0.00330461  0.01053805  0.00141007  1
  Ta  Ta131  1  0.50384893  0.49864620  0.10799470  1
  Ta  Ta132  1  0.29322164  0.70506067  0.10479555  1
  Ta  Ta133  1  -0.00177879  0.19883516  0.19728878  1
  Ta  Ta134  1  0.69950404  0.69654703  0.09869897  1
  Ta  Ta135  1  0.10661005  0.70148351  0.70083555  1
  Ta  Ta136  1  0.79774032  0.40053359  0.60074566  1
  Ta  Ta137  1  0.90271406  0.29805603  0.08967938  1
  Ta  Ta138  1  0.19152543  0.20677888  0.20244723  1
  Ta  Ta139  1  0.40766840  -0.00697332  0.80109567  1
  Ta  Ta140  1  0.80013460  0.00590240  0.79095451  1
  Ta  Ta141  1  0.18664641  0.19967587  -0.00304850  1
  Ta  Ta142  1  0.28907448  0.90117152  0.29640477  1
  Ta  Ta143  1  0.80012982  0.60001974  0.19696121  1
  Ta  Ta144  1  0.30341468  0.50267425  0.30347816  1
  Ta  Ta145  1  0.60637085  0.20614026  0.39802030  1
  Ta  Ta146  1  0.29507647  0.29766068  0.09941764  1
  Ta  Ta147  1  0.60150156  0.20657383  0.20130929  1
  Ta  Ta148  1  0.80041290  0.00025225  0.60915853  1
  Ta  Ta149  1  0.50754106  0.89176340  0.70252688  1
  Ti  Ti150  1  0.29887495  0.50448450  0.49602749  1
  Ti  Ti151  1  0.69154265  0.90340365  0.70001157  1
  Ti  Ti152  1  0.59932286  0.79960885  0.20376642  1
  Ti  Ti153  1  -0.00493417  -0.00230875  0.60367386  1
  Ti  Ti154  1  0.50335168  0.88302050  0.52602534  1
  Ti  Ti155  1  0.30247968  0.70237616  0.70184559  1
  Ti  Ti156  1  0.60049855  0.61038759  0.59210026  1
  Ti  Ti157  1  0.18374203  0.00704349  0.00502405  1
  Ti  Ti158  1  0.09415603  0.31256068  0.89746611  1
  Ti  Ti159  1  0.70567614  0.28452117  0.50644239  1
  Ti  Ti160  1  0.20138995  0.60237398  0.59560872  1
  Ti  Ti161  1  0.78540413  0.61451559  0.60026857  1
  Ti  Ti162  1  0.80496301  0.19406503  0.79489144  1
  Ti  Ti163  1  -0.00812518  0.00140788  0.80188584  1
  Ti  Ti164  1  0.19452650  0.20119935  0.80350491  1
  Ti  Ti165  1  0.40805914  0.20104104  0.00233300  1
  Ti  Ti166  1  0.70494024  0.29031482  0.90203261  1
  Ti  Ti167  1  0.69861432  0.69808360  0.90522951  1
  Ti  Ti168  1  0.60368140  0.00233497  0.19272162  1
  Ti  Ti169  1  0.09772900  0.89317944  0.10449550  1
  Ti  Ti170  1  0.29848803  0.89503680  0.89800724  1
  Ti  Ti171  1  0.00941946  0.60362731  0.40226270  1
  Ti  Ti172  1  0.80015116  0.18935655  0.61607490  1
  Ti  Ti173  1  0.90063400  0.30004296  0.30597626  1
  Ti  Ti174  1  0.50758596  0.30896162  0.29126176  1
  Ti  Ti175  1  0.89747989  0.90474726  0.49828316  1
  Ti  Ti176  1  0.39415265  0.62241322  0.58111023  1
  Ti  Ti177  1  0.19282536  0.60129890  0.01086479  1
  Ti  Ti178  1  0.50041793  0.30086193  0.70363465  1
  Ti  Ti179  1  0.29811192  0.50277129  0.10923648  1
  Ti  Ti180  1  0.61987693  0.78681668  0.60315395  1
  Ti  Ti181  1  0.10172883  0.50170886  0.50161959  1
  Ti  Ti182  1  0.00098792  0.00972420  0.18898673  1
  Ti  Ti183  1  0.10520950  0.50045352  0.69845035  1
  Ti  Ti184  1  0.78959924  0.40199278  0.80335290  1
  Ti  Ti185  1  0.59369319  -0.00963159  0.41050497  1
  Ti  Ti186  1  0.51272678  0.10002328  0.50610674  1
  Ti  Ti187  1  0.39485834  0.39591895  0.19899921  1
  Ti  Ti188  1  0.40711210  -0.00760738  0.60063935  1
  Ti  Ti189  1  0.20291064  0.40106378  0.20319452  1
  Ti  Ti190  1  0.70256860  0.29321827  0.69570792  1
  Ti  Ti191  1  0.39302989  0.39501089  0.39397807  1
  Ti  Ti192  1  0.79265716  0.60780231  0.39879645  1
  Ti  Ti193  1  0.00874708  0.59926216  0.59886222  1
  Ti  Ti194  1  0.50135944  0.69535564  0.30296844  1
  Ti  Ti195  1  0.49499813  0.50297481  0.89581234  1
  Ti  Ti196  1  0.20938204  0.60660369  0.39754318  1
  Ti  Ti197  1  0.09438584  0.89632318  0.70435373  1
  Ti  Ti198  1  0.49546841  0.69800948  0.89645383  1
  Ti  Ti199  1  0.31084272  0.89091295  0.70204418  1
  Mo  Mo200  1  0.40339387  0.39295030  0.80175658  1
  Mo  Mo201  1  0.60276028  -0.01478731  0.59904181  1
  Mo  Mo202  1  0.29461994  0.30772099  0.28994363  1
  Mo  Mo203  1  0.80187163  0.80707549  0.59972672  1
  Mo  Mo204  1  0.59159610  0.39986484  0.19621610  1
  Mo  Mo205  1  0.00419074  0.39604037  -0.00566493  1
  Mo  Mo206  1  0.49575786  0.30149262  0.09998811  1
  Mo  Mo207  1  -0.00213212  0.40771809  0.41000596  1
  Mo  Mo208  1  0.39354466  0.79958872  0.60612753  1
  Mo  Mo209  1  0.70251662  0.50616039  0.89919589  1
  Mo  Mo210  1  0.59507056  0.20278064  -0.00227842  1
  Mo  Mo211  1  0.70625534  0.09725133  0.69805030  1
  Mo  Mo212  1  0.79919747  0.78036911  -0.00626619  1
  Mo  Mo213  1  0.69672972  0.29615407  0.29710047  1
  Mo  Mo214  1  -0.00403549  -0.00490558  0.40114613  1
  Mo  Mo215  1  0.60580736  0.20708926  0.59945721  1
  Mo  Mo216  1  0.10024001  0.69538173  0.29972904  1
  Mo  Mo217  1  0.00786110  0.59657351  0.00030886  1
  Mo  Mo218  1  0.19511992  0.21183132  0.38311932  1
  Mo  Mo219  1  0.80497496  -0.00670588  0.40393961  1
  Mo  Mo220  1  0.90260807  0.08971699  0.70477796  1
  Mo  Mo221  1  0.19363598  -0.01285301  0.39107991  1
  Mo  Mo222  1  0.70374839  0.70382727  0.49678447  1
  Mo  Mo223  1  0.50306321  0.10064919  0.90211157  1
  Mo  Mo224  1  0.50775047  0.90016280  0.29336031  1
  Mo  Mo225  1  0.09581016  0.09874640  0.90080973  1
  Mo  Mo226  1  0.10044874  0.30065766  0.29739680  1
  Mo  Mo227  1  0.39744209  0.60018935  0.40035407  1
  Mo  Mo228  1  0.19799388  0.79730943  0.19570757  1
  Mo  Mo229  1  0.59805976  0.59966776  0.00032456  1
  Mo  Mo230  1  0.29160189  0.69324985  0.50027242  1
  Mo  Mo231  1  0.09565356  0.10427756  0.10238343  1
  Mo  Mo232  1  0.79840708  0.19806458  0.39568431  1
  Mo  Mo233  1  0.80731149  0.20573636  -0.00337446  1
  Mo  Mo234  1  0.40034287  0.61329876  0.80554929  1
  Mo  Mo235  1  0.10682874  0.50597697  0.10047608  1
  Mo  Mo236  1  0.00441672  0.79419834  0.19806268  1
  Mo  Mo237  1  0.01204149  0.40435173  0.79837326  1
  Mo  Mo238  1  0.29715563  0.30565129  0.71110120  1
  Mo  Mo239  1  0.89643959  0.69608244  0.90312153  1
  Mo  Mo240  1  0.29513511  0.70246710  0.90437929  1
  Mo  Mo241  1  0.19422470  0.41708117  0.59808256  1
  Mo  Mo242  1  0.69969940  0.69944652  0.69871529  1
  Mo  Mo243  1  0.60141055  0.79628742  0.79695202  1
  Mo  Mo244  1  0.80233337  0.01345453  -0.00019653  1
  Mo  Mo245  1  0.10305506  0.69978064  0.10126876  1
  Mo  Mo246  1  0.50414051  0.70185749  0.50571808  1
  Mo  Mo247  1  0.20274276  0.79562631  0.79623031  1
  Mo  Mo248  1  0.29616723  0.69644815  0.29899812  1
  Mo  Mo249  1  0.60503566  -0.00352483  0.79711277  1
