# generated using pymatgen
data_HfZrTaTiMo
_symmetry_space_group_name_H-M   'P 1'
_cell_length_a   16.88672719
_cell_length_b   16.87669349
_cell_length_c   16.88029856
_cell_angle_alpha   90.02704016
_cell_angle_beta   90.02206959
_cell_angle_gamma   90.04942571
_symmetry_Int_Tables_number   1
_chemical_formula_structural   HfZrTaTiMo
_chemical_formula_sum   'Hf50 Zr50 Ta50 Ti50 Mo50'
_cell_volume   4810.74936979
_cell_formula_units_Z   50
loop_
 _symmetry_equiv_pos_site_id
 _symmetry_equiv_pos_as_xyz
  1  'x, y, z'
loop_
 _atom_site_type_symbol
 _atom_site_label
 _atom_site_symmetry_multiplicity
 _atom_site_fract_x
 _atom_site_fract_y
 _atom_site_fract_z
 _atom_site_occupancy
  Hf  Hf0  1  0.70860895  0.89837148  0.30923993  1
  Hf  Hf1  1  0.79506170  0.20501528  0.80022778  1
  Hf  Hf2  1  0.50096270  0.69703963  0.50800360  1
  Hf  Hf3  1  0.38941049  0.18430977  0.41194504  1
  Hf  Hf4  1  0.70352493  0.69716842  0.50557290  1
  Hf  Hf5  1  0.49153798  0.89002959  0.50614755  1
  Hf  Hf6  1  0.00554734  0.79927791  0.60115537  1
  Hf  Hf7  1  0.40470658  0.39921646  0.20453175  1
  Hf  Hf8  1  0.80332944  0.39449921  0.60332491  1
  Hf  Hf9  1  0.49340153  0.10069666  0.30395457  1
  Hf  Hf10  1  0.91005131  0.30429515  0.90009722  1
  Hf  Hf11  1  0.39930457  0.59858413  0.79388993  1
  Hf  Hf12  1  0.71751171  0.30231680  0.30835953  1
  Hf  Hf13  1  0.89631877  0.49866564  0.29944037  1
  Hf  Hf14  1  0.50187458  0.30224144  0.70280443  1
  Hf  Hf15  1  0.39824505  0.19705791  -0.00275321  1
  Hf  Hf16  1  0.39532464  -0.00180143  0.59866832  1
  Hf  Hf17  1  0.80922991  0.79445001  0.19906266  1
  Hf  Hf18  1  -0.00278714  -0.00935468  0.59753040  1
  Hf  Hf19  1  0.30234970  0.50970135  0.29787170  1
  Hf  Hf20  1  0.49134491  0.89962494  0.30850686  1
  Hf  Hf21  1  -0.00200357  0.39884866  0.19550250  1
  Hf  Hf22  1  0.50027834  0.69141880  0.09945691  1
  Hf  Hf23  1  -0.00797698  0.00287951  0.20339704  1
  Hf  Hf24  1  0.18647201  0.79577483  0.79745810  1
  Hf  Hf25  1  0.60770477  0.59162832  -0.00841015  1
  Hf  Hf26  1  0.30745326  0.70648791  0.89151611  1
  Hf  Hf27  1  0.89906249  0.50938061  0.68830247  1
  Hf  Hf28  1  0.18037409  0.20481022  0.81591295  1
  Hf  Hf29  1  0.59570454  0.80473118  0.19412322  1
  Hf  Hf30  1  0.70766477  0.50259593  0.50443762  1
  Hf  Hf31  1  0.30660444  0.89350013  0.70039660  1
  Hf  Hf32  1  0.19619773  0.21171824  0.60417097  1
  Hf  Hf33  1  0.19647772  0.80255861  0.59741449  1
  Hf  Hf34  1  0.10364170  0.70163950  0.29753848  1
  Hf  Hf35  1  0.19042238  -0.01074110  0.80307687  1
  Hf  Hf36  1  0.80715658  0.00150384  0.20290371  1
  Hf  Hf37  1  0.10528812  0.89469528  0.29997387  1
  Hf  Hf38  1  0.49540480  0.49655974  0.90074083  1
  Hf  Hf39  1  0.18482522  0.39963677  0.00059807  1
  Hf  Hf40  1  0.80353661  0.60065162  0.39491447  1
  Hf  Hf41  1  0.09733604  0.50439203  0.89217431  1
  Hf  Hf42  1  0.70423445  0.69053944  0.28900763  1
  Hf  Hf43  1  0.78587456  0.59812620  0.79537279  1
  Hf  Hf44  1  0.00071474  -0.00464873  -0.00396376  1
  Hf  Hf45  1  0.59639771  -0.00003703  0.00268744  1
  Hf  Hf46  1  0.50558780  0.50293871  0.50748056  1
  Hf  Hf47  1  0.19559704  0.80235463  -0.00882677  1
  Hf  Hf48  1  0.09585051  0.09885609  0.69861722  1
  Hf  Hf49  1  0.29537709  0.09780425  0.70844745  1
  Zr  Zr50  1  0.02353117  0.20023717  -0.01608453  1
  Zr  Zr51  1  0.61399031  0.19991135  0.20694826  1
  Zr  Zr52  1  0.80100593  0.40320672  0.80135988  1
  Zr  Zr53  1  0.60726861  0.40192587  0.20392854  1
  Zr  Zr54  1  0.19591628  0.20000876  0.20235636  1
  Zr  Zr55  1  0.29698877  0.89524104  0.10497604  1
  Zr  Zr56  1  0.49316232  0.30559293  0.49316698  1
  Zr  Zr57  1  0.61439500  0.41110420  0.80362885  1
  Zr  Zr58  1  0.19152834  0.60413035  -0.00819362  1
  Zr  Zr59  1  0.30170121  0.30097631  0.30831945  1
  Zr  Zr60  1  0.38925541  0.40652989  0.60858344  1
  Zr  Zr61  1  0.49816772  0.09866419  0.70052250  1
  Zr  Zr62  1  0.80214990  0.80319972  0.60147109  1
  Zr  Zr63  1  -0.00209233  0.61271706  0.80030030  1
  Zr  Zr64  1  0.80312147  0.20149630  0.59344940  1
  Zr  Zr65  1  0.10003573  0.89442603  0.10462844  1
  Zr  Zr66  1  0.10081792  0.10212053  0.30422014  1
  Zr  Zr67  1  0.60456099  -0.00022949  0.19945482  1
  Zr  Zr68  1  0.60475286  0.40448120  0.39485975  1
  Zr  Zr69  1  0.90074940  0.29538550  0.09236398  1
  Zr  Zr70  1  0.90428524  0.10529252  0.69968839  1
  Zr  Zr71  1  0.59867055  0.00303212  0.80288852  1
  Zr  Zr72  1  0.80894132  0.79791345  -0.00576123  1
  Zr  Zr73  1  0.69148729  0.89225116  0.90301249  1
  Zr  Zr74  1  0.49245846  0.11009287  0.11272594  1
  Zr  Zr75  1  0.60058074  0.79208732  0.39982182  1
  Zr  Zr76  1  0.18934813  0.40928856  0.40341651  1
  Zr  Zr77  1  0.30651465  0.50274909  0.09467051  1
  Zr  Zr78  1  0.19400377  0.60543671  0.41315492  1
  Zr  Zr79  1  0.50056495  0.49819269  0.09727215  1
  Zr  Zr80  1  0.70200636  0.69423377  0.09642165  1
  Zr  Zr81  1  0.08907263  0.69924307  0.09618221  1
  Zr  Zr82  1  0.40301194  -0.00380453  0.00172024  1
  Zr  Zr83  1  0.80044952  -0.00287445  0.80375876  1
  Zr  Zr84  1  0.40345170  0.60015391  0.40289548  1
  Zr  Zr85  1  0.20967867  0.00326035  0.40330452  1
  Zr  Zr86  1  0.00080340  0.40381149  0.79219035  1
  Zr  Zr87  1  0.49781027  0.30640978  0.90307323  1
  Zr  Zr88  1  0.29401635  0.30894027  0.49929860  1
  Zr  Zr89  1  0.29732564  0.30685374  0.89891107  1
  Zr  Zr90  1  0.18903076  0.40637379  0.19769898  1
  Zr  Zr91  1  0.29999885  0.69757901  0.10833481  1
  Zr  Zr92  1  -0.00558030  0.00019529  0.40503848  1
  Zr  Zr93  1  0.90339606  0.10248224  0.89994332  1
  Zr  Zr94  1  0.60190537  0.19992883  0.59101013  1
  Zr  Zr95  1  0.60674549  0.19537144  -0.00614190  1
  Zr  Zr96  1  0.30432672  0.29622360  0.09922630  1
  Zr  Zr97  1  0.80604616  0.79627536  0.79861495  1
  Zr  Zr98  1  0.60264398  0.00369761  0.40921057  1
  Zr  Zr99  1  -0.01439670  0.79527487  0.20236574  1
  Ta  Ta100  1  0.49337312  0.29211935  0.30325320  1
  Ta  Ta101  1  0.30750022  0.70926070  0.50542141  1
  Ta  Ta102  1  0.18912553  0.40996846  0.60948965  1
  Ta  Ta103  1  0.79793487  0.40524258  -0.00149927  1
  Ta  Ta104  1  0.40414640  0.79885046  0.20208489  1
  Ta  Ta105  1  0.60180066  0.80119704  0.60635112  1
  Ta  Ta106  1  0.89314764  0.89543967  0.31970406  1
  Ta  Ta107  1  0.60453958  0.59542664  0.39002785  1
  Ta  Ta108  1  0.29492573  0.09664910  0.10095835  1
  Ta  Ta109  1  0.19623257  -0.00039522  -0.00712184  1
  Ta  Ta110  1  0.69700231  0.29710097  0.69897813  1
  Ta  Ta111  1  0.89970377  0.69746711  0.50093893  1
  Ta  Ta112  1  0.50720533  0.50648511  0.70045157  1
  Ta  Ta113  1  0.70918676  0.29961806  0.09931995  1
  Ta  Ta114  1  0.00218411  -0.01015316  0.80111289  1
  Ta  Ta115  1  0.39435361  0.59967253  0.60527462  1
  Ta  Ta116  1  0.50155584  0.30205031  0.10038687  1
  Ta  Ta117  1  0.70264020  0.89944516  0.09547417  1
  Ta  Ta118  1  0.00030656  0.60544903  0.40213534  1
  Ta  Ta119  1  0.69392383  0.69798723  0.89718345  1
  Ta  Ta120  1  0.29983871  0.09301422  0.89655269  1
  Ta  Ta121  1  0.69781879  0.09528978  0.69242562  1
  Ta  Ta122  1  0.80283170  -0.00465942  0.59467575  1
  Ta  Ta123  1  0.00133644  0.40051645  0.59828217  1
  Ta  Ta124  1  0.61024108  0.19790719  0.80690349  1
  Ta  Ta125  1  0.39327768  0.40769405  0.79383657  1
  Ta  Ta126  1  0.90257228  0.30741562  0.48959670  1
  Ta  Ta127  1  0.71195413  0.50593187  0.10573708  1
  Ta  Ta128  1  0.39195671  0.19995947  0.60380547  1
  Ta  Ta129  1  0.71630233  0.10139754  0.09637387  1
  Ta  Ta130  1  0.20355639  0.80049634  0.40741879  1
  Ta  Ta131  1  0.69469838  0.90488205  0.69366334  1
  Ta  Ta132  1  0.09109534  0.29965774  0.49747311  1
  Ta  Ta133  1  0.49923357  0.70243829  0.70009968  1
  Ta  Ta134  1  0.09717331  0.10741079  0.50707851  1
  Ta  Ta135  1  0.49573933  0.88824397  0.89486178  1
  Ta  Ta136  1  0.30079048  0.70393032  0.29933533  1
  Ta  Ta137  1  0.00231215  0.79589961  0.41109508  1
  Ta  Ta138  1  -0.00610450  0.19838132  0.20519172  1
  Ta  Ta139  1  0.30274927  0.89178067  0.30256537  1
  Ta  Ta140  1  0.90056892  0.10512249  0.09484838  1
  Ta  Ta141  1  0.30087593  0.70103529  0.69731585  1
  Ta  Ta142  1  0.31087723  0.89831159  0.89232789  1
  Ta  Ta143  1  0.09067906  0.29944106  0.30773344  1
  Ta  Ta144  1  0.90267828  0.50191630  0.49896513  1
  Ta  Ta145  1  0.00693033  0.60453802  0.59419847  1
  Ta  Ta146  1  0.29365248  0.49879981  0.89135638  1
  Ta  Ta147  1  0.80444845  0.40052622  0.19838765  1
  Ta  Ta148  1  0.50565444  0.70483728  0.89555593  1
  Ta  Ta149  1  0.10169340  0.09703865  0.09943380  1
  Ti  Ti150  1  0.19753744  0.19229424  -0.00360485  1
  Ti  Ti151  1  0.38912399  -0.00273544  0.41065325  1
  Ti  Ti152  1  0.30778026  0.09661543  0.28694124  1
  Ti  Ti153  1  0.60233739  0.79426408  0.79128774  1
  Ti  Ti154  1  0.89737047  0.69792966  0.69391224  1
  Ti  Ti155  1  0.80114506  -0.00030331  -0.00356047  1
  Ti  Ti156  1  0.10330513  0.69289853  0.69957343  1
  Ti  Ti157  1  0.70551025  0.09285800  0.50177368  1
  Ti  Ti158  1  0.70596357  0.90047837  0.49919364  1
  Ti  Ti159  1  0.09436294  0.29660470  0.09973988  1
  Ti  Ti160  1  0.30137763  0.50100375  0.50156777  1
  Ti  Ti161  1  0.09277406  0.50092648  0.50448909  1
  Ti  Ti162  1  0.40170783  -0.00926632  0.19483059  1
  Ti  Ti163  1  0.61428156  0.60376328  0.62047726  1
  Ti  Ti164  1  -0.00846150  0.20032547  0.39577471  1
  Ti  Ti165  1  0.20241488  -0.00129195  0.19900013  1
  Ti  Ti166  1  0.50188396  0.09521156  0.50714117  1
  Ti  Ti167  1  -0.00549845  0.21266862  0.60072087  1
  Ti  Ti168  1  0.48985992  0.09640176  0.89041445  1
  Ti  Ti169  1  0.89852164  0.68404215  0.08365496  1
  Ti  Ti170  1  0.61599419  0.39660579  0.00010186  1
  Ti  Ti171  1  0.50128422  0.50697686  0.29603556  1
  Ti  Ti172  1  0.09420499  0.30378062  0.70386656  1
  Ti  Ti173  1  0.19789600  0.19859788  0.40502731  1
  Ti  Ti174  1  0.70579802  0.30264290  0.49413278  1
  Ti  Ti175  1  0.79282179  0.20271855  -0.01050162  1
  Ti  Ti176  1  0.19013971  0.59583808  0.19379519  1
  Ti  Ti177  1  0.90098759  0.50497547  0.09255142  1
  Ti  Ti178  1  0.49839617  0.89715996  0.70273516  1
  Ti  Ti179  1  0.90098991  0.10089282  0.49827915  1
  Ti  Ti180  1  0.09179966  0.50575369  0.29757550  1
  Ti  Ti181  1  0.81211078  0.19802938  0.20718758  1
  Ti  Ti182  1  0.49686751  0.69275258  0.29419166  1
  Ti  Ti183  1  0.60342233  0.19782884  0.40293324  1
  Ti  Ti184  1  0.10904160  0.90806564  0.50112143  1
  Ti  Ti185  1  0.40806437  0.80226073  0.00528462  1
  Ti  Ti186  1  0.90021629  0.50994567  0.91041317  1
  Ti  Ti187  1  0.28367191  0.09485461  0.51781186  1
  Ti  Ti188  1  0.81214340  0.19634911  0.39902359  1
  Ti  Ti189  1  0.08306425  0.88623106  0.89810851  1
  Ti  Ti190  1  -0.00980673  0.60094523  0.19990546  1
  Ti  Ti191  1  0.90356128  0.89749170  0.70509131  1
  Ti  Ti192  1  0.39674347  0.20346632  0.79876534  1
  Ti  Ti193  1  0.39849785  0.60082909  -0.00820060  1
  Ti  Ti194  1  0.71314379  0.09793473  0.30998206  1
  Ti  Ti195  1  -0.00214858  0.40342069  0.39896093  1
  Ti  Ti196  1  0.20055026  0.59823492  0.60234340  1
  Ti  Ti197  1  0.29195184  0.30640888  0.70865554  1
  Ti  Ti198  1  0.60798003  0.40146968  0.60512518  1
  Ti  Ti199  1  0.90012574  0.90067643  0.09163440  1
  Mo  Mo200  1  0.20663805  0.79746458  0.20927425  1
  Mo  Mo201  1  0.10055979  0.50822864  0.69288612  1
  Mo  Mo202  1  0.19898827  0.40460977  0.79104903  1
  Mo  Mo203  1  0.80563617  0.79542286  0.40452370  1
  Mo  Mo204  1  -0.00752682  0.79538618  -0.01104748  1
  Mo  Mo205  1  0.60016412  0.59465468  0.20251684  1
  Mo  Mo206  1  0.70501519  0.30275902  0.90494888  1
  Mo  Mo207  1  -0.00338677  0.79788705  0.79426385  1
  Mo  Mo208  1  0.40323709  0.79647887  0.60380695  1
  Mo  Mo209  1  0.70300710  0.10026045  0.90469955  1
  Mo  Mo210  1  0.40021778  -0.00520860  0.80233379  1
  Mo  Mo211  1  0.09973878  0.31714640  0.89655125  1
  Mo  Mo212  1  0.00177776  0.20435750  0.79299296  1
  Mo  Mo213  1  0.89550146  0.10481000  0.30276797  1
  Mo  Mo214  1  0.59833170  0.60483351  0.79835284  1
  Mo  Mo215  1  0.69519430  0.70556303  0.70204235  1
  Mo  Mo216  1  0.89915932  0.69644065  0.90147265  1
  Mo  Mo217  1  0.09132701  0.70398805  0.89654574  1
  Mo  Mo218  1  -0.00520470  0.60078637  -0.00431923  1
  Mo  Mo219  1  0.28950247  0.50801187  0.70055731  1
  Mo  Mo220  1  0.09379931  0.89744407  0.69902821  1
  Mo  Mo221  1  0.39523298  0.79463259  0.39756725  1
  Mo  Mo222  1  0.70521263  0.50195639  0.90776724  1
  Mo  Mo223  1  0.10221808  0.69934190  0.50214251  1
  Mo  Mo224  1  0.08102663  0.50632811  0.09662833  1
  Mo  Mo225  1  0.40484176  0.60460164  0.20528302  1
  Mo  Mo226  1  0.90700753  0.89575757  0.89841587  1
  Mo  Mo227  1  0.50198549  0.89145413  0.09728490  1
  Mo  Mo228  1  0.80580633  0.60265669  0.60030705  1
  Mo  Mo229  1  0.89587481  0.89408067  0.49791107  1
  Mo  Mo230  1  0.90406403  0.30001211  0.30375768  1
  Mo  Mo231  1  0.80585469  0.40209235  0.40294140  1
  Mo  Mo232  1  0.59573621  0.79746858  -0.00193590  1
  Mo  Mo233  1  0.81175233  0.59588592  0.19423039  1
  Mo  Mo234  1  -0.00116357  0.40965610  0.00362232  1
  Mo  Mo235  1  0.19436378  -0.00096126  0.60102481  1
  Mo  Mo236  1  0.80103711  0.00614695  0.40949278  1
  Mo  Mo237  1  0.20056444  0.60283509  0.79121868  1
  Mo  Mo238  1  0.70463685  0.50185594  0.29249233  1
  Mo  Mo239  1  0.39522520  0.40173056  -0.00463561  1
  Mo  Mo240  1  0.60515238  -0.00696232  0.59876147  1
  Mo  Mo241  1  0.40833387  0.79729830  0.79598680  1
  Mo  Mo242  1  0.90486072  0.30121474  0.69356122  1
  Mo  Mo243  1  0.40770763  0.40796528  0.39650465  1
  Mo  Mo244  1  0.90416937  0.69915044  0.30909644  1
  Mo  Mo245  1  0.69794021  0.49844311  0.69359439  1
  Mo  Mo246  1  0.30046839  0.89704404  0.49816949  1
  Mo  Mo247  1  0.39748929  0.20137886  0.20266384  1
  Mo  Mo248  1  0.10314978  0.08370461  0.89860881  1
  Mo  Mo249  1  0.80101763  0.59694190  -0.00686067  1
