# generated using pymatgen
data_HfZrTaTiMo
_symmetry_space_group_name_H-M   'P 1'
_cell_length_a   16.87862228
_cell_length_b   16.88565063
_cell_length_c   16.87302016
_cell_angle_alpha   90.01088500
_cell_angle_beta   90.03328886
_cell_angle_gamma   90.02477013
_symmetry_Int_Tables_number   1
_chemical_formula_structural   HfZrTaTiMo
_chemical_formula_sum   'Hf50 Zr50 Ta50 Ti50 Mo50'
_cell_volume   4808.91939186
_cell_formula_units_Z   50
loop_
 _symmetry_equiv_pos_site_id
 _symmetry_equiv_pos_as_xyz
  1  'x, y, z'
loop_
 _atom_site_type_symbol
 _atom_site_label
 _atom_site_symmetry_multiplicity
 _atom_site_fract_x
 _atom_site_fract_y
 _atom_site_fract_z
 _atom_site_occupancy
  Hf  Hf0  1  0.40754932  0.19734752  0.20849025  1
  Hf  Hf1  1  0.69411296  0.29675809  0.30678665  1
  Hf  Hf2  1  0.20673799  0.40702102  0.00513992  1
  Hf  Hf3  1  0.19744795  0.40246136  0.39872459  1
  Hf  Hf4  1  0.09962793  0.50840377  0.50017747  1
  Hf  Hf5  1  0.50426345  0.90537575  0.29956586  1
  Hf  Hf6  1  0.39663440  0.19701700  0.79449239  1
  Hf  Hf7  1  0.00182276  0.38934987  0.60346986  1
  Hf  Hf8  1  0.09888819  0.09930302  0.70237380  1
  Hf  Hf9  1  0.50842631  0.29320342  0.70309641  1
  Hf  Hf10  1  0.71057775  0.70341485  0.50421369  1
  Hf  Hf11  1  0.20620637  0.60092281  0.80434192  1
  Hf  Hf12  1  0.69581704  0.49395254  0.70689191  1
  Hf  Hf13  1  0.89427497  0.29240922  0.09920604  1
  Hf  Hf14  1  0.00513081  0.60463829  0.00138948  1
  Hf  Hf15  1  0.40504813  0.19109755  0.39483383  1
  Hf  Hf16  1  0.09621563  0.69362083  0.50267493  1
  Hf  Hf17  1  0.70183936  0.89833232  0.89832405  1
  Hf  Hf18  1  0.70222931  0.89838134  0.49956473  1
  Hf  Hf19  1  0.09692699  0.50292239  0.70094977  1
  Hf  Hf20  1  0.79230823  0.39816432  0.00011540  1
  Hf  Hf21  1  0.79753209  0.78678026  0.19122027  1
  Hf  Hf22  1  0.29462923  0.30549333  0.29117890  1
  Hf  Hf23  1  -0.00381815  0.00015050  0.40980095  1
  Hf  Hf24  1  0.69411424  0.51421316  0.90724067  1
  Hf  Hf25  1  0.10013469  0.08963072  0.30350065  1
  Hf  Hf26  1  0.90389047  0.89685583  0.28997203  1
  Hf  Hf27  1  0.60563878  0.39783527  0.00509102  1
  Hf  Hf28  1  0.51372180  0.29216034  0.49744828  1
  Hf  Hf29  1  0.30684806  0.30274937  0.89991680  1
  Hf  Hf30  1  0.90649401  0.69860929  0.50097672  1
  Hf  Hf31  1  0.79751955  0.60700012  0.79519308  1
  Hf  Hf32  1  0.20466170  0.59748831  0.19505763  1
  Hf  Hf33  1  0.30762495  0.09617748  0.09664135  1
  Hf  Hf34  1  0.39942601  0.40583754  0.18976314  1
  Hf  Hf35  1  0.70095876  0.09890797  0.10359282  1
  Hf  Hf36  1  0.90073194  0.50285844  0.09870815  1
  Hf  Hf37  1  0.10143922  0.70490933  0.29876784  1
  Hf  Hf38  1  0.69852685  0.10368633  0.70329816  1
  Hf  Hf39  1  0.00431033  0.81177294  0.40728901  1
  Hf  Hf40  1  0.40313483  -0.00029481  -0.00858355  1
  Hf  Hf41  1  0.39638667  0.18213988  0.59876283  1
  Hf  Hf42  1  0.40284423  0.01042149  0.40800110  1
  Hf  Hf43  1  0.50385133  0.50555861  0.30362107  1
  Hf  Hf44  1  0.20481885  0.18777986  0.20228282  1
  Hf  Hf45  1  0.59502085  0.00322329  0.59230974  1
  Hf  Hf46  1  0.39433756  0.79545768  0.39332107  1
  Hf  Hf47  1  0.30073475  0.29965312  0.50318624  1
  Hf  Hf48  1  0.39287244  0.00164093  0.79238300  1
  Hf  Hf49  1  0.39637077  0.59368543  0.60830189  1
  Zr  Zr50  1  0.88734056  0.28548027  0.70559032  1
  Zr  Zr51  1  0.10334290  0.30433021  0.10542201  1
  Zr  Zr52  1  0.19727171  0.20179092  0.00039301  1
  Zr  Zr53  1  0.29902700  0.71138185  0.09564418  1
  Zr  Zr54  1  0.20051816  0.80403356  0.60487435  1
  Zr  Zr55  1  0.89071229  0.29944520  0.29777620  1
  Zr  Zr56  1  0.30141909  0.90467564  0.50182388  1
  Zr  Zr57  1  0.79656644  0.59529352  0.60606542  1
  Zr  Zr58  1  0.39353348  0.39799012  0.61838594  1
  Zr  Zr59  1  0.50005672  0.90163047  0.70140177  1
  Zr  Zr60  1  0.49571019  0.69326537  0.49708024  1
  Zr  Zr61  1  0.29496423  0.10420916  0.90032227  1
  Zr  Zr62  1  0.89226592  0.71008882  0.90329945  1
  Zr  Zr63  1  0.00030164  0.80258614  0.00501782  1
  Zr  Zr64  1  0.20515151  0.18962560  0.40438085  1
  Zr  Zr65  1  0.00161199  0.19409011  0.59774419  1
  Zr  Zr66  1  0.50059409  0.29112323  0.90909142  1
  Zr  Zr67  1  0.39347693  0.59647523  0.80059055  1
  Zr  Zr68  1  0.80373018  -0.00281986  0.40162039  1
  Zr  Zr69  1  0.69912242  0.48458386  0.49045379  1
  Zr  Zr70  1  0.50290011  0.49410228  0.50203009  1
  Zr  Zr71  1  0.90485915  0.71092405  0.68622576  1
  Zr  Zr72  1  0.90129775  0.50379338  0.30524942  1
  Zr  Zr73  1  0.50995509  0.52300703  0.09216281  1
  Zr  Zr74  1  0.59957452  0.79215130  0.19616126  1
  Zr  Zr75  1  0.08964804  0.09224813  0.09317304  1
  Zr  Zr76  1  0.60850966  0.60512907  0.39452381  1
  Zr  Zr77  1  0.50451833  0.70515084  0.70949763  1
  Zr  Zr78  1  0.89983328  0.10129533  0.90251418  1
  Zr  Zr79  1  -0.00031232  0.39382398  0.79855482  1
  Zr  Zr80  1  0.69923423  0.29235869  0.49769793  1
  Zr  Zr81  1  0.89281497  0.90832141  0.09555095  1
  Zr  Zr82  1  0.59670768  0.40044800  0.19740987  1
  Zr  Zr83  1  0.50313069  0.70059716  0.90625102  1
  Zr  Zr84  1  0.59532572  0.00488056  -0.00670130  1
  Zr  Zr85  1  0.40420220  0.39509211  0.39343152  1
  Zr  Zr86  1  0.89819906  0.50105801  0.89865006  1
  Zr  Zr87  1  0.09271588  0.69786941  0.69458134  1
  Zr  Zr88  1  0.78610031  0.41082177  0.19631867  1
  Zr  Zr89  1  0.00403855  0.81540804  0.79962236  1
  Zr  Zr90  1  0.88677584  0.29729515  0.49093550  1
  Zr  Zr91  1  0.90182152  0.50225096  0.49568907  1
  Zr  Zr92  1  0.39472984  0.60888795  0.19978626  1
  Zr  Zr93  1  0.19531265  0.80601966  -0.00535186  1
  Zr  Zr94  1  0.90639560  0.69948322  0.30326953  1
  Zr  Zr95  1  0.00904985  0.39121032  0.39586307  1
  Zr  Zr96  1  0.70340340  0.90836269  0.09926647  1
  Zr  Zr97  1  -0.00575847  0.19422628  0.20707206  1
  Zr  Zr98  1  0.69729065  0.89817418  0.70263180  1
  Zr  Zr99  1  0.39609952  0.80162512  0.60265643  1
  Ta  Ta100  1  0.89099353  0.09786218  0.09562047  1
  Ta  Ta101  1  0.50448637  0.89707706  0.89114948  1
  Ta  Ta102  1  0.20072787  0.39608115  0.60828977  1
  Ta  Ta103  1  0.70157624  0.09928753  0.89753407  1
  Ta  Ta104  1  0.20366768  -0.00497495  0.19668043  1
  Ta  Ta105  1  0.10467262  0.90016036  0.29655594  1
  Ta  Ta106  1  0.00130699  0.19870064  0.80044169  1
  Ta  Ta107  1  0.79053794  0.60529441  0.19759756  1
  Ta  Ta108  1  0.50935465  0.09905416  0.70282468  1
  Ta  Ta109  1  0.69680733  0.71117148  0.89797237  1
  Ta  Ta110  1  0.49674687  0.69913728  0.29820190  1
  Ta  Ta111  1  0.79752964  0.39501303  0.60900782  1
  Ta  Ta112  1  0.29777624  0.90307967  0.29711353  1
  Ta  Ta113  1  0.20663181  0.39604803  0.79313866  1
  Ta  Ta114  1  0.78936847  0.38937408  0.80710718  1
  Ta  Ta115  1  0.20362426  0.60049718  -0.00431877  1
  Ta  Ta116  1  0.89713015  0.29452455  0.90208448  1
  Ta  Ta117  1  0.38781700  0.80238055  0.80693805  1
  Ta  Ta118  1  0.60417739  0.79403032  0.59884795  1
  Ta  Ta119  1  0.21005028  0.59431284  0.60559948  1
  Ta  Ta120  1  0.00038749  0.60558620  0.19358960  1
  Ta  Ta121  1  0.10286145  0.49852726  0.90056289  1
  Ta  Ta122  1  0.80545881  0.00375151  0.79375068  1
  Ta  Ta123  1  0.40245786  0.40613713  0.00474984  1
  Ta  Ta124  1  0.60311478  0.60043734  0.60875786  1
  Ta  Ta125  1  0.19371168  -0.00875020  -0.00268258  1
  Ta  Ta126  1  0.00555318  0.40607186  0.19803642  1
  Ta  Ta127  1  0.10008071  0.30043553  0.89600717  1
  Ta  Ta128  1  0.39912421  0.80358162  0.20056378  1
  Ta  Ta129  1  0.10218778  0.50211008  0.09966250  1
  Ta  Ta130  1  0.09791877  0.09764225  0.89449285  1
  Ta  Ta131  1  0.49501403  0.90582396  0.10382455  1
  Ta  Ta132  1  0.80786144  0.00076147  0.60276791  1
  Ta  Ta133  1  -0.00774424  -0.00450530  0.60147095  1
  Ta  Ta134  1  0.88879275  0.90411356  0.90111017  1
  Ta  Ta135  1  0.20095769  0.80765237  0.80160305  1
  Ta  Ta136  1  0.69260960  0.10265983  0.49395306  1
  Ta  Ta137  1  0.50373719  0.10181833  0.09945335  1
  Ta  Ta138  1  0.10355431  0.69912628  0.89608888  1
  Ta  Ta139  1  0.60360129  0.39260126  0.81001000  1
  Ta  Ta140  1  0.21155653  0.00816739  0.60747267  1
  Ta  Ta141  1  0.79778266  0.17932355  0.38309582  1
  Ta  Ta142  1  0.19727675  -0.00630618  0.79889335  1
  Ta  Ta143  1  0.69626815  0.28127504  0.10144722  1
  Ta  Ta144  1  0.50070602  0.49854718  0.89854889  1
  Ta  Ta145  1  0.00333256  0.39787042  -0.00096238  1
  Ta  Ta146  1  0.69456187  0.90663935  0.29819020  1
  Ta  Ta147  1  0.29900097  0.50222898  0.49754763  1
  Ta  Ta148  1  0.38972894  0.60108177  -0.00385596  1
  Ta  Ta149  1  0.60236711  0.79936827  0.39689709  1
  Ti  Ti150  1  0.20707794  0.00134421  0.40058327  1
  Ti  Ti151  1  0.29772209  0.70462917  0.70415599  1
  Ti  Ti152  1  0.09851035  0.90666033  0.69516075  1
  Ti  Ti153  1  -0.00238640  0.00043004  0.19966850  1
  Ti  Ti154  1  0.20404606  0.80520534  0.20268639  1
  Ti  Ti155  1  0.19922235  0.20517108  0.79181725  1
  Ti  Ti156  1  0.10488239  0.29994897  0.29389843  1
  Ti  Ti157  1  0.50169672  0.28747176  0.09667100  1
  Ti  Ti158  1  0.40273655  0.80383690  -0.00009175  1
  Ti  Ti159  1  0.00381717  -0.00786223  -0.00949845  1
  Ti  Ti160  1  0.00161715  0.20390787  -0.00433325  1
  Ti  Ti161  1  0.61278919  0.60808794  0.20105887  1
  Ti  Ti162  1  -0.00183649  0.19397791  0.40084230  1
  Ti  Ti163  1  0.10608810  0.09417353  0.50606888  1
  Ti  Ti164  1  0.30590154  0.29785912  0.09812993  1
  Ti  Ti165  1  0.50475354  0.49260401  0.71342148  1
  Ti  Ti166  1  0.10730731  0.90719291  0.50526966  1
  Ti  Ti167  1  0.20350132  0.80168279  0.39956053  1
  Ti  Ti168  1  0.10640300  0.29268854  0.50389826  1
  Ti  Ti169  1  0.20683729  0.20030411  0.60961834  1
  Ti  Ti170  1  -0.00352825  0.60207044  0.80198724  1
  Ti  Ti171  1  0.79934244  0.61069967  0.00831170  1
  Ti  Ti172  1  0.59855810  0.19553821  0.20727525  1
  Ti  Ti173  1  0.60249559  0.60500355  0.79887445  1
  Ti  Ti174  1  0.69102926  0.69816259  0.08154003  1
  Ti  Ti175  1  0.79043586  0.59980008  0.38701370  1
  Ti  Ti176  1  0.29827856  0.89956562  0.90056108  1
  Ti  Ti177  1  0.09919356  0.50600840  0.29624099  1
  Ti  Ti178  1  0.30449773  0.90411754  0.10140061  1
  Ti  Ti179  1  0.30607556  0.49291052  0.89696459  1
  Ti  Ti180  1  -0.00645258  -0.00020397  0.79454484  1
  Ti  Ti181  1  0.69701585  0.29038638  0.70430866  1
  Ti  Ti182  1  0.60402889  0.39638277  0.60879165  1
  Ti  Ti183  1  0.60409819  0.19704908  0.81306359  1
  Ti  Ti184  1  0.79927964  0.80213316  0.78888953  1
  Ti  Ti185  1  0.29856003  0.69102611  0.49510119  1
  Ti  Ti186  1  0.51902120  0.09187170  0.30347038  1
  Ti  Ti187  1  0.30113427  0.50238990  0.30174836  1
  Ti  Ti188  1  0.89523629  0.10136068  0.50165796  1
  Ti  Ti189  1  0.50159425  0.89943995  0.49781923  1
  Ti  Ti190  1  0.80030556  0.01793712  0.21652872  1
  Ti  Ti191  1  0.79176993  0.20071611  -0.00685694  1
  Ti  Ti192  1  0.39881241  0.00492171  0.20705176  1
  Ti  Ti193  1  0.90008425  0.49713636  0.70094842  1
  Ti  Ti194  1  0.59326191  0.80341841  0.00408411  1
  Ti  Ti195  1  0.79915819  0.80186041  0.39459653  1
  Ti  Ti196  1  0.09976012  0.70519288  0.10412344  1
  Ti  Ti197  1  0.09597404  0.89855672  0.11075029  1
  Ti  Ti198  1  0.20819338  0.60387714  0.39395608  1
  Ti  Ti199  1  0.79653355  0.19010385  0.59933341  1
  Mo  Mo200  1  0.29309722  0.09891539  0.70209303  1
  Mo  Mo201  1  0.00244383  0.82427244  0.59382827  1
  Mo  Mo202  1  0.50736027  0.09965549  0.50229196  1
  Mo  Mo203  1  0.40250325  0.00417968  0.60067781  1
  Mo  Mo204  1  0.29814630  0.70760432  0.90127207  1
  Mo  Mo205  1  0.60008611  0.18961896  0.39641812  1
  Mo  Mo206  1  0.19782133  0.41057923  0.20204271  1
  Mo  Mo207  1  0.10715054  0.29442021  0.70308038  1
  Mo  Mo208  1  0.29878189  0.29684769  0.70302057  1
  Mo  Mo209  1  0.00777956  0.80162548  0.19627818  1
  Mo  Mo210  1  0.01102982  0.60468458  0.39344302  1
  Mo  Mo211  1  0.89375104  0.89253510  0.50958469  1
  Mo  Mo212  1  0.29922964  0.50290748  0.09307773  1
  Mo  Mo213  1  0.79986218  0.00592960  -0.01002138  1
  Mo  Mo214  1  0.59882684  0.60906224  -0.00504007  1
  Mo  Mo215  1  0.29447042  0.49482989  0.70309000  1
  Mo  Mo216  1  0.79617839  0.19117483  0.19857522  1
  Mo  Mo217  1  0.79617242  0.19845920  0.80538441  1
  Mo  Mo218  1  0.29965287  0.08744774  0.29720121  1
  Mo  Mo219  1  0.29586780  0.90220332  0.70569642  1
  Mo  Mo220  1  0.69590707  0.70367067  0.70112429  1
  Mo  Mo221  1  0.60126315  0.19460940  0.60181171  1
  Mo  Mo222  1  0.70054338  0.51970145  0.09675603  1
  Mo  Mo223  1  0.70161100  0.70652294  0.30615294  1
  Mo  Mo224  1  0.69970205  0.50335911  0.29586226  1
  Mo  Mo225  1  0.40641292  0.20002403  0.00760611  1
  Mo  Mo226  1  0.50585024  0.29751160  0.29839215  1
  Mo  Mo227  1  0.09538271  0.90888892  0.89399862  1
  Mo  Mo228  1  0.89683327  0.90505689  0.70198462  1
  Mo  Mo229  1  0.40620575  0.40122616  0.80757164  1
  Mo  Mo230  1  0.59907296  0.00542622  0.80262175  1
  Mo  Mo231  1  0.69194655  0.09539612  0.29917440  1
  Mo  Mo232  1  0.79466525  0.79778131  -0.00011912  1
  Mo  Mo233  1  0.60158018  0.80152838  0.80124784  1
  Mo  Mo234  1  0.38679653  0.60123286  0.39800121  1
  Mo  Mo235  1  0.89940383  0.09712883  0.70003349  1
  Mo  Mo236  1  0.59550838  0.00035497  0.19954966  1
  Mo  Mo237  1  0.89878843  0.69695402  0.10220318  1
  Mo  Mo238  1  0.80167461  0.80679278  0.59967186  1
  Mo  Mo239  1  0.60076578  -0.00501695  0.40084295  1
  Mo  Mo240  1  0.60039033  0.19573673  0.00386912  1
  Mo  Mo241  1  0.90677299  0.09521774  0.29948804  1
  Mo  Mo242  1  0.29692248  0.09930886  0.50371328  1
  Mo  Mo243  1  0.59710834  0.39311601  0.38948228  1
  Mo  Mo244  1  0.49764386  0.71212487  0.09893108  1
  Mo  Mo245  1  0.70088728  0.29163196  0.90349645  1
  Mo  Mo246  1  0.50546651  0.09797727  0.89601148  1
  Mo  Mo247  1  0.00012891  0.58516345  0.59981068  1
  Mo  Mo248  1  0.79410940  0.40277683  0.39657011  1
  Mo  Mo249  1  0.29527015  0.70943179  0.30127583  1
