# generated using pymatgen
data_HfZrTaTiMo
_symmetry_space_group_name_H-M   'P 1'
_cell_length_a   16.88743191
_cell_length_b   16.88590820
_cell_length_c   16.88614828
_cell_angle_alpha   89.98876673
_cell_angle_beta   90.03536955
_cell_angle_gamma   89.99359991
_symmetry_Int_Tables_number   1
_chemical_formula_structural   HfZrTaTiMo
_chemical_formula_sum   'Hf50 Zr50 Ta50 Ti50 Mo50'
_cell_volume   4815.24667042
_cell_formula_units_Z   50
loop_
 _symmetry_equiv_pos_site_id
 _symmetry_equiv_pos_as_xyz
  1  'x, y, z'
loop_
 _atom_site_type_symbol
 _atom_site_label
 _atom_site_symmetry_multiplicity
 _atom_site_fract_x
 _atom_site_fract_y
 _atom_site_fract_z
 _atom_site_occupancy
  Hf  Hf0  1  0.49592568  0.30026694  0.09891516  1
  Hf  Hf1  1  0.89484047  0.89653411  0.29545309  1
  Hf  Hf2  1  0.29611682  0.69985818  0.09362149  1
  Hf  Hf3  1  0.40671897  0.79622159  0.18691799  1
  Hf  Hf4  1  0.29804983  0.90026071  0.30164406  1
  Hf  Hf5  1  0.38822925  0.39812556  0.19948532  1
  Hf  Hf6  1  0.00411985  -0.00338906  0.59895910  1
  Hf  Hf7  1  0.90050134  0.51000204  0.08454367  1
  Hf  Hf8  1  0.90641073  0.90205155  0.71098876  1
  Hf  Hf9  1  0.40990225  -0.01182672  -0.00437401  1
  Hf  Hf10  1  0.20062450  0.59638589  0.40664145  1
  Hf  Hf11  1  0.59713932  0.60430583  0.80904052  1
  Hf  Hf12  1  0.20187983  0.41173356  0.59786852  1
  Hf  Hf13  1  0.80556038  0.41020499  0.19475389  1
  Hf  Hf14  1  0.70028176  0.09475025  0.28909590  1
  Hf  Hf15  1  0.39673876  0.59371508  0.19385688  1
  Hf  Hf16  1  0.59725657  0.79622177  0.18952871  1
  Hf  Hf17  1  0.80093819  0.19485597  0.39600552  1
  Hf  Hf18  1  0.40525881  -0.00527461  0.19128164  1
  Hf  Hf19  1  0.80079903  0.60127556  0.80490537  1
  Hf  Hf20  1  0.00658499  -0.01267595  0.19802231  1
  Hf  Hf21  1  0.90066602  0.50606650  0.70394825  1
  Hf  Hf22  1  0.20362286  0.80406688  0.60199414  1
  Hf  Hf23  1  0.10252916  0.09706360  0.29159613  1
  Hf  Hf24  1  -0.00732280  0.41362519  0.39888461  1
  Hf  Hf25  1  0.89914943  0.28870061  0.71700547  1
  Hf  Hf26  1  0.81332967  0.59964810  0.40085074  1
  Hf  Hf27  1  0.30038613  0.50482989  0.71056073  1
  Hf  Hf28  1  0.91054321  0.90199633  0.89927456  1
  Hf  Hf29  1  0.49906562  0.30075412  0.49418763  1
  Hf  Hf30  1  0.90801473  0.70236666  0.09331569  1
  Hf  Hf31  1  0.30103722  0.30538910  0.49650076  1
  Hf  Hf32  1  0.69721513  0.29405360  0.28810572  1
  Hf  Hf33  1  0.09936006  0.29463656  0.50126743  1
  Hf  Hf34  1  0.49590755  0.89595022  0.71336596  1
  Hf  Hf35  1  0.29099606  0.89948102  0.09445483  1
  Hf  Hf36  1  0.59963651  -0.00620835  -0.00322684  1
  Hf  Hf37  1  0.59880895  0.60229456  0.18190641  1
  Hf  Hf38  1  0.28632330  0.31250676  0.89668474  1
  Hf  Hf39  1  0.69565364  0.69647018  0.69640905  1
  Hf  Hf40  1  0.29794600  0.10494486  0.09640133  1
  Hf  Hf41  1  0.10264862  0.30037770  0.70740955  1
  Hf  Hf42  1  0.21625838  0.22052931  0.19991441  1
  Hf  Hf43  1  0.49591215  0.09886175  0.70879584  1
  Hf  Hf44  1  0.70295714  0.70758617  0.30159295  1
  Hf  Hf45  1  0.10019651  0.69582500  0.50715579  1
  Hf  Hf46  1  0.90102314  0.29059703  0.29174055  1
  Hf  Hf47  1  0.70012407  0.09698067  0.70620947  1
  Hf  Hf48  1  0.50171744  0.11490793  0.10352791  1
  Hf  Hf49  1  0.39377303  0.79995887  0.60078032  1
  Zr  Zr50  1  0.90221629  0.70913381  0.29913886  1
  Zr  Zr51  1  0.29644618  0.29812801  0.70866949  1
  Zr  Zr52  1  0.40077482  0.20066907  0.60007953  1
  Zr  Zr53  1  0.59362568  0.80277578  0.60155017  1
  Zr  Zr54  1  -0.00199293  0.40116327  0.59994981  1
  Zr  Zr55  1  0.61160386  0.40688117  -0.00099434  1
  Zr  Zr56  1  0.49127972  0.50170911  0.49828187  1
  Zr  Zr57  1  0.00194958  0.39566276  -0.00363182  1
  Zr  Zr58  1  0.30227087  0.08864048  0.29373983  1
  Zr  Zr59  1  0.18131643  0.18618657  0.80422552  1
  Zr  Zr60  1  0.80276708  0.39653661  0.60521878  1
  Zr  Zr61  1  0.29867739  0.09262241  0.70301682  1
  Zr  Zr62  1  0.60164484  0.39487834  0.60979062  1
  Zr  Zr63  1  0.30523785  0.10187482  0.89269641  1
  Zr  Zr64  1  0.00223100  0.59496262  0.20402715  1
  Zr  Zr65  1  0.49230296  0.69621194  0.30913401  1
  Zr  Zr66  1  0.49845406  0.50402240  0.70268004  1
  Zr  Zr67  1  0.00281218  0.40445817  0.19533275  1
  Zr  Zr68  1  0.20090899  0.60141009  -0.00624252  1
  Zr  Zr69  1  0.59474741  0.79844501  -0.00001227  1
  Zr  Zr70  1  0.00043309  0.18694325  0.60997120  1
  Zr  Zr71  1  0.80526681  0.19056913  0.60571961  1
  Zr  Zr72  1  -0.00105344  0.40122847  0.81044896  1
  Zr  Zr73  1  0.29681787  0.09495375  0.49692681  1
  Zr  Zr74  1  0.00319019  0.80210956  0.60157417  1
  Zr  Zr75  1  0.60888084  0.21120810  0.80598390  1
  Zr  Zr76  1  0.59796531  0.41095971  0.19212267  1
  Zr  Zr77  1  0.59607058  -0.01110818  0.19550687  1
  Zr  Zr78  1  0.48466125  0.49865437  0.89414727  1
  Zr  Zr79  1  0.59796853  0.59872984  0.39997644  1
  Zr  Zr80  1  0.70686715  0.69875326  0.50590921  1
  Zr  Zr81  1  0.49900292  0.09672277  0.49213452  1
  Zr  Zr82  1  0.18797660  0.79867787  0.20089956  1
  Zr  Zr83  1  0.49835841  0.10602284  0.89567319  1
  Zr  Zr84  1  0.80204976  0.79848913  0.80174117  1
  Zr  Zr85  1  0.49272368  0.89977209  0.31271856  1
  Zr  Zr86  1  0.20313308  0.20241069  0.39503557  1
  Zr  Zr87  1  0.20185946  0.79567946  0.80454462  1
  Zr  Zr88  1  0.70091634  0.50777505  0.51458260  1
  Zr  Zr89  1  0.19459081  -0.00089698  -0.01217090  1
  Zr  Zr90  1  0.70950191  0.10053505  0.10281372  1
  Zr  Zr91  1  0.48558038  0.30903023  0.89862103  1
  Zr  Zr92  1  0.70114771  0.50187836  0.29916473  1
  Zr  Zr93  1  0.20011174  0.80215457  0.40783095  1
  Zr  Zr94  1  0.89054235  0.89670930  0.49318000  1
  Zr  Zr95  1  0.20091340  0.41191321  0.19116073  1
  Zr  Zr96  1  0.09547752  0.30133929  0.29877783  1
  Zr  Zr97  1  0.69813579  0.29473668  0.49876924  1
  Zr  Zr98  1  0.10181132  0.10766104  0.10104305  1
  Zr  Zr99  1  0.69912834  0.09280107  0.50286283  1
  Ta  Ta100  1  0.59762561  0.60508505  0.00174838  1
  Ta  Ta101  1  0.69665927  0.70494606  0.90223734  1
  Ta  Ta102  1  0.30011031  0.69575903  0.30399651  1
  Ta  Ta103  1  0.79801451  0.79728945  0.18901538  1
  Ta  Ta104  1  0.60038754  0.39798233  0.39530141  1
  Ta  Ta105  1  0.70729332  0.10059325  0.90126059  1
  Ta  Ta106  1  0.10233911  0.51127314  0.70293476  1
  Ta  Ta107  1  0.70832337  0.29646040  0.10158830  1
  Ta  Ta108  1  0.59990367  0.80511965  0.41062592  1
  Ta  Ta109  1  0.10230265  0.09672620  0.49864800  1
  Ta  Ta110  1  0.19993925  0.60216433  0.80705306  1
  Ta  Ta111  1  0.90692235  0.69883594  0.90648128  1
  Ta  Ta112  1  0.90180171  0.10167573  0.90008459  1
  Ta  Ta113  1  0.80717745  0.79620756  0.60327123  1
  Ta  Ta114  1  0.60413547  -0.00798976  0.80647649  1
  Ta  Ta115  1  0.79643616  0.39969749  0.81247448  1
  Ta  Ta116  1  0.30210422  0.90622556  0.70967393  1
  Ta  Ta117  1  0.90354225  0.29300530  0.49307749  1
  Ta  Ta118  1  0.00500387  -0.00524902  0.39781997  1
  Ta  Ta119  1  0.49866541  0.29678194  0.29355577  1
  Ta  Ta120  1  0.40431539  -0.00959162  0.59775203  1
  Ta  Ta121  1  0.10013059  0.69215508  0.70447611  1
  Ta  Ta122  1  0.19502224  -0.00747910  0.60113126  1
  Ta  Ta123  1  0.40479813  0.79762075  -0.01012084  1
  Ta  Ta124  1  0.20125857  0.59843440  0.20182242  1
  Ta  Ta125  1  0.00726031  0.80382545  0.39941183  1
  Ta  Ta126  1  0.59720989  -0.00820835  0.60075216  1
  Ta  Ta127  1  0.79615130  0.60306258  0.19151404  1
  Ta  Ta128  1  0.49187207  0.30684996  0.71184321  1
  Ta  Ta129  1  0.39688735  0.20496889  0.38541982  1
  Ta  Ta130  1  0.70652791  0.89554740  0.30211450  1
  Ta  Ta131  1  0.80084801  0.00231861  0.80313815  1
  Ta  Ta132  1  0.71063816  0.90127543  0.09929538  1
  Ta  Ta133  1  0.70041289  0.89960015  0.70166516  1
  Ta  Ta134  1  0.90125044  0.09494779  0.28966676  1
  Ta  Ta135  1  0.50026777  0.10745129  0.29548153  1
  Ta  Ta136  1  0.90273739  0.09257187  0.49110791  1
  Ta  Ta137  1  0.79936787  0.79975824  -0.00096946  1
  Ta  Ta138  1  0.90176267  0.10040529  0.10113126  1
  Ta  Ta139  1  -0.00105848  0.60168279  0.40384086  1
  Ta  Ta140  1  0.80452783  0.40124402  0.39929694  1
  Ta  Ta141  1  0.80199736  0.20047953  -0.00303942  1
  Ta  Ta142  1  0.90142786  0.28730447  0.10062892  1
  Ta  Ta143  1  0.61034988  0.20821923  -0.00250204  1
  Ta  Ta144  1  0.39511382  0.40269376  0.60111461  1
  Ta  Ta145  1  0.09825892  0.70091545  0.30055451  1
  Ta  Ta146  1  0.09269742  0.90261119  0.89275594  1
  Ta  Ta147  1  0.49599164  0.69450700  0.50703120  1
  Ta  Ta148  1  0.30580444  0.50261866  0.31367135  1
  Ta  Ta149  1  0.60081897  -0.00822349  0.40309513  1
  Ti  Ti150  1  0.10243722  0.90090197  0.71416241  1
  Ti  Ti151  1  0.00547036  0.80350744  0.00053326  1
  Ti  Ti152  1  0.39324197  0.20619342  -0.00276943  1
  Ti  Ti153  1  0.78757233  0.60910882  0.00273214  1
  Ti  Ti154  1  0.80149463  0.39431811  -0.00438578  1
  Ti  Ti155  1  0.10399620  0.50520910  0.30460090  1
  Ti  Ti156  1  0.89939036  0.50985933  0.90705211  1
  Ti  Ti157  1  0.80436839  -0.00284841  -0.00359597  1
  Ti  Ti158  1  0.08699319  0.10976544  0.91416483  1
  Ti  Ti159  1  0.10165692  0.89620924  0.09424691  1
  Ti  Ti160  1  0.70277139  0.50832349  0.69787205  1
  Ti  Ti161  1  0.49078322  0.70071210  0.71193112  1
  Ti  Ti162  1  0.30533761  0.90182607  0.88683356  1
  Ti  Ti163  1  -0.00033006  0.00043390  0.00376422  1
  Ti  Ti164  1  0.09994398  0.29044635  0.08589155  1
  Ti  Ti165  1  -0.00162823  0.19035007  0.39778939  1
  Ti  Ti166  1  0.39902810  0.79651528  0.41241548  1
  Ti  Ti167  1  0.70581715  0.50428943  0.90505035  1
  Ti  Ti168  1  0.19787993  0.79944274  -0.01141571  1
  Ti  Ti169  1  0.80316518  -0.00261213  0.60706581  1
  Ti  Ti170  1  0.70144270  0.89685401  0.89660584  1
  Ti  Ti171  1  0.29720979  0.30948959  0.08141249  1
  Ti  Ti172  1  0.18713377  -0.01031555  0.40020190  1
  Ti  Ti173  1  0.59856195  0.19748097  0.39187061  1
  Ti  Ti174  1  0.09051839  0.70485567  0.89902575  1
  Ti  Ti175  1  0.01036229  0.02140412  0.79359562  1
  Ti  Ti176  1  0.59783841  0.20113197  0.60767862  1
  Ti  Ti177  1  0.48596031  0.49650617  0.08526717  1
  Ti  Ti178  1  0.30634163  0.91081219  0.49495592  1
  Ti  Ti179  1  0.31191069  0.69865148  0.89176195  1
  Ti  Ti180  1  -0.00679495  0.60421140  0.59827406  1
  Ti  Ti181  1  0.10969692  0.49380754  0.89898279  1
  Ti  Ti182  1  0.30010934  0.69570993  0.70464088  1
  Ti  Ti183  1  0.61427600  0.40142252  0.80374039  1
  Ti  Ti184  1  0.00507384  0.60080154  0.80998711  1
  Ti  Ti185  1  0.30431187  0.68641098  0.50171534  1
  Ti  Ti186  1  0.49099517  0.49483694  0.30709426  1
  Ti  Ti187  1  0.10076599  0.50721138  0.08812962  1
  Ti  Ti188  1  0.79753317  -0.00075550  0.39556485  1
  Ti  Ti189  1  0.90390503  0.28647535  0.90235128  1
  Ti  Ti190  1  0.39420433  0.60009513  0.60175621  1
  Ti  Ti191  1  0.70444538  0.89804096  0.50192965  1
  Ti  Ti192  1  0.89672122  0.50395177  0.50787062  1
  Ti  Ti193  1  0.70809707  0.29761688  0.70924096  1
  Ti  Ti194  1  0.91059207  0.70009613  0.70757616  1
  Ti  Ti195  1  0.39821356  0.60198681  -0.00442177  1
  Ti  Ti196  1  0.20323487  0.40770822  0.40232347  1
  Ti  Ti197  1  0.09412164  0.69965559  0.09770816  1
  Ti  Ti198  1  0.09895662  0.50764641  0.50876307  1
  Ti  Ti199  1  0.89935285  0.89832546  0.09834039  1
  Mo  Mo200  1  0.39870409  0.20786829  0.19962949  1
  Mo  Mo201  1  0.89938834  0.09129817  0.70864819  1
  Mo  Mo202  1  0.00947069  0.60202685  -0.01036207  1
  Mo  Mo203  1  0.19262673  0.18780442  0.59842980  1
  Mo  Mo204  1  0.89868637  0.50231595  0.30448859  1
  Mo  Mo205  1  0.29666572  0.50213172  0.89982437  1
  Mo  Mo206  1  0.19715633  -0.00999484  0.19612475  1
  Mo  Mo207  1  0.10297391  0.90228199  0.49725560  1
  Mo  Mo208  1  0.70468753  0.70216749  0.09496375  1
  Mo  Mo209  1  0.30171049  0.50123733  0.50483313  1
  Mo  Mo210  1  0.70976197  0.50411491  0.08779777  1
  Mo  Mo211  1  0.50235348  0.89120589  0.89257916  1
  Mo  Mo212  1  0.39885304  0.20797982  0.80163405  1
  Mo  Mo213  1  -0.00185249  0.19312594  0.80765291  1
  Mo  Mo214  1  -0.00509694  0.19908687  0.00034894  1
  Mo  Mo215  1  0.59987790  0.20546145  0.19597317  1
  Mo  Mo216  1  0.00433573  0.79153790  0.80344047  1
  Mo  Mo217  1  0.19054664  -0.00499117  0.79969267  1
  Mo  Mo218  1  0.40373774  0.39991120  0.39646917  1
  Mo  Mo219  1  0.71327529  0.30219481  0.90453563  1
  Mo  Mo220  1  0.39432933  0.60737863  0.80341341  1
  Mo  Mo221  1  0.58349678  0.60451026  0.61088071  1
  Mo  Mo222  1  0.80851884  -0.00833012  0.19560117  1
  Mo  Mo223  1  0.38356970  0.41101238  0.00327947  1
  Mo  Mo224  1  0.19179648  0.41133643  0.80259360  1
  Mo  Mo225  1  0.19570402  0.20777436  -0.00169414  1
  Mo  Mo226  1  0.49684667  0.89721437  0.50271300  1
  Mo  Mo227  1  0.90600009  0.70064174  0.50300626  1
  Mo  Mo228  1  0.30579409  0.31521437  0.30724035  1
  Mo  Mo229  1  0.29743516  0.50383641  0.09291403  1
  Mo  Mo230  1  -0.00096653  0.19539102  0.19605091  1
  Mo  Mo231  1  0.39350061  0.60092454  0.40334473  1
  Mo  Mo232  1  0.09702659  0.89751198  0.30057987  1
  Mo  Mo233  1  0.49895195  0.89306920  0.08906559  1
  Mo  Mo234  1  0.09972894  0.29637818  0.90739002  1
  Mo  Mo235  1  0.49646293  0.69857285  0.89698898  1
  Mo  Mo236  1  0.40328912  -0.00784817  0.80237442  1
  Mo  Mo237  1  0.19210783  0.40369713  -0.00063672  1
  Mo  Mo238  1  0.20066178  0.60417554  0.60641030  1
  Mo  Mo239  1  0.00102389  0.80025131  0.19297245  1
  Mo  Mo240  1  0.49231442  0.69123199  0.08800907  1
  Mo  Mo241  1  0.39713453  0.79511493  0.80192823  1
  Mo  Mo242  1  0.82090183  0.61035974  0.60680288  1
  Mo  Mo243  1  0.10282029  0.09356949  0.69117454  1
  Mo  Mo244  1  0.80379270  0.19388421  0.19409086  1
  Mo  Mo245  1  0.79484975  0.80281174  0.40414190  1
  Mo  Mo246  1  0.40627776  0.00387312  0.40164322  1
  Mo  Mo247  1  0.80260158  0.19647893  0.80915297  1
  Mo  Mo248  1  0.38768634  0.40535291  0.79900224  1
  Mo  Mo249  1  0.60000194  0.79896182  0.80522716  1
