# generated using pymatgen
data_HfZrTaTiMo
_symmetry_space_group_name_H-M   'P 1'
_cell_length_a   16.89058527
_cell_length_b   16.88876001
_cell_length_c   16.88999452
_cell_angle_alpha   89.98528159
_cell_angle_beta   89.95419666
_cell_angle_gamma   89.98283761
_symmetry_Int_Tables_number   1
_chemical_formula_structural   HfZrTaTiMo
_chemical_formula_sum   'Hf50 Zr50 Ta50 Ti50 Mo50'
_cell_volume   4818.05550790
_cell_formula_units_Z   50
loop_
 _symmetry_equiv_pos_site_id
 _symmetry_equiv_pos_as_xyz
  1  'x, y, z'
loop_
 _atom_site_type_symbol
 _atom_site_label
 _atom_site_symmetry_multiplicity
 _atom_site_fract_x
 _atom_site_fract_y
 _atom_site_fract_z
 _atom_site_occupancy
  Hf  Hf0  1  0.69243265  0.90466222  0.90403728  1
  Hf  Hf1  1  0.70186664  0.68594100  0.90982927  1
  Hf  Hf2  1  0.90184563  0.69911556  0.29680038  1
  Hf  Hf3  1  0.79863615  0.20184669  0.19310347  1
  Hf  Hf4  1  0.49558519  0.49249778  0.10163893  1
  Hf  Hf5  1  0.59234855  0.01019706  0.79571852  1
  Hf  Hf6  1  0.88598234  0.90329672  0.11239032  1
  Hf  Hf7  1  0.19659358  0.40025653  0.61115682  1
  Hf  Hf8  1  0.80053598  0.78612041  0.79075477  1
  Hf  Hf9  1  0.40849757  0.40218499  0.39549327  1
  Hf  Hf10  1  0.40452150  0.00129335  0.60471635  1
  Hf  Hf11  1  0.39687919  0.60381623  0.60503970  1
  Hf  Hf12  1  0.30114633  0.10442400  0.50320666  1
  Hf  Hf13  1  0.50092434  0.50578124  0.50161181  1
  Hf  Hf14  1  0.30445911  0.29986922  0.29390872  1
  Hf  Hf15  1  0.01054992  0.80266495  0.20133693  1
  Hf  Hf16  1  0.10872497  0.11009543  0.08564531  1
  Hf  Hf17  1  0.79730695  0.19522041  0.80050005  1
  Hf  Hf18  1  0.01073107  0.20839560  0.19637770  1
  Hf  Hf19  1  0.59616073  0.39931748  0.20307705  1
  Hf  Hf20  1  0.29964442  0.10349606  0.89993692  1
  Hf  Hf21  1  0.30098322  0.11071256  0.70406811  1
  Hf  Hf22  1  0.80417818  0.60443504  0.41046194  1
  Hf  Hf23  1  0.90396219  0.29806164  0.30313870  1
  Hf  Hf24  1  0.79952772  0.79370405  0.40901100  1
  Hf  Hf25  1  0.70116358  0.89765831  0.28530444  1
  Hf  Hf26  1  0.89356483  0.90003441  0.89555876  1
  Hf  Hf27  1  0.49976987  0.89713139  0.90696408  1
  Hf  Hf28  1  0.18892850  0.39422875  0.20135515  1
  Hf  Hf29  1  0.09261548  0.30531858  0.50150564  1
  Hf  Hf30  1  0.70506397  0.49944242  0.30090325  1
  Hf  Hf31  1  0.50211479  0.09848867  0.29008356  1
  Hf  Hf32  1  0.00803252  0.00122010  0.19465542  1
  Hf  Hf33  1  0.50090180  0.70589878  0.90432720  1
  Hf  Hf34  1  0.50097930  0.49713392  0.90170954  1
  Hf  Hf35  1  0.69716399  0.90181288  0.50849107  1
  Hf  Hf36  1  0.00466299  0.79934909  0.40914614  1
  Hf  Hf37  1  0.09884020  0.89532563  0.70109742  1
  Hf  Hf38  1  0.30198121  0.09721299  0.10034156  1
  Hf  Hf39  1  0.01088485  -0.00074475  0.40718444  1
  Hf  Hf40  1  0.30015741  0.90356923  0.90294542  1
  Hf  Hf41  1  0.40134515  0.60486594  0.20065448  1
  Hf  Hf42  1  0.70474700  0.50278456  0.08953464  1
  Hf  Hf43  1  0.00543870  -0.00188858  0.59409549  1
  Hf  Hf44  1  0.39645157  0.60411178  0.80557857  1
  Hf  Hf45  1  0.10523963  0.69705185  0.09685400  1
  Hf  Hf46  1  0.60186235  0.60411852  0.40141048  1
  Hf  Hf47  1  0.90050404  0.30252271  0.89767269  1
  Hf  Hf48  1  0.19589030  0.19880171  0.39281430  1
  Hf  Hf49  1  0.39312262  0.00764965  0.38927288  1
  Zr  Zr50  1  0.80109156  0.60114649  0.60660846  1
  Zr  Zr51  1  0.30103152  0.89629290  0.50034372  1
  Zr  Zr52  1  0.60489693  0.79298149  0.79433352  1
  Zr  Zr53  1  0.50159334  0.89757607  0.49879166  1
  Zr  Zr54  1  0.80221251  0.39443815  0.40642350  1
  Zr  Zr55  1  0.19876094  0.39501467  0.00356154  1
  Zr  Zr56  1  0.17740310  0.40048052  0.81206653  1
  Zr  Zr57  1  0.30446634  0.30055699  0.50219390  1
  Zr  Zr58  1  0.70364610  0.90422700  0.69447438  1
  Zr  Zr59  1  0.20367730  0.60059806  0.19854287  1
  Zr  Zr60  1  0.50509751  0.71336878  0.30175753  1
  Zr  Zr61  1  0.90427730  0.30504266  0.69815327  1
  Zr  Zr62  1  0.89210857  0.09678488  0.49931510  1
  Zr  Zr63  1  0.49609242  0.49507194  0.70446569  1
  Zr  Zr64  1  0.60342126  0.39897422  0.60029896  1
  Zr  Zr65  1  0.29522306  0.50415397  0.50032645  1
  Zr  Zr66  1  0.11295754  0.09496423  0.90404055  1
  Zr  Zr67  1  0.89429408  0.90286533  0.30081623  1
  Zr  Zr68  1  0.58801727  0.19690696  -0.00167659  1
  Zr  Zr69  1  0.59637821  0.60314251  0.19830262  1
  Zr  Zr70  1  0.69966895  0.30147335  0.09449540  1
  Zr  Zr71  1  -0.00184621  0.19340262  0.80410274  1
  Zr  Zr72  1  0.79284743  0.79915015  0.00559545  1
  Zr  Zr73  1  0.89304555  0.50045421  0.90237367  1
  Zr  Zr74  1  0.19260144  0.59966560  0.38098875  1
  Zr  Zr75  1  0.00902682  0.80818160  -0.00713826  1
  Zr  Zr76  1  0.19071578  0.20281140  0.60346942  1
  Zr  Zr77  1  0.00020674  0.78769505  0.79760448  1
  Zr  Zr78  1  0.00465596  0.40373682  0.39280934  1
  Zr  Zr79  1  0.30357405  0.29299330  0.89011041  1
  Zr  Zr80  1  0.29691509  0.49594382  0.71176648  1
  Zr  Zr81  1  0.89739384  0.09544798  0.29657547  1
  Zr  Zr82  1  0.09896136  0.50534299  0.51194050  1
  Zr  Zr83  1  0.00093492  0.59831445  -0.00308675  1
  Zr  Zr84  1  0.79888441  0.39958281  0.60017504  1
  Zr  Zr85  1  0.10449233  0.69318125  0.50966458  1
  Zr  Zr86  1  0.79134164  0.20368371  0.59290467  1
  Zr  Zr87  1  0.40151991  0.38422782  0.00473498  1
  Zr  Zr88  1  0.30353488  0.70072711  0.50059352  1
  Zr  Zr89  1  0.00799195  0.39890310  0.00035835  1
  Zr  Zr90  1  0.78567867  0.19807360  0.39972176  1
  Zr  Zr91  1  0.89719630  0.69510001  0.10096533  1
  Zr  Zr92  1  0.39116901  0.60971344  0.00774326  1
  Zr  Zr93  1  0.40647384  -0.00084535  0.79412644  1
  Zr  Zr94  1  0.20742875  0.00472793  0.20941727  1
  Zr  Zr95  1  0.79826311  0.00501742  0.00166494  1
  Zr  Zr96  1  0.20337848  0.80072732  0.19890816  1
  Zr  Zr97  1  -0.00155884  -0.00231263  0.80457383  1
  Zr  Zr98  1  0.50655375  0.90213038  0.29283115  1
  Zr  Zr99  1  0.49604188  0.29430333  0.69987678  1
  Ta  Ta100  1  0.19348856  0.40286680  0.38741048  1
  Ta  Ta101  1  0.80451534  0.59367111  0.19648752  1
  Ta  Ta102  1  0.50090390  0.29716202  0.29576167  1
  Ta  Ta103  1  0.40111043  0.79759180  0.18770085  1
  Ta  Ta104  1  -0.00220022  0.19662092  0.59590979  1
  Ta  Ta105  1  0.10149461  0.50204299  0.09941987  1
  Ta  Ta106  1  0.30966719  0.90357194  0.09341283  1
  Ta  Ta107  1  0.40448258  0.20047431  0.39520879  1
  Ta  Ta108  1  0.19726573  0.79912181  0.80363197  1
  Ta  Ta109  1  0.49940695  0.90152800  0.09772341  1
  Ta  Ta110  1  0.49842997  0.10847097  0.50043505  1
  Ta  Ta111  1  0.30485401  0.70837844  0.30070225  1
  Ta  Ta112  1  0.91047880  0.49962995  0.50706839  1
  Ta  Ta113  1  0.69189885  0.10371594  0.89956831  1
  Ta  Ta114  1  0.59582124  0.39859150  0.39748476  1
  Ta  Ta115  1  0.89243061  0.90168975  0.69189459  1
  Ta  Ta116  1  0.80135860  0.78423067  0.59836902  1
  Ta  Ta117  1  0.59673263  0.01178659  0.60077399  1
  Ta  Ta118  1  0.49808543  0.70407497  0.69622123  1
  Ta  Ta119  1  0.40294376  0.19993785  0.19374367  1
  Ta  Ta120  1  0.90257794  0.50254558  0.29754523  1
  Ta  Ta121  1  -0.00136494  0.00122594  -0.00303774  1
  Ta  Ta122  1  0.31227858  0.29864635  0.70667128  1
  Ta  Ta123  1  0.30106482  0.49088563  0.10462898  1
  Ta  Ta124  1  0.80269118  0.19602267  -0.00485959  1
  Ta  Ta125  1  0.78995867  0.40594578  0.79578474  1
  Ta  Ta126  1  0.19469115  -0.00228041  0.59714368  1
  Ta  Ta127  1  0.79791825  0.59487528  0.79244280  1
  Ta  Ta128  1  0.60706407  0.59597145  0.79302084  1
  Ta  Ta129  1  0.69537119  0.09669809  0.09671298  1
  Ta  Ta130  1  0.70473570  0.70513130  0.29121891  1
  Ta  Ta131  1  0.69953440  0.30090596  0.89878343  1
  Ta  Ta132  1  -0.00701165  0.79525914  0.60142339  1
  Ta  Ta133  1  0.60638601  0.40089536  0.80298992  1
  Ta  Ta134  1  0.50046448  0.71042969  0.50868140  1
  Ta  Ta135  1  0.41273918  0.00994162  0.00195034  1
  Ta  Ta136  1  0.20516521  0.79928779  -0.00152195  1
  Ta  Ta137  1  0.89033943  0.90105994  0.50813139  1
  Ta  Ta138  1  0.10648336  0.90174227  0.30606154  1
  Ta  Ta139  1  0.00136215  0.60032700  0.79977879  1
  Ta  Ta140  1  0.89486664  0.09166905  0.69503675  1
  Ta  Ta141  1  0.69795135  0.50238564  0.50211902  1
  Ta  Ta142  1  0.60658763  0.60767899  0.60448153  1
  Ta  Ta143  1  0.19460543  0.79986228  0.60362495  1
  Ta  Ta144  1  0.09902223  0.09788292  0.69868873  1
  Ta  Ta145  1  0.40654172  0.19853727  0.00562295  1
  Ta  Ta146  1  0.78453624  0.00190581  0.40275582  1
  Ta  Ta147  1  0.19648524  0.80136632  0.39731196  1
  Ta  Ta148  1  0.29262346  0.70308124  0.70374195  1
  Ta  Ta149  1  0.81155521  0.40166873  0.19500793  1
  Ti  Ti150  1  0.29845380  0.70747356  0.90058658  1
  Ti  Ti151  1  0.60345997  0.00891595  0.40395961  1
  Ti  Ti152  1  0.49802259  0.11789570  0.70015308  1
  Ti  Ti153  1  0.70172596  0.69938422  0.10579434  1
  Ti  Ti154  1  0.68663818  0.30071426  0.49406305  1
  Ti  Ti155  1  0.00501218  0.59260114  0.20370104  1
  Ti  Ti156  1  0.60054520  0.79967932  0.01593886  1
  Ti  Ti157  1  0.20066626  0.20555847  0.19855549  1
  Ti  Ti158  1  0.09635632  0.27536253  0.92240089  1
  Ti  Ti159  1  0.59400215  0.60317644  0.00649311  1
  Ti  Ti160  1  0.60034298  -0.00137457  0.18343450  1
  Ti  Ti161  1  0.61039529  0.79581794  0.40716101  1
  Ti  Ti162  1  0.20716310  0.59809081  -0.00177586  1
  Ti  Ti163  1  0.91141933  0.49345209  0.70381326  1
  Ti  Ti164  1  0.69848807  0.10209794  0.69501100  1
  Ti  Ti165  1  0.29795859  0.89360209  0.69705146  1
  Ti  Ti166  1  0.80393544  0.39846210  0.00270737  1
  Ti  Ti167  1  0.00239466  0.40044627  0.19585418  1
  Ti  Ti168  1  0.09726573  0.50951515  0.70661376  1
  Ti  Ti169  1  0.59456269  0.38998597  -0.00299740  1
  Ti  Ti170  1  0.18959320  0.20730595  0.79385833  1
  Ti  Ti171  1  0.00519633  0.19693271  0.40375101  1
  Ti  Ti172  1  0.40255631  0.39587018  0.59570151  1
  Ti  Ti173  1  0.69396147  0.09712976  0.29011394  1
  Ti  Ti174  1  0.89182605  0.69188817  0.90261067  1
  Ti  Ti175  1  0.69015139  0.29352287  0.70769799  1
  Ti  Ti176  1  0.11165814  0.69282495  0.89666375  1
  Ti  Ti177  1  0.79757288  0.00731401  0.79968538  1
  Ti  Ti178  1  0.59596486  0.20101560  0.39864546  1
  Ti  Ti179  1  0.90715066  0.29816830  0.09244818  1
  Ti  Ti180  1  0.00204335  0.60178364  0.39598385  1
  Ti  Ti181  1  0.11328167  0.91000454  0.08869191  1
  Ti  Ti182  1  0.59519059  0.20233793  0.19125785  1
  Ti  Ti183  1  0.69639787  0.29982432  0.29684877  1
  Ti  Ti184  1  0.19975440  -0.00700566  0.79521449  1
  Ti  Ti185  1  0.10253285  0.10035948  0.30024154  1
  Ti  Ti186  1  0.69843291  0.49816224  0.90502259  1
  Ti  Ti187  1  0.19855500  0.00166714  0.40342587  1
  Ti  Ti188  1  0.08303483  0.30701943  0.70313223  1
  Ti  Ti189  1  0.30436397  0.89892852  0.29503227  1
  Ti  Ti190  1  0.30866826  0.49604299  0.29310665  1
  Ti  Ti191  1  0.50117679  0.29273407  0.88385780  1
  Ti  Ti192  1  0.59848201  0.19888856  0.59200493  1
  Ti  Ti193  1  0.90083245  0.10129407  0.09714248  1
  Ti  Ti194  1  -0.00453817  0.60931614  0.61324927  1
  Ti  Ti195  1  0.50388034  0.88567296  0.68768324  1
  Ti  Ti196  1  0.40458693  0.60097380  0.39284789  1
  Ti  Ti197  1  0.29788156  0.49630178  0.89980864  1
  Ti  Ti198  1  0.39845178  0.80234888  0.39613053  1
  Ti  Ti199  1  0.39676110  0.79975362  0.79476390  1
  Mo  Mo200  1  0.10677382  0.89785700  0.90248179  1
  Mo  Mo201  1  0.69299638  0.70137232  0.50251173  1
  Mo  Mo202  1  0.39873899  0.39688440  0.20226119  1
  Mo  Mo203  1  0.60341147  0.80174922  0.18645468  1
  Mo  Mo204  1  0.69823670  0.69501481  0.69961559  1
  Mo  Mo205  1  0.19819878  0.60513566  0.62000823  1
  Mo  Mo206  1  0.49916402  0.10342841  0.89858666  1
  Mo  Mo207  1  0.30056757  0.70516561  0.09694769  1
  Mo  Mo208  1  0.79665032  0.59565500  0.00257170  1
  Mo  Mo209  1  0.10455411  0.51612961  0.90128577  1
  Mo  Mo210  1  0.40464920  0.39781686  0.80647827  1
  Mo  Mo211  1  0.10299659  0.69692118  0.70331912  1
  Mo  Mo212  1  0.19933074  0.60424359  0.80934880  1
  Mo  Mo213  1  0.39590630  0.80028047  0.61147130  1
  Mo  Mo214  1  0.09892313  0.29784732  0.09988626  1
  Mo  Mo215  1  0.69778737  0.49944168  0.70240218  1
  Mo  Mo216  1  0.59914768  0.79673566  0.59831951  1
  Mo  Mo217  1  0.60475485  0.20091659  0.79914527  1
  Mo  Mo218  1  0.79609078  0.78845827  0.20030997  1
  Mo  Mo219  1  0.09989908  0.29733751  0.29937287  1
  Mo  Mo220  1  0.21578769  0.20651586  0.00838898  1
  Mo  Mo221  1  0.79546368  0.00259804  0.60099024  1
  Mo  Mo222  1  0.79107146  0.01482624  0.20070545  1
  Mo  Mo223  1  0.39818269  0.80495444  0.00157790  1
  Mo  Mo224  1  0.10643307  0.89741004  0.50141706  1
  Mo  Mo225  1  0.90206917  0.69444595  0.70226769  1
  Mo  Mo226  1  0.90356139  0.49465767  0.10671268  1
  Mo  Mo227  1  0.00082564  0.40852967  0.80155671  1
  Mo  Mo228  1  0.09920323  0.70221226  0.30074565  1
  Mo  Mo229  1  0.49877086  0.29636462  0.10781255  1
  Mo  Mo230  1  0.69188064  0.90301688  0.10323154  1
  Mo  Mo231  1  0.20649189  -0.00691023  0.00026624  1
  Mo  Mo232  1  0.40280804  -0.00406375  0.19535967  1
  Mo  Mo233  1  0.68518094  0.09854022  0.49797825  1
  Mo  Mo234  1  0.91206966  0.29902098  0.50105566  1
  Mo  Mo235  1  0.40819530  0.19669783  0.80435569  1
  Mo  Mo236  1  0.59740578  0.00258779  0.00098493  1
  Mo  Mo237  1  0.49834715  0.49699318  0.30275771  1
  Mo  Mo238  1  0.30296905  0.10510734  0.29740676  1
  Mo  Mo239  1  0.30085170  0.29321394  0.10448231  1
  Mo  Mo240  1  0.50429746  0.29383357  0.49163648  1
  Mo  Mo241  1  0.50127357  0.09639073  0.10278004  1
  Mo  Mo242  1  0.08979357  0.50054048  0.29152081  1
  Mo  Mo243  1  -0.01539607  0.19395708  0.00303263  1
  Mo  Mo244  1  0.00076184  0.40500111  0.60584372  1
  Mo  Mo245  1  0.89146073  0.09645656  0.89996334  1
  Mo  Mo246  1  0.40339557  0.20066537  0.59746464  1
  Mo  Mo247  1  0.90895219  0.69579252  0.50559760  1
  Mo  Mo248  1  0.50196282  0.70943732  0.09663410  1
  Mo  Mo249  1  0.10335852  0.10021668  0.50125413  1
