# generated using pymatgen
data_HfZrTaTiMo
_symmetry_space_group_name_H-M   'P 1'
_cell_length_a   16.88200863
_cell_length_b   16.87965339
_cell_length_c   16.88570259
_cell_angle_alpha   89.96364578
_cell_angle_beta   89.94232895
_cell_angle_gamma   90.00038283
_symmetry_Int_Tables_number   1
_chemical_formula_structural   HfZrTaTiMo
_chemical_formula_sum   'Hf50 Zr50 Ta50 Ti50 Mo50'
_cell_volume   4811.78784267
_cell_formula_units_Z   50
loop_
 _symmetry_equiv_pos_site_id
 _symmetry_equiv_pos_as_xyz
  1  'x, y, z'
loop_
 _atom_site_type_symbol
 _atom_site_label
 _atom_site_symmetry_multiplicity
 _atom_site_fract_x
 _atom_site_fract_y
 _atom_site_fract_z
 _atom_site_occupancy
  Hf  Hf0  1  0.08839710  0.91045396  0.30029842  1
  Hf  Hf1  1  0.59933750  0.59224646  0.40148625  1
  Hf  Hf2  1  0.18553847  0.80191178  0.00640772  1
  Hf  Hf3  1  0.29380581  0.70159173  0.50167526  1
  Hf  Hf4  1  0.29742371  0.89584714  0.50599001  1
  Hf  Hf5  1  0.40155981  0.20297671  -0.00282335  1
  Hf  Hf6  1  0.59952001  0.79680801  0.60531907  1
  Hf  Hf7  1  0.60821249  0.39829793  0.80031348  1
  Hf  Hf8  1  0.19321110  0.40136678  0.60195115  1
  Hf  Hf9  1  0.91012808  0.51055286  0.69813054  1
  Hf  Hf10  1  0.40135275  0.59783729  0.78968792  1
  Hf  Hf11  1  0.09939722  0.51297920  0.09035645  1
  Hf  Hf12  1  0.60728701  0.39210314  0.20973100  1
  Hf  Hf13  1  0.39771478  0.00420461  0.39940449  1
  Hf  Hf14  1  0.19072459  0.01039979  0.20359893  1
  Hf  Hf15  1  0.19429528  0.39689109  0.40424505  1
  Hf  Hf16  1  0.79737222  0.00531957  0.39949355  1
  Hf  Hf17  1  0.50159851  0.29821771  0.69647511  1
  Hf  Hf18  1  0.20749873  0.39533958  0.00199435  1
  Hf  Hf19  1  0.79774961  0.80091789  0.79983677  1
  Hf  Hf20  1  0.80301674  0.00256823  0.59397446  1
  Hf  Hf21  1  0.00159874  0.18500700  0.20194763  1
  Hf  Hf22  1  0.39469574  0.19063276  0.59939137  1
  Hf  Hf23  1  0.29053970  0.70994196  0.69379348  1
  Hf  Hf24  1  0.89545775  0.29691114  0.50107135  1
  Hf  Hf25  1  0.79774952  0.79839485  0.60022503  1
  Hf  Hf26  1  0.09389521  0.29356190  0.70045081  1
  Hf  Hf27  1  0.80264247  0.79763276  0.19319840  1
  Hf  Hf28  1  0.70468582  0.29526210  0.49974779  1
  Hf  Hf29  1  0.50401280  0.49294707  0.50854696  1
  Hf  Hf30  1  0.60337231  0.19523863  0.80093688  1
  Hf  Hf31  1  0.00075776  0.39290231  0.00072844  1
  Hf  Hf32  1  -0.00745110  -0.00022625  0.59177434  1
  Hf  Hf33  1  0.89550779  0.90143334  0.29434001  1
  Hf  Hf34  1  0.79427129  0.59913686  0.60203056  1
  Hf  Hf35  1  0.08923205  0.70047580  0.30903395  1
  Hf  Hf36  1  0.10071689  0.10285103  0.49188755  1
  Hf  Hf37  1  0.79858696  0.19654871  0.79858533  1
  Hf  Hf38  1  -0.00431339  0.18721028  0.00724610  1
  Hf  Hf39  1  0.09895120  0.10089613  0.89320694  1
  Hf  Hf40  1  0.30271729  0.10036302  0.89713205  1
  Hf  Hf41  1  0.70738177  0.70499048  0.30242894  1
  Hf  Hf42  1  0.40733860  0.80031291  0.20131494  1
  Hf  Hf43  1  -0.01148593  0.79780954  0.60279859  1
  Hf  Hf44  1  0.09561590  0.50563102  0.89689015  1
  Hf  Hf45  1  0.40383895  0.39042299  0.40660084  1
  Hf  Hf46  1  0.88900408  0.29337636  0.10471744  1
  Hf  Hf47  1  0.40686317  0.60093766  0.00613593  1
  Hf  Hf48  1  0.50406871  0.90364073  0.50151074  1
  Hf  Hf49  1  0.40120879  0.80495591  0.39255739  1
  Zr  Zr50  1  0.58891599  0.60512697  0.21044593  1
  Zr  Zr51  1  0.89761762  0.50679409  0.89797824  1
  Zr  Zr52  1  0.19954279  0.59089818  0.78989983  1
  Zr  Zr53  1  0.59944842  0.00294946  -0.00599756  1
  Zr  Zr54  1  0.19707897  0.59962735  0.19970401  1
  Zr  Zr55  1  0.60441128  0.40098742  0.00062234  1
  Zr  Zr56  1  -0.00372578  0.19516698  0.59451333  1
  Zr  Zr57  1  0.30220152  0.50081648  0.50064254  1
  Zr  Zr58  1  0.18963377  0.80743483  0.81072815  1
  Zr  Zr59  1  0.29968924  0.70303380  0.90254334  1
  Zr  Zr60  1  0.40188813  0.01153647  0.78522310  1
  Zr  Zr61  1  0.10701979  0.89789839  0.50174398  1
  Zr  Zr62  1  0.41498028  0.80597842  0.00185860  1
  Zr  Zr63  1  0.60075854  0.00704068  0.19580384  1
  Zr  Zr64  1  0.70702042  0.29653315  0.90569531  1
  Zr  Zr65  1  0.60624606  0.80682349  -0.00413025  1
  Zr  Zr66  1  0.59959405  0.18918576  0.00402840  1
  Zr  Zr67  1  0.90793524  0.70056891  0.08630445  1
  Zr  Zr68  1  0.30404803  0.29372472  0.29704803  1
  Zr  Zr69  1  -0.01181854  0.81046357  0.40826387  1
  Zr  Zr70  1  0.00198774  0.39595330  0.20767788  1
  Zr  Zr71  1  0.59617929  0.79714825  0.39354378  1
  Zr  Zr72  1  0.70935034  0.90326441  0.09884190  1
  Zr  Zr73  1  0.50400553  0.49583669  0.69882569  1
  Zr  Zr74  1  0.08222883  0.69328962  0.70590942  1
  Zr  Zr75  1  0.10143084  0.89833246  0.70067228  1
  Zr  Zr76  1  0.90658669  0.69883842  0.88925623  1
  Zr  Zr77  1  0.89698559  0.49935051  0.10169590  1
  Zr  Zr78  1  0.89768440  0.90304266  0.71344824  1
  Zr  Zr79  1  0.20937281  0.01544598  0.60283954  1
  Zr  Zr80  1  0.51440919  0.70099078  0.87835098  1
  Zr  Zr81  1  0.30608315  0.90881274  0.90019299  1
  Zr  Zr82  1  0.30065805  0.90510322  0.09410018  1
  Zr  Zr83  1  0.70837926  0.49521079  0.30097687  1
  Zr  Zr84  1  0.70816063  0.50405748  0.10106001  1
  Zr  Zr85  1  0.41185422  0.59788437  0.38822992  1
  Zr  Zr86  1  0.29597020  0.69805886  0.29982424  1
  Zr  Zr87  1  0.39815926  0.19488472  0.41253445  1
  Zr  Zr88  1  0.29793896  0.50545350  0.90858581  1
  Zr  Zr89  1  0.19560053  0.39991623  0.20174271  1
  Zr  Zr90  1  0.90176306  0.29631956  0.89442173  1
  Zr  Zr91  1  0.10102300  0.29289308  0.89023325  1
  Zr  Zr92  1  0.80202234  0.58707193  0.40662443  1
  Zr  Zr93  1  0.19496398  0.80712243  0.20033266  1
  Zr  Zr94  1  0.49628872  0.29411622  0.11012803  1
  Zr  Zr95  1  0.49919806  0.49671248  0.10372863  1
  Zr  Zr96  1  0.90230282  0.68932263  0.49706581  1
  Zr  Zr97  1  0.30629932  0.10210166  0.10124675  1
  Zr  Zr98  1  0.19907846  0.19959733  0.00555626  1
  Zr  Zr99  1  0.39970487  -0.00217004  0.20842656  1
  Ta  Ta100  1  0.70339106  0.09997175  0.69417254  1
  Ta  Ta101  1  0.20454360  0.39920134  0.79372626  1
  Ta  Ta102  1  0.40714788  0.79949129  0.60374415  1
  Ta  Ta103  1  0.09037233  0.69148294  0.90888225  1
  Ta  Ta104  1  0.19224825  0.59084525  0.60025518  1
  Ta  Ta105  1  0.50327806  0.29395713  0.30300707  1
  Ta  Ta106  1  0.70210947  0.69561831  0.89345459  1
  Ta  Ta107  1  -0.00007940  0.39817377  0.40254710  1
  Ta  Ta108  1  0.70113016  0.10873141  0.50312826  1
  Ta  Ta109  1  0.79366586  0.19411074  0.21041970  1
  Ta  Ta110  1  0.09560196  0.10321665  0.70777311  1
  Ta  Ta111  1  0.40354511  0.00669296  0.59698614  1
  Ta  Ta112  1  0.60233263  0.60216546  -0.00481269  1
  Ta  Ta113  1  0.30382251  0.29882624  0.10923231  1
  Ta  Ta114  1  0.90080186  0.10154855  0.70471168  1
  Ta  Ta115  1  0.50165584  0.49650791  0.89829151  1
  Ta  Ta116  1  0.30268119  0.29717754  0.70195156  1
  Ta  Ta117  1  0.20900876  0.00750556  0.39113696  1
  Ta  Ta118  1  0.49974886  0.10924309  0.29804917  1
  Ta  Ta119  1  0.60458988  0.19731412  0.39712574  1
  Ta  Ta120  1  0.49333898  0.30127005  0.89320887  1
  Ta  Ta121  1  -0.00634504  0.00350605  0.00212081  1
  Ta  Ta122  1  0.19344576  0.19248593  0.20773933  1
  Ta  Ta123  1  0.39474878  0.39644092  -0.00016429  1
  Ta  Ta124  1  0.00239001  0.40232187  0.79073537  1
  Ta  Ta125  1  0.60302861  0.00897928  0.39914809  1
  Ta  Ta126  1  0.20518968  0.20375243  0.59542546  1
  Ta  Ta127  1  0.19121681  0.59139971  0.40468919  1
  Ta  Ta128  1  0.69726363  0.70072514  0.49910744  1
  Ta  Ta129  1  0.69515865  0.90830738  0.70056424  1
  Ta  Ta130  1  0.50493181  0.90347402  0.69927010  1
  Ta  Ta131  1  0.29660785  0.69451634  0.09720348  1
  Ta  Ta132  1  0.30266562  0.89790775  0.69465035  1
  Ta  Ta133  1  -0.00242939  -0.00456876  0.81120174  1
  Ta  Ta134  1  0.69971213  0.89892559  0.49668732  1
  Ta  Ta135  1  0.89368315  0.29531922  0.30904639  1
  Ta  Ta136  1  0.90027728  0.69773011  0.30238690  1
  Ta  Ta137  1  0.49909314  0.69619534  0.50469470  1
  Ta  Ta138  1  0.09886574  0.69381760  0.50236805  1
  Ta  Ta139  1  -0.00158226  0.60464132  0.20131261  1
  Ta  Ta140  1  0.60087333  0.00605688  0.59601095  1
  Ta  Ta141  1  0.89888506  0.30303725  0.69501353  1
  Ta  Ta142  1  0.79973872  0.40701273  0.59956668  1
  Ta  Ta143  1  0.60967989  0.19790085  0.20625582  1
  Ta  Ta144  1  0.39090841  0.39870721  0.80230979  1
  Ta  Ta145  1  0.68764843  0.69584744  0.71387542  1
  Ta  Ta146  1  0.70588165  0.29418379  0.68926989  1
  Ta  Ta147  1  0.39915711  0.60339872  0.60541607  1
  Ta  Ta148  1  0.79960672  0.40420919  0.78905699  1
  Ta  Ta149  1  0.30091951  0.49772888  0.29957785  1
  Ti  Ti150  1  -0.00728085  0.19440407  0.39717711  1
  Ti  Ti151  1  0.42469456  0.00277891  0.00986576  1
  Ti  Ti152  1  0.40135508  0.59714080  0.20086170  1
  Ti  Ti153  1  0.70316060  0.51137668  0.89176633  1
  Ti  Ti154  1  0.89806839  0.10027337  0.30071230  1
  Ti  Ti155  1  0.79505721  0.60683926  -0.00370120  1
  Ti  Ti156  1  -0.01045782  0.00753184  0.40344660  1
  Ti  Ti157  1  0.09313565  0.29881744  0.49864480  1
  Ti  Ti158  1  0.70185775  0.89875106  0.29846873  1
  Ti  Ti159  1  0.90184572  0.90904929  0.09958996  1
  Ti  Ti160  1  0.49580751  0.10394919  0.89192597  1
  Ti  Ti161  1  0.90580781  0.49925249  0.30312056  1
  Ti  Ti162  1  0.21312008  0.19897291  0.79337298  1
  Ti  Ti163  1  0.51351062  0.29314093  0.50841978  1
  Ti  Ti164  1  0.79867247  0.38905050  0.21056440  1
  Ti  Ti165  1  0.80237764  0.80616649  -0.00800275  1
  Ti  Ti166  1  0.70794766  0.09987657  0.09949030  1
  Ti  Ti167  1  0.70738543  0.29489037  0.10078163  1
  Ti  Ti168  1  0.91599402  0.49586549  0.50675783  1
  Ti  Ti169  1  0.38976934  0.39472255  0.60160814  1
  Ti  Ti170  1  0.89662759  0.09404894  0.89357339  1
  Ti  Ti171  1  0.70774008  0.91087059  0.88938947  1
  Ti  Ti172  1  0.10115253  0.29394851  0.10539894  1
  Ti  Ti173  1  0.69998907  0.50498030  0.70382147  1
  Ti  Ti174  1  -0.00101676  0.79728515  0.19296630  1
  Ti  Ti175  1  0.18343586  -0.00154486  0.00029111  1
  Ti  Ti176  1  0.60264053  0.39662438  0.39964400  1
  Ti  Ti177  1  0.09506466  0.28945036  0.30918567  1
  Ti  Ti178  1  0.40707617  0.80295227  0.78873429  1
  Ti  Ti179  1  0.79858466  0.40232433  -0.00429927  1
  Ti  Ti180  1  0.51268992  0.90138767  0.29437641  1
  Ti  Ti181  1  0.80097867  0.40194073  0.40617480  1
  Ti  Ti182  1  0.08478990  0.91036199  0.10408602  1
  Ti  Ti183  1  0.50929660  0.70648408  0.10473336  1
  Ti  Ti184  1  0.69659502  0.70071895  0.09754870  1
  Ti  Ti185  1  0.00169143  0.81654965  -0.01033941  1
  Ti  Ti186  1  0.80195430  0.01041684  0.20074831  1
  Ti  Ti187  1  0.50472444  0.90406116  0.88443910  1
  Ti  Ti188  1  0.60075742  0.60206983  0.60290424  1
  Ti  Ti189  1  0.19971001  0.00022854  0.79681781  1
  Ti  Ti190  1  0.61495388  0.40152337  0.59856578  1
  Ti  Ti191  1  0.60600535  0.00798827  0.79725718  1
  Ti  Ti192  1  0.39995747  0.40571555  0.20416470  1
  Ti  Ti193  1  0.20608887  0.19525877  0.40108179  1
  Ti  Ti194  1  0.09229026  0.50328139  0.30668302  1
  Ti  Ti195  1  0.80713805  0.60540133  0.20048122  1
  Ti  Ti196  1  0.80175495  0.18421694  0.00119879  1
  Ti  Ti197  1  0.50955460  0.10395130  0.69223585  1
  Ti  Ti198  1  0.80694051  0.00381696  -0.00828046  1
  Ti  Ti199  1  0.19883893  0.80415825  0.39577276  1
  Mo  Mo200  1  0.29755632  0.10001688  0.49924454  1
  Mo  Mo201  1  0.80026758  0.19766545  0.60291025  1
  Mo  Mo202  1  0.19872117  0.79184810  0.59621216  1
  Mo  Mo203  1  0.79504005  0.80590389  0.40082272  1
  Mo  Mo204  1  0.70521087  0.29670085  0.30926437  1
  Mo  Mo205  1  -0.00761226  0.19341337  0.79654682  1
  Mo  Mo206  1  0.50706684  0.89916066  0.10538901  1
  Mo  Mo207  1  0.50135114  0.70211186  0.69441451  1
  Mo  Mo208  1  0.79783763  0.00397054  0.80075417  1
  Mo  Mo209  1  0.20086106  0.60769796  0.00499954  1
  Mo  Mo210  1  0.09335212  0.70582785  0.09747454  1
  Mo  Mo211  1  0.60552368  0.81785557  0.79732592  1
  Mo  Mo212  1  0.60035801  0.19751212  0.59643769  1
  Mo  Mo213  1  0.40451805  0.19800127  0.20372579  1
  Mo  Mo214  1  0.88879919  0.09494061  0.10317837  1
  Mo  Mo215  1  0.89670288  0.10409091  0.49286764  1
  Mo  Mo216  1  0.60299491  0.58852596  0.80095787  1
  Mo  Mo217  1  0.30469749  0.49866581  0.10648260  1
  Mo  Mo218  1  0.89692995  0.90173090  0.90845366  1
  Mo  Mo219  1  0.29554334  0.10484830  0.70234690  1
  Mo  Mo220  1  0.09394240  0.10417283  0.30925784  1
  Mo  Mo221  1  0.69961209  0.10107709  0.30239938  1
  Mo  Mo222  1  0.00054972  0.60014205  0.00198898  1
  Mo  Mo223  1  0.30322471  0.30075603  0.89357666  1
  Mo  Mo224  1  0.29826018  0.10422595  0.30141159  1
  Mo  Mo225  1  0.60223747  0.80412378  0.19593598  1
  Mo  Mo226  1  -0.00187148  0.39771502  0.59658692  1
  Mo  Mo227  1  0.88799556  0.90315202  0.49408832  1
  Mo  Mo228  1  0.09376870  0.90829770  0.90406361  1
  Mo  Mo229  1  0.80057295  0.19577121  0.39783323  1
  Mo  Mo230  1  0.50154679  0.70435663  0.29707705  1
  Mo  Mo231  1  0.09193249  0.50057019  0.50061676  1
  Mo  Mo232  1  0.49510264  0.48292066  0.30235534  1
  Mo  Mo233  1  -0.00018428  0.59685359  0.79865691  1
  Mo  Mo234  1  0.00022701  0.58981207  0.39667246  1
  Mo  Mo235  1  -0.00793493  0.00323349  0.19473242  1
  Mo  Mo236  1  0.69527532  0.49389243  0.50718032  1
  Mo  Mo237  1  0.40327120  0.20396689  0.79799607  1
  Mo  Mo238  1  0.29083099  0.90198113  0.30502112  1
  Mo  Mo239  1  0.79548309  0.60170720  0.79390461  1
  Mo  Mo240  1  0.09557484  0.09428542  0.09939452  1
  Mo  Mo241  1  0.89256262  0.69664028  0.70319900  1
  Mo  Mo242  1  0.00440683  0.59597279  0.59558973  1
  Mo  Mo243  1  0.29085850  0.29821443  0.50661068  1
  Mo  Mo244  1  -0.00270137  0.80323271  0.81028186  1
  Mo  Mo245  1  0.50277937  0.10061633  0.10627103  1
  Mo  Mo246  1  0.30202569  0.49297014  0.69447287  1
  Mo  Mo247  1  0.09709278  0.49340656  0.69678570  1
  Mo  Mo248  1  0.70836227  0.09203982  0.89586362  1
  Mo  Mo249  1  0.50872800  0.09848885  0.49783928  1
