# generated using pymatgen
data_HfZrTaTiMo
_symmetry_space_group_name_H-M   'P 1'
_cell_length_a   16.87948708
_cell_length_b   16.88182551
_cell_length_c   16.88857931
_cell_angle_alpha   89.97019553
_cell_angle_beta   89.99310482
_cell_angle_gamma   90.01993041
_symmetry_Int_Tables_number   1
_chemical_formula_structural   HfZrTaTiMo
_chemical_formula_sum   'Hf50 Zr50 Ta50 Ti50 Mo50'
_cell_volume   4812.51041242
_cell_formula_units_Z   50
loop_
 _symmetry_equiv_pos_site_id
 _symmetry_equiv_pos_as_xyz
  1  'x, y, z'
loop_
 _atom_site_type_symbol
 _atom_site_label
 _atom_site_symmetry_multiplicity
 _atom_site_fract_x
 _atom_site_fract_y
 _atom_site_fract_z
 _atom_site_occupancy
  Hf  Hf0  1  0.09580722  0.09465816  0.68759253  1
  Hf  Hf1  1  0.69366971  0.89042192  0.08747410  1
  Hf  Hf2  1  0.10075848  0.70624838  0.89676151  1
  Hf  Hf3  1  0.80305401  0.20790829  0.59435924  1
  Hf  Hf4  1  0.39657013  0.40475747  0.60486114  1
  Hf  Hf5  1  -0.00110626  0.19964154  0.19345241  1
  Hf  Hf6  1  0.69984498  0.89181266  0.50669976  1
  Hf  Hf7  1  0.10181257  0.69819664  0.31198377  1
  Hf  Hf8  1  0.88660085  0.10325916  0.09688691  1
  Hf  Hf9  1  0.60457693  0.80313894  0.20990221  1
  Hf  Hf10  1  0.00377636  0.19756379  -0.00118208  1
  Hf  Hf11  1  0.30178700  0.30474318  0.88790909  1
  Hf  Hf12  1  0.90129961  0.88989326  0.50583906  1
  Hf  Hf13  1  0.09826805  0.70313220  0.50155887  1
  Hf  Hf14  1  0.20925612  0.80732492  0.59761199  1
  Hf  Hf15  1  0.08409300  0.90296200  0.50642155  1
  Hf  Hf16  1  0.91108646  0.48181406  0.30130481  1
  Hf  Hf17  1  0.91341799  0.30906759  0.50268159  1
  Hf  Hf18  1  0.00136967  0.40422850  0.00206326  1
  Hf  Hf19  1  0.20377845  0.00993321  0.40754698  1
  Hf  Hf20  1  0.20012335  0.80078533  0.19265853  1
  Hf  Hf21  1  0.40319778  0.60101138  0.20605044  1
  Hf  Hf22  1  0.00206247  0.58638529  0.40635694  1
  Hf  Hf23  1  0.09410774  0.10256869  0.30356734  1
  Hf  Hf24  1  0.80969333  0.80217015  0.79810592  1
  Hf  Hf25  1  0.59796934  0.00226210  -0.00082949  1
  Hf  Hf26  1  0.79870420  0.60377459  0.00331473  1
  Hf  Hf27  1  0.51617960  0.50549754  0.69908041  1
  Hf  Hf28  1  0.70131286  0.50252837  0.51136636  1
  Hf  Hf29  1  0.59822577  -0.00131139  0.60471279  1
  Hf  Hf30  1  0.19896105  0.40944096  0.00341792  1
  Hf  Hf31  1  0.30927094  0.90681596  0.70211494  1
  Hf  Hf32  1  0.50916837  0.70891229  0.08990931  1
  Hf  Hf33  1  0.49324881  0.89750481  0.69964938  1
  Hf  Hf34  1  0.70397165  0.10618651  0.90082674  1
  Hf  Hf35  1  0.69905342  0.89330529  0.70097191  1
  Hf  Hf36  1  0.08766387  0.31053757  0.30397852  1
  Hf  Hf37  1  0.09120947  0.89633591  0.30869040  1
  Hf  Hf38  1  0.00080669  0.79644106  0.19353832  1
  Hf  Hf39  1  0.30730432  0.90818306  0.29767702  1
  Hf  Hf40  1  0.89302800  0.29752018  0.89751166  1
  Hf  Hf41  1  0.49954800  0.29527357  0.10209395  1
  Hf  Hf42  1  0.80722061  -0.00551551  0.80187076  1
  Hf  Hf43  1  0.29262028  0.30836954  0.49965741  1
  Hf  Hf44  1  0.80045605  0.39830148  0.41105603  1
  Hf  Hf45  1  0.19042053  0.40810234  0.40246886  1
  Hf  Hf46  1  0.21040177  0.81135379  0.40950685  1
  Hf  Hf47  1  0.90084864  0.89515434  0.30515557  1
  Hf  Hf48  1  0.19493514  0.58662465  0.20317452  1
  Hf  Hf49  1  0.00463970  0.19380923  0.79916456  1
  Zr  Zr50  1  0.40683858  0.60291495  0.60543954  1
  Zr  Zr51  1  0.49840690  0.91076535  0.30412455  1
  Zr  Zr52  1  0.70556111  0.29620908  0.29649058  1
  Zr  Zr53  1  0.19781831  -0.00394089  0.19980920  1
  Zr  Zr54  1  0.40134575  0.80399619  -0.00608233  1
  Zr  Zr55  1  0.29544752  0.69611758  0.09021549  1
  Zr  Zr56  1  0.39971382  0.80171068  0.19948641  1
  Zr  Zr57  1  0.60508979  0.39698255  0.79890635  1
  Zr  Zr58  1  0.29072563  0.70162350  0.89650056  1
  Zr  Zr59  1  0.69871019  0.70724294  0.89731029  1
  Zr  Zr60  1  0.29816238  0.30026494  0.10791773  1
  Zr  Zr61  1  0.30021601  0.69110597  0.31436346  1
  Zr  Zr62  1  0.20287783  0.40701085  0.79207869  1
  Zr  Zr63  1  -0.00392332  -0.00478559  0.80551899  1
  Zr  Zr64  1  0.39517508  0.19516343  0.79651688  1
  Zr  Zr65  1  0.20010798  0.19663926  0.20497916  1
  Zr  Zr66  1  0.80259297  0.00030672  0.40500033  1
  Zr  Zr67  1  0.59764275  0.19917434  0.39845722  1
  Zr  Zr68  1  0.69510388  0.51167703  0.88919473  1
  Zr  Zr69  1  0.49703754  0.30691889  0.49855416  1
  Zr  Zr70  1  0.80359190  0.59953238  0.20120425  1
  Zr  Zr71  1  0.28327905  0.08235435  0.89120016  1
  Zr  Zr72  1  0.60317088  0.39764993  -0.00137210  1
  Zr  Zr73  1  0.79221088  -0.00801734  0.19959797  1
  Zr  Zr74  1  0.39551572  0.19469029  -0.00203449  1
  Zr  Zr75  1  0.79785572  0.40455009  0.79137617  1
  Zr  Zr76  1  0.09797009  0.50884688  0.89040274  1
  Zr  Zr77  1  0.00603108  0.59539367  0.19483104  1
  Zr  Zr78  1  0.70087660  0.10761743  0.70801844  1
  Zr  Zr79  1  0.19102165  0.19530395  -0.00137437  1
  Zr  Zr80  1  0.70404317  0.10147309  0.29676042  1
  Zr  Zr81  1  0.59728884  0.59871414  0.40565954  1
  Zr  Zr82  1  0.50122210  0.29675811  0.70347419  1
  Zr  Zr83  1  0.39182435  0.19221618  0.59633447  1
  Zr  Zr84  1  0.38847762  0.19005392  0.39283745  1
  Zr  Zr85  1  0.10931714  0.90404459  0.89859811  1
  Zr  Zr86  1  0.50306187  0.50226878  0.09778687  1
  Zr  Zr87  1  0.09684714  0.30765883  0.88574684  1
  Zr  Zr88  1  0.70267013  0.10085929  0.50315175  1
  Zr  Zr89  1  0.39504704  0.40867438  -0.00921504  1
  Zr  Zr90  1  0.29745381  0.90188776  0.89526866  1
  Zr  Zr91  1  0.79332568  0.40114205  -0.00198088  1
  Zr  Zr92  1  0.60465883  0.60330619  0.20038539  1
  Zr  Zr93  1  0.79715684  0.79212320  0.19759492  1
  Zr  Zr94  1  0.70343740  0.69650801  0.31567103  1
  Zr  Zr95  1  0.49808621  0.08878918  0.50033402  1
  Zr  Zr96  1  0.49475474  0.30472034  0.29789237  1
  Zr  Zr97  1  0.09777145  0.70496532  0.70085500  1
  Zr  Zr98  1  0.39306013  0.41075065  0.20543675  1
  Zr  Zr99  1  0.91196726  0.30350577  0.69794733  1
  Ta  Ta100  1  0.70189998  0.69764128  0.51012622  1
  Ta  Ta101  1  0.49817838  0.90651495  0.10020194  1
  Ta  Ta102  1  -0.00142869  0.80373499  -0.00488172  1
  Ta  Ta103  1  0.29330301  0.30770104  0.30341776  1
  Ta  Ta104  1  0.90028815  0.10825851  0.30102748  1
  Ta  Ta105  1  0.70323456  0.28860113  0.10266851  1
  Ta  Ta106  1  -0.00545832  -0.00010474  0.19667205  1
  Ta  Ta107  1  0.50040126  0.70286431  0.50654572  1
  Ta  Ta108  1  0.79991544  0.39887240  0.19748617  1
  Ta  Ta109  1  -0.00513172  0.00897581  0.40321653  1
  Ta  Ta110  1  0.50113895  0.09915277  0.89629890  1
  Ta  Ta111  1  0.70385047  0.49456217  0.30359727  1
  Ta  Ta112  1  0.90426155  0.70029993  0.69489257  1
  Ta  Ta113  1  0.70220314  0.29475217  0.70021089  1
  Ta  Ta114  1  0.50130044  0.29607652  0.89521036  1
  Ta  Ta115  1  0.80063923  0.60347652  0.78606493  1
  Ta  Ta116  1  0.90248199  0.89940369  0.09347945  1
  Ta  Ta117  1  -0.00567182  0.60031873  0.79183268  1
  Ta  Ta118  1  0.59749222  -0.00300362  0.80293318  1
  Ta  Ta119  1  -0.00089976  0.59549317  0.59831079  1
  Ta  Ta120  1  0.90459787  0.49545457  0.69078238  1
  Ta  Ta121  1  0.40238621  0.80279705  0.41191762  1
  Ta  Ta122  1  0.49926115  0.50339779  0.88998879  1
  Ta  Ta123  1  0.30351502  0.08806444  0.10215388  1
  Ta  Ta124  1  0.90278685  0.50463098  0.89205218  1
  Ta  Ta125  1  0.89978314  0.69917389  0.50464904  1
  Ta  Ta126  1  -0.00109378  0.60125435  -0.00112280  1
  Ta  Ta127  1  0.49636291  0.09499393  0.10182227  1
  Ta  Ta128  1  0.29315891  0.09358289  0.69717915  1
  Ta  Ta129  1  0.09854210  0.49893825  0.69600209  1
  Ta  Ta130  1  0.90179139  0.10168563  0.69375471  1
  Ta  Ta131  1  0.40293000  0.60132117  0.79988524  1
  Ta  Ta132  1  0.30656856  0.70434841  0.69795359  1
  Ta  Ta133  1  0.90200296  0.49618002  0.09937990  1
  Ta  Ta134  1  0.59577733  0.19034984  0.19662159  1
  Ta  Ta135  1  0.20335051  0.59696111  0.60241498  1
  Ta  Ta136  1  -0.00172528  0.00198193  -0.00320116  1
  Ta  Ta137  1  0.59970427  0.60670864  -0.00545862  1
  Ta  Ta138  1  0.30542785  0.69613984  0.50326236  1
  Ta  Ta139  1  0.59343081  0.79384899  0.79975814  1
  Ta  Ta140  1  0.60311748  0.40197673  0.40431733  1
  Ta  Ta141  1  0.90261355  0.70218875  0.09063877  1
  Ta  Ta142  1  0.30161249  0.50706544  0.49609023  1
  Ta  Ta143  1  0.90701603  0.70080046  0.89463730  1
  Ta  Ta144  1  0.59709781  0.80257166  0.40830125  1
  Ta  Ta145  1  0.28746974  0.29915570  0.69404208  1
  Ta  Ta146  1  0.20358689  0.00123508  0.58997780  1
  Ta  Ta147  1  0.81006322  0.59274497  0.41053924  1
  Ta  Ta148  1  0.69608643  0.89746547  0.89828433  1
  Ta  Ta149  1  0.89300586  0.29951660  0.10250365  1
  Ti  Ti150  1  0.40173659  0.59902339  -0.01175915  1
  Ti  Ti151  1  0.10414858  0.49885303  0.50702319  1
  Ti  Ti152  1  0.59987098  0.00251339  0.20184589  1
  Ti  Ti153  1  0.40905215  0.78764870  0.79959235  1
  Ti  Ti154  1  0.02040963  0.39629335  0.59806506  1
  Ti  Ti155  1  0.39103943  0.00672775  0.40483584  1
  Ti  Ti156  1  0.49609534  0.70159540  0.31311462  1
  Ti  Ti157  1  0.49220623  0.89824431  0.50866836  1
  Ti  Ti158  1  0.59776814  0.19798921  0.00085031  1
  Ti  Ti159  1  0.90303178  0.29750988  0.29949849  1
  Ti  Ti160  1  0.59526607  0.78762291  0.60837829  1
  Ti  Ti161  1  0.20714095  0.59971065  0.79176818  1
  Ti  Ti162  1  0.90572614  0.69977715  0.31016067  1
  Ti  Ti163  1  0.30072599  0.50208403  0.31489563  1
  Ti  Ti164  1  0.79902472  0.78928436  0.60762402  1
  Ti  Ti165  1  0.91455461  0.89446339  0.68911647  1
  Ti  Ti166  1  0.09996577  0.31548880  0.11211053  1
  Ti  Ti167  1  0.60529615  0.39999119  0.20448194  1
  Ti  Ti168  1  0.18812573  0.20239104  0.59024966  1
  Ti  Ti169  1  0.19127647  0.19516022  0.79295463  1
  Ti  Ti170  1  0.39872944  -0.00203217  0.00036863  1
  Ti  Ti171  1  0.30241993  0.50085674  0.70078970  1
  Ti  Ti172  1  0.80247810  0.59702972  0.60516628  1
  Ti  Ti173  1  0.49851224  0.50130801  0.49976124  1
  Ti  Ti174  1  0.70192186  0.10616048  0.09764430  1
  Ti  Ti175  1  0.09348761  0.90091547  0.69459812  1
  Ti  Ti176  1  0.09967206  0.90039988  0.09137761  1
  Ti  Ti177  1  0.19655695  0.59180196  -0.00050698  1
  Ti  Ti178  1  0.49531249  0.09439698  0.70562258  1
  Ti  Ti179  1  0.89149877  0.10707908  0.90115123  1
  Ti  Ti180  1  0.70047778  0.28320025  0.89397152  1
  Ti  Ti181  1  0.00591576  0.19975893  0.41297447  1
  Ti  Ti182  1  0.50056640  0.90171452  0.89690857  1
  Ti  Ti183  1  0.19965338  0.80606443  0.78922769  1
  Ti  Ti184  1  0.80624283  0.20353599  0.40661542  1
  Ti  Ti185  1  0.69936218  0.49984306  0.10428393  1
  Ti  Ti186  1  0.10207220  0.70051893  0.08709605  1
  Ti  Ti187  1  0.39877996  0.18558082  0.20926526  1
  Ti  Ti188  1  0.60412992  -0.00606924  0.39788341  1
  Ti  Ti189  1  0.79742790  0.79546522  0.40261447  1
  Ti  Ti190  1  0.91213290  0.10113575  0.51090173  1
  Ti  Ti191  1  0.80376372  -0.00744868  -0.00699541  1
  Ti  Ti192  1  0.61114000  0.39453440  0.59889487  1
  Ti  Ti193  1  0.60029664  0.20266117  0.59947478  1
  Ti  Ti194  1  0.80603670  0.79974197  -0.00372560  1
  Ti  Ti195  1  0.49826243  0.49710100  0.31233566  1
  Ti  Ti196  1  0.10012774  0.08868383  0.09513369  1
  Ti  Ti197  1  0.19785440  0.19790505  0.40573187  1
  Ti  Ti198  1  0.29825799  0.50362543  0.09988836  1
  Ti  Ti199  1  0.80587953  -0.00028237  0.60474368  1
  Mo  Mo200  1  0.69910213  0.30370193  0.50663638  1
  Mo  Mo201  1  0.50159898  0.69351801  0.89543167  1
  Mo  Mo202  1  -0.00352994  0.79446270  0.60323873  1
  Mo  Mo203  1  0.90317792  0.49811769  0.51111917  1
  Mo  Mo204  1  0.10183442  0.29755587  0.50087051  1
  Mo  Mo205  1  0.89710751  0.89685244  0.91096947  1
  Mo  Mo206  1  0.80502073  0.19836415  0.79702319  1
  Mo  Mo207  1  0.30105296  0.90650704  0.09434649  1
  Mo  Mo208  1  0.09652129  0.50209579  0.09868785  1
  Mo  Mo209  1  0.29776733  0.10277920  0.29938268  1
  Mo  Mo210  1  0.80149272  0.20390826  0.19945827  1
  Mo  Mo211  1  0.29258478  0.10150139  0.50495599  1
  Mo  Mo212  1  -0.00050021  0.40881974  0.79144489  1
  Mo  Mo213  1  0.10619589  0.29953858  0.69060159  1
  Mo  Mo214  1  0.09830106  0.09520856  0.90028213  1
  Mo  Mo215  1  0.00302772  0.39997847  0.41043138  1
  Mo  Mo216  1  0.70135922  0.69749506  0.69732199  1
  Mo  Mo217  1  0.79592523  0.20182232  0.00009334  1
  Mo  Mo218  1  -0.00492021  0.39568374  0.19306709  1
  Mo  Mo219  1  0.19973615  0.59615411  0.40992101  1
  Mo  Mo220  1  -0.00936493  0.79205655  0.40231262  1
  Mo  Mo221  1  0.19095769  -0.00221315  0.77749083  1
  Mo  Mo222  1  0.59954341  0.60879680  0.79422667  1
  Mo  Mo223  1  0.50335663  0.70123390  0.70212438  1
  Mo  Mo224  1  0.59518435  0.80538058  -0.00781429  1
  Mo  Mo225  1  0.79331909  0.40035643  0.60268150  1
  Mo  Mo226  1  0.39767440  0.00107202  0.60102972  1
  Mo  Mo227  1  0.39718830  0.40988800  0.40249443  1
  Mo  Mo228  1  -0.00507503  0.00024030  0.59778877  1
  Mo  Mo229  1  -0.00280963  0.79944693  0.79903106  1
  Mo  Mo230  1  0.60463923  0.60949399  0.60275529  1
  Mo  Mo231  1  0.40275447  0.79903966  0.59777611  1
  Mo  Mo232  1  0.10086696  0.49518612  0.29864002  1
  Mo  Mo233  1  0.20134657  0.40630505  0.59998056  1
  Mo  Mo234  1  0.19628618  -0.00425118  0.01394220  1
  Mo  Mo235  1  0.40933104  0.00386967  0.80035751  1
  Mo  Mo236  1  0.40001574  0.40728814  0.79565590  1
  Mo  Mo237  1  0.40485539  0.60156967  0.40590357  1
  Mo  Mo238  1  0.70494093  0.50337072  0.69199048  1
  Mo  Mo239  1  0.00459460  0.19771003  0.59682087  1
  Mo  Mo240  1  0.31610397  0.90669638  0.50472155  1
  Mo  Mo241  1  0.69461201  0.89783501  0.31292257  1
  Mo  Mo242  1  0.49781741  0.09129208  0.29275706  1
  Mo  Mo243  1  0.70265210  0.70273209  0.08919484  1
  Mo  Mo244  1  0.30495655  0.50969782  0.89420500  1
  Mo  Mo245  1  0.40262273  0.00512244  0.19635823  1
  Mo  Mo246  1  0.09590269  0.10440789  0.50008980  1
  Mo  Mo247  1  0.19115351  0.80394982  0.00645186  1
  Mo  Mo248  1  0.59805818  0.19682668  0.80446015  1
  Mo  Mo249  1  0.19628071  0.40937525  0.20753762  1
