# generated using pymatgen
data_HfZrTaTiMo
_symmetry_space_group_name_H-M   'P 1'
_cell_length_a   16.87776137
_cell_length_b   16.88439530
_cell_length_c   16.88719667
_cell_angle_alpha   89.93041625
_cell_angle_beta   89.95720011
_cell_angle_gamma   90.00816168
_symmetry_Int_Tables_number   1
_chemical_formula_structural   HfZrTaTiMo
_chemical_formula_sum   'Hf50 Zr50 Ta50 Ti50 Mo50'
_cell_volume   4812.35291211
_cell_formula_units_Z   50
loop_
 _symmetry_equiv_pos_site_id
 _symmetry_equiv_pos_as_xyz
  1  'x, y, z'
loop_
 _atom_site_type_symbol
 _atom_site_label
 _atom_site_symmetry_multiplicity
 _atom_site_fract_x
 _atom_site_fract_y
 _atom_site_fract_z
 _atom_site_occupancy
  Hf  Hf0  1  0.59024240  0.80222444  0.19590055  1
  Hf  Hf1  1  0.40580205  0.79495912  0.80358629  1
  Hf  Hf2  1  0.00743998  0.20467920  0.19240080  1
  Hf  Hf3  1  0.90398565  0.31036413  0.48939735  1
  Hf  Hf4  1  0.49946677  0.09904784  0.30204826  1
  Hf  Hf5  1  0.50212356  0.09685506  0.50570514  1
  Hf  Hf6  1  0.19794672  0.19956503  0.40317685  1
  Hf  Hf7  1  0.70537723  0.09582548  0.10543923  1
  Hf  Hf8  1  0.79514448  0.79420304  0.59854847  1
  Hf  Hf9  1  0.59932239  0.20994421  0.19671877  1
  Hf  Hf10  1  0.09038432  0.48924762  0.09740567  1
  Hf  Hf11  1  0.29590011  0.10491802  0.70304430  1
  Hf  Hf12  1  0.29516080  0.49341847  0.70908900  1
  Hf  Hf13  1  0.30331001  0.30375155  0.28861970  1
  Hf  Hf14  1  0.89278649  0.69073120  0.10220763  1
  Hf  Hf15  1  0.90619316  0.89402027  0.69783916  1
  Hf  Hf16  1  0.18908763  0.19920045  0.59676674  1
  Hf  Hf17  1  0.69878206  0.68860927  0.49496447  1
  Hf  Hf18  1  0.59680568  0.80289796  0.39765575  1
  Hf  Hf19  1  0.00436033  0.79776474  0.19164883  1
  Hf  Hf20  1  0.80603105  0.78436933  0.39763890  1
  Hf  Hf21  1  0.50103624  0.30116341  0.90243751  1
  Hf  Hf22  1  0.29868145  0.89436639  0.91402115  1
  Hf  Hf23  1  0.79437713  0.20698749  0.39996594  1
  Hf  Hf24  1  0.60059930  0.58931093  0.39293951  1
  Hf  Hf25  1  0.40584349  0.00206484  0.80536111  1
  Hf  Hf26  1  0.60579113  0.21187336  0.39581960  1
  Hf  Hf27  1  0.50049811  0.50347294  0.70554462  1
  Hf  Hf28  1  0.90604731  0.89521555  0.29715386  1
  Hf  Hf29  1  0.18492343  0.79563136  0.60571556  1
  Hf  Hf30  1  0.40396922  -0.01281402  0.19483814  1
  Hf  Hf31  1  0.20145394  -0.00317847  0.19751796  1
  Hf  Hf32  1  0.01463835  0.00320969  0.78910192  1
  Hf  Hf33  1  0.10584920  0.49752388  0.90586502  1
  Hf  Hf34  1  0.19860713  0.59501867  0.39735394  1
  Hf  Hf35  1  0.70448402  0.29502494  0.90097584  1
  Hf  Hf36  1  0.69544490  0.50812909  0.69165828  1
  Hf  Hf37  1  0.20003081  0.59327038  0.19576546  1
  Hf  Hf38  1  0.50609949  0.89050407  0.90932614  1
  Hf  Hf39  1  0.60209058  0.00098208  0.00010432  1
  Hf  Hf40  1  0.29414332  0.90394798  0.70621314  1
  Hf  Hf41  1  0.90259960  0.70533143  0.70305624  1
  Hf  Hf42  1  0.39943156  0.59820531  0.59917968  1
  Hf  Hf43  1  0.59996592  0.79584314  0.59820680  1
  Hf  Hf44  1  0.08829415  0.49418502  0.49350574  1
  Hf  Hf45  1  0.19645059  0.19988643  0.01453811  1
  Hf  Hf46  1  0.89696394  0.29628455  0.90189948  1
  Hf  Hf47  1  0.00633222  -0.00327604  0.40135435  1
  Hf  Hf48  1  0.69454487  0.10677281  0.70234808  1
  Hf  Hf49  1  0.49656856  0.50902869  0.90398890  1
  Zr  Zr50  1  0.50172887  0.49440053  0.28733837  1
  Zr  Zr51  1  0.10082308  0.30006282  0.89593781  1
  Zr  Zr52  1  0.30112938  0.70859492  0.29381192  1
  Zr  Zr53  1  0.30202476  0.71438149  0.10034652  1
  Zr  Zr54  1  0.18842694  0.00067147  0.60073450  1
  Zr  Zr55  1  0.10425737  0.49055247  0.69626885  1
  Zr  Zr56  1  0.29416238  0.29977791  0.70170981  1
  Zr  Zr57  1  0.90407271  0.49793238  0.91439466  1
  Zr  Zr58  1  0.29562203  0.30238984  0.89411164  1
  Zr  Zr59  1  0.29388682  0.09823084  0.89731744  1
  Zr  Zr60  1  0.00217355  0.79948166  0.00385074  1
  Zr  Zr61  1  0.90259761  0.09872226  0.29723338  1
  Zr  Zr62  1  0.59289915  -0.00466234  0.19812944  1
  Zr  Zr63  1  0.00285041  0.61800727  0.59026015  1
  Zr  Zr64  1  0.29896644  0.09877780  0.29876815  1
  Zr  Zr65  1  0.89831308  0.10956492  0.70433899  1
  Zr  Zr66  1  0.30572564  0.69778627  0.70388546  1
  Zr  Zr67  1  0.70436996  0.90702860  0.29638742  1
  Zr  Zr68  1  0.30416429  0.69429827  0.90847857  1
  Zr  Zr69  1  0.80218961  0.00183680  0.59558605  1
  Zr  Zr70  1  0.09462800  0.30893374  0.29764528  1
  Zr  Zr71  1  0.90114247  0.89414063  0.89839557  1
  Zr  Zr72  1  -0.00209914  0.39792732  0.79598266  1
  Zr  Zr73  1  0.40325840  0.20439463  0.00570745  1
  Zr  Zr74  1  0.61191471  0.79461452  0.79532454  1
  Zr  Zr75  1  0.80074974  0.20928089  0.20186135  1
  Zr  Zr76  1  0.10855558  0.91086549  0.90293127  1
  Zr  Zr77  1  0.79700802  0.79054485  0.19917048  1
  Zr  Zr78  1  0.79129811  -0.00570715  0.80714994  1
  Zr  Zr79  1  0.69857468  0.50676886  0.11068844  1
  Zr  Zr80  1  0.09920559  0.70692698  0.30058726  1
  Zr  Zr81  1  -0.00086959  0.59406758  0.20874179  1
  Zr  Zr82  1  0.19291146  0.60851301  0.59549350  1
  Zr  Zr83  1  0.79194551  0.60516994  0.80145802  1
  Zr  Zr84  1  0.90160744  0.50370224  0.68954118  1
  Zr  Zr85  1  0.60208033  0.20762546  0.59316125  1
  Zr  Zr86  1  0.40000515  0.40177735  0.40089000  1
  Zr  Zr87  1  0.50633766  0.90755790  0.69572903  1
  Zr  Zr88  1  0.40083880  0.20305395  0.40259553  1
  Zr  Zr89  1  0.90198519  0.10448584  0.89850026  1
  Zr  Zr90  1  0.38872685  0.58887329  0.39840119  1
  Zr  Zr91  1  0.80243875  0.00065234  0.40379685  1
  Zr  Zr92  1  0.19760025  0.80594701  0.40763844  1
  Zr  Zr93  1  0.89797959  0.09069515  0.10198599  1
  Zr  Zr94  1  0.79682887  0.40715240  0.79959127  1
  Zr  Zr95  1  0.60287006  0.40306268  0.80231286  1
  Zr  Zr96  1  0.00815256  0.19950591  0.00953870  1
  Zr  Zr97  1  0.49260711  0.69856960  0.29425577  1
  Zr  Zr98  1  0.20456336  0.40748704  0.39356802  1
  Zr  Zr99  1  0.19070816  0.60913154  0.80625906  1
  Ta  Ta100  1  0.10033217  0.09752123  0.29793148  1
  Ta  Ta101  1  0.70311052  0.29535410  0.70197424  1
  Ta  Ta102  1  0.39949060  0.00171875  0.59878466  1
  Ta  Ta103  1  0.40361380  -0.00357030  0.00774836  1
  Ta  Ta104  1  0.70189069  0.49861457  0.49834344  1
  Ta  Ta105  1  0.40693653  0.39541992  0.60553825  1
  Ta  Ta106  1  0.89740541  0.70038127  0.90079942  1
  Ta  Ta107  1  0.30012223  0.30117901  0.51250499  1
  Ta  Ta108  1  0.79547618  0.39618955  0.59328424  1
  Ta  Ta109  1  0.30155929  0.89346604  0.29632991  1
  Ta  Ta110  1  0.29356573  0.48796036  0.52003960  1
  Ta  Ta111  1  0.50107354  0.29445642  0.70282119  1
  Ta  Ta112  1  0.39714290  0.59418019  0.19056524  1
  Ta  Ta113  1  0.79877723  0.20680478  0.59025369  1
  Ta  Ta114  1  0.90244310  0.31660585  0.29762118  1
  Ta  Ta115  1  0.00339919  0.00133073  0.59862109  1
  Ta  Ta116  1  0.40408910  0.80083682  0.59719673  1
  Ta  Ta117  1  0.50760802  0.10578946  0.90001201  1
  Ta  Ta118  1  0.60228722  0.00355103  0.80506058  1
  Ta  Ta119  1  0.49603632  0.69583793  0.49946422  1
  Ta  Ta120  1  0.18943639  0.79933633  0.80199720  1
  Ta  Ta121  1  0.60443660  0.39663585  0.40309233  1
  Ta  Ta122  1  0.00474179  0.60693924  0.00209058  1
  Ta  Ta123  1  0.40401040  0.80725808  0.40383615  1
  Ta  Ta124  1  0.30486989  0.09901239  0.10337904  1
  Ta  Ta125  1  0.89575311  0.49304077  0.10356345  1
  Ta  Ta126  1  0.60285267  0.20388826  0.00656377  1
  Ta  Ta127  1  0.59893448  0.39936555  0.00569311  1
  Ta  Ta128  1  0.70827253  0.31116431  0.09595961  1
  Ta  Ta129  1  0.89416162  0.50296685  0.49209857  1
  Ta  Ta130  1  0.49973180  0.50074947  0.09564988  1
  Ta  Ta131  1  0.40158279  0.40075523  0.80161186  1
  Ta  Ta132  1  0.50334732  0.49658725  0.50553382  1
  Ta  Ta133  1  0.79861947  0.60022114  0.00228661  1
  Ta  Ta134  1  0.40566712  0.20483085  0.19248793  1
  Ta  Ta135  1  0.30384720  0.70610054  0.49924236  1
  Ta  Ta136  1  0.90841100  0.88883157  0.50148700  1
  Ta  Ta137  1  0.79853906  -0.00706680  -0.00015644  1
  Ta  Ta138  1  0.30271925  0.90057509  0.50472709  1
  Ta  Ta139  1  0.30121000  0.49806732  0.90573201  1
  Ta  Ta140  1  0.69425051  0.09740808  0.49927326  1
  Ta  Ta141  1  0.70069533  0.89392390  0.09381481  1
  Ta  Ta142  1  0.89579260  0.29443791  0.69843489  1
  Ta  Ta143  1  0.00850449  -0.00755683  0.19160128  1
  Ta  Ta144  1  0.00104538  0.20049842  0.59686336  1
  Ta  Ta145  1  0.60261588  0.39632358  0.59560751  1
  Ta  Ta146  1  0.50445251  0.68925482  0.70599547  1
  Ta  Ta147  1  0.20308931  0.39697957  0.00709551  1
  Ta  Ta148  1  0.39887211  -0.00825595  0.40271262  1
  Ta  Ta149  1  0.69549085  0.69721736  0.91156039  1
  Ti  Ti150  1  0.19965728  0.40603424  0.19771589  1
  Ti  Ti151  1  0.69639587  0.90546998  0.50153174  1
  Ti  Ti152  1  0.20167129  -0.00157931  0.40325002  1
  Ti  Ti153  1  -0.00283735  0.39244961  0.59945650  1
  Ti  Ti154  1  0.90006645  0.31774402  0.09679674  1
  Ti  Ti155  1  0.00399069  0.60727270  0.80607473  1
  Ti  Ti156  1  0.40706369  0.19972477  0.79813767  1
  Ti  Ti157  1  0.10365648  0.89788988  0.29967039  1
  Ti  Ti158  1  0.30489060  0.49485340  0.09271668  1
  Ti  Ti159  1  0.49597745  0.30692081  0.29116526  1
  Ti  Ti160  1  0.09677604  0.30840524  0.49639925  1
  Ti  Ti161  1  0.00164084  0.20186085  0.39790005  1
  Ti  Ti162  1  0.18713464  0.78501279  -0.00054323  1
  Ti  Ti163  1  0.69041043  0.69376828  0.09724453  1
  Ti  Ti164  1  0.50025926  0.10292694  0.09713574  1
  Ti  Ti165  1  0.39990027  0.60112643  0.00582321  1
  Ti  Ti166  1  0.11405713  0.89445916  0.09870373  1
  Ti  Ti167  1  0.59635958  -0.00420349  0.39936146  1
  Ti  Ti168  1  0.59771492  0.60227539  0.59815321  1
  Ti  Ti169  1  0.79547804  0.41260675  0.39260191  1
  Ti  Ti170  1  0.80453430  0.59004954  0.22061926  1
  Ti  Ti171  1  0.69994538  0.11051855  0.89808696  1
  Ti  Ti172  1  0.50406114  0.10448864  0.69880991  1
  Ti  Ti173  1  0.69623502  0.90800541  0.69318149  1
  Ti  Ti174  1  0.69288045  0.50839381  0.91264858  1
  Ti  Ti175  1  0.50837968  0.69394159  0.90740589  1
  Ti  Ti176  1  0.79072196  0.79570472  0.79841405  1
  Ti  Ti177  1  0.10650475  0.10625399  0.88830865  1
  Ti  Ti178  1  0.00581002  -0.00098062  0.00891501  1
  Ti  Ti179  1  0.90297208  0.10433194  0.49898166  1
  Ti  Ti180  1  0.19738048  0.20051334  0.19284497  1
  Ti  Ti181  1  0.60075655  0.39919109  0.19677991  1
  Ti  Ti182  1  0.69776703  0.88961499  0.90789015  1
  Ti  Ti183  1  0.01317687  0.79610071  0.80094715  1
  Ti  Ti184  1  0.30560787  0.09999683  0.50468136  1
  Ti  Ti185  1  0.30713711  0.30873937  0.10286992  1
  Ti  Ti186  1  0.49447009  0.30179627  0.50557765  1
  Ti  Ti187  1  0.09357450  0.10066740  0.49524148  1
  Ti  Ti188  1  -0.01408296  0.60778920  0.39573613  1
  Ti  Ti189  1  0.70648262  0.31851696  0.29317390  1
  Ti  Ti190  1  0.79942000  0.79766304  0.00233459  1
  Ti  Ti191  1  0.09906237  0.29433595  0.70578610  1
  Ti  Ti192  1  0.08995388  0.89243787  0.50284165  1
  Ti  Ti193  1  0.70190079  0.09431273  0.29777516  1
  Ti  Ti194  1  0.50075278  0.70010295  0.09354597  1
  Ti  Ti195  1  0.20219233  0.00718185  0.01039786  1
  Ti  Ti196  1  0.50042407  0.90462519  0.50277729  1
  Ti  Ti197  1  0.80344358  0.60416563  0.59297689  1
  Ti  Ti198  1  0.79955845  0.19937357  0.00609116  1
  Ti  Ti199  1  0.69504879  0.68526399  0.29192624  1
  Mo  Mo200  1  0.49830983  0.89002355  0.09385886  1
  Mo  Mo201  1  0.79438675  0.40665350  0.00407845  1
  Mo  Mo202  1  0.59873693  0.19728626  0.80302703  1
  Mo  Mo203  1  0.80741933  -0.01234304  0.18996304  1
  Mo  Mo204  1  0.39807929  0.40546716  0.00098299  1
  Mo  Mo205  1  0.60583630  0.79376750  0.00491498  1
  Mo  Mo206  1  -0.00210104  0.39809982  0.00592598  1
  Mo  Mo207  1  0.40098601  0.39963904  0.18759828  1
  Mo  Mo208  1  0.49365088  0.89924229  0.30754141  1
  Mo  Mo209  1  0.19921862  0.59384108  0.00571093  1
  Mo  Mo210  1  0.10794532  0.30827616  0.10421184  1
  Mo  Mo211  1  0.40426611  0.59839127  0.80678563  1
  Mo  Mo212  1  0.59938481  0.00137949  0.60039281  1
  Mo  Mo213  1  0.19866111  0.80940905  0.19462555  1
  Mo  Mo214  1  0.00055898  0.80347339  0.59700905  1
  Mo  Mo215  1  0.09311322  0.70305059  0.48876877  1
  Mo  Mo216  1  0.09213414  0.70522945  0.70906521  1
  Mo  Mo217  1  0.20385370  0.39808650  0.80558022  1
  Mo  Mo218  1  0.00008514  0.79686449  0.40323830  1
  Mo  Mo219  1  0.09447265  0.49930997  0.29758431  1
  Mo  Mo220  1  0.80036719  0.59441955  0.39465438  1
  Mo  Mo221  1  0.90005146  0.69500744  0.30151494  1
  Mo  Mo222  1  0.89432539  0.90043766  0.09819158  1
  Mo  Mo223  1  0.50679178  0.30888916  0.09962435  1
  Mo  Mo224  1  0.10554582  0.69353602  0.09556865  1
  Mo  Mo225  1  0.29975230  0.89893653  0.09405663  1
  Mo  Mo226  1  0.60115520  0.60466144  0.80687342  1
  Mo  Mo227  1  0.41192625  0.79797393  0.00422070  1
  Mo  Mo228  1  0.70575301  0.30842157  0.49594707  1
  Mo  Mo229  1  0.09538213  0.69725509  0.90378517  1
  Mo  Mo230  1  0.69922773  0.69301305  0.69567153  1
  Mo  Mo231  1  0.89838710  0.69788921  0.49647267  1
  Mo  Mo232  1  0.79775160  0.20373900  0.79796688  1
  Mo  Mo233  1  0.20039396  -0.00134271  0.80056155  1
  Mo  Mo234  1  0.18886117  0.19547331  0.79433327  1
  Mo  Mo235  1  -0.00524517  0.40076974  0.20158120  1
  Mo  Mo236  1  0.89732054  0.49803618  0.30481061  1
  Mo  Mo237  1  0.59410476  0.60368810  0.19555891  1
  Mo  Mo238  1  0.09790164  0.89971399  0.70047704  1
  Mo  Mo239  1  0.19057537  0.38982952  0.59782232  1
  Mo  Mo240  1  0.00156625  0.19999875  0.79118969  1
  Mo  Mo241  1  0.69914578  0.49440822  0.30039064  1
  Mo  Mo242  1  0.09771654  0.10643429  0.69702577  1
  Mo  Mo243  1  0.40225110  0.19989837  0.60243431  1
  Mo  Mo244  1  0.60048186  0.60098724  0.00474279  1
  Mo  Mo245  1  0.40164880  0.80365368  0.19599651  1
  Mo  Mo246  1  -0.00350384  0.41147824  0.39591617  1
  Mo  Mo247  1  0.80107527  0.40409018  0.20333620  1
  Mo  Mo248  1  0.30022292  0.49595232  0.27671854  1
  Mo  Mo249  1  0.10606865  0.09225118  0.10674974  1
