# generated using pymatgen
data_HfZrTaTiMo
_symmetry_space_group_name_H-M   'P 1'
_cell_length_a   16.87224723
_cell_length_b   16.88328633
_cell_length_c   16.87847133
_cell_angle_alpha   90.02537219
_cell_angle_beta   89.99641671
_cell_angle_gamma   89.96415703
_symmetry_Int_Tables_number   1
_chemical_formula_structural   HfZrTaTiMo
_chemical_formula_sum   'Hf50 Zr50 Ta50 Ti50 Mo50'
_cell_volume   4807.98272433
_cell_formula_units_Z   50
loop_
 _symmetry_equiv_pos_site_id
 _symmetry_equiv_pos_as_xyz
  1  'x, y, z'
loop_
 _atom_site_type_symbol
 _atom_site_label
 _atom_site_symmetry_multiplicity
 _atom_site_fract_x
 _atom_site_fract_y
 _atom_site_fract_z
 _atom_site_occupancy
  Hf  Hf0  1  0.10081703  0.29330048  0.49738614  1
  Hf  Hf1  1  -0.00399714  0.00000091  0.39885555  1
  Hf  Hf2  1  0.39870503  0.20064165  0.39412913  1
  Hf  Hf3  1  0.68717111  0.29803284  0.88737834  1
  Hf  Hf4  1  0.40056725  0.00219843  0.20240724  1
  Hf  Hf5  1  0.29348458  0.29517616  0.89499600  1
  Hf  Hf6  1  0.49632039  0.70179965  0.09827007  1
  Hf  Hf7  1  0.80391994  0.79506885  0.39530617  1
  Hf  Hf8  1  0.80457707  0.39883996  0.00216702  1
  Hf  Hf9  1  0.51130400  0.29054073  0.72260436  1
  Hf  Hf10  1  0.40608635  0.39039435  0.58956794  1
  Hf  Hf11  1  0.10228628  0.51019940  0.30230914  1
  Hf  Hf12  1  0.40029241  0.20882889  0.00293824  1
  Hf  Hf13  1  0.00215344  0.20708396  0.00763014  1
  Hf  Hf14  1  0.29933944  0.29590683  0.70472427  1
  Hf  Hf15  1  0.50274885  0.90132964  0.89820193  1
  Hf  Hf16  1  0.70665299  0.69065587  0.70279209  1
  Hf  Hf17  1  0.39940615  0.00485501  0.40779912  1
  Hf  Hf18  1  0.40942196  0.40058141  0.81915750  1
  Hf  Hf19  1  0.00100234  0.00708930  0.60067970  1
  Hf  Hf20  1  0.69857031  0.29776721  0.09740672  1
  Hf  Hf21  1  0.49945529  0.49988508  0.69888771  1
  Hf  Hf22  1  0.70654405  0.09995625  0.29627386  1
  Hf  Hf23  1  0.11577110  0.09352483  0.30198703  1
  Hf  Hf24  1  0.90484931  0.50539812  0.09505266  1
  Hf  Hf25  1  -0.00446779  0.60123697  0.59454710  1
  Hf  Hf26  1  0.69650051  0.51076879  0.31520463  1
  Hf  Hf27  1  0.80350205  0.19331899  0.60190958  1
  Hf  Hf28  1  0.10705965  0.89987083  0.10699504  1
  Hf  Hf29  1  0.20274065  0.39797128  0.19442618  1
  Hf  Hf30  1  0.59534228  0.20527322  0.20813154  1
  Hf  Hf31  1  0.19046785  0.61272899  0.00169894  1
  Hf  Hf32  1  0.29629917  0.69600143  0.69920594  1
  Hf  Hf33  1  0.90340256  0.50678908  0.30338409  1
  Hf  Hf34  1  0.50597220  0.70027655  0.49296210  1
  Hf  Hf35  1  0.39972139  0.60202909  0.80485718  1
  Hf  Hf36  1  0.59176192  -0.00011874  0.40955779  1
  Hf  Hf37  1  0.29885002  0.49728759  0.70153012  1
  Hf  Hf38  1  0.80304161  0.59566811  0.58726691  1
  Hf  Hf39  1  0.70241892  0.10004253  0.09712516  1
  Hf  Hf40  1  0.80291530  0.19573032  0.39926158  1
  Hf  Hf41  1  0.59698535  0.19039619  0.59864617  1
  Hf  Hf42  1  0.90313215  0.69501915  0.89450982  1
  Hf  Hf43  1  0.10097842  0.88991715  0.69685887  1
  Hf  Hf44  1  0.48983049  0.50997404  0.10315904  1
  Hf  Hf45  1  0.89303872  0.30224701  0.89380985  1
  Hf  Hf46  1  0.39311281  0.80351495  0.40514699  1
  Hf  Hf47  1  0.49438520  0.50488908  0.30235749  1
  Hf  Hf48  1  0.00090271  0.79432300  0.39555443  1
  Hf  Hf49  1  0.89972811  0.89618822  0.50181222  1
  Zr  Zr50  1  0.69979879  0.69763192  0.90415042  1
  Zr  Zr51  1  0.60902459  0.79903824  0.20078623  1
  Zr  Zr52  1  0.20107511  -0.01049525  0.80425794  1
  Zr  Zr53  1  0.19450840  0.39868632  0.00689556  1
  Zr  Zr54  1  0.30378454  0.10032369  0.70065414  1
  Zr  Zr55  1  0.30327316  0.50743395  0.29406233  1
  Zr  Zr56  1  0.19851048  0.79034095  0.59202049  1
  Zr  Zr57  1  0.79847432  0.60946867  0.20187194  1
  Zr  Zr58  1  0.89286275  0.09477271  0.90277967  1
  Zr  Zr59  1  0.00147473  0.39081318  0.19003462  1
  Zr  Zr60  1  0.80017590  0.40778343  0.40694993  1
  Zr  Zr61  1  0.40760667  0.19352093  0.59041333  1
  Zr  Zr62  1  0.88971592  0.50596536  0.72105112  1
  Zr  Zr63  1  0.39145022  0.38322842  0.19619580  1
  Zr  Zr64  1  0.60160477  0.39692629  0.20665271  1
  Zr  Zr65  1  0.60073520  -0.00333438  0.19463085  1
  Zr  Zr66  1  0.00281375  -0.00027393  0.80312882  1
  Zr  Zr67  1  0.58534849  0.39885970  -0.00323887  1
  Zr  Zr68  1  0.29899554  0.10343391  0.89247805  1
  Zr  Zr69  1  0.60180547  0.60886747  0.20458135  1
  Zr  Zr70  1  0.90967991  0.29611556  0.50099281  1
  Zr  Zr71  1  0.29571470  0.09482677  0.10159754  1
  Zr  Zr72  1  0.28973219  0.90840764  0.29487560  1
  Zr  Zr73  1  0.70617484  0.50239831  0.89635895  1
  Zr  Zr74  1  0.39899962  0.80293229  0.79802524  1
  Zr  Zr75  1  0.70171686  0.89905603  0.30705200  1
  Zr  Zr76  1  0.18864918  0.59836894  0.59577172  1
  Zr  Zr77  1  0.60101439  0.80370589  0.59848721  1
  Zr  Zr78  1  0.90570312  0.29768206  0.30367504  1
  Zr  Zr79  1  0.40382396  0.80770091  0.59754287  1
  Zr  Zr80  1  0.09859659  0.29139983  0.31111382  1
  Zr  Zr81  1  0.70000921  0.29840659  0.49823671  1
  Zr  Zr82  1  0.69728484  0.49351851  0.70781110  1
  Zr  Zr83  1  0.00273402  0.20076092  0.80049945  1
  Zr  Zr84  1  0.10658234  0.90079171  0.29895532  1
  Zr  Zr85  1  0.39746246  -0.00758304  -0.00337004  1
  Zr  Zr86  1  0.00699958  0.61872406  0.19760531  1
  Zr  Zr87  1  0.90114118  0.89416159  0.70538299  1
  Zr  Zr88  1  0.50196206  0.10779494  0.88667505  1
  Zr  Zr89  1  0.59114643  -0.00189443  0.60291971  1
  Zr  Zr90  1  0.30144751  0.50102900  0.49853230  1
  Zr  Zr91  1  0.59649147  0.80111861  0.79568652  1
  Zr  Zr92  1  0.10297327  0.30061324  0.70200199  1
  Zr  Zr93  1  0.79801688  0.00336634  0.59742731  1
  Zr  Zr94  1  0.01279682  0.78808415  0.00097426  1
  Zr  Zr95  1  0.59789964  0.39789624  0.59026848  1
  Zr  Zr96  1  -0.00003704  0.41223599  0.60187445  1
  Zr  Zr97  1  0.18882080  0.40796356  0.81136431  1
  Zr  Zr98  1  0.20715359  0.20619908  0.19753618  1
  Zr  Zr99  1  0.89234513  0.09904535  0.09910562  1
  Ta  Ta100  1  0.89262296  0.30368898  0.70406623  1
  Ta  Ta101  1  0.20506485  0.80289772  -0.00445310  1
  Ta  Ta102  1  0.20104666  0.79357752  0.40245297  1
  Ta  Ta103  1  0.40186824  0.38970864  0.39815646  1
  Ta  Ta104  1  0.39534209  0.80253076  -0.00092464  1
  Ta  Ta105  1  0.60610508  -0.00130989  -0.00368152  1
  Ta  Ta106  1  0.69695691  0.50824847  0.09390240  1
  Ta  Ta107  1  0.50002148  0.89261583  0.30573763  1
  Ta  Ta108  1  0.80386287  0.79855830  0.79811571  1
  Ta  Ta109  1  -0.00152226  0.18914066  0.60158541  1
  Ta  Ta110  1  0.29885052  0.50730493  0.90905047  1
  Ta  Ta111  1  0.29914713  0.90237555  0.69634024  1
  Ta  Ta112  1  -0.00080315  0.00045977  0.19587706  1
  Ta  Ta113  1  0.10206757  0.90131069  0.49946296  1
  Ta  Ta114  1  0.10485970  0.10334645  0.90383671  1
  Ta  Ta115  1  0.70399055  0.70092452  0.08971602  1
  Ta  Ta116  1  0.29997900  0.70175592  0.90304538  1
  Ta  Ta117  1  0.20200966  0.60654520  0.19267590  1
  Ta  Ta118  1  0.19585517  -0.00556218  -0.00346280  1
  Ta  Ta119  1  0.69771368  0.69337421  0.48519339  1
  Ta  Ta120  1  0.90492151  0.10014834  0.29529395  1
  Ta  Ta121  1  0.00727848  0.41585732  0.40921497  1
  Ta  Ta122  1  0.00586294  0.19381576  0.19309320  1
  Ta  Ta123  1  0.29917817  0.70459372  0.29376696  1
  Ta  Ta124  1  0.39632766  0.60864976  0.39884244  1
  Ta  Ta125  1  0.10275371  0.10172078  0.49498190  1
  Ta  Ta126  1  0.60148011  0.80687241  0.00292504  1
  Ta  Ta127  1  0.20467246  0.39880820  0.39940813  1
  Ta  Ta128  1  0.90106940  0.89416553  0.90324855  1
  Ta  Ta129  1  0.19778987  0.19541176  0.59955009  1
  Ta  Ta130  1  0.60291283  0.59521841  0.59202967  1
  Ta  Ta131  1  0.30126448  0.70745943  0.10439774  1
  Ta  Ta132  1  0.90286099  0.89719512  0.09595997  1
  Ta  Ta133  1  0.80833713  0.79840505  0.19925034  1
  Ta  Ta134  1  -0.00409151  0.80094600  0.20370161  1
  Ta  Ta135  1  -0.00406045  0.78632489  0.59751137  1
  Ta  Ta136  1  0.19055427  0.20447084  0.00386218  1
  Ta  Ta137  1  0.79556697  0.39946823  0.20032252  1
  Ta  Ta138  1  0.80921633  -0.01121404  0.20192959  1
  Ta  Ta139  1  0.59234824  0.60145008  0.80346468  1
  Ta  Ta140  1  0.50282031  0.10143501  0.09708596  1
  Ta  Ta141  1  0.09607876  0.50786500  0.09724685  1
  Ta  Ta142  1  0.70549908  0.89837632  0.70277272  1
  Ta  Ta143  1  -0.00077444  0.40468395  0.81173593  1
  Ta  Ta144  1  0.00696076  -0.00087077  0.00227398  1
  Ta  Ta145  1  0.80355187  0.78840229  0.59746194  1
  Ta  Ta146  1  0.80193815  0.40501538  0.59880298  1
  Ta  Ta147  1  0.70314075  0.30235833  0.70719311  1
  Ta  Ta148  1  0.59300395  0.20105389  0.39800647  1
  Ta  Ta149  1  0.49975537  0.69807069  0.91171237  1
  Ti  Ti150  1  0.80492992  0.21117989  0.20007180  1
  Ti  Ti151  1  0.49888754  0.09807538  0.29744882  1
  Ti  Ti152  1  0.89915766  0.70292301  0.09216626  1
  Ti  Ti153  1  0.79651726  -0.00801934  -0.00303633  1
  Ti  Ti154  1  0.49993418  0.70459322  0.30325996  1
  Ti  Ti155  1  0.50119084  0.51181409  0.91011560  1
  Ti  Ti156  1  0.70727059  0.89739241  0.09696622  1
  Ti  Ti157  1  0.70261540  0.89918586  0.89683062  1
  Ti  Ti158  1  0.28816897  0.10007414  0.49475926  1
  Ti  Ti159  1  0.29096573  0.29470049  0.49669316  1
  Ti  Ti160  1  0.89568404  0.09919535  0.70785558  1
  Ti  Ti161  1  0.29060815  0.90717395  0.50376237  1
  Ti  Ti162  1  0.40149638  0.60188752  0.59138211  1
  Ti  Ti163  1  0.09548546  0.89213990  0.89742711  1
  Ti  Ti164  1  0.50510052  0.50446145  0.48736449  1
  Ti  Ti165  1  0.20087814  0.79691943  0.80762046  1
  Ti  Ti166  1  0.60339921  0.00127719  0.79603983  1
  Ti  Ti167  1  0.79347154  -0.00303590  0.80522068  1
  Ti  Ti168  1  0.59449397  0.38973316  0.39621582  1
  Ti  Ti169  1  0.49937758  0.29493813  0.09943438  1
  Ti  Ti170  1  0.09181672  0.70334849  0.71367427  1
  Ti  Ti171  1  0.59822781  0.19518413  -0.00588779  1
  Ti  Ti172  1  0.19629766  0.00319882  0.59938114  1
  Ti  Ti173  1  0.40496792  -0.00592588  0.78874251  1
  Ti  Ti174  1  0.50028300  0.89984106  0.09908647  1
  Ti  Ti175  1  0.00252990  0.60223658  0.80441547  1
  Ti  Ti176  1  0.09779235  0.50414707  0.70581319  1
  Ti  Ti177  1  0.70129774  0.09737680  0.49419053  1
  Ti  Ti178  1  0.79676043  0.20211281  -0.00369550  1
  Ti  Ti179  1  0.90121901  0.69367466  0.30750254  1
  Ti  Ti180  1  0.20163244  0.60752967  0.39947056  1
  Ti  Ti181  1  0.08613694  0.51037204  0.90970832  1
  Ti  Ti182  1  0.38840028  0.60293169  0.00526047  1
  Ti  Ti183  1  0.39737067  0.20124411  0.20513583  1
  Ti  Ti184  1  0.19414877  0.60234840  0.80800146  1
  Ti  Ti185  1  0.19541559  0.40272180  0.59394671  1
  Ti  Ti186  1  0.09571438  0.69408736  0.48813267  1
  Ti  Ti187  1  0.39183904  0.40067383  0.00597508  1
  Ti  Ti188  1  0.79195423  0.19409614  0.80080897  1
  Ti  Ti189  1  0.10921320  0.10329784  0.70422263  1
  Ti  Ti190  1  0.00187471  0.39417064  -0.00084303  1
  Ti  Ti191  1  0.69689696  0.09921709  0.70994906  1
  Ti  Ti192  1  0.80780029  -0.00034018  0.39773018  1
  Ti  Ti193  1  0.80098925  0.80383950  -0.00075105  1
  Ti  Ti194  1  0.29502492  0.89641961  0.10337484  1
  Ti  Ti195  1  0.40063266  0.80395330  0.20070040  1
  Ti  Ti196  1  0.40931033  -0.00113980  0.59640350  1
  Ti  Ti197  1  0.70115157  0.89293451  0.49861865  1
  Ti  Ti198  1  0.80618240  0.59743496  -0.00337689  1
  Ti  Ti199  1  0.50136842  0.69262070  0.69543171  1
  Mo  Mo200  1  0.49963229  0.10140378  0.49696029  1
  Mo  Mo201  1  0.30133835  0.29552021  0.09513732  1
  Mo  Mo202  1  0.50275535  0.29836534  0.49011011  1
  Mo  Mo203  1  0.50017990  0.29949011  0.90483578  1
  Mo  Mo204  1  0.90929390  0.50177657  0.90516898  1
  Mo  Mo205  1  0.20830446  0.19817403  0.40479111  1
  Mo  Mo206  1  0.49808108  0.29791880  0.30085151  1
  Mo  Mo207  1  0.29789847  0.89477911  0.89761652  1
  Mo  Mo208  1  0.80148230  0.39390692  0.80110667  1
  Mo  Mo209  1  0.59377518  0.60366576  0.40009018  1
  Mo  Mo210  1  0.20010067  0.79553903  0.19805451  1
  Mo  Mo211  1  0.49831356  0.90912898  0.70172789  1
  Mo  Mo212  1  0.60787561  0.18709781  0.79610166  1
  Mo  Mo213  1  0.90215117  0.90039293  0.29292514  1
  Mo  Mo214  1  0.20218013  -0.00154389  0.41472966  1
  Mo  Mo215  1  0.39615799  0.61496419  0.20281218  1
  Mo  Mo216  1  0.80007657  0.60615373  0.80438733  1
  Mo  Mo217  1  0.19546974  0.19763803  0.79986895  1
  Mo  Mo218  1  0.89991277  0.69911688  0.49645388  1
  Mo  Mo219  1  0.70461113  0.70232988  0.30354922  1
  Mo  Mo220  1  0.29864597  0.29920943  0.30700460  1
  Mo  Mo221  1  0.11015770  0.70296082  0.30180779  1
  Mo  Mo222  1  0.10484709  0.70097259  0.88822757  1
  Mo  Mo223  1  0.09432939  0.29876382  0.90356648  1
  Mo  Mo224  1  0.69312746  0.50230775  0.49807754  1
  Mo  Mo225  1  0.90567376  0.09895366  0.49310367  1
  Mo  Mo226  1  0.00119811  0.18692579  0.40034673  1
  Mo  Mo227  1  0.59726809  0.41076698  0.80513746  1
  Mo  Mo228  1  0.00168052  0.60382810  0.40282070  1
  Mo  Mo229  1  0.59934627  0.80112143  0.39860004  1
  Mo  Mo230  1  0.90118300  0.50545299  0.49505855  1
  Mo  Mo231  1  0.30060920  0.10208320  0.30164890  1
  Mo  Mo232  1  0.49881033  0.09525444  0.70221268  1
  Mo  Mo233  1  0.09728328  0.30003342  0.10007922  1
  Mo  Mo234  1  0.00171287  0.60148045  0.00079732  1
  Mo  Mo235  1  0.59726404  0.60432895  0.00204102  1
  Mo  Mo236  1  0.90166073  0.69958940  0.70179448  1
  Mo  Mo237  1  0.49602557  0.89932373  0.49802725  1
  Mo  Mo238  1  0.40248041  0.20256705  0.80125706  1
  Mo  Mo239  1  0.80263713  0.60506815  0.40245604  1
  Mo  Mo240  1  0.20002636  0.00244793  0.18959232  1
  Mo  Mo241  1  0.70106605  0.30174557  0.29849012  1
  Mo  Mo242  1  0.30064602  0.69519604  0.49271333  1
  Mo  Mo243  1  0.10536941  0.50313024  0.49213698  1
  Mo  Mo244  1  0.89422784  0.29960297  0.10066836  1
  Mo  Mo245  1  0.29783201  0.51253938  0.09512586  1
  Mo  Mo246  1  0.10705156  0.70878040  0.10632655  1
  Mo  Mo247  1  0.70004519  0.09340297  0.90134290  1
  Mo  Mo248  1  0.00020767  0.79538765  0.79830393  1
  Mo  Mo249  1  0.09971074  0.09487184  0.09733136  1
