# generated using pymatgen
data_HfZrTaTiMo
_symmetry_space_group_name_H-M   'P 1'
_cell_length_a   16.89313570
_cell_length_b   16.88556781
_cell_length_c   16.88076375
_cell_angle_alpha   89.98133741
_cell_angle_beta   89.98067654
_cell_angle_gamma   89.98977241
_symmetry_Int_Tables_number   1
_chemical_formula_structural   HfZrTaTiMo
_chemical_formula_sum   'Hf50 Zr50 Ta50 Ti50 Mo50'
_cell_volume   4815.24043494
_cell_formula_units_Z   50
loop_
 _symmetry_equiv_pos_site_id
 _symmetry_equiv_pos_as_xyz
  1  'x, y, z'
loop_
 _atom_site_type_symbol
 _atom_site_label
 _atom_site_symmetry_multiplicity
 _atom_site_fract_x
 _atom_site_fract_y
 _atom_site_fract_z
 _atom_site_occupancy
  Hf  Hf0  1  0.79761183  0.60709239  0.20762260  1
  Hf  Hf1  1  0.30141630  0.90360468  0.90296826  1
  Hf  Hf2  1  0.49502708  0.27320734  0.27505480  1
  Hf  Hf3  1  0.49444954  0.90794174  0.30393041  1
  Hf  Hf4  1  0.39822757  0.59685043  0.40464804  1
  Hf  Hf5  1  0.90493299  0.70337540  0.10256600  1
  Hf  Hf6  1  0.31093882  0.90505360  0.08704532  1
  Hf  Hf7  1  0.60465295  0.40142037  0.60362038  1
  Hf  Hf8  1  0.49749571  0.90561422  0.70904157  1
  Hf  Hf9  1  0.29740254  0.09813350  0.48947872  1
  Hf  Hf10  1  0.48144581  0.90359061  0.91285885  1
  Hf  Hf11  1  0.60190102  0.79785091  0.60184141  1
  Hf  Hf12  1  0.29493797  0.49664069  0.30739172  1
  Hf  Hf13  1  0.00068592  0.20892035  0.40053239  1
  Hf  Hf14  1  0.70102577  0.09900373  0.90818617  1
  Hf  Hf15  1  0.49500204  0.49900090  0.51118994  1
  Hf  Hf16  1  0.10012814  0.50557684  0.10140778  1
  Hf  Hf17  1  0.59499636  0.18985193  0.39761022  1
  Hf  Hf18  1  0.10300866  0.90037995  0.49976843  1
  Hf  Hf19  1  -0.00306577  0.79681948  0.40023409  1
  Hf  Hf20  1  0.49450939  0.29166749  0.50759674  1
  Hf  Hf21  1  0.49593100  0.67652049  0.91125574  1
  Hf  Hf22  1  0.89115119  0.28997516  0.09330388  1
  Hf  Hf23  1  0.80153821  -0.01188940  0.80162645  1
  Hf  Hf24  1  0.20675257  0.39763214  0.20240613  1
  Hf  Hf25  1  0.70815195  0.50100428  0.50328877  1
  Hf  Hf26  1  0.49643240  0.11619812  0.11991968  1
  Hf  Hf27  1  0.89961498  0.10691132  0.29848703  1
  Hf  Hf28  1  0.80388587  0.39924040  0.20266442  1
  Hf  Hf29  1  0.10590327  0.09491429  0.48276779  1
  Hf  Hf30  1  0.49425562  0.29797564  0.89237164  1
  Hf  Hf31  1  0.70481514  0.50388343  0.09494925  1
  Hf  Hf32  1  0.11205837  0.29462673  0.30589339  1
  Hf  Hf33  1  0.79756944  0.80019268  -0.00293033  1
  Hf  Hf34  1  0.00461782  -0.00205820  0.00747708  1
  Hf  Hf35  1  0.19710804  0.80163205  0.39050334  1
  Hf  Hf36  1  0.80726219  -0.00612003  0.20462817  1
  Hf  Hf37  1  0.70838090  0.28843271  0.29634685  1
  Hf  Hf38  1  0.49917272  0.70410615  0.30642248  1
  Hf  Hf39  1  0.40271049  0.39456900  0.38880967  1
  Hf  Hf40  1  0.80340650  0.19752408  0.59944902  1
  Hf  Hf41  1  0.20375416  0.40900983  0.80149276  1
  Hf  Hf42  1  0.60051843  0.79857762  0.19717040  1
  Hf  Hf43  1  0.00153586  0.60239574  0.40830449  1
  Hf  Hf44  1  0.80943254  0.60067375  0.79617605  1
  Hf  Hf45  1  0.40455355  0.80356873  0.19141181  1
  Hf  Hf46  1  0.10512872  0.29241500  0.10072729  1
  Hf  Hf47  1  0.81084408  0.78984043  0.60828460  1
  Hf  Hf48  1  0.60158156  0.59852612  0.39824637  1
  Hf  Hf49  1  0.61076172  0.40825303  0.80551025  1
  Zr  Zr50  1  0.60394565  0.79546911  0.40997781  1
  Zr  Zr51  1  0.48711596  0.90968012  0.50306384  1
  Zr  Zr52  1  0.29754558  0.29177867  0.89982116  1
  Zr  Zr53  1  0.59077195  0.00052916  0.01231785  1
  Zr  Zr54  1  0.49731051  0.30141451  0.69841651  1
  Zr  Zr55  1  0.59886133  0.20889131  0.00536945  1
  Zr  Zr56  1  0.19841732  0.60026235  0.20644760  1
  Zr  Zr57  1  0.59077152  0.40036674  0.19192824  1
  Zr  Zr58  1  0.59197948  0.79684018  0.00915871  1
  Zr  Zr59  1  0.09724682  0.49898442  0.69631964  1
  Zr  Zr60  1  0.60058300  0.79818253  0.81020949  1
  Zr  Zr61  1  0.70234243  0.89917541  0.30389414  1
  Zr  Zr62  1  0.20214849  0.60054968  0.80159639  1
  Zr  Zr63  1  0.09693612  0.70288621  0.29243263  1
  Zr  Zr64  1  -0.00275250  0.39466431  0.20786167  1
  Zr  Zr65  1  0.60192112  0.00678019  0.40290918  1
  Zr  Zr66  1  -0.00195746  0.00189791  0.59787950  1
  Zr  Zr67  1  0.50744708  0.10733319  0.69631094  1
  Zr  Zr68  1  0.10462368  0.09588684  0.89316251  1
  Zr  Zr69  1  0.90547343  0.10178301  0.70213947  1
  Zr  Zr70  1  0.79907024  -0.00271247  0.60403592  1
  Zr  Zr71  1  0.10040171  0.10162359  0.70336794  1
  Zr  Zr72  1  0.50416951  0.68682986  0.70991507  1
  Zr  Zr73  1  0.90004647  0.31630589  0.69963901  1
  Zr  Zr74  1  0.59227650  0.39910717  0.38927736  1
  Zr  Zr75  1  0.29887392  0.70275755  0.49840598  1
  Zr  Zr76  1  0.60684181  0.00483167  0.59613535  1
  Zr  Zr77  1  -0.00029526  0.59632988  -0.01166691  1
  Zr  Zr78  1  0.89775872  0.30749606  0.49543614  1
  Zr  Zr79  1  0.72841666  0.31212159  0.91005877  1
  Zr  Zr80  1  0.20762608  0.79674454  0.79651474  1
  Zr  Zr81  1  0.40221947  0.40572830  -0.00546297  1
  Zr  Zr82  1  0.50165762  0.52843693  0.07808087  1
  Zr  Zr83  1  0.70196028  0.29640850  0.50001496  1
  Zr  Zr84  1  0.49917012  0.50351191  0.70562704  1
  Zr  Zr85  1  0.09862001  0.89424623  0.69945236  1
  Zr  Zr86  1  0.10705762  0.29499495  0.89709457  1
  Zr  Zr87  1  0.89905739  0.10202842  0.90687913  1
  Zr  Zr88  1  0.19685657  0.20201528  0.59502869  1
  Zr  Zr89  1  0.39538837  0.79325434  0.61034036  1
  Zr  Zr90  1  0.89831959  0.89973730  0.49671400  1
  Zr  Zr91  1  0.29028848  0.10834524  0.29558308  1
  Zr  Zr92  1  0.40583472  0.59675721  0.20522790  1
  Zr  Zr93  1  0.80334921  0.20379412  0.80137657  1
  Zr  Zr94  1  0.30032607  0.90750053  0.49731243  1
  Zr  Zr95  1  -0.00851295  0.60837945  0.59926587  1
  Zr  Zr96  1  0.00020173  0.39641493  -0.00588650  1
  Zr  Zr97  1  0.30193546  0.69746906  0.09109710  1
  Zr  Zr98  1  0.30062953  0.29091958  0.09975748  1
  Zr  Zr99  1  0.60017252  0.40511375  -0.00417490  1
  Ta  Ta100  1  0.80235677  0.79749260  0.80062619  1
  Ta  Ta101  1  0.71060511  0.10258156  0.10660073  1
  Ta  Ta102  1  0.70706369  0.68835704  0.50992555  1
  Ta  Ta103  1  0.80130050  0.78727685  0.39803097  1
  Ta  Ta104  1  0.40363066  0.40007984  0.19521427  1
  Ta  Ta105  1  0.29825087  0.30949400  0.69030316  1
  Ta  Ta106  1  0.39197949  0.19460173  0.79284145  1
  Ta  Ta107  1  0.19895461  0.41310061  -0.00574810  1
  Ta  Ta108  1  0.19501503  -0.00162688  0.00420575  1
  Ta  Ta109  1  0.00009093  0.21220433  0.80171943  1
  Ta  Ta110  1  0.29138884  0.48836364  0.50644770  1
  Ta  Ta111  1  0.29426504  0.30444111  0.49254384  1
  Ta  Ta112  1  0.80380785  0.60064904  -0.00696948  1
  Ta  Ta113  1  0.39385936  0.01230768  0.80085005  1
  Ta  Ta114  1  0.29900427  0.50261082  0.09484705  1
  Ta  Ta115  1  0.70394656  0.30268380  0.69746172  1
  Ta  Ta116  1  0.39716410  0.00257364  0.20012797  1
  Ta  Ta117  1  0.69956701  0.69029929  0.69984426  1
  Ta  Ta118  1  0.60633181  0.20426759  0.80142855  1
  Ta  Ta119  1  0.90243654  0.09849533  0.10461671  1
  Ta  Ta120  1  0.20326268  0.80939352  0.19651262  1
  Ta  Ta121  1  0.00297702  0.40714505  0.59159088  1
  Ta  Ta122  1  0.09539174  0.70096361  0.70129085  1
  Ta  Ta123  1  0.60252670  0.60629783  0.20280877  1
  Ta  Ta124  1  0.20561291  0.00053723  0.60738106  1
  Ta  Ta125  1  0.00106428  0.19543254  0.00000026  1
  Ta  Ta126  1  -0.00510474  -0.01236773  0.80149628  1
  Ta  Ta127  1  0.80477403  0.40038718  0.39223517  1
  Ta  Ta128  1  -0.00338980  0.59677740  0.20424513  1
  Ta  Ta129  1  0.09824605  0.70408121  0.09795328  1
  Ta  Ta130  1  0.09618969  0.70610059  0.89783999  1
  Ta  Ta131  1  0.00306815  0.80267910  -0.00078277  1
  Ta  Ta132  1  0.90216402  0.50058232  0.30711439  1
  Ta  Ta133  1  0.90599505  0.89442733  0.10945904  1
  Ta  Ta134  1  0.80316270  -0.00706946  0.00749410  1
  Ta  Ta135  1  0.09941529  0.09901893  0.29058581  1
  Ta  Ta136  1  0.89772761  0.50317367  0.10001222  1
  Ta  Ta137  1  0.38295286  0.59430872  0.60950515  1
  Ta  Ta138  1  0.70257119  0.90259967  0.10404127  1
  Ta  Ta139  1  0.09906807  0.30569090  0.69555363  1
  Ta  Ta140  1  0.19669569  0.60254989  0.59959189  1
  Ta  Ta141  1  0.69871267  0.89416429  0.70594394  1
  Ta  Ta142  1  0.10017827  0.89757615  0.89884895  1
  Ta  Ta143  1  0.89432615  0.49963478  0.50191903  1
  Ta  Ta144  1  0.00534932  0.20820317  0.59383782  1
  Ta  Ta145  1  0.38840329  0.19896879  0.60040810  1
  Ta  Ta146  1  0.19367123  0.80196912  0.00035964  1
  Ta  Ta147  1  0.70192873  0.50110143  0.30027482  1
  Ta  Ta148  1  0.19170940  0.59834438  0.41179483  1
  Ta  Ta149  1  0.88712826  0.48397286  0.89632169  1
  Ti  Ti150  1  0.40184064  0.19471662  -0.00013526  1
  Ti  Ti151  1  0.69620904  0.10376923  0.70307303  1
  Ti  Ti152  1  0.90275934  0.70371254  0.29618442  1
  Ti  Ti153  1  0.29859793  0.09806304  0.90431806  1
  Ti  Ti154  1  0.29904705  0.70163463  0.29970027  1
  Ti  Ti155  1  0.09595618  0.89526122  0.10446335  1
  Ti  Ti156  1  0.09695412  0.49204666  0.31384813  1
  Ti  Ti157  1  0.90417861  0.70407472  0.89819321  1
  Ti  Ti158  1  0.10799150  0.31824617  0.49482372  1
  Ti  Ti159  1  0.69538808  0.90251848  0.90485632  1
  Ti  Ti160  1  -0.00523314  0.79087738  0.59897612  1
  Ti  Ti161  1  0.20708700  0.19927131  0.78922723  1
  Ti  Ti162  1  0.79837413  0.79827109  0.20675163  1
  Ti  Ti163  1  0.59829863  0.00530523  0.20347535  1
  Ti  Ti164  1  0.20117332  -0.01262438  0.37977853  1
  Ti  Ti165  1  0.38905187  0.01295493  0.61349037  1
  Ti  Ti166  1  0.90402441  0.89539572  0.90476763  1
  Ti  Ti167  1  0.39635673  0.79187940  0.80180264  1
  Ti  Ti168  1  0.80365475  0.60495793  0.39827020  1
  Ti  Ti169  1  0.38305848  0.59088688  0.80384089  1
  Ti  Ti170  1  0.08805914  0.90271795  0.28464032  1
  Ti  Ti171  1  0.20571908  0.00012208  0.79589195  1
  Ti  Ti172  1  0.48698328  0.09988103  0.49942451  1
  Ti  Ti173  1  0.80386512  -0.00224706  0.39748011  1
  Ti  Ti174  1  0.71054117  0.10598751  0.49386547  1
  Ti  Ti175  1  0.19559815  -0.00191990  0.19147940  1
  Ti  Ti176  1  0.39102803  0.80685167  0.39485745  1
  Ti  Ti177  1  0.00264317  0.19750347  0.19771573  1
  Ti  Ti178  1  -0.00386010  0.59607398  0.80149741  1
  Ti  Ti179  1  0.49776235  0.10262562  0.89711528  1
  Ti  Ti180  1  0.69932536  0.69715447  0.09687776  1
  Ti  Ti181  1  0.19999068  0.79342073  0.60261470  1
  Ti  Ti182  1  0.30319546  0.90170828  0.70235911  1
  Ti  Ti183  1  0.70780604  0.89432327  0.50274510  1
  Ti  Ti184  1  0.70778596  0.10538622  0.29562875  1
  Ti  Ti185  1  0.39247959  0.40840089  0.79938398  1
  Ti  Ti186  1  0.69802625  0.69166046  0.89682693  1
  Ti  Ti187  1  0.70789112  0.29175887  0.10219130  1
  Ti  Ti188  1  0.71135496  0.50316082  0.69506787  1
  Ti  Ti189  1  0.90032124  0.10199396  0.49157950  1
  Ti  Ti190  1  0.39578196  0.19958808  0.39465128  1
  Ti  Ti191  1  0.00016165  0.40509737  0.80294157  1
  Ti  Ti192  1  -0.00841619  0.79955847  0.79683070  1
  Ti  Ti193  1  0.50184044  0.68956369  0.51250342  1
  Ti  Ti194  1  -0.00455514  -0.00503176  0.38659942  1
  Ti  Ti195  1  0.19282293  0.18222046  0.00701642  1
  Ti  Ti196  1  0.59989039  0.00283335  0.80522784  1
  Ti  Ti197  1  0.29692990  0.09843434  0.09965086  1
  Ti  Ti198  1  0.30186028  0.70314413  0.90586757  1
  Ti  Ti199  1  0.19717987  0.59820915  -0.01096378  1
  Mo  Mo200  1  0.29967689  0.50067729  0.90044278  1
  Mo  Mo201  1  0.90206646  0.49909366  0.70027096  1
  Mo  Mo202  1  0.37965223  0.59770098  -0.00920793  1
  Mo  Mo203  1  0.00198347  -0.00262185  0.20002477  1
  Mo  Mo204  1  0.00105800  0.40700172  0.40324689  1
  Mo  Mo205  1  0.60762413  0.19805471  0.60090219  1
  Mo  Mo206  1  0.29600718  0.69526298  0.70116405  1
  Mo  Mo207  1  0.39829847  0.78935982  -0.00148485  1
  Mo  Mo208  1  0.80331947  0.19580139  0.39999232  1
  Mo  Mo209  1  0.29781718  0.90378392  0.28903547  1
  Mo  Mo210  1  0.80226042  0.40674267  0.59927352  1
  Mo  Mo211  1  0.29798361  0.10425579  0.70171674  1
  Mo  Mo212  1  0.19968323  0.40352088  0.40288992  1
  Mo  Mo213  1  0.80391468  0.40662382  0.00997297  1
  Mo  Mo214  1  0.49376875  0.29392714  0.09705505  1
  Mo  Mo215  1  0.30295201  0.29940348  0.30057680  1
  Mo  Mo216  1  0.49779590  0.50470069  0.88956719  1
  Mo  Mo217  1  0.49930085  0.91173615  0.10562014  1
  Mo  Mo218  1  0.70297133  0.69618766  0.30418725  1
  Mo  Mo219  1  0.89989306  0.89052418  0.70842414  1
  Mo  Mo220  1  0.62058240  0.60432077  -0.00363381  1
  Mo  Mo221  1  0.90040445  0.89603301  0.29962070  1
  Mo  Mo222  1  0.60574470  0.59889658  0.60248314  1
  Mo  Mo223  1  0.19632576  0.40176935  0.59761584  1
  Mo  Mo224  1  0.90861397  0.30324356  0.90082956  1
  Mo  Mo225  1  0.70738954  0.50745350  0.89950579  1
  Mo  Mo226  1  0.19320135  0.19262839  0.19511207  1
  Mo  Mo227  1  0.38094485  0.19911160  0.19778815  1
  Mo  Mo228  1  0.50186441  0.50571203  0.29602553  1
  Mo  Mo229  1  0.10040258  0.50104679  0.50021936  1
  Mo  Mo230  1  0.19801766  0.20700826  0.40201742  1
  Mo  Mo231  1  0.80186282  0.40741804  0.79072534  1
  Mo  Mo232  1  0.49074223  0.09540088  0.30134316  1
  Mo  Mo233  1  0.09672246  0.50590641  0.89780315  1
  Mo  Mo234  1  0.10333894  0.70505592  0.50912385  1
  Mo  Mo235  1  0.80387559  0.59882744  0.60469504  1
  Mo  Mo236  1  0.39447096  0.02257962  0.00015143  1
  Mo  Mo237  1  0.80673283  0.19547801  0.20128132  1
  Mo  Mo238  1  0.29898424  0.49705054  0.69648329  1
  Mo  Mo239  1  0.89393815  0.69568048  0.49616585  1
  Mo  Mo240  1  0.09904177  0.09752157  0.10460734  1
  Mo  Mo241  1  0.50170048  0.70103721  0.09749267  1
  Mo  Mo242  1  0.61785238  0.19193927  0.19928620  1
  Mo  Mo243  1  0.90374074  0.30085038  0.29875177  1
  Mo  Mo244  1  0.61685109  0.59324806  0.80465444  1
  Mo  Mo245  1  0.80525096  0.19030320  0.00572221  1
  Mo  Mo246  1  0.39171660  0.39686212  0.59736253  1
  Mo  Mo247  1  0.39719758  0.00673965  0.38951144  1
  Mo  Mo248  1  0.00142613  0.80035230  0.19617907  1
  Mo  Mo249  1  0.90544709  0.70051439  0.71035387  1
