# generated using pymatgen
data_HfZrTaTiMo
_symmetry_space_group_name_H-M   'P 1'
_cell_length_a   16.88269234
_cell_length_b   16.88399689
_cell_length_c   16.88142206
_cell_angle_alpha   90.02285311
_cell_angle_beta   89.98986149
_cell_angle_gamma   90.02337018
_symmetry_Int_Tables_number   1
_chemical_formula_structural   HfZrTaTiMo
_chemical_formula_sum   'Hf50 Zr50 Ta50 Ti50 Mo50'
_cell_volume   4812.00333954
_cell_formula_units_Z   50
loop_
 _symmetry_equiv_pos_site_id
 _symmetry_equiv_pos_as_xyz
  1  'x, y, z'
loop_
 _atom_site_type_symbol
 _atom_site_label
 _atom_site_symmetry_multiplicity
 _atom_site_fract_x
 _atom_site_fract_y
 _atom_site_fract_z
 _atom_site_occupancy
  Hf  Hf0  1  0.51004491  0.69338381  0.90561182  1
  Hf  Hf1  1  0.50550037  0.30971250  0.49241068  1
  Hf  Hf2  1  0.39666778  0.41068070  -0.00307459  1
  Hf  Hf3  1  0.09314443  0.49484891  0.49595313  1
  Hf  Hf4  1  0.00727737  0.00352923  0.79341055  1
  Hf  Hf5  1  0.81333007  -0.00402122  0.20863069  1
  Hf  Hf6  1  0.00767716  0.59981055  0.00739742  1
  Hf  Hf7  1  0.60372440  0.19988163  0.00190902  1
  Hf  Hf8  1  0.00935730  0.40412141  0.00466196  1
  Hf  Hf9  1  0.30397849  0.29390235  0.48741904  1
  Hf  Hf10  1  0.50175802  0.30221229  0.90026208  1
  Hf  Hf11  1  0.08830978  0.69609521  0.30227536  1
  Hf  Hf12  1  0.40431537  0.59685622  0.19993465  1
  Hf  Hf13  1  0.38725712  0.40615245  0.20742747  1
  Hf  Hf14  1  0.49735364  0.89227713  0.09935299  1
  Hf  Hf15  1  0.70147494  0.89223865  0.69209860  1
  Hf  Hf16  1  0.69738355  0.89896245  0.09598506  1
  Hf  Hf17  1  0.50175449  0.09674872  0.10397938  1
  Hf  Hf18  1  0.60291641  0.79043497  0.19134028  1
  Hf  Hf19  1  0.70385005  0.09767921  0.30105398  1
  Hf  Hf20  1  0.80144332  -0.00043165  -0.00231230  1
  Hf  Hf21  1  0.90067036  0.30033322  0.49916177  1
  Hf  Hf22  1  0.20140086  0.00201910  0.38953917  1
  Hf  Hf23  1  0.90007880  0.89670863  0.09546641  1
  Hf  Hf24  1  0.29545791  0.90528524  0.09747758  1
  Hf  Hf25  1  0.40635670  0.60076006  0.60181584  1
  Hf  Hf26  1  0.09479337  0.29868621  0.49013294  1
  Hf  Hf27  1  0.89827205  0.70096630  0.90544615  1
  Hf  Hf28  1  0.90625539  0.29981263  0.10839454  1
  Hf  Hf29  1  0.79584893  0.59723036  0.20765404  1
  Hf  Hf30  1  0.09540483  0.70509517  0.49733635  1
  Hf  Hf31  1  0.49563539  0.09223649  0.71108228  1
  Hf  Hf32  1  0.19772850  0.40867607  0.00174270  1
  Hf  Hf33  1  0.09329055  0.10218784  0.49226750  1
  Hf  Hf34  1  0.80322463  -0.01059161  0.80139909  1
  Hf  Hf35  1  0.59966228  0.79336883  0.80005583  1
  Hf  Hf36  1  0.40167552  0.40356428  0.80877508  1
  Hf  Hf37  1  0.70667446  0.30553469  0.89699519  1
  Hf  Hf38  1  0.39693181  0.18992385  0.00027972  1
  Hf  Hf39  1  0.20185103  0.39675978  0.59587137  1
  Hf  Hf40  1  0.40507023  0.41898704  0.39187180  1
  Hf  Hf41  1  0.89733007  0.69812659  0.10260034  1
  Hf  Hf42  1  0.80026344  0.59787651  0.79517065  1
  Hf  Hf43  1  0.51004265  0.70149990  0.50306764  1
  Hf  Hf44  1  0.00925318  -0.00250661  -0.00056250  1
  Hf  Hf45  1  0.70555681  0.31020344  0.30421073  1
  Hf  Hf46  1  0.59392711  0.58135027  0.39838353  1
  Hf  Hf47  1  0.49551363  0.70370616  0.29459992  1
  Hf  Hf48  1  0.80369425  0.40476190  0.00178146  1
  Hf  Hf49  1  0.70353771  0.09888374  0.10713751  1
  Zr  Zr50  1  0.60058270  0.41037033  0.00142992  1
  Zr  Zr51  1  -0.02491001  0.59321342  0.41254059  1
  Zr  Zr52  1  0.50217972  0.89693044  0.50518203  1
  Zr  Zr53  1  0.60707742  0.20120509  0.40694321  1
  Zr  Zr54  1  0.21337423  0.40329169  0.38381684  1
  Zr  Zr55  1  0.59792073  0.00313055  0.59294451  1
  Zr  Zr56  1  0.19187654  0.60745644  0.60513592  1
  Zr  Zr57  1  0.29676545  0.08528748  0.89134959  1
  Zr  Zr58  1  0.29756381  0.50698318  0.70774506  1
  Zr  Zr59  1  0.39619787  0.00233652  0.59723158  1
  Zr  Zr60  1  0.70308247  0.69545125  0.31149440  1
  Zr  Zr61  1  0.80691132  0.58663291  0.59430644  1
  Zr  Zr62  1  0.29369093  0.90589858  0.71145248  1
  Zr  Zr63  1  0.09170067  0.50433616  0.30085492  1
  Zr  Zr64  1  0.71378612  0.10566609  0.50211613  1
  Zr  Zr65  1  0.10633297  0.29617017  0.89711633  1
  Zr  Zr66  1  0.91044472  0.30623049  0.89353393  1
  Zr  Zr67  1  0.38920537  0.00063742  0.20425718  1
  Zr  Zr68  1  0.39543108  0.00023378  0.39958890  1
  Zr  Zr69  1  0.40466135  0.40065051  0.60325316  1
  Zr  Zr70  1  -0.00321192  0.80392094  0.19787025  1
  Zr  Zr71  1  0.29341315  0.70547595  0.49909724  1
  Zr  Zr72  1  0.81086996  -0.00763311  0.59142019  1
  Zr  Zr73  1  0.50915034  0.50058795  0.70859373  1
  Zr  Zr74  1  0.09631789  0.49671834  0.70764639  1
  Zr  Zr75  1  0.40369657  0.19879300  0.60029662  1
  Zr  Zr76  1  0.49851344  0.30231979  0.10604001  1
  Zr  Zr77  1  0.09736001  0.30219312  0.70573477  1
  Zr  Zr78  1  0.50166682  0.10109359  0.30324484  1
  Zr  Zr79  1  0.29060752  0.29573886  0.09573426  1
  Zr  Zr80  1  0.70242502  0.70348816  0.68946814  1
  Zr  Zr81  1  0.80898578  0.20725495  0.78883581  1
  Zr  Zr82  1  0.29381520  0.29273546  0.71069484  1
  Zr  Zr83  1  0.59768705  0.20828833  0.60327205  1
  Zr  Zr84  1  0.19829800  0.79752842  -0.00471822  1
  Zr  Zr85  1  0.80255661  0.41559737  0.40217177  1
  Zr  Zr86  1  0.49148004  0.90327925  0.89657045  1
  Zr  Zr87  1  0.09550323  0.29329324  0.29663455  1
  Zr  Zr88  1  0.39908103  0.79116739  -0.00275896  1
  Zr  Zr89  1  0.39390608  0.80872283  0.39206616  1
  Zr  Zr90  1  0.09453737  0.90188353  0.49925575  1
  Zr  Zr91  1  0.70188491  0.10374510  0.89853515  1
  Zr  Zr92  1  0.70570270  0.10134244  0.69762632  1
  Zr  Zr93  1  0.90380096  0.10238030  0.90203005  1
  Zr  Zr94  1  0.49810520  0.30050950  0.30175221  1
  Zr  Zr95  1  0.30337450  0.69636751  0.10395372  1
  Zr  Zr96  1  0.18594962  0.80126896  0.19255272  1
  Zr  Zr97  1  0.40231857  0.79466230  0.61418190  1
  Zr  Zr98  1  0.60140445  0.81162368  0.39340977  1
  Zr  Zr99  1  0.00139110  0.79779627  0.79895423  1
  Ta  Ta100  1  -0.00096968  0.79512631  0.60150554  1
  Ta  Ta101  1  0.90386672  0.50272271  0.89793852  1
  Ta  Ta102  1  0.81247891  -0.00234870  0.39743649  1
  Ta  Ta103  1  0.39999393  0.59723015  0.39701827  1
  Ta  Ta104  1  0.29473606  0.28888376  0.89885132  1
  Ta  Ta105  1  0.00595967  0.40567633  0.19669928  1
  Ta  Ta106  1  0.29488641  0.70083445  0.29626817  1
  Ta  Ta107  1  -0.00197299  0.19998887  0.60589666  1
  Ta  Ta108  1  0.60061740  -0.00080992  0.80568848  1
  Ta  Ta109  1  0.10362216  0.89656907  0.69474610  1
  Ta  Ta110  1  0.09707967  0.50485176  0.89402771  1
  Ta  Ta111  1  0.59656957  0.00094175  -0.00546876  1
  Ta  Ta112  1  0.79659808  0.79979107  0.20413539  1
  Ta  Ta113  1  -0.00821906  0.60208891  0.60800423  1
  Ta  Ta114  1  0.29496382  0.09786092  0.70369978  1
  Ta  Ta115  1  0.60689494  0.20625507  0.20140196  1
  Ta  Ta116  1  0.19523076  0.19343361  0.59865271  1
  Ta  Ta117  1  0.90616965  0.10256186  0.49679192  1
  Ta  Ta118  1  0.70275149  0.30773748  0.69540490  1
  Ta  Ta119  1  0.08609900  0.90868924  0.30004406  1
  Ta  Ta120  1  0.29415620  0.50715858  0.09986157  1
  Ta  Ta121  1  0.90995774  0.10336221  0.10934570  1
  Ta  Ta122  1  0.38533112  0.19448208  0.20675008  1
  Ta  Ta123  1  0.40440297  0.19731601  0.80437984  1
  Ta  Ta124  1  -0.01106645  0.40295694  0.60512884  1
  Ta  Ta125  1  0.28287347  0.89562735  0.50932292  1
  Ta  Ta126  1  -0.00528635  0.60306208  0.79473146  1
  Ta  Ta127  1  0.01499980  0.80054648  0.00262682  1
  Ta  Ta128  1  0.59643538  0.20472705  0.79747862  1
  Ta  Ta129  1  0.10015404  0.69670193  0.89674767  1
  Ta  Ta130  1  0.70089626  0.50478352  0.89829191  1
  Ta  Ta131  1  0.60233543  0.41273251  0.20947637  1
  Ta  Ta132  1  0.90089473  0.89128606  0.69477519  1
  Ta  Ta133  1  0.20261252  0.18529034  0.20027912  1
  Ta  Ta134  1  0.89653161  0.70344314  0.30702861  1
  Ta  Ta135  1  0.70524172  0.49973290  0.10514654  1
  Ta  Ta136  1  0.19354327  0.80428057  0.39150136  1
  Ta  Ta137  1  0.80900918  0.20070552  0.20856419  1
  Ta  Ta138  1  0.11202149  0.90361995  0.89256411  1
  Ta  Ta139  1  0.90074153  0.50155594  0.10615222  1
  Ta  Ta140  1  0.80813917  0.20161714  0.39649216  1
  Ta  Ta141  1  0.00448731  0.19204317  0.79202157  1
  Ta  Ta142  1  0.00938941  0.19362487  0.00312655  1
  Ta  Ta143  1  0.60398088  0.59377137  0.60051030  1
  Ta  Ta144  1  0.30027981  0.50691923  0.49818840  1
  Ta  Ta145  1  0.19901480  0.40400080  0.19710763  1
  Ta  Ta146  1  0.39667242  0.79293180  0.80211676  1
  Ta  Ta147  1  0.70844652  0.30609276  0.11166717  1
  Ta  Ta148  1  0.70487622  0.70159692  0.49946151  1
  Ta  Ta149  1  0.80644637  0.20293508  0.01063337  1
  Ti  Ti150  1  0.60182657  0.59824260  0.19623883  1
  Ti  Ti151  1  0.79693199  0.79809193  0.80718376  1
  Ti  Ti152  1  0.18947935  0.59747676  0.19399934  1
  Ti  Ti153  1  0.80135822  0.40023593  0.60477973  1
  Ti  Ti154  1  0.69676103  0.49537122  0.50089425  1
  Ti  Ti155  1  0.19571758  0.00126509  -0.00000561  1
  Ti  Ti156  1  0.19512480  0.18377106  0.00302755  1
  Ti  Ti157  1  0.79337971  0.59906411  0.00076497  1
  Ti  Ti158  1  0.50446890  0.50433757  0.10034091  1
  Ti  Ti159  1  0.70260161  0.90399220  0.30041675  1
  Ti  Ti160  1  0.59910754  -0.00176341  0.40252324  1
  Ti  Ti161  1  0.61115182  0.60814142  0.00932978  1
  Ti  Ti162  1  0.18693120  0.17950508  0.79766868  1
  Ti  Ti163  1  0.40918698  0.59508427  -0.00007088  1
  Ti  Ti164  1  0.80579502  0.40942553  0.78842489  1
  Ti  Ti165  1  0.69372630  0.89184263  0.90453823  1
  Ti  Ti166  1  0.29843905  0.10299104  0.49771201  1
  Ti  Ti167  1  0.20513367  0.40540732  0.81070629  1
  Ti  Ti168  1  0.09887454  0.09192406  0.11015051  1
  Ti  Ti169  1  0.90619718  0.30805516  0.29679837  1
  Ti  Ti170  1  0.19184147  0.60822271  0.80030510  1
  Ti  Ti171  1  0.89049948  0.70989252  0.49798979  1
  Ti  Ti172  1  0.28986651  0.89432900  0.28924837  1
  Ti  Ti173  1  0.20805035  0.19265260  0.38631390  1
  Ti  Ti174  1  0.29578956  0.51570083  0.90146921  1
  Ti  Ti175  1  0.50257417  0.89781674  0.70355372  1
  Ti  Ti176  1  0.60520540  0.40319644  0.60038789  1
  Ti  Ti177  1  0.60578854  0.40293354  0.79864782  1
  Ti  Ti178  1  0.60915954  0.59819545  0.79991878  1
  Ti  Ti179  1  0.10007108  0.28971935  0.10645057  1
  Ti  Ti180  1  0.90286963  0.89081705  0.90260601  1
  Ti  Ti181  1  0.80614506  0.80934158  0.39632788  1
  Ti  Ti182  1  0.70457487  0.88985979  0.50285738  1
  Ti  Ti183  1  0.40856497  0.60577568  0.80219386  1
  Ti  Ti184  1  0.20553528  0.60123104  0.39594331  1
  Ti  Ti185  1  0.29402659  0.70211455  0.70503827  1
  Ti  Ti186  1  0.59692841  -0.00762235  0.20520617  1
  Ti  Ti187  1  0.19506664  0.00954772  0.60370594  1
  Ti  Ti188  1  0.89872153  0.10155420  0.68904507  1
  Ti  Ti189  1  0.90066108  0.49800859  0.29423701  1
  Ti  Ti190  1  0.08754789  0.09425477  0.29137544  1
  Ti  Ti191  1  0.91100554  0.89616788  0.49254990  1
  Ti  Ti192  1  -0.00933300  0.19442604  0.38779828  1
  Ti  Ti193  1  0.39763184  0.00284939  -0.00352438  1
  Ti  Ti194  1  0.78209293  0.78673827  0.00026558  1
  Ti  Ti195  1  0.89387167  0.70796531  0.69452030  1
  Ti  Ti196  1  0.29862171  0.69268287  0.89675188  1
  Ti  Ti197  1  0.00012910  0.00110838  0.60224629  1
  Ti  Ti198  1  0.20004520  0.79595599  0.80052101  1
  Ti  Ti199  1  0.19219529  0.60168624  0.00445261  1
  Mo  Mo200  1  0.70234816  0.69459736  0.90274669  1
  Mo  Mo201  1  0.50508755  0.90158350  0.29240367  1
  Mo  Mo202  1  -0.00820313  0.39714307  0.39476558  1
  Mo  Mo203  1  0.29178842  0.09595633  0.09655120  1
  Mo  Mo204  1  0.70684493  0.30934525  0.50686689  1
  Mo  Mo205  1  0.29340677  0.51991681  0.29606525  1
  Mo  Mo206  1  0.29717940  0.28698323  0.29633236  1
  Mo  Mo207  1  0.90012211  0.89641520  0.30494924  1
  Mo  Mo208  1  0.51001408  0.50913969  0.90205891  1
  Mo  Mo209  1  0.50982862  0.30225184  0.70978101  1
  Mo  Mo210  1  0.90091224  0.49264699  0.50904683  1
  Mo  Mo211  1  0.90076007  0.49706804  0.70401448  1
  Mo  Mo212  1  0.10182287  0.09871156  0.90114838  1
  Mo  Mo213  1  -0.00894607  0.59850792  0.20137964  1
  Mo  Mo214  1  0.09585492  0.70369261  0.70296203  1
  Mo  Mo215  1  0.29182726  0.09762272  0.29886519  1
  Mo  Mo216  1  0.09737961  0.69263196  0.09902454  1
  Mo  Mo217  1  0.50128767  0.50469305  0.29301672  1
  Mo  Mo218  1  0.29495358  0.89814301  0.89871250  1
  Mo  Mo219  1  0.90381229  0.10144392  0.30229730  1
  Mo  Mo220  1  -0.00503117  0.40647354  0.80080425  1
  Mo  Mo221  1  0.50779486  0.69259040  0.09636040  1
  Mo  Mo222  1  0.09909496  0.09679342  0.68964210  1
  Mo  Mo223  1  0.19030095  -0.00054577  0.19886748  1
  Mo  Mo224  1  0.09988722  0.91021893  0.09834477  1
  Mo  Mo225  1  0.00024655  0.00196507  0.19916629  1
  Mo  Mo226  1  0.60378885  0.40520061  0.40349076  1
  Mo  Mo227  1  0.60640632  0.79728810  -0.00172117  1
  Mo  Mo228  1  0.50140133  0.09763099  0.89962237  1
  Mo  Mo229  1  0.39662399  0.19303400  0.40059708  1
  Mo  Mo230  1  -0.00588682  0.80217558  0.40020910  1
  Mo  Mo231  1  0.39906655  0.79877269  0.20122365  1
  Mo  Mo232  1  0.80786963  0.80139964  0.58716292  1
  Mo  Mo233  1  0.79532000  0.60094223  0.40415891  1
  Mo  Mo234  1  0.69996927  0.49278167  0.70125012  1
  Mo  Mo235  1  0.60420670  0.79337420  0.60116678  1
  Mo  Mo236  1  -0.00597203  0.00300702  0.39463929  1
  Mo  Mo237  1  0.50202718  0.50158260  0.50569270  1
  Mo  Mo238  1  0.49133093  0.10556038  0.49364304  1
  Mo  Mo239  1  0.40020233  -0.00393517  0.79988255  1
  Mo  Mo240  1  0.50479287  0.69581241  0.70809516  1
  Mo  Mo241  1  0.80670059  0.21158211  0.59496418  1
  Mo  Mo242  1  0.89953011  0.30257170  0.69577765  1
  Mo  Mo243  1  0.19289468  0.80072786  0.60598786  1
  Mo  Mo244  1  0.70309152  0.69421033  0.09921375  1
  Mo  Mo245  1  0.00507275  0.20018280  0.19835572  1
  Mo  Mo246  1  0.10269725  0.50154540  0.10511138  1
  Mo  Mo247  1  0.80503583  0.40281102  0.20102723  1
  Mo  Mo248  1  0.19338469  -0.00184131  0.79633930  1
  Mo  Mo249  1  0.69886626  0.50024317  0.29654830  1
