# generated using pymatgen
data_HfZrTaTiMo
_symmetry_space_group_name_H-M   'P 1'
_cell_length_a   16.88427308
_cell_length_b   16.87966900
_cell_length_c   16.87764742
_cell_angle_alpha   90.02254775
_cell_angle_beta   90.02862988
_cell_angle_gamma   90.00192045
_symmetry_Int_Tables_number   1
_chemical_formula_structural   HfZrTaTiMo
_chemical_formula_sum   'Hf50 Zr50 Ta50 Ti50 Mo50'
_cell_volume   4810.14442093
_cell_formula_units_Z   50
loop_
 _symmetry_equiv_pos_site_id
 _symmetry_equiv_pos_as_xyz
  1  'x, y, z'
loop_
 _atom_site_type_symbol
 _atom_site_label
 _atom_site_symmetry_multiplicity
 _atom_site_fract_x
 _atom_site_fract_y
 _atom_site_fract_z
 _atom_site_occupancy
  Hf  Hf0  1  0.50252533  0.49237224  0.50111451  1
  Hf  Hf1  1  0.30622863  0.09897791  0.49707227  1
  Hf  Hf2  1  0.70069022  0.90058286  0.10220679  1
  Hf  Hf3  1  0.10362461  0.30405254  0.29315419  1
  Hf  Hf4  1  0.80630031  0.78378394  0.21788188  1
  Hf  Hf5  1  0.69708014  0.90121984  0.90200318  1
  Hf  Hf6  1  0.20655501  0.40592599  0.00514757  1
  Hf  Hf7  1  0.40401917  0.40259041  -0.00225691  1
  Hf  Hf8  1  0.20046398  0.00181993  0.20859769  1
  Hf  Hf9  1  0.69564816  0.10076116  0.89252178  1
  Hf  Hf10  1  0.50461485  0.10103207  0.70740636  1
  Hf  Hf11  1  0.89135801  0.10093559  0.69349623  1
  Hf  Hf12  1  0.79753125  0.19345810  0.19563616  1
  Hf  Hf13  1  0.28882506  0.30706947  0.69935441  1
  Hf  Hf14  1  0.89488653  0.50264796  0.10803356  1
  Hf  Hf15  1  0.09380791  0.50379648  0.11813148  1
  Hf  Hf16  1  0.10401597  0.89580829  0.49970853  1
  Hf  Hf17  1  0.90369855  0.50244084  0.29572557  1
  Hf  Hf18  1  0.10423007  0.70660235  0.69166619  1
  Hf  Hf19  1  0.70096861  0.50324101  0.10418670  1
  Hf  Hf20  1  0.69707700  0.50129101  0.89859613  1
  Hf  Hf21  1  0.89336139  0.90124451  0.50592771  1
  Hf  Hf22  1  0.90762969  0.30215222  0.29417774  1
  Hf  Hf23  1  0.59808901  0.39697368  -0.00190330  1
  Hf  Hf24  1  0.88647465  0.90271074  0.10850003  1
  Hf  Hf25  1  -0.00533886  0.81228331  0.79480385  1
  Hf  Hf26  1  0.40023033  0.61497556  0.40170878  1
  Hf  Hf27  1  0.09083470  0.70006399  0.89449531  1
  Hf  Hf28  1  -0.00923810  0.79501949  0.00557209  1
  Hf  Hf29  1  -0.00206240  0.39545827  0.00689292  1
  Hf  Hf30  1  0.50073844  0.71335173  0.71535157  1
  Hf  Hf31  1  0.80460536  0.39614253  0.40347622  1
  Hf  Hf32  1  0.09944983  0.89589562  0.10891609  1
  Hf  Hf33  1  0.21007159  0.60634764  0.80458046  1
  Hf  Hf34  1  0.19890603  0.00266871  0.39678979  1
  Hf  Hf35  1  0.10529020  0.30013239  0.89497397  1
  Hf  Hf36  1  0.69723805  0.49120576  0.49812183  1
  Hf  Hf37  1  0.88624311  0.90806040  0.90593388  1
  Hf  Hf38  1  0.20339038  0.00333344  0.79373253  1
  Hf  Hf39  1  -0.01194954  0.59439662  0.78403133  1
  Hf  Hf40  1  0.30225465  0.89702567  0.29584647  1
  Hf  Hf41  1  0.20342010  0.60657981  0.00773790  1
  Hf  Hf42  1  0.69825862  0.70306972  0.10552814  1
  Hf  Hf43  1  0.89435949  0.71161763  0.68974319  1
  Hf  Hf44  1  0.80393213  0.39719211  0.79135261  1
  Hf  Hf45  1  0.60281150  0.61060034  0.39503667  1
  Hf  Hf46  1  0.20224014  0.80677719  0.80143772  1
  Hf  Hf47  1  0.40351268  0.40375109  0.80544828  1
  Hf  Hf48  1  0.20310897  0.19990492  0.39995793  1
  Hf  Hf49  1  0.70278955  0.90231361  0.29727660  1
  Zr  Zr50  1  0.11107714  0.10199742  0.09668376  1
  Zr  Zr51  1  0.89767873  0.49648798  0.90133024  1
  Zr  Zr52  1  0.29998129  0.49775776  0.69837238  1
  Zr  Zr53  1  -0.00502180  0.60675271  0.00264749  1
  Zr  Zr54  1  -0.00799464  0.18679563  0.19391926  1
  Zr  Zr55  1  0.49328524  0.49261037  0.29990165  1
  Zr  Zr56  1  0.50803201  0.29662726  0.69373948  1
  Zr  Zr57  1  0.50499502  0.10712046  0.50318821  1
  Zr  Zr58  1  0.10273750  0.70292914  0.29704586  1
  Zr  Zr59  1  0.69176009  0.48923297  0.69311996  1
  Zr  Zr60  1  0.20596690  0.79121532  0.00498790  1
  Zr  Zr61  1  -0.00509411  0.39751626  0.59184497  1
  Zr  Zr62  1  0.60215458  0.61161742  0.59993921  1
  Zr  Zr63  1  0.11195035  0.49055892  0.69159528  1
  Zr  Zr64  1  0.69454168  0.29792634  0.30178756  1
  Zr  Zr65  1  0.38868432  0.18639873  0.79827765  1
  Zr  Zr66  1  0.10190702  0.49559518  0.89211905  1
  Zr  Zr67  1  0.10615690  0.30200152  0.69869923  1
  Zr  Zr68  1  0.59784486  0.60953330  -0.00221314  1
  Zr  Zr69  1  -0.01305266  0.01078047  0.01320541  1
  Zr  Zr70  1  0.89521601  0.91035716  0.30884416  1
  Zr  Zr71  1  0.29356475  0.48640828  0.48951628  1
  Zr  Zr72  1  0.00051295  -0.00378783  0.79116083  1
  Zr  Zr73  1  0.39665499  0.60894160  0.59447409  1
  Zr  Zr74  1  0.69641654  0.09169044  0.29688852  1
  Zr  Zr75  1  0.79657929  0.60631711  0.79927937  1
  Zr  Zr76  1  0.59778082  0.80389437  0.40182839  1
  Zr  Zr77  1  0.40389130  0.81401277  0.59086012  1
  Zr  Zr78  1  0.29684821  0.50082140  0.29819875  1
  Zr  Zr79  1  -0.00257073  0.79932003  0.39268394  1
  Zr  Zr80  1  0.49507167  0.50605218  0.10511645  1
  Zr  Zr81  1  0.89908388  0.28991845  0.89893463  1
  Zr  Zr82  1  0.90377145  0.09654714  0.51115636  1
  Zr  Zr83  1  0.30922829  0.09393964  0.10602794  1
  Zr  Zr84  1  0.10633171  0.91045512  0.91528830  1
  Zr  Zr85  1  0.50034981  0.50534794  0.70211003  1
  Zr  Zr86  1  0.30209532  0.29633431  0.11014310  1
  Zr  Zr87  1  0.10333148  0.29269808  0.10187324  1
  Zr  Zr88  1  0.20733676  -0.00434081  0.59838015  1
  Zr  Zr89  1  0.40854427  -0.00920804  0.40162678  1
  Zr  Zr90  1  0.60024729  -0.00782139  0.59727936  1
  Zr  Zr91  1  0.20295127  0.60766144  0.58847334  1
  Zr  Zr92  1  0.49726740  0.29430121  0.10975705  1
  Zr  Zr93  1  0.80371312  0.19774604  0.40630035  1
  Zr  Zr94  1  0.69869403  0.28923282  0.69800887  1
  Zr  Zr95  1  0.80216698  0.59685190  0.60017141  1
  Zr  Zr96  1  0.40329165  0.18990291  -0.00547464  1
  Zr  Zr97  1  0.09703195  0.10585604  0.90493770  1
  Zr  Zr98  1  -0.00231679  0.19751333  0.79145758  1
  Zr  Zr99  1  0.50995846  0.28127207  0.89303965  1
  Ta  Ta100  1  0.59871976  0.39581967  0.20458918  1
  Ta  Ta101  1  0.39747969  0.38862312  0.59171458  1
  Ta  Ta102  1  0.80114952  0.61162305  -0.00435137  1
  Ta  Ta103  1  0.21357636  0.19534820  -0.00930309  1
  Ta  Ta104  1  0.29521266  0.30380823  0.89482777  1
  Ta  Ta105  1  0.79544188  0.39504040  0.19700914  1
  Ta  Ta106  1  0.59978984  0.39853467  0.80467121  1
  Ta  Ta107  1  0.00089760  -0.00199979  0.20905761  1
  Ta  Ta108  1  0.70281507  0.50137496  0.29608698  1
  Ta  Ta109  1  0.40671369  0.80292233  0.39529588  1
  Ta  Ta110  1  0.59984438  -0.00549317  0.40447502  1
  Ta  Ta111  1  0.79705836  0.19565343  0.00591982  1
  Ta  Ta112  1  0.69440298  0.29441900  0.09886272  1
  Ta  Ta113  1  0.90086398  0.50209239  0.49483457  1
  Ta  Ta114  1  0.30228453  0.30155944  0.29903909  1
  Ta  Ta115  1  0.30504131  0.71317291  0.70229165  1
  Ta  Ta116  1  0.70123914  0.10134546  0.69536159  1
  Ta  Ta117  1  0.58879471  0.80690079  0.00025195  1
  Ta  Ta118  1  0.30139451  0.70699474  0.29625014  1
  Ta  Ta119  1  0.89937989  0.70330017  0.50064085  1
  Ta  Ta120  1  0.10190075  0.49801913  0.48795824  1
  Ta  Ta121  1  0.00168130  0.39723328  0.40135668  1
  Ta  Ta122  1  0.70210713  0.29011235  0.89818428  1
  Ta  Ta123  1  0.69303065  0.29638296  0.50982230  1
  Ta  Ta124  1  0.59962361  0.60860002  0.20947489  1
  Ta  Ta125  1  0.88723109  0.10071504  0.90206204  1
  Ta  Ta126  1  0.59546603  0.19442886  0.20121948  1
  Ta  Ta127  1  0.88995746  0.28870240  0.68016528  1
  Ta  Ta128  1  0.79692672  0.80221573  0.79951305  1
  Ta  Ta129  1  0.59110895  -0.00300681  0.00010205  1
  Ta  Ta130  1  0.40800300  0.80444973  0.19913286  1
  Ta  Ta131  1  0.50201185  0.09384296  0.10456566  1
  Ta  Ta132  1  0.09879741  0.49947439  0.30232443  1
  Ta  Ta133  1  0.10084702  0.10439249  0.68624914  1
  Ta  Ta134  1  0.50533341  0.29589631  0.49987041  1
  Ta  Ta135  1  0.49896656  0.70367674  0.10142824  1
  Ta  Ta136  1  0.59979042  0.80783870  0.60479746  1
  Ta  Ta137  1  0.40152902  -0.00105857  0.60646553  1
  Ta  Ta138  1  0.00254446  0.80568547  0.59971286  1
  Ta  Ta139  1  0.30979412  0.90162872  0.90303689  1
  Ta  Ta140  1  0.00467278  0.20057133  0.40922853  1
  Ta  Ta141  1  0.79461795  0.39173813  0.00470942  1
  Ta  Ta142  1  0.30617206  0.90149337  0.09689030  1
  Ta  Ta143  1  0.79892659  0.60849616  0.39413976  1
  Ta  Ta144  1  0.31081785  0.50752823  0.10808976  1
  Ta  Ta145  1  0.39226381  0.20141299  0.59935488  1
  Ta  Ta146  1  0.40510452  0.80011922  0.00076578  1
  Ta  Ta147  1  -0.00076291  0.59986916  0.59127130  1
  Ta  Ta148  1  0.31097069  0.89987311  0.70759812  1
  Ta  Ta149  1  0.20304088  0.19836449  0.59253103  1
  Ti  Ti150  1  0.30354794  0.08280242  0.90345785  1
  Ti  Ti151  1  0.20244859  0.60969859  0.19713034  1
  Ti  Ti152  1  0.60078759  0.18795120  0.00468258  1
  Ti  Ti153  1  0.20113242  0.60739318  0.39781633  1
  Ti  Ti154  1  0.58899576  -0.00696652  0.19904574  1
  Ti  Ti155  1  0.20592872  0.40438621  0.20023764  1
  Ti  Ti156  1  0.59591468  0.39237624  0.39635715  1
  Ti  Ti157  1  0.69324196  0.71010317  0.70586731  1
  Ti  Ti158  1  0.29091131  0.72093605  0.49681184  1
  Ti  Ti159  1  0.88411805  0.90400595  0.68659489  1
  Ti  Ti160  1  0.79952614  0.78655697  -0.00745000  1
  Ti  Ti161  1  0.70755637  0.70876708  0.50759083  1
  Ti  Ti162  1  0.40294083  0.20398523  0.39552989  1
  Ti  Ti163  1  0.10677345  0.30335282  0.49958521  1
  Ti  Ti164  1  0.20141619  0.79647006  0.19665568  1
  Ti  Ti165  1  0.41234129  -0.00762341  -0.00079422  1
  Ti  Ti166  1  0.40187588  0.38336300  0.39855777  1
  Ti  Ti167  1  0.89582323  0.69682029  0.10839960  1
  Ti  Ti168  1  0.59022378  0.79817949  0.20693798  1
  Ti  Ti169  1  0.49549605  0.89698813  0.88731310  1
  Ti  Ti170  1  0.60018355  0.19571875  0.39915185  1
  Ti  Ti171  1  0.01253142  0.00592760  0.39834909  1
  Ti  Ti172  1  0.89847044  0.29750586  0.10038383  1
  Ti  Ti173  1  0.50370463  0.70807744  0.50279193  1
  Ti  Ti174  1  0.49704059  0.70493085  0.89842222  1
  Ti  Ti175  1  0.20174808  0.80721587  0.39576998  1
  Ti  Ti176  1  0.89828194  0.09258362  0.30401934  1
  Ti  Ti177  1  0.78716419  0.00849721  0.41422733  1
  Ti  Ti178  1  -0.00141596  0.60185244  0.40375282  1
  Ti  Ti179  1  0.30853117  0.50990014  0.90839205  1
  Ti  Ti180  1  0.40448995  0.19647714  0.21650630  1
  Ti  Ti181  1  0.50237958  0.09742106  0.30089356  1
  Ti  Ti182  1  0.70809526  0.89571128  0.50684303  1
  Ti  Ti183  1  0.20595012  0.18825609  0.79730241  1
  Ti  Ti184  1  0.09929288  0.10750271  0.29898550  1
  Ti  Ti185  1  0.79832393  0.79082468  0.40127669  1
  Ti  Ti186  1  0.31371198  0.69915416  0.10178749  1
  Ti  Ti187  1  -0.00523076  0.61744453  0.20595325  1
  Ti  Ti188  1  0.50288070  0.51607032  0.89524192  1
  Ti  Ti189  1  0.79488892  -0.00078319  0.79346971  1
  Ti  Ti190  1  0.69902038  0.89581840  0.70352131  1
  Ti  Ti191  1  0.68770425  0.70769891  0.89138287  1
  Ti  Ti192  1  0.10046280  0.70517618  0.49922344  1
  Ti  Ti193  1  0.69839830  0.08906093  0.10034048  1
  Ti  Ti194  1  0.01055950  -0.00548682  0.60376729  1
  Ti  Ti195  1  0.40626752  0.61266287  0.20697614  1
  Ti  Ti196  1  -0.01029040  0.39974951  0.78670702  1
  Ti  Ti197  1  0.40939601  -0.00557468  0.20554140  1
  Ti  Ti198  1  0.59315015  -0.00615409  0.79951240  1
  Ti  Ti199  1  0.39580712  0.61122283  0.80906036  1
  Mo  Mo200  1  0.29935308  0.09902005  0.69440115  1
  Mo  Mo201  1  0.80252315  0.00372220  0.19886494  1
  Mo  Mo202  1  0.39964179  0.80261285  0.80810992  1
  Mo  Mo203  1  -0.01255836  0.20009305  0.00062679  1
  Mo  Mo204  1  0.30526087  0.29477069  0.49476871  1
  Mo  Mo205  1  0.20192392  0.39170364  0.57848380  1
  Mo  Mo206  1  -0.00275147  0.79809419  0.19836030  1
  Mo  Mo207  1  0.40134959  -0.00499088  0.80215691  1
  Mo  Mo208  1  0.09270318  0.70163265  0.11058110  1
  Mo  Mo209  1  0.59638616  0.60595866  0.80457784  1
  Mo  Mo210  1  0.50501638  0.08603450  0.90402560  1
  Mo  Mo211  1  0.60048345  0.19498585  0.59704319  1
  Mo  Mo212  1  0.09995815  0.90170811  0.29770653  1
  Mo  Mo213  1  0.21551703  -0.00047926  0.00303288  1
  Mo  Mo214  1  0.80254818  0.39443239  0.59181381  1
  Mo  Mo215  1  0.00843020  0.20045359  0.59186835  1
  Mo  Mo216  1  0.20453264  0.80417526  0.60041490  1
  Mo  Mo217  1  0.50483224  0.90202631  0.29594095  1
  Mo  Mo218  1  0.90313789  0.29785168  0.49723304  1
  Mo  Mo219  1  0.50009222  0.89911659  0.10124768  1
  Mo  Mo220  1  0.49655887  0.70537096  0.29488319  1
  Mo  Mo221  1  0.09725213  0.10127519  0.50127685  1
  Mo  Mo222  1  0.59278311  0.39350342  0.59539364  1
  Mo  Mo223  1  0.30240551  0.89724794  0.49455614  1
  Mo  Mo224  1  0.60419997  0.19240347  0.79980539  1
  Mo  Mo225  1  0.21272448  0.19254154  0.21259602  1
  Mo  Mo226  1  0.79156226  0.80159013  0.60133357  1
  Mo  Mo227  1  -0.00375889  0.40158695  0.20340032  1
  Mo  Mo228  1  0.10804143  0.90125812  0.69174360  1
  Mo  Mo229  1  0.88757765  0.09625168  0.09975853  1
  Mo  Mo230  1  0.78828991  -0.00348037  0.60333957  1
  Mo  Mo231  1  0.49953346  0.29252883  0.30623355  1
  Mo  Mo232  1  0.79615643  0.59803426  0.20241954  1
  Mo  Mo233  1  0.19348976  0.39532705  0.39211945  1
  Mo  Mo234  1  0.50423706  0.90055390  0.50013750  1
  Mo  Mo235  1  0.60094146  0.80507245  0.80427807  1
  Mo  Mo236  1  0.31123453  0.70384044  0.90174343  1
  Mo  Mo237  1  0.69687176  0.69890819  0.30202708  1
  Mo  Mo238  1  0.78717125  0.00849498  0.00200271  1
  Mo  Mo239  1  0.90134076  0.69185500  0.30811073  1
  Mo  Mo240  1  0.79398240  0.19589269  0.59400937  1
  Mo  Mo241  1  0.39927947  0.39779210  0.20578589  1
  Mo  Mo242  1  0.89790957  0.49102172  0.68538677  1
  Mo  Mo243  1  0.79793525  0.19570262  0.79735894  1
  Mo  Mo244  1  0.21056342  0.41077268  0.81553293  1
  Mo  Mo245  1  0.69815604  0.10165078  0.50150744  1
  Mo  Mo246  1  0.89264525  0.70864040  0.89299544  1
  Mo  Mo247  1  0.30998949  0.10409539  0.29965110  1
  Mo  Mo248  1  0.50050030  0.90354717  0.70744977  1
  Mo  Mo249  1  0.39953652  0.60870381  -0.00088747  1
