# generated using pymatgen
data_HfZrTaTiMo
_symmetry_space_group_name_H-M   'P 1'
_cell_length_a   16.88601087
_cell_length_b   16.87956234
_cell_length_c   16.89225952
_cell_angle_alpha   89.96600687
_cell_angle_beta   89.94022313
_cell_angle_gamma   90.02334863
_symmetry_Int_Tables_number   1
_chemical_formula_structural   HfZrTaTiMo
_chemical_formula_sum   'Hf50 Zr50 Ta50 Ti50 Mo50'
_cell_volume   4814.77107060
_cell_formula_units_Z   50
loop_
 _symmetry_equiv_pos_site_id
 _symmetry_equiv_pos_as_xyz
  1  'x, y, z'
loop_
 _atom_site_type_symbol
 _atom_site_label
 _atom_site_symmetry_multiplicity
 _atom_site_fract_x
 _atom_site_fract_y
 _atom_site_fract_z
 _atom_site_occupancy
  Hf  Hf0  1  0.80294112  0.40107009  0.00777660  1
  Hf  Hf1  1  0.50289236  0.50625933  0.30569925  1
  Hf  Hf2  1  0.49185179  0.30820370  0.10386615  1
  Hf  Hf3  1  0.70742479  0.50332291  0.89532265  1
  Hf  Hf4  1  0.80646257  0.79424739  0.80238238  1
  Hf  Hf5  1  0.09511095  0.90455182  0.71101517  1
  Hf  Hf6  1  0.48259664  0.10804021  0.11368298  1
  Hf  Hf7  1  0.09418039  0.29751046  0.09884556  1
  Hf  Hf8  1  0.80767623  0.00602118  -0.02013544  1
  Hf  Hf9  1  0.80114764  0.60777130  -0.00318564  1
  Hf  Hf10  1  0.90167076  0.10257272  0.09894912  1
  Hf  Hf11  1  0.80567169  -0.00737864  0.20784317  1
  Hf  Hf12  1  0.29682085  0.30289352  0.49710232  1
  Hf  Hf13  1  0.50725384  0.89369791  0.48822731  1
  Hf  Hf14  1  0.89781402  0.29563066  0.29809823  1
  Hf  Hf15  1  0.59976739  0.40324117  0.00326045  1
  Hf  Hf16  1  0.60015591  0.60155266  0.60700859  1
  Hf  Hf17  1  0.30565466  0.10305821  0.48201009  1
  Hf  Hf18  1  0.70008770  0.28838826  0.70360101  1
  Hf  Hf19  1  0.39447554  0.21153727  -0.01560998  1
  Hf  Hf20  1  0.90183654  0.49959115  0.89401026  1
  Hf  Hf21  1  0.00496581  0.40166451  0.78663609  1
  Hf  Hf22  1  0.39105501  0.59339282  0.20035649  1
  Hf  Hf23  1  0.40427221  0.00218014  -0.00149809  1
  Hf  Hf24  1  0.19086366  0.58938534  0.18408191  1
  Hf  Hf25  1  0.57862283  -0.00531872  0.20872457  1
  Hf  Hf26  1  0.60260295  0.40330596  0.79507176  1
  Hf  Hf27  1  0.40582276  0.00584641  0.59577527  1
  Hf  Hf28  1  0.20195703  0.01147438  0.59728678  1
  Hf  Hf29  1  0.19854634  0.20142281  -0.00306899  1
  Hf  Hf30  1  0.29390470  0.90663729  0.89298507  1
  Hf  Hf31  1  0.59687353  0.20551775  0.00095753  1
  Hf  Hf32  1  0.89413562  0.29297506  0.10575304  1
  Hf  Hf33  1  0.90660317  0.69603213  0.29408633  1
  Hf  Hf34  1  0.49959216  0.88922997  0.69541950  1
  Hf  Hf35  1  0.39865677  0.00583746  0.79368243  1
  Hf  Hf36  1  0.60369309  0.39620465  0.39760074  1
  Hf  Hf37  1  0.80681528  0.40599949  0.39726076  1
  Hf  Hf38  1  0.59771125  0.60441781  -0.00132950  1
  Hf  Hf39  1  0.09980454  0.30200717  0.89827343  1
  Hf  Hf40  1  0.20185900  0.59580376  0.80307874  1
  Hf  Hf41  1  0.29742555  0.89912634  0.69757063  1
  Hf  Hf42  1  0.69317257  0.90098741  0.30625292  1
  Hf  Hf43  1  0.70688786  0.30025551  0.50548182  1
  Hf  Hf44  1  0.48508851  0.49581895  0.70358184  1
  Hf  Hf45  1  0.28386933  0.50757788  0.31795607  1
  Hf  Hf46  1  0.80035726  0.19533785  0.40380730  1
  Hf  Hf47  1  0.29501726  0.70685057  0.11178994  1
  Hf  Hf48  1  0.60408283  0.60440064  0.80152283  1
  Hf  Hf49  1  0.59815724  0.20339389  0.20606081  1
  Zr  Zr50  1  0.00384828  0.40223148  0.20333975  1
  Zr  Zr51  1  0.89765953  0.89994884  0.50905178  1
  Zr  Zr52  1  0.60783969  0.78398644  0.39916925  1
  Zr  Zr53  1  0.09521177  0.69641462  0.69677536  1
  Zr  Zr54  1  0.91009766  0.09365337  0.50095532  1
  Zr  Zr55  1  0.40527363  0.19456445  0.59457223  1
  Zr  Zr56  1  0.29961990  0.10611109  0.10777557  1
  Zr  Zr57  1  0.39271735  0.59691450  0.59146982  1
  Zr  Zr58  1  0.71081004  0.89526032  0.68877067  1
  Zr  Zr59  1  0.69893925  0.90228235  0.09230748  1
  Zr  Zr60  1  0.60407361  0.78863216  0.80278425  1
  Zr  Zr61  1  0.60359091  0.01202438  0.58666212  1
  Zr  Zr62  1  0.30905019  0.29680174  0.69834116  1
  Zr  Zr63  1  0.90692312  0.89525629  0.08182355  1
  Zr  Zr64  1  0.09896565  0.09237094  0.89129594  1
  Zr  Zr65  1  0.30868272  0.10302346  0.29331530  1
  Zr  Zr66  1  0.30166500  0.90335258  0.11137157  1
  Zr  Zr67  1  0.50796443  0.11702115  0.71563279  1
  Zr  Zr68  1  0.38792151  0.59995432  0.00513280  1
  Zr  Zr69  1  0.80842797  0.40661441  0.60589542  1
  Zr  Zr70  1  0.90389159  0.70338085  0.10351027  1
  Zr  Zr71  1  0.59196007  0.19333761  0.40458351  1
  Zr  Zr72  1  0.19718817  0.39837179  0.20674270  1
  Zr  Zr73  1  0.10637066  0.50406031  0.49740911  1
  Zr  Zr74  1  0.59823567  0.79584184  -0.00526692  1
  Zr  Zr75  1  0.08982173  0.91126332  0.49429528  1
  Zr  Zr76  1  0.08740546  0.89872410  0.90027589  1
  Zr  Zr77  1  0.20137811  0.79156757  -0.00336263  1
  Zr  Zr78  1  0.10013900  0.69765473  0.29731807  1
  Zr  Zr79  1  0.81334260  0.17818625  0.80332536  1
  Zr  Zr80  1  0.68752118  0.09998148  0.89536045  1
  Zr  Zr81  1  0.90010362  0.29142885  0.69349961  1
  Zr  Zr82  1  0.80446725  0.79550026  0.39540836  1
  Zr  Zr83  1  0.70146292  0.10140532  0.10379624  1
  Zr  Zr84  1  0.40146719  0.79916689  -0.00097702  1
  Zr  Zr85  1  0.30794133  0.90076448  0.48542802  1
  Zr  Zr86  1  0.19735763  0.79954281  0.58994745  1
  Zr  Zr87  1  0.29981554  0.30574939  0.10017481  1
  Zr  Zr88  1  0.39878600  0.40214662  0.39838490  1
  Zr  Zr89  1  -0.00150973  -0.00292107  0.20626687  1
  Zr  Zr90  1  0.19836948  0.39942542  0.79447857  1
  Zr  Zr91  1  0.79768128  0.60117021  0.39651237  1
  Zr  Zr92  1  0.70130009  0.50505269  0.50773268  1
  Zr  Zr93  1  0.60008010  0.19866123  0.59268348  1
  Zr  Zr94  1  0.70741637  0.29971219  0.89717395  1
  Zr  Zr95  1  0.49344067  0.69777684  0.30293788  1
  Zr  Zr96  1  0.60257993  -0.00614432  0.79880465  1
  Zr  Zr97  1  0.19716856  0.00372522  0.00546871  1
  Zr  Zr98  1  0.00525874  0.59614235  0.00671359  1
  Zr  Zr99  1  0.30041516  0.69575766  0.69844548  1
  Ta  Ta100  1  -0.00086452  0.59617201  0.79144576  1
  Ta  Ta101  1  0.00885497  0.40154481  0.60164993  1
  Ta  Ta102  1  0.19228937  -0.00253077  0.20834739  1
  Ta  Ta103  1  0.00390687  0.19638805  0.20905043  1
  Ta  Ta104  1  0.09832402  0.50258276  0.31126565  1
  Ta  Ta105  1  0.09328641  0.70842690  0.10204765  1
  Ta  Ta106  1  0.19851323  0.80132500  0.39694989  1
  Ta  Ta107  1  0.70651825  0.29766147  0.29403637  1
  Ta  Ta108  1  0.49773225  0.70213439  0.10806929  1
  Ta  Ta109  1  0.18829172  0.20005325  0.20993843  1
  Ta  Ta110  1  0.10182477  0.50105998  0.90360107  1
  Ta  Ta111  1  -0.00570746  0.79726071  0.60655224  1
  Ta  Ta112  1  0.59826097  0.79893180  0.19699002  1
  Ta  Ta113  1  0.69824337  0.09721647  0.30335055  1
  Ta  Ta114  1  0.29802498  0.10724170  0.88389185  1
  Ta  Ta115  1  0.79993758  -0.00041862  0.40148517  1
  Ta  Ta116  1  -0.00168319  0.40185097  0.00174180  1
  Ta  Ta117  1  0.70085045  0.50425816  0.10667584  1
  Ta  Ta118  1  0.29978417  0.49791258  0.90566553  1
  Ta  Ta119  1  0.41808393  -0.00547759  0.37560867  1
  Ta  Ta120  1  0.71368140  0.70321697  0.51893501  1
  Ta  Ta121  1  0.09592966  0.09618153  0.30860777  1
  Ta  Ta122  1  0.49767382  0.89866295  0.89637612  1
  Ta  Ta123  1  0.90892016  0.50592030  0.50757514  1
  Ta  Ta124  1  0.09386734  0.89538567  0.09847196  1
  Ta  Ta125  1  0.49990031  0.49988587  0.50105698  1
  Ta  Ta126  1  0.39417785  0.41040384  0.20223803  1
  Ta  Ta127  1  0.29631796  0.70655256  0.30508552  1
  Ta  Ta128  1  0.90684014  0.29719659  0.90034257  1
  Ta  Ta129  1  0.90245672  0.69430334  0.51246642  1
  Ta  Ta130  1  0.70008795  0.70024201  0.10264605  1
  Ta  Ta131  1  -0.00121140  0.60126427  0.40395340  1
  Ta  Ta132  1  0.19591122  0.39987836  0.60551894  1
  Ta  Ta133  1  0.49073950  0.69678431  0.70164806  1
  Ta  Ta134  1  0.90227716  0.90458527  0.70433646  1
  Ta  Ta135  1  0.79529820  0.80027127  0.20282641  1
  Ta  Ta136  1  0.39485992  0.79326479  0.80360323  1
  Ta  Ta137  1  0.60102650  0.40310586  0.20211214  1
  Ta  Ta138  1  0.09552051  0.69708409  0.89854037  1
  Ta  Ta139  1  0.10250653  0.09978156  0.70232417  1
  Ta  Ta140  1  0.01249281  0.19958425  0.59819764  1
  Ta  Ta141  1  0.40112341  0.79204319  0.59059141  1
  Ta  Ta142  1  0.19125835  0.20103142  0.39880428  1
  Ta  Ta143  1  0.00661823  0.20222600  0.40384037  1
  Ta  Ta144  1  0.19987542  0.79384280  0.80365319  1
  Ta  Ta145  1  0.48962685  0.49779216  0.89914518  1
  Ta  Ta146  1  0.70531507  0.89910361  0.50272567  1
  Ta  Ta147  1  0.00311284  0.19787137  0.79292087  1
  Ta  Ta148  1  0.00082161  0.39797893  0.40429174  1
  Ta  Ta149  1  0.89961065  0.50322049  0.11057257  1
  Ti  Ti150  1  0.60954700  0.60456214  0.40424974  1
  Ti  Ti151  1  0.79614019  0.40704767  0.20384173  1
  Ti  Ti152  1  0.60103907  0.60311893  0.19718129  1
  Ti  Ti153  1  0.10426122  0.30268880  0.49908987  1
  Ti  Ti154  1  0.49168905  0.29917661  0.29823088  1
  Ti  Ti155  1  0.19497520  0.19808906  0.59852148  1
  Ti  Ti156  1  0.49841991  0.69719390  0.49952850  1
  Ti  Ti157  1  0.79894258  0.79536893  -0.01031095  1
  Ti  Ti158  1  0.00340935  0.00753067  0.60719347  1
  Ti  Ti159  1  0.60042318  0.78933180  0.60005575  1
  Ti  Ti160  1  0.38895643  0.60812817  0.40965166  1
  Ti  Ti161  1  0.39157889  0.39342599  0.81317407  1
  Ti  Ti162  1  0.91246024  0.90317331  0.89043589  1
  Ti  Ti163  1  0.09304399  0.09721538  0.10281819  1
  Ti  Ti164  1  0.80464962  0.18203615  0.59791216  1
  Ti  Ti165  1  0.91249227  0.70310497  0.89397076  1
  Ti  Ti166  1  0.90820284  0.50603567  0.29780014  1
  Ti  Ti167  1  0.90189777  0.09983214  0.30364789  1
  Ti  Ti168  1  -0.00402156  0.81059787  0.20604717  1
  Ti  Ti169  1  0.20181273  0.20276212  0.79104165  1
  Ti  Ti170  1  0.30443936  0.49557096  0.69996515  1
  Ti  Ti171  1  0.80297641  0.19735875  -0.00499169  1
  Ti  Ti172  1  0.70129111  0.90025934  0.89703293  1
  Ti  Ti173  1  0.80883856  0.40073101  0.79446082  1
  Ti  Ti174  1  0.70604123  0.29851183  0.11078321  1
  Ti  Ti175  1  0.20069765  0.40965326  0.00454516  1
  Ti  Ti176  1  0.19343252  0.81089279  0.20971243  1
  Ti  Ti177  1  0.19822878  0.00032590  0.39303464  1
  Ti  Ti178  1  0.58783226  -0.00283529  0.00246699  1
  Ti  Ti179  1  0.71025872  0.09177939  0.69949307  1
  Ti  Ti180  1  -0.00205528  0.79905791  0.40305597  1
  Ti  Ti181  1  0.49570607  0.30490692  0.70216123  1
  Ti  Ti182  1  0.90520804  0.30012149  0.50328593  1
  Ti  Ti183  1  0.20109132  0.59701724  0.59756668  1
  Ti  Ti184  1  -0.00282025  0.19517751  -0.00596968  1
  Ti  Ti185  1  0.71755267  0.69403870  0.69723403  1
  Ti  Ti186  1  0.49735647  0.49974971  0.10047640  1
  Ti  Ti187  1  0.49331850  0.30975961  0.50460962  1
  Ti  Ti188  1  0.69572640  0.50350927  0.29429631  1
  Ti  Ti189  1  0.40620139  0.81499263  0.21314244  1
  Ti  Ti190  1  0.29798442  0.29704703  0.30579098  1
  Ti  Ti191  1  0.09518471  0.69752821  0.49960583  1
  Ti  Ti192  1  0.50001266  0.30318933  0.89014163  1
  Ti  Ti193  1  0.71659622  0.50991970  0.70387900  1
  Ti  Ti194  1  0.79601723  0.60136797  0.20138387  1
  Ti  Ti195  1  0.59782964  0.40320358  0.60451368  1
  Ti  Ti196  1  0.49935578  0.10623904  0.89560126  1
  Ti  Ti197  1  0.29270898  0.49492275  0.49904641  1
  Ti  Ti198  1  0.48402123  0.69032387  0.89380571  1
  Ti  Ti199  1  0.09305272  0.90236869  0.30762861  1
  Mo  Mo200  1  0.00235654  0.59296266  0.20418461  1
  Mo  Mo201  1  0.29348701  0.69538329  0.89637609  1
  Mo  Mo202  1  0.19517011  0.59690802  -0.00274092  1
  Mo  Mo203  1  0.80728784  0.79867160  0.60480288  1
  Mo  Mo204  1  0.00198270  0.79563247  -0.00616731  1
  Mo  Mo205  1  0.29337131  0.30471920  0.89801457  1
  Mo  Mo206  1  0.10460317  0.10427615  0.49808310  1
  Mo  Mo207  1  0.90269906  0.69997656  0.70143853  1
  Mo  Mo208  1  0.71154586  0.69941329  0.90323594  1
  Mo  Mo209  1  0.39845428  -0.01332728  0.20312830  1
  Mo  Mo210  1  0.29215341  0.10464420  0.70324608  1
  Mo  Mo211  1  -0.00267029  0.79353220  0.79844825  1
  Mo  Mo212  1  0.00046482  0.59891603  0.59931079  1
  Mo  Mo213  1  -0.00093969  0.00077526  -0.00021992  1
  Mo  Mo214  1  0.39597508  0.79554196  0.39970316  1
  Mo  Mo215  1  0.90027610  0.89419427  0.30835828  1
  Mo  Mo216  1  0.40375589  0.20407642  0.39735876  1
  Mo  Mo217  1  0.40101849  0.40523263  -0.00433621  1
  Mo  Mo218  1  0.19283429  0.38911128  0.40389857  1
  Mo  Mo219  1  0.20311844  0.00482375  0.79140067  1
  Mo  Mo220  1  0.80643827  -0.00846746  0.79750835  1
  Mo  Mo221  1  0.39532500  0.59574720  0.80489751  1
  Mo  Mo222  1  0.39403138  0.22107362  0.20996345  1
  Mo  Mo223  1  0.19723930  0.61403131  0.40982847  1
  Mo  Mo224  1  -0.00308978  0.00300446  0.39609943  1
  Mo  Mo225  1  0.60351842  0.00235296  0.39740791  1
  Mo  Mo226  1  0.09664521  0.29660512  0.30712278  1
  Mo  Mo227  1  0.90844396  0.09288441  0.69597170  1
  Mo  Mo228  1  0.29700057  0.49522462  0.09350112  1
  Mo  Mo229  1  0.69937433  0.69395359  0.28214902  1
  Mo  Mo230  1  0.39781219  0.40357169  0.59518109  1
  Mo  Mo231  1  0.79896857  0.19289788  0.20855662  1
  Mo  Mo232  1  0.80989132  0.60200144  0.61047408  1
  Mo  Mo233  1  -0.00901538  0.00773989  0.79576582  1
  Mo  Mo234  1  0.59667256  0.21142867  0.80320984  1
  Mo  Mo235  1  0.29423684  0.70023568  0.49398699  1
  Mo  Mo236  1  0.29423519  0.89896049  0.30095783  1
  Mo  Mo237  1  0.09794590  0.49517219  0.09405695  1
  Mo  Mo238  1  0.70910680  0.09303954  0.49639054  1
  Mo  Mo239  1  0.49495093  0.09178975  0.48193308  1
  Mo  Mo240  1  0.49680045  0.10968050  0.29975347  1
  Mo  Mo241  1  0.49898951  0.89485047  0.09857799  1
  Mo  Mo242  1  0.80876058  0.60572581  0.79852018  1
  Mo  Mo243  1  0.91202491  0.10076072  0.90157812  1
  Mo  Mo244  1  0.80140389  0.00120098  0.59989089  1
  Mo  Mo245  1  0.50334026  0.88780374  0.30108878  1
  Mo  Mo246  1  0.90608830  0.50745332  0.69717315  1
  Mo  Mo247  1  0.10239876  0.50166436  0.69377578  1
  Mo  Mo248  1  0.39964081  0.20760666  0.80393832  1
  Mo  Mo249  1  0.10271410  0.29277317  0.69116329  1
