# generated using pymatgen
data_HfZrTaTiMo
_symmetry_space_group_name_H-M   'P 1'
_cell_length_a   16.88390617
_cell_length_b   16.88773744
_cell_length_c   16.89212391
_cell_angle_alpha   89.95208054
_cell_angle_beta   89.92478038
_cell_angle_gamma   89.86818507
_symmetry_Int_Tables_number   1
_chemical_formula_structural   HfZrTaTiMo
_chemical_formula_sum   'Hf50 Zr50 Ta50 Ti50 Mo50'
_cell_volume   4816.44917728
_cell_formula_units_Z   50
loop_
 _symmetry_equiv_pos_site_id
 _symmetry_equiv_pos_as_xyz
  1  'x, y, z'
loop_
 _atom_site_type_symbol
 _atom_site_label
 _atom_site_symmetry_multiplicity
 _atom_site_fract_x
 _atom_site_fract_y
 _atom_site_fract_z
 _atom_site_occupancy
  Hf  Hf0  1  0.70064796  0.30318852  0.90640944  1
  Hf  Hf1  1  0.79886259  0.39762482  0.59581381  1
  Hf  Hf2  1  0.39999231  0.40551120  0.40887808  1
  Hf  Hf3  1  0.78425447  0.62951596  0.00270284  1
  Hf  Hf4  1  0.89744069  0.89243889  0.70256406  1
  Hf  Hf5  1  0.30906040  0.30122903  0.89966885  1
  Hf  Hf6  1  0.10100036  0.09959267  0.50422910  1
  Hf  Hf7  1  0.70383470  0.89839757  0.49952399  1
  Hf  Hf8  1  0.10210054  0.69644904  0.90350059  1
  Hf  Hf9  1  0.40039835  0.80161790  0.00122143  1
  Hf  Hf10  1  0.39849540  0.19508237  0.39872786  1
  Hf  Hf11  1  0.80899007  0.00947098  0.40014865  1
  Hf  Hf12  1  0.20309908  0.19762914  0.00286289  1
  Hf  Hf13  1  0.70447916  0.50225777  0.30108393  1
  Hf  Hf14  1  0.79963850  0.00556661  0.59541817  1
  Hf  Hf15  1  0.80933767  -0.00095743  0.19684204  1
  Hf  Hf16  1  0.70512250  0.89848978  0.29223990  1
  Hf  Hf17  1  0.39970785  0.79887234  0.39855907  1
  Hf  Hf18  1  0.89048687  0.50441315  0.09638162  1
  Hf  Hf19  1  0.80189367  0.79187332  0.59979550  1
  Hf  Hf20  1  0.70086322  0.28794703  0.29111731  1
  Hf  Hf21  1  0.50772045  0.29114058  0.29840790  1
  Hf  Hf22  1  0.18877047  0.21435489  0.60922496  1
  Hf  Hf23  1  0.50283220  0.10333532  0.90045871  1
  Hf  Hf24  1  0.39611158  -0.00846458  0.80893786  1
  Hf  Hf25  1  0.40355838  0.00388401  0.38974129  1
  Hf  Hf26  1  0.00662393  0.40482015  0.38831458  1
  Hf  Hf27  1  0.50855098  0.10274484  0.50128528  1
  Hf  Hf28  1  0.91498869  0.48098361  0.69876047  1
  Hf  Hf29  1  0.29295858  0.71004498  0.30244593  1
  Hf  Hf30  1  0.20730535  0.79494235  0.00638188  1
  Hf  Hf31  1  0.39834098  -0.00491841  0.60582697  1
  Hf  Hf32  1  0.59763904  0.79576632  0.39385784  1
  Hf  Hf33  1  0.19292611  0.21067693  0.79951848  1
  Hf  Hf34  1  0.29934341  0.90651590  0.10896700  1
  Hf  Hf35  1  0.70358429  0.50564071  0.49255727  1
  Hf  Hf36  1  0.40765777  0.59979361  0.79593777  1
  Hf  Hf37  1  0.29975295  0.30217447  0.29750436  1
  Hf  Hf38  1  0.31924466  0.30735747  0.70954841  1
  Hf  Hf39  1  0.09836085  0.10037502  0.29750158  1
  Hf  Hf40  1  -0.00221986  0.60715179  0.20614026  1
  Hf  Hf41  1  0.39920954  0.18931073  0.19681233  1
  Hf  Hf42  1  0.01052013  0.59488618  0.59557323  1
  Hf  Hf43  1  0.29829227  0.10231515  0.70792960  1
  Hf  Hf44  1  0.89104269  0.49925275  0.90924494  1
  Hf  Hf45  1  0.60485206  -0.00640015  0.00530433  1
  Hf  Hf46  1  0.29307597  0.89475638  0.49331039  1
  Hf  Hf47  1  0.89328530  0.89116070  0.91464658  1
  Hf  Hf48  1  0.09437046  0.29902352  0.10538542  1
  Hf  Hf49  1  0.79169985  -0.00683492  0.80714786  1
  Zr  Zr50  1  0.29290954  0.09938722  0.50420793  1
  Zr  Zr51  1  0.69498391  0.10083370  0.70206819  1
  Zr  Zr52  1  -0.01146072  0.20736148  0.80091917  1
  Zr  Zr53  1  0.59492758  0.79176825  0.60515508  1
  Zr  Zr54  1  0.60592036  0.39262298  0.40700607  1
  Zr  Zr55  1  0.69993081  0.29718438  0.69734873  1
  Zr  Zr56  1  0.50567967  0.50801763  0.30342751  1
  Zr  Zr57  1  0.80811861  0.78870294  0.39295043  1
  Zr  Zr58  1  -0.00239835  0.19768243  0.40366119  1
  Zr  Zr59  1  0.62042160  0.78851641  -0.00128056  1
  Zr  Zr60  1  0.88840183  0.09698454  0.91902585  1
  Zr  Zr61  1  0.39279694  0.61112798  -0.00713840  1
  Zr  Zr62  1  0.29950406  0.30423678  0.50347162  1
  Zr  Zr63  1  0.59508139  0.40050612  0.60367831  1
  Zr  Zr64  1  0.09010167  0.30738762  0.90642058  1
  Zr  Zr65  1  0.09757762  0.09547656  0.90604491  1
  Zr  Zr66  1  0.29876692  0.50463831  0.30087475  1
  Zr  Zr67  1  0.09402329  0.51176749  0.08613031  1
  Zr  Zr68  1  -0.00165563  -0.00770061  0.20095581  1
  Zr  Zr69  1  0.10105209  0.09300503  0.10245517  1
  Zr  Zr70  1  0.20428979  0.80076542  0.60235994  1
  Zr  Zr71  1  -0.00570485  -0.00323724  0.80360380  1
  Zr  Zr72  1  0.19568488  0.61122810  0.19287549  1
  Zr  Zr73  1  0.80378473  0.20291959  0.80037332  1
  Zr  Zr74  1  0.50211577  0.10507379  0.70765236  1
  Zr  Zr75  1  0.49799054  0.29883225  0.09044418  1
  Zr  Zr76  1  0.40071922  0.79068611  0.80257615  1
  Zr  Zr77  1  0.59264414  0.59166313  0.61235727  1
  Zr  Zr78  1  0.10886620  0.70785838  0.49013767  1
  Zr  Zr79  1  0.90066301  0.29196372  0.29069864  1
  Zr  Zr80  1  0.00097007  0.59219049  0.80277594  1
  Zr  Zr81  1  0.19546527  0.40890247  0.60215998  1
  Zr  Zr82  1  0.09659621  0.89233474  0.90865199  1
  Zr  Zr83  1  0.69364179  0.50383452  0.90525453  1
  Zr  Zr84  1  0.19176926  0.41023091  0.79911542  1
  Zr  Zr85  1  0.60591556  0.00389463  0.39570658  1
  Zr  Zr86  1  0.49329707  0.29941150  0.89596938  1
  Zr  Zr87  1  0.49749577  0.89753855  0.50399900  1
  Zr  Zr88  1  0.69927747  0.68717293  0.49533413  1
  Zr  Zr89  1  0.18909417  0.40862298  0.20363145  1
  Zr  Zr90  1  0.40388930  0.41215599  0.19048979  1
  Zr  Zr91  1  0.90200382  0.69586961  0.69980341  1
  Zr  Zr92  1  0.30266293  0.30540762  0.09464054  1
  Zr  Zr93  1  0.10867861  0.70162416  0.70551172  1
  Zr  Zr94  1  0.50798135  0.89469091  0.90073086  1
  Zr  Zr95  1  0.60635939  0.60424823  0.19095199  1
  Zr  Zr96  1  0.10059791  0.09222838  0.70547474  1
  Zr  Zr97  1  0.10222925  0.88922818  0.30809731  1
  Zr  Zr98  1  0.60582144  0.39854677  0.18575940  1
  Zr  Zr99  1  -0.00139559  -0.00225121  0.59827728  1
  Ta  Ta100  1  0.71441519  0.89649941  0.09667982  1
  Ta  Ta101  1  0.30235240  0.50705902  0.69298156  1
  Ta  Ta102  1  0.20192464  0.60056077  0.40148735  1
  Ta  Ta103  1  0.90631436  0.89289459  0.49500649  1
  Ta  Ta104  1  0.70985657  0.10307724  0.09921288  1
  Ta  Ta105  1  -0.00309205  0.40340788  0.19937789  1
  Ta  Ta106  1  0.79773814  0.59653241  0.79731335  1
  Ta  Ta107  1  0.49405732  0.69483867  0.50065246  1
  Ta  Ta108  1  0.80300576  0.60727267  0.20144762  1
  Ta  Ta109  1  0.50371646  0.29370095  0.50143225  1
  Ta  Ta110  1  0.19260107  0.80118574  0.19468585  1
  Ta  Ta111  1  0.40334700  0.80108566  0.19714981  1
  Ta  Ta112  1  0.49875054  0.69830527  0.29756181  1
  Ta  Ta113  1  0.79927962  0.40102365  0.79731023  1
  Ta  Ta114  1  0.20124616  0.40931569  -0.00165940  1
  Ta  Ta115  1  -0.00974307  0.39719129  0.00741570  1
  Ta  Ta116  1  0.79957137  0.39543125  0.19111983  1
  Ta  Ta117  1  0.39354655  0.60420181  0.40556587  1
  Ta  Ta118  1  0.40099091  -0.00016951  0.00603515  1
  Ta  Ta119  1  -0.00779121  0.00031979  0.40201990  1
  Ta  Ta120  1  0.19372312  0.20848780  0.39480979  1
  Ta  Ta121  1  0.89914262  0.30152411  0.49815331  1
  Ta  Ta122  1  -0.00959699  0.20674736  0.60232728  1
  Ta  Ta123  1  0.69698732  0.89170971  0.70444307  1
  Ta  Ta124  1  0.39906275  0.60949655  0.19328718  1
  Ta  Ta125  1  0.50257837  0.89351984  0.70231746  1
  Ta  Ta126  1  0.79526823  0.19608340  0.40852183  1
  Ta  Ta127  1  0.81739429  0.59870683  0.39168461  1
  Ta  Ta128  1  0.40851172  0.20571080  0.60647673  1
  Ta  Ta129  1  0.60410552  -0.00306362  0.60549791  1
  Ta  Ta130  1  0.29578952  0.90511223  0.29486920  1
  Ta  Ta131  1  0.60511306  0.20000583  0.00633546  1
  Ta  Ta132  1  0.79216752  0.79048104  0.81233296  1
  Ta  Ta133  1  0.00373528  0.80147839  0.59692434  1
  Ta  Ta134  1  0.80799478  0.78951315  0.19745588  1
  Ta  Ta135  1  0.59423386  0.41173663  0.79168806  1
  Ta  Ta136  1  -0.01517011  0.20240737  0.01502148  1
  Ta  Ta137  1  0.80325623  0.39509943  0.39756316  1
  Ta  Ta138  1  0.60269375  -0.00314128  0.19241163  1
  Ta  Ta139  1  0.90562056  0.88568871  0.09779913  1
  Ta  Ta140  1  0.69866107  0.10053101  0.90946388  1
  Ta  Ta141  1  0.06568528  0.32965270  0.69909190  1
  Ta  Ta142  1  0.19761815  0.20099905  0.20378140  1
  Ta  Ta143  1  0.10545854  0.50338029  0.49466123  1
  Ta  Ta144  1  0.00483452  0.60210280  0.39148087  1
  Ta  Ta145  1  0.70086812  0.10694454  0.29123345  1
  Ta  Ta146  1  0.50323430  0.70408763  0.09985805  1
  Ta  Ta147  1  0.29005228  0.09307505  0.29347503  1
  Ta  Ta148  1  0.69975780  0.69278727  0.70467515  1
  Ta  Ta149  1  0.50362476  0.51199672  0.08315604  1
  Ti  Ti150  1  0.19822189  0.59171704  0.79101869  1
  Ti  Ti151  1  0.59779920  0.40269029  -0.00155411  1
  Ti  Ti152  1  0.30198745  0.88910063  0.70552659  1
  Ti  Ti153  1  0.60325958  0.79124395  0.79870730  1
  Ti  Ti154  1  0.41111682  0.00013314  0.19844569  1
  Ti  Ti155  1  0.51655746  0.68849379  0.90333100  1
  Ti  Ti156  1  0.29396973  0.09038468  0.10890351  1
  Ti  Ti157  1  0.80338360  0.19736394  0.59106829  1
  Ti  Ti158  1  0.30051661  0.09892362  0.89841560  1
  Ti  Ti159  1  0.60541574  0.20311246  0.59353417  1
  Ti  Ti160  1  0.29251234  0.50742962  0.89850718  1
  Ti  Ti161  1  0.80477534  0.59320992  0.60301255  1
  Ti  Ti162  1  0.50089842  0.89861822  0.29018674  1
  Ti  Ti163  1  -0.00682603  -0.00339049  0.01339755  1
  Ti  Ti164  1  0.49925172  0.50800203  0.49825748  1
  Ti  Ti165  1  0.69776418  0.69408679  0.30048026  1
  Ti  Ti166  1  0.60528456  -0.00868723  0.80343165  1
  Ti  Ti167  1  0.19630660  0.40390806  0.39845019  1
  Ti  Ti168  1  0.20659039  -0.00676261  -0.00040382  1
  Ti  Ti169  1  0.91008539  0.69852169  0.49531289  1
  Ti  Ti170  1  0.28463564  0.69901338  0.88735890  1
  Ti  Ti171  1  0.29634771  0.51182784  0.08980520  1
  Ti  Ti172  1  0.51616500  0.10577798  0.29284805  1
  Ti  Ti173  1  0.39639389  0.60357899  0.59716860  1
  Ti  Ti174  1  0.19673210  0.00169519  0.39829506  1
  Ti  Ti175  1  0.90899993  0.88567906  0.30074374  1
  Ti  Ti176  1  0.40800543  0.40748959  0.59961128  1
  Ti  Ti177  1  0.39701621  0.18434038  0.00337240  1
  Ti  Ti178  1  0.08845322  0.71029374  0.09621465  1
  Ti  Ti179  1  0.41127640  0.41756045  0.80003730  1
  Ti  Ti180  1  0.09826544  0.89813132  0.49381277  1
  Ti  Ti181  1  0.09526984  0.50325464  0.90708125  1
  Ti  Ti182  1  0.40070282  0.41855855  -0.00920767  1
  Ti  Ti183  1  -0.01433953  0.61601169  -0.00055013  1
  Ti  Ti184  1  0.59543136  0.59230207  0.79342573  1
  Ti  Ti185  1  0.09351314  0.30707685  0.50001995  1
  Ti  Ti186  1  0.88958723  0.30610480  0.91309998  1
  Ti  Ti187  1  0.90410691  0.49881484  0.49472190  1
  Ti  Ti188  1  0.89884355  0.10949067  0.29029835  1
  Ti  Ti189  1  0.29997031  0.69787567  0.69522734  1
  Ti  Ti190  1  0.19845026  -0.00892233  0.60737560  1
  Ti  Ti191  1  0.59721084  0.21034031  0.80145782  1
  Ti  Ti192  1  0.10130210  0.89115392  0.71138923  1
  Ti  Ti193  1  -0.00641245  0.79214238  0.80808957  1
  Ti  Ti194  1  0.20638497  -0.01709709  0.80945493  1
  Ti  Ti195  1  0.89781101  0.10097416  0.69789850  1
  Ti  Ti196  1  0.59939506  0.80410488  0.19424468  1
  Ti  Ti197  1  0.70298287  0.50060252  0.09165249  1
  Ti  Ti198  1  0.50892751  0.09875850  0.10153642  1
  Ti  Ti199  1  0.89731516  0.49714713  0.29451288  1
  Mo  Mo200  1  0.20679963  0.80359146  0.80179608  1
  Mo  Mo201  1  0.20250957  0.60200854  -0.00620189  1
  Mo  Mo202  1  0.70410486  0.29377430  0.49673161  1
  Mo  Mo203  1  0.00129607  0.79578228  0.19997405  1
  Mo  Mo204  1  0.90105320  0.70424268  0.10090326  1
  Mo  Mo205  1  0.80156469  0.19695432  0.19448415  1
  Mo  Mo206  1  0.79514448  0.39358641  0.00666543  1
  Mo  Mo207  1  0.09933604  0.50326916  0.30472615  1
  Mo  Mo208  1  0.79647043  -0.00241116  0.00713256  1
  Mo  Mo209  1  0.90022173  0.10464868  0.50322105  1
  Mo  Mo210  1  0.60678137  0.19645573  0.40286580  1
  Mo  Mo211  1  0.50265331  0.89966471  0.10625257  1
  Mo  Mo212  1  0.10249209  0.50140998  0.69402595  1
  Mo  Mo213  1  0.30468218  0.69755122  0.50210596  1
  Mo  Mo214  1  0.50235778  0.50043554  0.89982776  1
  Mo  Mo215  1  0.19990200  -0.00281352  0.20163634  1
  Mo  Mo216  1  0.59978035  0.60316093  0.00207172  1
  Mo  Mo217  1  -0.00152080  0.20117549  0.19859758  1
  Mo  Mo218  1  0.58985448  0.60341230  0.39839047  1
  Mo  Mo219  1  0.10071307  0.70123676  0.30039435  1
  Mo  Mo220  1  0.00062732  0.79794056  0.40236450  1
  Mo  Mo221  1  0.29833608  0.90494914  0.90801114  1
  Mo  Mo222  1  -0.01040722  0.40240555  0.82055445  1
  Mo  Mo223  1  0.20334735  0.80153498  0.39646109  1
  Mo  Mo224  1  0.80132876  0.79894578  0.00242525  1
  Mo  Mo225  1  0.29884483  0.50714900  0.50314719  1
  Mo  Mo226  1  0.49969952  0.69839610  0.69904667  1
  Mo  Mo227  1  0.70953343  0.50086945  0.70450946  1
  Mo  Mo228  1  -0.00169147  0.79288495  0.00424775  1
  Mo  Mo229  1  0.10220212  0.30113956  0.29730703  1
  Mo  Mo230  1  0.39929254  0.19237025  0.80183252  1
  Mo  Mo231  1  0.70084893  0.89841503  0.89788854  1
  Mo  Mo232  1  0.70447878  0.29653744  0.09464867  1
  Mo  Mo233  1  0.70017822  0.71001612  0.11859145  1
  Mo  Mo234  1  0.50027257  0.30420921  0.69778612  1
  Mo  Mo235  1  0.89868649  0.10460531  0.10558532  1
  Mo  Mo236  1  0.09939889  0.89546114  0.09945284  1
  Mo  Mo237  1  0.89693904  0.69906913  0.89969242  1
  Mo  Mo238  1  0.39886392  0.79103989  0.60574457  1
  Mo  Mo239  1  0.69406667  0.69484367  0.88131545  1
  Mo  Mo240  1  0.30509623  0.70694841  0.10673561  1
  Mo  Mo241  1  -0.00225517  0.40240941  0.57540989  1
  Mo  Mo242  1  0.79664075  0.20258108  0.00710441  1
  Mo  Mo243  1  0.89687121  0.30248095  0.10210880  1
  Mo  Mo244  1  0.89656983  0.30068170  0.69119557  1
  Mo  Mo245  1  0.20924636  0.59841225  0.59482019  1
  Mo  Mo246  1  0.60159644  0.18917774  0.19096899  1
  Mo  Mo247  1  0.69913974  0.10323195  0.50045150  1
  Mo  Mo248  1  0.48825277  0.50067560  0.69688489  1
  Mo  Mo249  1  0.90749653  0.69956188  0.29832713  1
