# generated using pymatgen
data_HfZrTaTiMo
_symmetry_space_group_name_H-M   'P 1'
_cell_length_a   16.89028577
_cell_length_b   16.88866827
_cell_length_c   16.89214243
_cell_angle_alpha   89.98742147
_cell_angle_beta   89.97701244
_cell_angle_gamma   90.02674473
_symmetry_Int_Tables_number   1
_chemical_formula_structural   HfZrTaTiMo
_chemical_formula_sum   'Hf50 Zr50 Ta50 Ti50 Mo50'
_cell_volume   4818.55748943
_cell_formula_units_Z   50
loop_
 _symmetry_equiv_pos_site_id
 _symmetry_equiv_pos_as_xyz
  1  'x, y, z'
loop_
 _atom_site_type_symbol
 _atom_site_label
 _atom_site_symmetry_multiplicity
 _atom_site_fract_x
 _atom_site_fract_y
 _atom_site_fract_z
 _atom_site_occupancy
  Hf  Hf0  1  0.79461925  0.80158089  0.20364498  1
  Hf  Hf1  1  0.60132101  0.20607973  0.19490228  1
  Hf  Hf2  1  0.80511963  0.19749197  0.00166121  1
  Hf  Hf3  1  0.19965319  0.40225083  0.18809720  1
  Hf  Hf4  1  0.40277837  0.60696918  0.79832219  1
  Hf  Hf5  1  0.50137232  0.09907770  0.09423687  1
  Hf  Hf6  1  0.30062586  0.90333760  0.89665965  1
  Hf  Hf7  1  0.80070822  0.20127212  0.19702394  1
  Hf  Hf8  1  0.20400000  0.19801379  0.60607126  1
  Hf  Hf9  1  0.79548129  0.80553492  0.60652296  1
  Hf  Hf10  1  0.41247979  0.19844987  0.60322705  1
  Hf  Hf11  1  0.79603618  0.61929978  0.38774146  1
  Hf  Hf12  1  0.69539965  0.49247702  0.30975366  1
  Hf  Hf13  1  0.79900102  0.60785495  0.20406791  1
  Hf  Hf14  1  0.19417349  0.19785341  0.19982512  1
  Hf  Hf15  1  -0.00281215  0.19406762  0.79077612  1
  Hf  Hf16  1  0.69909172  0.49831144  0.49588069  1
  Hf  Hf17  1  0.59927730  0.39532459  -0.00858497  1
  Hf  Hf18  1  0.40207890  -0.00341684  0.00344074  1
  Hf  Hf19  1  0.89782204  0.09294312  0.29496480  1
  Hf  Hf20  1  0.49626945  0.50106283  0.09608008  1
  Hf  Hf21  1  0.21302029  0.39904759  0.60037593  1
  Hf  Hf22  1  0.09919312  0.50164321  0.69736585  1
  Hf  Hf23  1  0.49574161  0.30603877  0.30238236  1
  Hf  Hf24  1  0.49976594  0.89998632  0.49124652  1
  Hf  Hf25  1  0.09129201  0.50234855  0.90738019  1
  Hf  Hf26  1  -0.00820235  0.38853203  0.60069154  1
  Hf  Hf27  1  0.79934800  0.38002225  0.59123218  1
  Hf  Hf28  1  0.19962942  0.00352785  0.00584323  1
  Hf  Hf29  1  0.10377831  0.08780032  0.51058802  1
  Hf  Hf30  1  0.92114424  0.72447880  0.30005420  1
  Hf  Hf31  1  -0.00131547  0.79967502  0.60403113  1
  Hf  Hf32  1  0.30558584  0.10098709  0.49565416  1
  Hf  Hf33  1  0.30054371  0.90272207  0.49907275  1
  Hf  Hf34  1  0.59945018  0.19838147  0.60384095  1
  Hf  Hf35  1  0.10349885  0.49786587  0.50298126  1
  Hf  Hf36  1  0.59113194  0.60179710  0.60571668  1
  Hf  Hf37  1  0.30793932  0.49357602  0.89813507  1
  Hf  Hf38  1  0.70328857  0.08711615  0.09663667  1
  Hf  Hf39  1  0.89956439  0.30488408  0.30442348  1
  Hf  Hf40  1  0.39842860  0.79553083  -0.00381420  1
  Hf  Hf41  1  0.49542034  0.90774406  0.71334937  1
  Hf  Hf42  1  0.58372982  -0.01427839  0.19454363  1
  Hf  Hf43  1  0.40826742  0.80753112  0.19199563  1
  Hf  Hf44  1  0.20812406  0.60760765  0.80423362  1
  Hf  Hf45  1  0.69874671  0.70199399  0.50050304  1
  Hf  Hf46  1  0.80246658  -0.00137510  0.40184530  1
  Hf  Hf47  1  0.69612451  0.09670994  0.29802162  1
  Hf  Hf48  1  0.79902997  0.39892445  0.19481517  1
  Hf  Hf49  1  0.89247958  0.90760209  0.71144946  1
  Zr  Zr50  1  0.88679502  0.50258376  0.49812407  1
  Zr  Zr51  1  0.11234230  0.70162797  0.69056273  1
  Zr  Zr52  1  0.00509642  0.80060466  0.80427843  1
  Zr  Zr53  1  0.10864184  0.70323505  0.29262821  1
  Zr  Zr54  1  0.00330583  0.60842562  0.40529672  1
  Zr  Zr55  1  0.00673630  0.19731267  0.19205076  1
  Zr  Zr56  1  0.69146711  0.08674373  0.90127610  1
  Zr  Zr57  1  0.59405820  0.39975567  0.19812800  1
  Zr  Zr58  1  0.20304783  0.40272191  0.79926179  1
  Zr  Zr59  1  0.69864384  0.90259415  0.30370297  1
  Zr  Zr60  1  0.10547253  0.50293100  0.29696119  1
  Zr  Zr61  1  0.10344705  0.10177857  0.90277260  1
  Zr  Zr62  1  0.49592917  0.49035282  0.70787687  1
  Zr  Zr63  1  0.90360163  0.51108314  0.08559287  1
  Zr  Zr64  1  0.39648588  0.60083528  0.19405790  1
  Zr  Zr65  1  0.21117155  0.60201448  0.40664256  1
  Zr  Zr66  1  0.59763163  0.38847277  0.59883566  1
  Zr  Zr67  1  0.19897196  0.20195108  0.01499646  1
  Zr  Zr68  1  0.89029979  0.09295787  0.89618776  1
  Zr  Zr69  1  0.69579228  0.50915924  0.08868129  1
  Zr  Zr70  1  0.08800745  0.88824769  0.29947687  1
  Zr  Zr71  1  0.19967547  0.19622205  0.38918359  1
  Zr  Zr72  1  0.40362699  0.79256135  0.80281250  1
  Zr  Zr73  1  0.39313494  0.20243669  0.19960621  1
  Zr  Zr74  1  0.59391681  0.79960985  0.61016135  1
  Zr  Zr75  1  0.49609875  0.29870049  0.48683275  1
  Zr  Zr76  1  0.49654111  0.09900522  0.30638059  1
  Zr  Zr77  1  0.89429492  0.49847717  0.89654906  1
  Zr  Zr78  1  0.30358035  0.89983071  0.30096283  1
  Zr  Zr79  1  0.30899589  0.09547033  0.71008329  1
  Zr  Zr80  1  0.70704789  0.29493879  0.89057167  1
  Zr  Zr81  1  0.20556573  0.59378039  0.01132492  1
  Zr  Zr82  1  0.00222998  0.60783957  0.79922155  1
  Zr  Zr83  1  0.00873902  0.00114523  0.79921104  1
  Zr  Zr84  1  0.30293503  0.29411026  0.89927774  1
  Zr  Zr85  1  0.69616138  0.69551278  0.09367971  1
  Zr  Zr86  1  0.90186013  0.49623158  0.30370384  1
  Zr  Zr87  1  0.51024178  0.69515447  0.08970115  1
  Zr  Zr88  1  0.11224720  0.91062807  0.68570127  1
  Zr  Zr89  1  0.79043997  0.80368575  -0.00235389  1
  Zr  Zr90  1  0.90897260  0.90266501  0.49596985  1
  Zr  Zr91  1  0.40395333  0.59745835  0.39801921  1
  Zr  Zr92  1  0.69702454  0.09588602  0.49696029  1
  Zr  Zr93  1  0.89878786  0.69356954  0.91079929  1
  Zr  Zr94  1  0.00388235  0.19566239  0.40116754  1
  Zr  Zr95  1  -0.00899070  0.60579561  0.59942683  1
  Zr  Zr96  1  0.09742061  0.70304653  0.10161196  1
  Zr  Zr97  1  0.70637484  0.49522899  0.70320763  1
  Zr  Zr98  1  0.10498650  0.29705946  0.70392587  1
  Zr  Zr99  1  0.59472291  0.00703678  0.60188479  1
  Ta  Ta100  1  0.89281871  0.90643585  0.90582076  1
  Ta  Ta101  1  0.69682102  0.30239586  0.31520643  1
  Ta  Ta102  1  0.89412720  0.90781074  0.09926980  1
  Ta  Ta103  1  0.40041124  0.60122833  0.60036868  1
  Ta  Ta104  1  0.09893273  0.31042380  0.30127373  1
  Ta  Ta105  1  0.59684749  0.60436509  0.80304836  1
  Ta  Ta106  1  0.90007491  0.30470306  0.09302360  1
  Ta  Ta107  1  0.00516823  0.39957675  0.18944270  1
  Ta  Ta108  1  0.59935968  0.79533737  0.39507287  1
  Ta  Ta109  1  0.29908390  0.70512494  0.29432171  1
  Ta  Ta110  1  0.39700109  0.60686789  -0.00991304  1
  Ta  Ta111  1  0.79774475  0.00251199  0.60470969  1
  Ta  Ta112  1  0.50028367  0.49952919  0.89977202  1
  Ta  Ta113  1  0.19481036  0.39880104  0.00703006  1
  Ta  Ta114  1  0.59257594  0.19986810  0.79823077  1
  Ta  Ta115  1  0.19148638  0.00479357  0.19979219  1
  Ta  Ta116  1  0.79777368  0.40064393  -0.00768036  1
  Ta  Ta117  1  0.30329650  0.49678540  0.28860067  1
  Ta  Ta118  1  0.69553450  0.90809499  0.71382285  1
  Ta  Ta119  1  -0.00446102  0.19779280  0.60302704  1
  Ta  Ta120  1  0.69773286  0.89797328  0.49662498  1
  Ta  Ta121  1  0.20582693  0.80237137  0.80197949  1
  Ta  Ta122  1  0.59399380  0.60305115  0.21812855  1
  Ta  Ta123  1  0.49569729  0.70474042  0.49781222  1
  Ta  Ta124  1  0.20579052  0.00032568  0.79854777  1
  Ta  Ta125  1  0.60190796  0.79453318  0.80705837  1
  Ta  Ta126  1  0.10447892  0.29921614  0.49764687  1
  Ta  Ta127  1  0.09522198  0.29981800  0.90283258  1
  Ta  Ta128  1  0.00169841  0.00228920  0.19194486  1
  Ta  Ta129  1  0.70749146  0.10043243  0.71198749  1
  Ta  Ta130  1  -0.00621589  0.39509488  0.79821359  1
  Ta  Ta131  1  0.30300532  0.70334936  0.69553208  1
  Ta  Ta132  1  0.31822688  0.29984089  0.70937662  1
  Ta  Ta133  1  0.70427686  0.29024102  0.70561336  1
  Ta  Ta134  1  0.20607958  0.39888817  0.39940860  1
  Ta  Ta135  1  0.80111031  0.20394741  0.40919081  1
  Ta  Ta136  1  0.78968212  0.79995214  0.80747651  1
  Ta  Ta137  1  0.89023162  0.49893536  0.70181286  1
  Ta  Ta138  1  0.30644555  0.29928326  0.49398289  1
  Ta  Ta139  1  0.90095116  0.09843958  0.50416051  1
  Ta  Ta140  1  0.39951876  0.40124267  0.60185488  1
  Ta  Ta141  1  0.19526461  0.00086844  0.39299744  1
  Ta  Ta142  1  -0.00185701  0.19983368  0.00474892  1
  Ta  Ta143  1  0.40116673  0.79971319  0.60385634  1
  Ta  Ta144  1  0.50929972  0.90749951  0.89979797  1
  Ta  Ta145  1  0.90519371  0.70407197  0.09859111  1
  Ta  Ta146  1  0.70105238  0.69718071  0.70592504  1
  Ta  Ta147  1  0.89167454  0.71123266  0.49741632  1
  Ta  Ta148  1  0.59635701  0.79960919  0.20131660  1
  Ta  Ta149  1  0.40161942  -0.00106414  0.60284958  1
  Ti  Ti150  1  0.50302296  0.49637111  0.49383590  1
  Ti  Ti151  1  0.88831091  0.29446504  0.70910744  1
  Ti  Ti152  1  0.88454328  0.69506908  0.70181500  1
  Ti  Ti153  1  0.39843678  0.40784468  0.39465641  1
  Ti  Ti154  1  0.49057456  0.29893225  0.09406250  1
  Ti  Ti155  1  0.49879636  0.09561139  0.71597701  1
  Ti  Ti156  1  0.90282541  0.90020629  0.29722697  1
  Ti  Ti157  1  0.80500141  0.19527674  0.59924358  1
  Ti  Ti158  1  0.00687035  0.00166502  0.39426938  1
  Ti  Ti159  1  0.90096961  0.30024655  0.89700068  1
  Ti  Ti160  1  -0.00211672  0.80691892  0.00120334  1
  Ti  Ti161  1  0.49384947  0.89945075  0.30735321  1
  Ti  Ti162  1  0.20117696  0.80090246  0.40328197  1
  Ti  Ti163  1  0.79032264  0.59906998  0.80570654  1
  Ti  Ti164  1  -0.00727271  0.01509278  0.61455830  1
  Ti  Ti165  1  0.10999942  0.70996230  0.91472611  1
  Ti  Ti166  1  0.48927030  0.30109054  0.89027006  1
  Ti  Ti167  1  0.30995291  0.30757819  0.09913898  1
  Ti  Ti168  1  0.21257335  0.80505853  0.60159702  1
  Ti  Ti169  1  0.00021265  0.39499052  0.40793405  1
  Ti  Ti170  1  0.20140395  0.80732256  0.19272553  1
  Ti  Ti171  1  0.30305304  0.30657294  0.30223861  1
  Ti  Ti172  1  0.30529975  0.09259669  0.10800780  1
  Ti  Ti173  1  0.49349311  0.70725099  0.30466786  1
  Ti  Ti174  1  0.49669849  0.09401552  0.89634982  1
  Ti  Ti175  1  0.39571560  0.19146233  -0.00721723  1
  Ti  Ti176  1  0.21815552  0.59768446  0.60042957  1
  Ti  Ti177  1  0.59908998  0.80825563  -0.00442080  1
  Ti  Ti178  1  0.09611833  0.89787439  0.09595017  1
  Ti  Ti179  1  0.60056966  0.39493082  0.80202798  1
  Ti  Ti180  1  0.39878782  0.40104753  0.00093397  1
  Ti  Ti181  1  0.59242943  0.60282449  0.39590569  1
  Ti  Ti182  1  0.10589191  0.70806375  0.50211430  1
  Ti  Ti183  1  0.30454413  0.09246841  0.29721532  1
  Ti  Ti184  1  0.30893252  0.70934886  0.49861392  1
  Ti  Ti185  1  0.00420285  0.59503785  0.19377601  1
  Ti  Ti186  1  -0.00268376  0.00767980  0.00826973  1
  Ti  Ti187  1  0.59896116  0.19683652  0.40555630  1
  Ti  Ti188  1  0.40274772  0.00463237  0.40158672  1
  Ti  Ti189  1  0.70108748  0.30050009  0.09272557  1
  Ti  Ti190  1  0.29181306  0.70506418  0.10025970  1
  Ti  Ti191  1  0.69330247  0.68979641  0.90565577  1
  Ti  Ti192  1  0.10477607  0.89705711  0.90800991  1
  Ti  Ti193  1  0.00352180  0.39427569  0.00326680  1
  Ti  Ti194  1  0.69814146  0.90697582  0.09476022  1
  Ti  Ti195  1  0.59337076  0.20450100  -0.00629752  1
  Ti  Ti196  1  0.10457450  0.90249928  0.50191545  1
  Ti  Ti197  1  0.29806223  0.90256279  0.10220600  1
  Ti  Ti198  1  0.20422605  0.19341839  0.80321980  1
  Ti  Ti199  1  0.30828884  0.49556103  0.49917152  1
  Mo  Mo200  1  0.59652702  0.59237516  -0.01811240  1
  Mo  Mo201  1  0.68554749  0.70321546  0.30063297  1
  Mo  Mo202  1  0.70161256  0.29098295  0.49867235  1
  Mo  Mo203  1  0.79698127  0.60845262  0.60606977  1
  Mo  Mo204  1  0.80538283  -0.00463449  0.19724722  1
  Mo  Mo205  1  0.20005934  0.80700518  0.00059975  1
  Mo  Mo206  1  0.30492791  0.09900044  0.90186097  1
  Mo  Mo207  1  0.20979172  0.59974219  0.19909444  1
  Mo  Mo208  1  0.40120963  0.79457863  0.39932546  1
  Mo  Mo209  1  0.01257689  0.80350843  0.41984177  1
  Mo  Mo210  1  0.30289599  0.89859208  0.69873092  1
  Mo  Mo211  1  0.09571690  0.50013988  0.09778673  1
  Mo  Mo212  1  0.09267662  0.30318608  0.09627240  1
  Mo  Mo213  1  0.40096798  0.00339250  0.80712825  1
  Mo  Mo214  1  0.50351802  0.89461323  0.09272688  1
  Mo  Mo215  1  0.39351198  0.19977203  0.39657491  1
  Mo  Mo216  1  0.40985766  0.19798712  0.80549743  1
  Mo  Mo217  1  0.00418780  0.60875064  0.00214052  1
  Mo  Mo218  1  0.89009319  0.10162183  0.69515492  1
  Mo  Mo219  1  0.59722122  0.40244364  0.40161002  1
  Mo  Mo220  1  0.69612985  0.49788250  0.89334123  1
  Mo  Mo221  1  0.79759832  -0.00513274  0.00122211  1
  Mo  Mo222  1  0.30724042  0.49384428  0.09458882  1
  Mo  Mo223  1  0.39339199  -0.00379074  0.19793130  1
  Mo  Mo224  1  0.69632190  0.89703958  0.89873232  1
  Mo  Mo225  1  0.79806907  0.80462815  0.40159694  1
  Mo  Mo226  1  0.59595970  -0.00746282  0.00029758  1
  Mo  Mo227  1  0.80186761  0.19736309  0.79749082  1
  Mo  Mo228  1  0.40461164  0.39731332  0.80047867  1
  Mo  Mo229  1  0.30535323  0.50483101  0.69338089  1
  Mo  Mo230  1  0.09634864  0.09525480  0.10011437  1
  Mo  Mo231  1  0.29233487  0.70412718  0.90159774  1
  Mo  Mo232  1  0.90501837  0.28809763  0.50088648  1
  Mo  Mo233  1  0.39431716  0.39982535  0.19509322  1
  Mo  Mo234  1  0.59535124  -0.00707819  0.39883934  1
  Mo  Mo235  1  0.21147545  -0.00129225  0.59813882  1
  Mo  Mo236  1  0.49542690  0.09571296  0.49422937  1
  Mo  Mo237  1  0.50153912  0.69993087  0.69781474  1
  Mo  Mo238  1  -0.00490785  0.81351503  0.18020182  1
  Mo  Mo239  1  0.50210753  0.29745769  0.71020233  1
  Mo  Mo240  1  0.90057810  0.09541469  0.09708734  1
  Mo  Mo241  1  0.10987648  0.10104949  0.69918338  1
  Mo  Mo242  1  0.49716707  0.49972033  0.30304510  1
  Mo  Mo243  1  0.79415400  -0.00520713  0.80191929  1
  Mo  Mo244  1  0.79576008  0.38729131  0.40438639  1
  Mo  Mo245  1  0.50895012  0.69943878  0.90088578  1
  Mo  Mo246  1  0.59786134  0.00391959  0.80273328  1
  Mo  Mo247  1  0.79341032  0.59950805  -0.00589778  1
  Mo  Mo248  1  0.09775610  0.08951013  0.29773257  1
  Mo  Mo249  1  0.80603097  0.39424387  0.79648950  1
