# generated using pymatgen
data_HfZrTaTiMo
_symmetry_space_group_name_H-M   'P 1'
_cell_length_a   16.89551870
_cell_length_b   16.88331605
_cell_length_c   16.88459331
_cell_angle_alpha   90.04790012
_cell_angle_beta   90.00783905
_cell_angle_gamma   89.99088489
_symmetry_Int_Tables_number   1
_chemical_formula_structural   HfZrTaTiMo
_chemical_formula_sum   'Hf50 Zr50 Ta50 Ti50 Mo50'
_cell_volume   4816.36866915
_cell_formula_units_Z   50
loop_
 _symmetry_equiv_pos_site_id
 _symmetry_equiv_pos_as_xyz
  1  'x, y, z'
loop_
 _atom_site_type_symbol
 _atom_site_label
 _atom_site_symmetry_multiplicity
 _atom_site_fract_x
 _atom_site_fract_y
 _atom_site_fract_z
 _atom_site_occupancy
  Hf  Hf0  1  0.60473825  0.80578401  -0.00343679  1
  Hf  Hf1  1  0.60623590  0.00345020  0.39689477  1
  Hf  Hf2  1  0.80209741  -0.00382782  -0.00116201  1
  Hf  Hf3  1  0.08732877  0.68797416  0.09865012  1
  Hf  Hf4  1  0.60247089  0.39838782  0.39358483  1
  Hf  Hf5  1  0.20493995  0.58208580  0.39510137  1
  Hf  Hf6  1  0.09525173  0.69907940  0.49054455  1
  Hf  Hf7  1  0.60616885  0.59417272  0.00432609  1
  Hf  Hf8  1  0.49690645  0.90259303  0.09623985  1
  Hf  Hf9  1  0.59206737  0.40521138  0.58874285  1
  Hf  Hf10  1  0.49819419  0.70002915  0.09575395  1
  Hf  Hf11  1  0.49018364  0.50386729  0.70417444  1
  Hf  Hf12  1  0.49015434  0.49799484  0.29977669  1
  Hf  Hf13  1  0.09399999  0.70073066  0.90007931  1
  Hf  Hf14  1  0.40561106  0.81189399  0.40356765  1
  Hf  Hf15  1  0.60208565  0.80505163  0.39839480  1
  Hf  Hf16  1  0.69672252  0.29652191  0.69688518  1
  Hf  Hf17  1  0.89909452  0.10694841  0.29612904  1
  Hf  Hf18  1  0.20230587  0.60496348  0.79918113  1
  Hf  Hf19  1  0.90427445  0.69853654  0.10537991  1
  Hf  Hf20  1  0.08254642  0.69406595  0.30199547  1
  Hf  Hf21  1  0.49472868  0.70364535  0.90020701  1
  Hf  Hf22  1  0.80537639  0.39640790  0.58973579  1
  Hf  Hf23  1  0.20541554  0.79107338  0.00565153  1
  Hf  Hf24  1  -0.00028580  0.00175505  -0.00040441  1
  Hf  Hf25  1  0.80489830  0.60182307  0.79472383  1
  Hf  Hf26  1  0.80416994  0.80360322  0.60470270  1
  Hf  Hf27  1  0.71208696  0.49717325  0.90257731  1
  Hf  Hf28  1  0.60109765  0.20509480  0.39223195  1
  Hf  Hf29  1  0.00679366  0.39902822  0.00489309  1
  Hf  Hf30  1  0.49656891  0.68437340  0.49580115  1
  Hf  Hf31  1  0.61388875  0.00559787  0.20229285  1
  Hf  Hf32  1  0.09518666  0.10864312  0.29276369  1
  Hf  Hf33  1  0.20513964  0.20602403  0.39048177  1
  Hf  Hf34  1  0.20438784  0.19495661  0.62126344  1
  Hf  Hf35  1  0.10280708  0.89815847  0.90072840  1
  Hf  Hf36  1  0.89891048  0.29843151  0.10591738  1
  Hf  Hf37  1  0.89679986  0.10448595  0.90040258  1
  Hf  Hf38  1  0.20748359  0.39327030  0.60090332  1
  Hf  Hf39  1  0.30212138  0.10019261  0.49766688  1
  Hf  Hf40  1  0.00444636  0.18972982  0.79383706  1
  Hf  Hf41  1  0.09137461  0.89098111  0.71084148  1
  Hf  Hf42  1  0.00118582  0.00076858  0.19643813  1
  Hf  Hf43  1  0.20006459  0.00111860  0.60921363  1
  Hf  Hf44  1  0.30206966  0.90206669  0.89745955  1
  Hf  Hf45  1  0.70414194  0.90911099  0.50541609  1
  Hf  Hf46  1  0.29605314  0.69845201  0.30208512  1
  Hf  Hf47  1  0.29082457  0.90381451  0.29783951  1
  Hf  Hf48  1  0.10552251  0.29215353  0.90084998  1
  Hf  Hf49  1  0.38787627  0.59297446  0.19474149  1
  Zr  Zr50  1  0.49856655  0.29139887  0.09236287  1
  Zr  Zr51  1  0.09877469  0.10471589  0.50492767  1
  Zr  Zr52  1  0.38595769  0.20493998  0.20230170  1
  Zr  Zr53  1  0.70176899  0.49960941  0.69678300  1
  Zr  Zr54  1  0.20111874  0.59346602  0.60103220  1
  Zr  Zr55  1  -0.00362519  0.21091697  0.40434548  1
  Zr  Zr56  1  0.30457800  0.69467145  0.49501631  1
  Zr  Zr57  1  0.91201235  0.70505033  0.48481483  1
  Zr  Zr58  1  0.60244617  0.60234240  0.80431465  1
  Zr  Zr59  1  0.31609338  0.48495777  0.70823687  1
  Zr  Zr60  1  0.32413270  0.68701316  0.70197697  1
  Zr  Zr61  1  0.19609914  0.01739109  0.79386577  1
  Zr  Zr62  1  0.90083947  0.27967098  0.68531061  1
  Zr  Zr63  1  0.80771961  0.39395070  0.79892644  1
  Zr  Zr64  1  0.29206676  0.90587113  0.49771658  1
  Zr  Zr65  1  0.48475438  0.31013903  0.70460712  1
  Zr  Zr66  1  0.00535745  0.59038953  0.80013951  1
  Zr  Zr67  1  0.40949856  0.81640178  0.59675355  1
  Zr  Zr68  1  0.79933497  0.59867461  0.20375376  1
  Zr  Zr69  1  0.91170058  0.71213225  0.70684764  1
  Zr  Zr70  1  -0.00574550  0.00007099  0.40432815  1
  Zr  Zr71  1  0.60131887  0.39273210  -0.00496384  1
  Zr  Zr72  1  0.90836362  0.49411728  0.48818359  1
  Zr  Zr73  1  0.79218470  0.79787457  0.38255677  1
  Zr  Zr74  1  0.19685077  0.79275752  0.60977489  1
  Zr  Zr75  1  0.61533595  0.79957040  0.20724591  1
  Zr  Zr76  1  0.50677735  0.10974027  0.09580581  1
  Zr  Zr77  1  0.49579758  0.69389524  0.29794334  1
  Zr  Zr78  1  0.39602824  0.00548117  -0.00095946  1
  Zr  Zr79  1  0.59430359  0.39621952  0.81250238  1
  Zr  Zr80  1  0.19479779  0.58696096  0.19617441  1
  Zr  Zr81  1  0.20410512  0.20483045  0.19795847  1
  Zr  Zr82  1  0.59909485  0.80428090  0.59917049  1
  Zr  Zr83  1  0.60267042  0.39813146  0.20000235  1
  Zr  Zr84  1  0.50221213  0.69594977  0.70006118  1
  Zr  Zr85  1  -0.01004434  0.00127684  0.60853668  1
  Zr  Zr86  1  0.69939180  0.09892303  0.70105852  1
  Zr  Zr87  1  0.89972359  0.31178645  0.30137478  1
  Zr  Zr88  1  0.61356494  0.59762888  0.39130276  1
  Zr  Zr89  1  0.10476678  0.48420534  0.70503834  1
  Zr  Zr90  1  0.49548134  0.11373021  0.90483823  1
  Zr  Zr91  1  0.70068018  0.10230557  0.89791727  1
  Zr  Zr92  1  0.49654404  0.10555146  0.29588555  1
  Zr  Zr93  1  0.49423401  0.90792079  0.29300134  1
  Zr  Zr94  1  0.80223881  0.60070669  0.39114893  1
  Zr  Zr95  1  0.39645263  0.20030694  0.60471986  1
  Zr  Zr96  1  0.90292810  0.69811529  0.90669678  1
  Zr  Zr97  1  0.00508429  0.59932322  0.60445221  1
  Zr  Zr98  1  0.30022341  0.49592156  0.90480466  1
  Zr  Zr99  1  0.38608416  0.79827275  0.18734061  1
  Ta  Ta100  1  0.00146002  0.38797049  0.59573937  1
  Ta  Ta101  1  0.60647488  -0.00081696  -0.00135002  1
  Ta  Ta102  1  0.79358833  0.20015422  0.20228905  1
  Ta  Ta103  1  0.49962487  0.10335485  0.49962024  1
  Ta  Ta104  1  -0.00937927  -0.00018834  0.80048161  1
  Ta  Ta105  1  0.80118292  0.59695888  0.00596190  1
  Ta  Ta106  1  0.69996864  0.10435236  0.50345485  1
  Ta  Ta107  1  0.38172063  0.01127863  0.19413185  1
  Ta  Ta108  1  0.50126708  0.10255555  0.70939023  1
  Ta  Ta109  1  0.60980463  0.58968720  0.19449210  1
  Ta  Ta110  1  0.60720646  0.59574675  0.59226747  1
  Ta  Ta111  1  0.30153336  0.30206766  0.49804805  1
  Ta  Ta112  1  -0.00184116  0.39235835  0.80069552  1
  Ta  Ta113  1  0.79869779  0.00824534  0.39730099  1
  Ta  Ta114  1  0.79937357  0.60443935  0.59857829  1
  Ta  Ta115  1  0.70729081  0.70323558  0.09681404  1
  Ta  Ta116  1  0.40670079  0.00383435  0.60598184  1
  Ta  Ta117  1  0.19725325  0.00307982  0.19509734  1
  Ta  Ta118  1  -0.00563672  0.81001721  0.00280391  1
  Ta  Ta119  1  0.59220935  0.00303535  0.60214319  1
  Ta  Ta120  1  0.90539312  0.49666074  0.90732987  1
  Ta  Ta121  1  -0.00048619  0.19897212  0.00394189  1
  Ta  Ta122  1  0.89634990  0.10551968  0.10375031  1
  Ta  Ta123  1  0.19268224  0.79846517  0.19580983  1
  Ta  Ta124  1  0.88931057  0.11569569  0.51422292  1
  Ta  Ta125  1  0.70386065  0.29686689  0.49706005  1
  Ta  Ta126  1  0.89770884  0.89780962  0.29540278  1
  Ta  Ta127  1  0.29287845  0.90184773  0.09581984  1
  Ta  Ta128  1  0.70910000  0.90152212  0.10134599  1
  Ta  Ta129  1  0.70280316  0.10669898  0.09737783  1
  Ta  Ta130  1  0.69693281  0.90265013  0.70941024  1
  Ta  Ta131  1  0.19824460  0.39293586  0.01120938  1
  Ta  Ta132  1  0.10340878  0.30223861  0.49956685  1
  Ta  Ta133  1  0.80321563  0.80409559  -0.00040233  1
  Ta  Ta134  1  0.49466630  0.30006974  0.49426578  1
  Ta  Ta135  1  0.30951657  0.90554484  0.71009519  1
  Ta  Ta136  1  0.59657753  0.21193728  0.81004125  1
  Ta  Ta137  1  0.89669204  0.90012583  0.10648103  1
  Ta  Ta138  1  0.10031030  0.89835525  0.10104999  1
  Ta  Ta139  1  0.09780633  0.48826484  0.49276422  1
  Ta  Ta140  1  0.70433617  0.29706415  0.09784509  1
  Ta  Ta141  1  0.70152710  0.90018195  0.89348259  1
  Ta  Ta142  1  0.90248258  0.29771565  0.90425655  1
  Ta  Ta143  1  0.29441299  0.11074432  0.90190832  1
  Ta  Ta144  1  0.01069819  0.40123895  0.19864819  1
  Ta  Ta145  1  0.49348997  0.49747121  0.09583770  1
  Ta  Ta146  1  0.39735222  0.20693560  0.39323319  1
  Ta  Ta147  1  0.19737794  0.00820142  0.00546011  1
  Ta  Ta148  1  0.70675063  0.70734612  0.89923638  1
  Ta  Ta149  1  0.59415511  0.20068025  0.59822217  1
  Ti  Ti150  1  0.10283499  0.49519412  0.90572953  1
  Ti  Ti151  1  0.09687957  0.89791284  0.29998161  1
  Ti  Ti152  1  0.79608158  0.41061112  0.19669247  1
  Ti  Ti153  1  0.79739440  0.20233715  0.40102801  1
  Ti  Ti154  1  0.70304192  0.70039407  0.50327983  1
  Ti  Ti155  1  0.19700825  0.39855643  0.20086906  1
  Ti  Ti156  1  0.80011152  0.20100486  0.79796668  1
  Ti  Ti157  1  0.80335125  0.00223981  0.60717143  1
  Ti  Ti158  1  0.90363614  0.49478833  0.69578594  1
  Ti  Ti159  1  0.09800563  0.10807432  0.09867420  1
  Ti  Ti160  1  0.29891751  0.48835502  0.09792177  1
  Ti  Ti161  1  0.38929756  0.60410812  0.00817681  1
  Ti  Ti162  1  0.89566253  0.90052724  0.49385828  1
  Ti  Ti163  1  0.80645551  0.80929390  0.80296826  1
  Ti  Ti164  1  0.60889436  0.20676991  0.20726870  1
  Ti  Ti165  1  0.20754068  0.38513759  0.80300380  1
  Ti  Ti166  1  0.19417259  0.00490114  0.39282346  1
  Ti  Ti167  1  0.91002903  0.50413625  0.09997726  1
  Ti  Ti168  1  -0.00169209  0.80643643  0.59915514  1
  Ti  Ti169  1  0.71251268  0.30648526  0.30048091  1
  Ti  Ti170  1  0.49895997  0.90044587  0.89692380  1
  Ti  Ti171  1  0.50274703  0.90581256  0.71216547  1
  Ti  Ti172  1  0.69822916  0.70773485  0.70437635  1
  Ti  Ti173  1  0.10057112  0.29476741  0.70280832  1
  Ti  Ti174  1  0.39793724  0.56637389  0.57046083  1
  Ti  Ti175  1  0.81084725  -0.00501644  0.79408790  1
  Ti  Ti176  1  0.40332916  0.80388231  0.80134118  1
  Ti  Ti177  1  0.19320516  0.80200420  0.39579647  1
  Ti  Ti178  1  0.39580332  0.39482794  0.19723322  1
  Ti  Ti179  1  0.30947581  0.70063170  0.90332112  1
  Ti  Ti180  1  0.59431624  0.00099483  0.80523061  1
  Ti  Ti181  1  0.09865683  0.29368282  0.10503636  1
  Ti  Ti182  1  0.70796414  0.49716325  0.49340354  1
  Ti  Ti183  1  0.09347305  0.48936055  0.30549848  1
  Ti  Ti184  1  0.48596543  0.50202369  0.90531831  1
  Ti  Ti185  1  0.09673861  0.89632121  0.49511688  1
  Ti  Ti186  1  0.80243453  0.40086066  0.00630141  1
  Ti  Ti187  1  -0.00292731  0.80360429  0.20270690  1
  Ti  Ti188  1  0.19969972  0.59386659  0.00527060  1
  Ti  Ti189  1  0.29910268  0.32065870  0.30525951  1
  Ti  Ti190  1  0.39640614  0.40870137  0.40850546  1
  Ti  Ti191  1  0.20511471  0.79126071  0.79615508  1
  Ti  Ti192  1  0.10478511  0.10655200  0.90366091  1
  Ti  Ti193  1  0.39588391  0.38895615  0.00135980  1
  Ti  Ti194  1  0.90966590  0.49792294  0.30094634  1
  Ti  Ti195  1  0.40070279  0.00516212  0.39969389  1
  Ti  Ti196  1  0.79627539  0.00358998  0.20543502  1
  Ti  Ti197  1  0.79885102  0.20534319  -0.00014655  1
  Ti  Ti198  1  0.39017600  0.20524012  0.80220567  1
  Ti  Ti199  1  0.29600389  0.29190574  0.90811606  1
  Mo  Mo200  1  0.28927158  0.10198201  0.09484208  1
  Mo  Mo201  1  0.70461644  0.49520254  0.09753277  1
  Mo  Mo202  1  0.00598468  0.39673384  0.39768516  1
  Mo  Mo203  1  0.80568402  0.80109764  0.19505756  1
  Mo  Mo204  1  -0.00293282  0.20505945  0.19245547  1
  Mo  Mo205  1  0.60425300  0.80929085  0.80273056  1
  Mo  Mo206  1  0.19805330  0.39428655  0.39725265  1
  Mo  Mo207  1  -0.00405098  0.58366598  0.20257238  1
  Mo  Mo208  1  0.78655666  0.19839938  0.59471135  1
  Mo  Mo209  1  0.89397399  0.90063657  0.70533617  1
  Mo  Mo210  1  0.10286276  0.49330306  0.10042872  1
  Mo  Mo211  1  -0.00476534  0.80983525  0.81151562  1
  Mo  Mo212  1  0.20278503  0.20201132  0.80244869  1
  Mo  Mo213  1  0.70763215  0.10747517  0.30052992  1
  Mo  Mo214  1  0.71145323  0.90966914  0.29630631  1
  Mo  Mo215  1  -0.00100701  0.58808950  0.00248574  1
  Mo  Mo216  1  0.19293385  0.19932127  0.00388795  1
  Mo  Mo217  1  0.50346495  0.91907663  0.50025810  1
  Mo  Mo218  1  0.29338559  0.69628448  0.09400561  1
  Mo  Mo219  1  0.71799006  0.29673271  0.90284344  1
  Mo  Mo220  1  0.31692649  0.09707898  0.71076925  1
  Mo  Mo221  1  0.39409119  0.58570665  0.39531542  1
  Mo  Mo222  1  0.61949642  0.20386916  -0.00644193  1
  Mo  Mo223  1  0.29845868  0.29738328  0.71231517  1
  Mo  Mo224  1  0.10058318  0.30853888  0.29849720  1
  Mo  Mo225  1  0.29276190  0.48650736  0.49094652  1
  Mo  Mo226  1  0.48216685  0.29479118  0.90497319  1
  Mo  Mo227  1  0.39818996  0.39501379  0.58321893  1
  Mo  Mo228  1  0.39628106  0.80303628  -0.00584598  1
  Mo  Mo229  1  0.50573017  0.49537643  0.49189341  1
  Mo  Mo230  1  0.39803215  0.39311762  0.82536860  1
  Mo  Mo231  1  0.29474382  0.08933969  0.30342338  1
  Mo  Mo232  1  0.70644309  0.49125049  0.29500605  1
  Mo  Mo233  1  0.00053461  0.81507821  0.39432867  1
  Mo  Mo234  1  0.40468250  0.00277102  0.80043609  1
  Mo  Mo235  1  0.70082321  0.69700059  0.28837220  1
  Mo  Mo236  1  0.79694946  0.39909024  0.39619257  1
  Mo  Mo237  1  0.09968209  0.71159580  0.70416280  1
  Mo  Mo238  1  0.89811435  0.29708394  0.49707025  1
  Mo  Mo239  1  0.00512762  0.58818750  0.39251567  1
  Mo  Mo240  1  0.90831735  0.70399667  0.29197281  1
  Mo  Mo241  1  0.00955261  0.20006301  0.60010041  1
  Mo  Mo242  1  0.40110723  0.59868810  0.81939001  1
  Mo  Mo243  1  0.29452980  0.30697688  0.09848701  1
  Mo  Mo244  1  0.89307286  0.09589391  0.70027170  1
  Mo  Mo245  1  0.30054471  0.48791159  0.29605987  1
  Mo  Mo246  1  0.37732373  0.20310189  0.00399298  1
  Mo  Mo247  1  0.48586373  0.30505563  0.30462876  1
  Mo  Mo248  1  0.08958360  0.09705920  0.70182320  1
  Mo  Mo249  1  0.89839861  0.90144669  0.90085244  1
