# generated using pymatgen
data_HfZrTaTiMo
_symmetry_space_group_name_H-M   'P 1'
_cell_length_a   16.88918393
_cell_length_b   16.88735677
_cell_length_c   16.89139663
_cell_angle_alpha   89.97470707
_cell_angle_beta   90.03792350
_cell_angle_gamma   89.99330856
_symmetry_Int_Tables_number   1
_chemical_formula_structural   HfZrTaTiMo
_chemical_formula_sum   'Hf50 Zr50 Ta50 Ti50 Mo50'
_cell_volume   4817.65574739
_cell_formula_units_Z   50
loop_
 _symmetry_equiv_pos_site_id
 _symmetry_equiv_pos_as_xyz
  1  'x, y, z'
loop_
 _atom_site_type_symbol
 _atom_site_label
 _atom_site_symmetry_multiplicity
 _atom_site_fract_x
 _atom_site_fract_y
 _atom_site_fract_z
 _atom_site_occupancy
  Hf  Hf0  1  0.69370219  0.10233070  0.70862243  1
  Hf  Hf1  1  0.61201539  0.40385537  0.60567709  1
  Hf  Hf2  1  0.60661501  0.39683767  -0.00613970  1
  Hf  Hf3  1  0.50234618  0.30051729  0.29928737  1
  Hf  Hf4  1  0.90908792  0.89576093  0.10021871  1
  Hf  Hf5  1  0.20381836  0.60439694  0.19234864  1
  Hf  Hf6  1  0.30882765  0.89648176  0.10652637  1
  Hf  Hf7  1  0.90109095  0.89453894  0.29661804  1
  Hf  Hf8  1  0.60071510  0.59341857  0.60210092  1
  Hf  Hf9  1  0.80422452  0.39908137  0.19387634  1
  Hf  Hf10  1  0.49705197  0.50156858  0.29697182  1
  Hf  Hf11  1  0.39887472  0.79045109  0.79806211  1
  Hf  Hf12  1  0.20198463  0.00437017  -0.00430253  1
  Hf  Hf13  1  -0.00689354  0.59369652  0.80027758  1
  Hf  Hf14  1  0.19469893  0.39955904  0.60442824  1
  Hf  Hf15  1  0.29339805  0.49703445  0.09053664  1
  Hf  Hf16  1  0.90595219  0.50601888  0.50509307  1
  Hf  Hf17  1  0.89374519  0.29616402  0.90380809  1
  Hf  Hf18  1  0.29825913  0.89486715  0.89317433  1
  Hf  Hf19  1  0.78990384  0.80119470  0.19125679  1
  Hf  Hf20  1  0.00239611  0.20743329  0.59889592  1
  Hf  Hf21  1  0.51887945  0.69457336  0.90634708  1
  Hf  Hf22  1  0.29758299  0.50457969  0.51459567  1
  Hf  Hf23  1  0.69893085  0.69204770  0.70631164  1
  Hf  Hf24  1  0.59796130  0.79774711  0.60448151  1
  Hf  Hf25  1  0.68386063  0.70506645  0.08640939  1
  Hf  Hf26  1  0.30751487  0.91386274  0.52002178  1
  Hf  Hf27  1  0.69854759  0.50824536  0.89864976  1
  Hf  Hf28  1  0.79875874  0.20019142  0.59957262  1
  Hf  Hf29  1  0.59339548  0.60680750  0.19386379  1
  Hf  Hf30  1  0.60020998  0.40052481  0.19250496  1
  Hf  Hf31  1  0.10206467  0.49836381  0.28877936  1
  Hf  Hf32  1  0.90039242  0.50493360  0.09606581  1
  Hf  Hf33  1  0.00756326  0.80542203  0.40747900  1
  Hf  Hf34  1  0.50316099  0.90498270  0.89802267  1
  Hf  Hf35  1  0.79760868  -0.00095031  0.00318824  1
  Hf  Hf36  1  0.20057150  0.00381088  0.19655542  1
  Hf  Hf37  1  0.89222413  0.69987512  0.30005256  1
  Hf  Hf38  1  0.90286076  0.10021853  0.49423769  1
  Hf  Hf39  1  -0.00425460  0.40422597  0.80098432  1
  Hf  Hf40  1  0.79353724  -0.00773878  0.59928102  1
  Hf  Hf41  1  0.39714264  0.18994975  0.81406708  1
  Hf  Hf42  1  0.79448269  -0.00565006  0.80486260  1
  Hf  Hf43  1  0.10259160  0.10549375  0.30083508  1
  Hf  Hf44  1  0.78658863  0.18844385  -0.00656738  1
  Hf  Hf45  1  0.80218325  0.40605002  0.79796907  1
  Hf  Hf46  1  0.48666519  0.90562659  0.69586473  1
  Hf  Hf47  1  0.70344056  0.70240464  0.49588265  1
  Hf  Hf48  1  0.39329346  0.59869981  0.39071290  1
  Hf  Hf49  1  0.20115542  0.40438389  0.39964928  1
  Zr  Zr50  1  0.70526242  0.30045507  0.09239306  1
  Zr  Zr51  1  0.29950762  0.70399331  0.51310380  1
  Zr  Zr52  1  0.29837511  0.71183852  0.28719473  1
  Zr  Zr53  1  0.10612455  0.30067319  0.71457152  1
  Zr  Zr54  1  0.10276595  0.09929450  0.69860930  1
  Zr  Zr55  1  0.39716807  0.01771304  -0.00352978  1
  Zr  Zr56  1  0.00587689  0.40289166  0.39955552  1
  Zr  Zr57  1  0.20608621  0.60127411  0.80715263  1
  Zr  Zr58  1  0.89936126  0.10179539  0.70176171  1
  Zr  Zr59  1  0.19142765  0.81219133  0.41136029  1
  Zr  Zr60  1  0.39137711  0.40377843  0.19512887  1
  Zr  Zr61  1  0.09844015  0.50352442  0.09175456  1
  Zr  Zr62  1  0.80122357  0.79940857  -0.00610201  1
  Zr  Zr63  1  0.39119191  0.19687200  0.18980919  1
  Zr  Zr64  1  0.10539450  0.49548256  0.90575105  1
  Zr  Zr65  1  0.30030046  0.90228165  0.29551083  1
  Zr  Zr66  1  0.89919360  0.50851408  0.29543730  1
  Zr  Zr67  1  0.79824768  -0.00332746  0.39734222  1
  Zr  Zr68  1  0.48851505  0.49674064  0.50450096  1
  Zr  Zr69  1  0.60826972  0.01264753  0.00133994  1
  Zr  Zr70  1  0.50055755  0.29772386  0.90215391  1
  Zr  Zr71  1  0.69203549  0.89319776  0.89847661  1
  Zr  Zr72  1  0.90065661  0.70207513  0.50700846  1
  Zr  Zr73  1  0.60351570  0.40896619  0.40847485  1
  Zr  Zr74  1  0.09669876  0.88800040  0.10725059  1
  Zr  Zr75  1  0.30056871  0.09334845  0.69138671  1
  Zr  Zr76  1  0.70190091  0.29333683  0.30556444  1
  Zr  Zr77  1  0.90522588  0.89448285  0.69395274  1
  Zr  Zr78  1  0.40703053  0.79308433  0.00169686  1
  Zr  Zr79  1  0.68624223  0.89653434  0.29517713  1
  Zr  Zr80  1  0.20518916  0.78960378  -0.00133299  1
  Zr  Zr81  1  0.10033183  0.70027380  0.70002514  1
  Zr  Zr82  1  0.09672576  0.71620962  0.28400202  1
  Zr  Zr83  1  0.50622719  0.29292123  0.70252474  1
  Zr  Zr84  1  0.40406271  0.80327981  0.39714983  1
  Zr  Zr85  1  0.81164907  0.59953052  0.79927471  1
  Zr  Zr86  1  0.39967384  0.59801184  0.80610139  1
  Zr  Zr87  1  0.00350274  -0.00563049  0.80017002  1
  Zr  Zr88  1  0.39317077  0.40219096  0.80245963  1
  Zr  Zr89  1  0.30000740  0.10008298  0.49985877  1
  Zr  Zr90  1  0.70512996  0.29311290  0.49470920  1
  Zr  Zr91  1  0.70668215  0.51188759  0.29393713  1
  Zr  Zr92  1  0.29005399  0.29819491  0.29578273  1
  Zr  Zr93  1  0.19698509  0.59953768  0.39950756  1
  Zr  Zr94  1  0.40375074  0.20160024  0.39946967  1
  Zr  Zr95  1  0.89163010  0.29583211  0.30876591  1
  Zr  Zr96  1  0.90836183  0.09906311  0.10108165  1
  Zr  Zr97  1  0.49569983  0.90139835  0.50088258  1
  Zr  Zr98  1  0.60732228  -0.00197913  0.59893844  1
  Zr  Zr99  1  0.09901288  0.11176912  0.09581688  1
  Ta  Ta100  1  0.49563984  0.29552453  0.09116014  1
  Ta  Ta101  1  0.80533210  0.79451759  0.79677629  1
  Ta  Ta102  1  0.09954590  0.30162657  0.49878193  1
  Ta  Ta103  1  0.90308955  0.10217919  0.89992810  1
  Ta  Ta104  1  0.90129671  0.29298496  0.09387159  1
  Ta  Ta105  1  0.19629876  0.81734926  0.61141411  1
  Ta  Ta106  1  0.29382555  0.70637868  0.69970177  1
  Ta  Ta107  1  0.69618230  0.10097679  0.29970703  1
  Ta  Ta108  1  0.78808319  0.00251036  0.19350782  1
  Ta  Ta109  1  0.51358659  0.90129824  0.10546951  1
  Ta  Ta110  1  0.90679956  0.69904670  0.09961454  1
  Ta  Ta111  1  0.60128793  0.19573251  0.19299203  1
  Ta  Ta112  1  0.79303217  0.80316554  0.60461467  1
  Ta  Ta113  1  0.59354797  0.00501135  0.39683446  1
  Ta  Ta114  1  0.59950655  0.80020488  0.79129362  1
  Ta  Ta115  1  0.10092679  0.28905327  0.90801976  1
  Ta  Ta116  1  0.00391860  0.21072623  0.20455141  1
  Ta  Ta117  1  0.29458734  0.10069241  0.29912702  1
  Ta  Ta118  1  0.80508038  0.60419168  -0.00455878  1
  Ta  Ta119  1  0.70311284  0.29333164  0.70980164  1
  Ta  Ta120  1  0.80082921  0.40404798  0.60542601  1
  Ta  Ta121  1  0.79970606  0.19036042  0.19903899  1
  Ta  Ta122  1  0.40608625  0.00715356  0.39215644  1
  Ta  Ta123  1  0.20045578  0.20535317  0.59553408  1
  Ta  Ta124  1  -0.00052142  0.79505934  0.80068173  1
  Ta  Ta125  1  0.70507399  0.50934290  0.09236382  1
  Ta  Ta126  1  0.10327684  0.10028681  0.50057104  1
  Ta  Ta127  1  -0.00066790  0.40243403  0.60406286  1
  Ta  Ta128  1  0.19579624  0.20486054  0.40281446  1
  Ta  Ta129  1  0.39635756  0.00621716  0.80299647  1
  Ta  Ta130  1  0.20022330  -0.00733649  0.79670599  1
  Ta  Ta131  1  0.59868472  0.60427406  0.40339170  1
  Ta  Ta132  1  0.50057014  0.10560112  0.09635140  1
  Ta  Ta133  1  0.30308967  0.30387694  0.50697224  1
  Ta  Ta134  1  0.40349883  0.60422755  0.61863675  1
  Ta  Ta135  1  0.10038727  0.89052126  0.89777169  1
  Ta  Ta136  1  0.50014624  0.50227819  0.08690012  1
  Ta  Ta137  1  0.09682548  0.69897341  0.90584125  1
  Ta  Ta138  1  -0.00179067  0.39195325  0.00122670  1
  Ta  Ta139  1  0.49488822  0.69772516  0.50554355  1
  Ta  Ta140  1  0.49861123  0.09955846  0.50591566  1
  Ta  Ta141  1  0.00458309  -0.00169245  -0.00874354  1
  Ta  Ta142  1  0.89948412  0.30217441  0.49882169  1
  Ta  Ta143  1  0.00819548  -0.00412163  0.39972311  1
  Ta  Ta144  1  0.00426026  0.20109266  0.39950072  1
  Ta  Ta145  1  0.69975833  0.70331423  0.30159802  1
  Ta  Ta146  1  0.10032254  0.10632285  0.89997948  1
  Ta  Ta147  1  0.39647385  0.60045711  -0.00232206  1
  Ta  Ta148  1  0.01030532  0.60267811  0.40523703  1
  Ta  Ta149  1  0.00348300  0.38904771  0.19315225  1
  Ti  Ti150  1  0.50644248  0.50182762  0.90191031  1
  Ti  Ti151  1  0.40225681  0.20208417  0.60309420  1
  Ti  Ti152  1  0.40129094  0.39991898  0.61282909  1
  Ti  Ti153  1  0.19565717  -0.00106011  0.40234656  1
  Ti  Ti154  1  0.39000406  0.40416537  0.39579361  1
  Ti  Ti155  1  0.90747414  0.89451546  0.90157602  1
  Ti  Ti156  1  0.50412436  0.09835442  0.29370006  1
  Ti  Ti157  1  0.41727794  0.79175510  0.19381821  1
  Ti  Ti158  1  0.69460178  0.69771062  0.89798358  1
  Ti  Ti159  1  0.29274265  0.49843327  0.70293610  1
  Ti  Ti160  1  0.01063963  0.80785487  0.59762238  1
  Ti  Ti161  1  0.50466571  0.09772291  0.70485724  1
  Ti  Ti162  1  0.00397718  -0.00132334  0.20915461  1
  Ti  Ti163  1  0.91228757  0.70064312  0.90982552  1
  Ti  Ti164  1  0.29119378  0.49362893  0.90852138  1
  Ti  Ti165  1  0.50258008  0.90451193  0.28961491  1
  Ti  Ti166  1  0.39678119  0.39546934  -0.00098691  1
  Ti  Ti167  1  0.40015890  0.60085412  0.19271662  1
  Ti  Ti168  1  0.60146266  0.19505164  -0.00445606  1
  Ti  Ti169  1  0.20683320  0.19486801  0.80699161  1
  Ti  Ti170  1  0.49484355  0.30139505  0.50378965  1
  Ti  Ti171  1  0.08885306  0.70099225  0.09132234  1
  Ti  Ti172  1  0.21529524  0.19780724  0.00806971  1
  Ti  Ti173  1  0.69801237  0.10263443  0.49118290  1
  Ti  Ti174  1  0.70042330  0.89068225  0.48851850  1
  Ti  Ti175  1  0.90594726  0.69813209  0.68851045  1
  Ti  Ti176  1  0.30390183  0.69931834  0.09820100  1
  Ti  Ti177  1  0.59924369  0.20026390  0.59579598  1
  Ti  Ti178  1  0.60813618  0.39898322  0.79935979  1
  Ti  Ti179  1  0.50785926  0.50247141  0.71237753  1
  Ti  Ti180  1  0.59393155  0.79681942  0.39753366  1
  Ti  Ti181  1  0.79673901  0.41280737  0.40968300  1
  Ti  Ti182  1  0.40358066  0.00818291  0.19807234  1
  Ti  Ti183  1  0.10395957  0.68822439  0.51797416  1
  Ti  Ti184  1  0.60677161  0.19317156  0.81886939  1
  Ti  Ti185  1  -0.00346016  0.20089381  0.80456555  1
  Ti  Ti186  1  -0.00024825  0.60410373  0.19795677  1
  Ti  Ti187  1  0.29399519  0.29855675  0.90383589  1
  Ti  Ti188  1  0.79754597  0.59930848  0.40530120  1
  Ti  Ti189  1  0.10265796  0.50463303  0.69671755  1
  Ti  Ti190  1  0.79783311  0.58911845  0.60682743  1
  Ti  Ti191  1  0.89796210  0.89524498  0.49858635  1
  Ti  Ti192  1  0.19094816  0.38250504  0.18949532  1
  Ti  Ti193  1  0.29822032  0.29875627  0.70329006  1
  Ti  Ti194  1  0.50457604  0.70188787  0.29925771  1
  Ti  Ti195  1  0.89615852  0.29857750  0.70171145  1
  Ti  Ti196  1  0.89842373  0.10022033  0.30101084  1
  Ti  Ti197  1  0.19595587  0.38344869  0.00397578  1
  Ti  Ti198  1  0.59476978  0.19363697  0.40105973  1
  Ti  Ti199  1  0.00958815  -0.00799845  0.59321745  1
  Mo  Mo200  1  0.79481293  0.60957946  0.18792613  1
  Mo  Mo201  1  0.20470029  0.59578128  0.61044811  1
  Mo  Mo202  1  0.49984708  0.69901999  0.70096258  1
  Mo  Mo203  1  0.59292675  0.00722385  0.20236906  1
  Mo  Mo204  1  0.39647540  0.79189374  0.60682445  1
  Mo  Mo205  1  0.70090342  0.89192122  0.70617966  1
  Mo  Mo206  1  0.49520193  0.69573703  0.09900945  1
  Mo  Mo207  1  0.30131324  0.10206418  0.10107882  1
  Mo  Mo208  1  0.19719325  0.20164373  0.19816168  1
  Mo  Mo209  1  0.69066603  0.90217002  0.10298232  1
  Mo  Mo210  1  -0.00176158  0.60332163  -0.00231268  1
  Mo  Mo211  1  0.09930220  0.29886482  0.29847907  1
  Mo  Mo212  1  0.29799754  0.49785448  0.28591077  1
  Mo  Mo213  1  0.29677814  0.29988826  0.08938552  1
  Mo  Mo214  1  0.39486713  0.20341743  -0.00005318  1
  Mo  Mo215  1  0.70178417  0.49506759  0.70188264  1
  Mo  Mo216  1  0.90319667  0.49859502  0.69116855  1
  Mo  Mo217  1  0.80405862  0.40662968  -0.00353909  1
  Mo  Mo218  1  0.19866621  0.79889642  0.18911314  1
  Mo  Mo219  1  0.70155546  0.09938968  0.89422303  1
  Mo  Mo220  1  0.09729929  0.90908027  0.30200473  1
  Mo  Mo221  1  0.89985735  0.49606016  0.91307439  1
  Mo  Mo222  1  0.71128421  0.50710708  0.50260381  1
  Mo  Mo223  1  0.19302385  0.00161670  0.60396121  1
  Mo  Mo224  1  0.29779142  0.90040753  0.70376655  1
  Mo  Mo225  1  0.59169737  0.79847321  0.20162298  1
  Mo  Mo226  1  -0.00284701  0.19873747  -0.00450075  1
  Mo  Mo227  1  0.79857463  0.20118391  0.80136748  1
  Mo  Mo228  1  0.20529711  0.60759539  0.00046953  1
  Mo  Mo229  1  0.29685256  0.69461551  0.90074547  1
  Mo  Mo230  1  0.59752297  0.59247571  -0.00198695  1
  Mo  Mo231  1  0.40705214  0.01204658  0.60517837  1
  Mo  Mo232  1  0.59184493  0.00394756  0.79866698  1
  Mo  Mo233  1  0.09969085  0.89737107  0.70401980  1
  Mo  Mo234  1  0.80646126  0.18878090  0.39623359  1
  Mo  Mo235  1  0.00032435  0.79859056  -0.00686733  1
  Mo  Mo236  1  0.59981116  0.80709260  0.00131395  1
  Mo  Mo237  1  0.59863707  0.59784643  0.79812991  1
  Mo  Mo238  1  -0.00666776  0.79682433  0.19853942  1
  Mo  Mo239  1  0.79710126  0.79978279  0.40449946  1
  Mo  Mo240  1  0.00714839  0.59407472  0.60006980  1
  Mo  Mo241  1  0.69480056  0.10140509  0.10794463  1
  Mo  Mo242  1  0.20376909  0.39363986  0.80656415  1
  Mo  Mo243  1  0.70007129  0.29824440  0.89159297  1
  Mo  Mo244  1  0.19614118  0.80116022  0.79960748  1
  Mo  Mo245  1  0.10313736  0.91095488  0.50675823  1
  Mo  Mo246  1  0.09785203  0.50248513  0.50790233  1
  Mo  Mo247  1  0.50547349  0.10106133  0.89782621  1
  Mo  Mo248  1  0.28886479  0.09963601  0.89591004  1
  Mo  Mo249  1  0.09925737  0.29698019  0.09547317  1
