# generated using pymatgen
data_HfZrTaTiMo
_symmetry_space_group_name_H-M   'P 1'
_cell_length_a   16.88669999
_cell_length_b   16.89492247
_cell_length_c   16.89919703
_cell_angle_alpha   89.96484280
_cell_angle_beta   90.02087304
_cell_angle_gamma   89.99819032
_symmetry_Int_Tables_number   1
_chemical_formula_structural   HfZrTaTiMo
_chemical_formula_sum   'Hf50 Zr50 Ta50 Ti50 Mo50'
_cell_volume   4821.33101536
_cell_formula_units_Z   50
loop_
 _symmetry_equiv_pos_site_id
 _symmetry_equiv_pos_as_xyz
  1  'x, y, z'
loop_
 _atom_site_type_symbol
 _atom_site_label
 _atom_site_symmetry_multiplicity
 _atom_site_fract_x
 _atom_site_fract_y
 _atom_site_fract_z
 _atom_site_occupancy
  Hf  Hf0  1  0.19917321  0.00722387  -0.00394361  1
  Hf  Hf1  1  0.58599344  -0.00869410  0.19712288  1
  Hf  Hf2  1  0.90060317  0.09278473  0.89494420  1
  Hf  Hf3  1  0.69931265  0.28740681  0.89885472  1
  Hf  Hf4  1  0.30708066  0.70576965  0.90867774  1
  Hf  Hf5  1  0.30319810  0.91450853  0.69570142  1
  Hf  Hf6  1  0.09640706  0.10496128  0.11126528  1
  Hf  Hf7  1  0.10359181  0.90106226  0.11285309  1
  Hf  Hf8  1  0.40994856  0.01032880  0.58749542  1
  Hf  Hf9  1  0.59460467  0.19773797  0.40543654  1
  Hf  Hf10  1  0.80987106  0.19242215  0.00569553  1
  Hf  Hf11  1  0.69528594  0.09189917  0.70809881  1
  Hf  Hf12  1  0.20232841  0.19327385  0.40107057  1
  Hf  Hf13  1  0.21278373  0.80008543  0.58367107  1
  Hf  Hf14  1  0.30226615  0.89870605  0.09850486  1
  Hf  Hf15  1  0.20455695  0.20659934  0.79635027  1
  Hf  Hf16  1  0.50395597  0.91014944  0.90492641  1
  Hf  Hf17  1  0.81180770  0.80017600  0.20876527  1
  Hf  Hf18  1  0.70109294  0.29830120  0.51220056  1
  Hf  Hf19  1  -0.00304601  0.80370436  -0.00161286  1
  Hf  Hf20  1  0.00234826  0.40101289  0.60149047  1
  Hf  Hf21  1  0.19821306  0.79890064  0.00147625  1
  Hf  Hf22  1  0.51072989  0.70003052  0.70046187  1
  Hf  Hf23  1  0.29489609  0.49664873  0.09669297  1
  Hf  Hf24  1  0.80226738  0.80164047  -0.00324165  1
  Hf  Hf25  1  0.70413282  0.50763745  0.10596153  1
  Hf  Hf26  1  0.49321152  0.30099144  0.30467759  1
  Hf  Hf27  1  0.90173227  0.29876372  0.50171405  1
  Hf  Hf28  1  0.49585339  0.10117597  0.09225536  1
  Hf  Hf29  1  -0.02046306  0.80624885  0.78591549  1
  Hf  Hf30  1  0.40649682  0.80215883  0.79927389  1
  Hf  Hf31  1  0.10294005  0.09066126  0.69672946  1
  Hf  Hf32  1  0.49814352  0.50313721  0.29809521  1
  Hf  Hf33  1  0.50218476  0.70181606  0.30827614  1
  Hf  Hf34  1  0.90037122  0.89216365  0.49808491  1
  Hf  Hf35  1  0.39956613  0.60385128  0.59087521  1
  Hf  Hf36  1  0.70045331  0.89366725  0.30831782  1
  Hf  Hf37  1  0.30947946  0.90781955  0.89895703  1
  Hf  Hf38  1  0.70179177  0.90675691  0.09857526  1
  Hf  Hf39  1  0.19488238  0.79590130  0.39749234  1
  Hf  Hf40  1  0.40198017  0.60090709  0.00552661  1
  Hf  Hf41  1  0.30606720  0.49150339  0.69977013  1
  Hf  Hf42  1  0.59829734  0.39646935  0.40336643  1
  Hf  Hf43  1  0.80634664  0.40013686  0.79560368  1
  Hf  Hf44  1  0.80542346  0.39095845  0.01203635  1
  Hf  Hf45  1  0.19908682  0.59906500  0.79853606  1
  Hf  Hf46  1  0.70112632  0.09515847  0.09466276  1
  Hf  Hf47  1  0.90712830  0.29667754  0.89791731  1
  Hf  Hf48  1  0.89854266  0.50339596  0.49833088  1
  Hf  Hf49  1  0.00430940  0.38855168  0.01505579  1
  Zr  Zr50  1  0.40909082  0.40216598  -0.01270004  1
  Zr  Zr51  1  0.19457309  0.39779324  0.60167337  1
  Zr  Zr52  1  0.38676611  0.20282901  0.21243795  1
  Zr  Zr53  1  0.89007653  0.68860852  0.90172182  1
  Zr  Zr54  1  0.70019218  0.09612600  0.29643863  1
  Zr  Zr55  1  0.00376998  0.60898858  0.20958173  1
  Zr  Zr56  1  0.20261345  0.38975603  0.20427124  1
  Zr  Zr57  1  -0.00821250  0.00157629  0.00584625  1
  Zr  Zr58  1  0.38225578  0.79995845  0.41540601  1
  Zr  Zr59  1  0.30661535  0.30440104  0.69926627  1
  Zr  Zr60  1  0.09152711  0.91351734  0.88261837  1
  Zr  Zr61  1  0.09126013  0.69771746  0.89485928  1
  Zr  Zr62  1  0.10243492  0.49872762  0.10309692  1
  Zr  Zr63  1  0.69737843  0.70387409  0.30578359  1
  Zr  Zr64  1  0.30180654  0.69931634  0.69703308  1
  Zr  Zr65  1  0.79705922  0.39930557  0.39175977  1
  Zr  Zr66  1  0.69527476  0.90981064  0.89882942  1
  Zr  Zr67  1  0.71392342  0.49283435  0.51600485  1
  Zr  Zr68  1  0.19934625  0.80278417  0.79558109  1
  Zr  Zr69  1  0.70045031  0.50306701  0.28896264  1
  Zr  Zr70  1  0.59658088  0.40086739  0.80716812  1
  Zr  Zr71  1  0.09891839  0.90450499  0.68923069  1
  Zr  Zr72  1  0.69664363  0.29571626  0.69981614  1
  Zr  Zr73  1  0.39429459  0.79357549  0.19804622  1
  Zr  Zr74  1  -0.01172755  0.59602333  0.78186443  1
  Zr  Zr75  1  0.79664973  0.19612314  0.39890343  1
  Zr  Zr76  1  0.29832988  0.10257668  0.09842609  1
  Zr  Zr77  1  0.29118559  0.90810888  0.29699500  1
  Zr  Zr78  1  0.00813571  -0.00112677  0.39763297  1
  Zr  Zr79  1  0.50856820  0.90879334  0.70737735  1
  Zr  Zr80  1  0.60446067  0.59636681  0.41311139  1
  Zr  Zr81  1  0.90168402  0.29648356  0.29567885  1
  Zr  Zr82  1  0.39751743  0.39971464  0.19969628  1
  Zr  Zr83  1  0.59474391  0.20095353  0.20141773  1
  Zr  Zr84  1  0.59984251  0.39747691  0.00473296  1
  Zr  Zr85  1  0.70868612  0.51123882  0.90492108  1
  Zr  Zr86  1  0.90541710  0.09051977  0.69368430  1
  Zr  Zr87  1  0.49331325  0.29943173  0.70217255  1
  Zr  Zr88  1  0.40334643  0.59398313  0.80719824  1
  Zr  Zr89  1  0.58203973  0.18502102  0.59999810  1
  Zr  Zr90  1  0.09513159  0.10423074  0.89261348  1
  Zr  Zr91  1  0.09543367  0.29733045  0.30019789  1
  Zr  Zr92  1  0.59454418  -0.00502606  0.41494953  1
  Zr  Zr93  1  0.60925161  0.60391562  0.60305410  1
  Zr  Zr94  1  0.90087645  0.70524895  0.49776559  1
  Zr  Zr95  1  0.09949800  0.49452781  0.90087955  1
  Zr  Zr96  1  0.49491682  0.89343730  0.31266156  1
  Zr  Zr97  1  0.00532245  0.21005784  0.78683294  1
  Zr  Zr98  1  0.89955378  0.50236952  0.90799717  1
  Zr  Zr99  1  0.59558956  0.79863553  0.00608448  1
  Ta  Ta100  1  0.00414642  0.60230945  0.39419048  1
  Ta  Ta101  1  0.00446929  0.40740659  0.39694996  1
  Ta  Ta102  1  0.80108290  0.19349136  0.79727713  1
  Ta  Ta103  1  0.09486897  0.70386694  0.68565694  1
  Ta  Ta104  1  0.39263848  0.19312281  0.40878569  1
  Ta  Ta105  1  0.00500978  0.39928174  0.78534851  1
  Ta  Ta106  1  0.19793209  0.60003951  0.59336383  1
  Ta  Ta107  1  0.10374484  0.50321392  0.49248098  1
  Ta  Ta108  1  0.89642503  0.50611508  0.10724555  1
  Ta  Ta109  1  0.39217190  0.60278047  0.20106068  1
  Ta  Ta110  1  0.90351113  0.10299048  0.29716430  1
  Ta  Ta111  1  0.59940944  0.60797787  0.00720142  1
  Ta  Ta112  1  0.19603272  0.20744832  -0.00281788  1
  Ta  Ta113  1  0.80564143  -0.00526814  0.39946977  1
  Ta  Ta114  1  0.09820251  0.69696520  0.49498240  1
  Ta  Ta115  1  0.48739823  0.09300395  0.30909611  1
  Ta  Ta116  1  0.69672997  0.69397419  0.89500353  1
  Ta  Ta117  1  0.40351760  0.80763360  0.59380452  1
  Ta  Ta118  1  0.70037880  0.90048118  0.69720387  1
  Ta  Ta119  1  0.90027717  0.09682710  0.50032126  1
  Ta  Ta120  1  0.39561955  0.59981861  0.40322736  1
  Ta  Ta121  1  0.50070109  0.49800980  0.69824569  1
  Ta  Ta122  1  0.81108188  0.00063111  0.20256652  1
  Ta  Ta123  1  0.19981382  0.00673077  0.40521871  1
  Ta  Ta124  1  0.70570216  0.09345214  0.50634429  1
  Ta  Ta125  1  0.80895161  -0.01472308  0.79694859  1
  Ta  Ta126  1  0.50492532  0.70820597  0.49886747  1
  Ta  Ta127  1  0.59897767  -0.00330244  0.59670968  1
  Ta  Ta128  1  0.00659565  0.19034597  0.40295703  1
  Ta  Ta129  1  0.29720111  0.29852800  0.08582184  1
  Ta  Ta130  1  0.90086523  0.50326443  0.29827629  1
  Ta  Ta131  1  0.80312094  0.19179409  0.60311494  1
  Ta  Ta132  1  -0.00267503  -0.00190098  0.20811899  1
  Ta  Ta133  1  0.20032016  0.60495256  0.00432982  1
  Ta  Ta134  1  0.29438281  0.49650685  0.49415984  1
  Ta  Ta135  1  0.29442263  0.50147426  0.30809587  1
  Ta  Ta136  1  0.59338411  0.80003393  0.19263969  1
  Ta  Ta137  1  0.40172540  0.19476610  0.80775726  1
  Ta  Ta138  1  0.10024569  0.70246884  0.10409294  1
  Ta  Ta139  1  0.79905372  0.79825766  0.79099883  1
  Ta  Ta140  1  0.30150813  0.30230331  0.50241430  1
  Ta  Ta141  1  0.10027703  0.30072064  0.49521904  1
  Ta  Ta142  1  0.00209394  0.60039021  0.59565804  1
  Ta  Ta143  1  0.49086963  0.29151864  0.09053284  1
  Ta  Ta144  1  0.50606884  0.09614212  0.89507592  1
  Ta  Ta145  1  0.89936329  0.90352512  0.10322038  1
  Ta  Ta146  1  0.79142889  0.60931339  0.77671485  1
  Ta  Ta147  1  0.39672717  0.00144376  0.20230173  1
  Ta  Ta148  1  0.20163172  0.20049045  0.20680927  1
  Ta  Ta149  1  0.19869609  0.19756929  0.59450615  1
  Ti  Ti150  1  0.80241685  0.60993520  0.39742313  1
  Ti  Ti151  1  0.31216652  0.10762407  0.69244929  1
  Ti  Ti152  1  0.00141039  0.60058903  0.00938611  1
  Ti  Ti153  1  0.79644999  0.61742136  0.60337267  1
  Ti  Ti154  1  0.20627492  0.00894591  0.58305068  1
  Ti  Ti155  1  0.69706100  0.49621992  0.69960104  1
  Ti  Ti156  1  0.11041913  0.50368836  0.30784361  1
  Ti  Ti157  1  -0.00226684  0.79956753  0.20917873  1
  Ti  Ti158  1  0.49323503  0.49506191  0.50293591  1
  Ti  Ti159  1  0.50310174  0.50142916  0.10474354  1
  Ti  Ti160  1  0.40068475  0.00622589  -0.00133428  1
  Ti  Ti161  1  0.00944670  0.19830675  0.59347725  1
  Ti  Ti162  1  0.61031588  0.79714081  0.79854497  1
  Ti  Ti163  1  0.48525417  0.30026188  0.50748680  1
  Ti  Ti164  1  0.90273984  0.69941783  0.10110167  1
  Ti  Ti165  1  0.89745747  0.29657561  0.69204554  1
  Ti  Ti166  1  0.29269979  0.68679861  0.30613871  1
  Ti  Ti167  1  0.09878744  0.89538744  0.49992582  1
  Ti  Ti168  1  0.88786099  0.49934441  0.68453376  1
  Ti  Ti169  1  0.69993444  0.29029449  0.10604282  1
  Ti  Ti170  1  0.10400568  0.50090302  0.69893103  1
  Ti  Ti171  1  0.79709333  0.79987699  0.60550923  1
  Ti  Ti172  1  0.59432017  0.19866211  -0.00622466  1
  Ti  Ti173  1  0.00000979  -0.00470992  0.59088807  1
  Ti  Ti174  1  0.59711663  0.39235323  0.19580182  1
  Ti  Ti175  1  0.39226716  0.39905979  0.40232562  1
  Ti  Ti176  1  0.22142833  0.01845390  0.80346969  1
  Ti  Ti177  1  0.28508739  0.48752874  0.90143638  1
  Ti  Ti178  1  0.00512868  0.20202692  0.00726350  1
  Ti  Ti179  1  0.90893787  0.28202349  0.11751528  1
  Ti  Ti180  1  0.51695261  0.51630254  0.89700092  1
  Ti  Ti181  1  0.79665391  -0.00757817  0.59627673  1
  Ti  Ti182  1  0.19952867  0.78576117  0.20374634  1
  Ti  Ti183  1  0.48950961  0.70626387  0.09713422  1
  Ti  Ti184  1  0.70217518  0.29687481  0.28918734  1
  Ti  Ti185  1  0.10454841  0.90282435  0.29424975  1
  Ti  Ti186  1  0.20149352  0.60556828  0.20047739  1
  Ti  Ti187  1  0.60731615  0.80746414  0.58905977  1
  Ti  Ti188  1  0.59132816  0.40108760  0.60013604  1
  Ti  Ti189  1  0.10696764  0.31055777  0.89763054  1
  Ti  Ti190  1  0.80480717  0.39478328  0.19686919  1
  Ti  Ti191  1  0.70470220  0.69896703  0.10212362  1
  Ti  Ti192  1  0.69809092  0.09279966  0.90021803  1
  Ti  Ti193  1  0.40853931  0.39972641  0.81278374  1
  Ti  Ti194  1  0.50717505  0.70043689  0.89959292  1
  Ti  Ti195  1  0.00042275  0.79609480  0.38420639  1
  Ti  Ti196  1  0.80963309  0.60993497  0.20611846  1
  Ti  Ti197  1  0.29876352  0.30370666  0.90104514  1
  Ti  Ti198  1  0.59082300  0.61150495  0.19177609  1
  Ti  Ti199  1  0.00083771  0.40207556  0.20142459  1
  Mo  Mo200  1  0.10153899  0.09746427  0.29990979  1
  Mo  Mo201  1  0.20012371  0.39359556  -0.00372098  1
  Mo  Mo202  1  0.19752212  0.59780940  0.39811847  1
  Mo  Mo203  1  0.60549310  0.80002174  0.41709434  1
  Mo  Mo204  1  0.49084074  0.90193913  0.09671453  1
  Mo  Mo205  1  0.69957207  0.71344559  0.69829613  1
  Mo  Mo206  1  0.10116076  0.29251519  0.10232151  1
  Mo  Mo207  1  0.29874929  0.30410057  0.31743274  1
  Mo  Mo208  1  0.29749870  0.68701337  0.49743829  1
  Mo  Mo209  1  0.59628801  0.00775056  -0.00099955  1
  Mo  Mo210  1  0.40402037  0.40594408  0.58866598  1
  Mo  Mo211  1  0.00767073  0.79739461  0.59259598  1
  Mo  Mo212  1  0.90278656  0.70043555  0.30624674  1
  Mo  Mo213  1  0.79740283  0.60823607  0.01934622  1
  Mo  Mo214  1  0.49773582  0.09952033  0.70949340  1
  Mo  Mo215  1  -0.01266435  -0.00899104  0.78899309  1
  Mo  Mo216  1  0.29772639  0.91457311  0.49839747  1
  Mo  Mo217  1  0.89404497  0.89750689  0.68432298  1
  Mo  Mo218  1  0.60502682  0.00131553  0.79865686  1
  Mo  Mo219  1  0.59802831  0.19144540  0.80714728  1
  Mo  Mo220  1  0.50165195  0.28471564  0.90064047  1
  Mo  Mo221  1  0.70649747  0.90022875  0.50476964  1
  Mo  Mo222  1  0.39524048  0.20098523  -0.01134735  1
  Mo  Mo223  1  0.40246145  0.01333120  0.79707565  1
  Mo  Mo224  1  0.29419822  0.69479420  0.10341759  1
  Mo  Mo225  1  0.19705061  0.00793779  0.20914063  1
  Mo  Mo226  1  0.89132377  0.90107485  0.90357569  1
  Mo  Mo227  1  0.50064990  0.89618571  0.50585776  1
  Mo  Mo228  1  0.00211047  0.19229688  0.20540224  1
  Mo  Mo229  1  0.39191940  0.00388869  0.40158910  1
  Mo  Mo230  1  0.40518934  0.80152122  0.00065563  1
  Mo  Mo231  1  0.79961419  0.80411839  0.40337235  1
  Mo  Mo232  1  0.49642590  0.10042002  0.49393243  1
  Mo  Mo233  1  0.29693030  0.09690641  0.30390858  1
  Mo  Mo234  1  0.90320637  0.90013875  0.30035970  1
  Mo  Mo235  1  0.30519846  0.10725351  0.90235761  1
  Mo  Mo236  1  0.39251598  0.20135142  0.59702142  1
  Mo  Mo237  1  0.80365671  0.19409264  0.19545206  1
  Mo  Mo238  1  0.80174174  -0.00053698  -0.00094779  1
  Mo  Mo239  1  0.10317407  0.70314404  0.29765720  1
  Mo  Mo240  1  0.10099944  0.29914828  0.69282449  1
  Mo  Mo241  1  0.19488322  0.39901361  0.80187304  1
  Mo  Mo242  1  0.70381514  0.71242992  0.50042720  1
  Mo  Mo243  1  0.89706325  0.70129416  0.68820117  1
  Mo  Mo244  1  0.80522731  0.39007939  0.60835430  1
  Mo  Mo245  1  0.29964237  0.10481400  0.50169632  1
  Mo  Mo246  1  0.90127148  0.09944724  0.10807400  1
  Mo  Mo247  1  0.60475574  0.60212809  0.80080933  1
  Mo  Mo248  1  0.09779067  0.10211546  0.50553286  1
  Mo  Mo249  1  0.20014027  0.39822870  0.40264547  1
