# generated using pymatgen
data_HfZrTaTiMo
_symmetry_space_group_name_H-M   'P 1'
_cell_length_a   16.88674343
_cell_length_b   16.87628033
_cell_length_c   16.87098199
_cell_angle_alpha   90.01260788
_cell_angle_beta   90.00604147
_cell_angle_gamma   90.00794033
_symmetry_Int_Tables_number   1
_chemical_formula_structural   HfZrTaTiMo
_chemical_formula_sum   'Hf50 Zr50 Ta50 Ti50 Mo50'
_cell_volume   4807.98363225
_cell_formula_units_Z   50
loop_
 _symmetry_equiv_pos_site_id
 _symmetry_equiv_pos_as_xyz
  1  'x, y, z'
loop_
 _atom_site_type_symbol
 _atom_site_label
 _atom_site_symmetry_multiplicity
 _atom_site_fract_x
 _atom_site_fract_y
 _atom_site_fract_z
 _atom_site_occupancy
  Hf  Hf0  1  0.80100072  0.59829603  0.40268988  1
  Hf  Hf1  1  0.60398092  -0.00588866  0.20732975  1
  Hf  Hf2  1  0.09510690  0.90481779  0.70142717  1
  Hf  Hf3  1  -0.00794830  0.40752166  0.00489936  1
  Hf  Hf4  1  0.69822855  0.90100615  0.89671901  1
  Hf  Hf5  1  0.00424667  0.19747323  0.21291018  1
  Hf  Hf6  1  0.20070777  0.20126963  0.20946210  1
  Hf  Hf7  1  0.49265200  0.29583081  0.50499180  1
  Hf  Hf8  1  0.79958356  0.59147863  0.00596644  1
  Hf  Hf9  1  0.29750639  0.90670056  0.89556199  1
  Hf  Hf10  1  0.40458304  0.78609123  0.38566342  1
  Hf  Hf11  1  0.41278717  0.00917183  0.60864532  1
  Hf  Hf12  1  0.30777823  0.09535304  0.89299914  1
  Hf  Hf13  1  0.30084280  0.30042005  0.51055106  1
  Hf  Hf14  1  0.49293697  0.90690742  0.10285353  1
  Hf  Hf15  1  0.19985621  0.79956015  0.39530244  1
  Hf  Hf16  1  0.49969857  0.49613386  0.29882291  1
  Hf  Hf17  1  0.60409390  0.39875178  0.60052047  1
  Hf  Hf18  1  0.89437710  0.70429533  0.50265319  1
  Hf  Hf19  1  0.39675745  0.59099951  0.59596603  1
  Hf  Hf20  1  0.39664210  0.60182596  -0.00097768  1
  Hf  Hf21  1  0.79866718  0.59236019  0.19860633  1
  Hf  Hf22  1  0.19639010  0.01442682  0.40405074  1
  Hf  Hf23  1  0.09380226  0.91090674  0.50667331  1
  Hf  Hf24  1  0.29913593  0.50586170  0.10433218  1
  Hf  Hf25  1  0.80363210  0.40561509  0.59773769  1
  Hf  Hf26  1  0.19585155  0.79816075  0.00657069  1
  Hf  Hf27  1  0.19976706  0.80780777  0.60585528  1
  Hf  Hf28  1  0.28617921  0.69084720  0.70284466  1
  Hf  Hf29  1  0.19095547  0.01290927  0.20236982  1
  Hf  Hf30  1  0.90453690  0.89961044  0.70097936  1
  Hf  Hf31  1  0.69731193  0.10678599  0.69862119  1
  Hf  Hf32  1  0.49812036  0.29535655  0.69912208  1
  Hf  Hf33  1  -0.00073379  0.00990552  0.80008169  1
  Hf  Hf34  1  0.70171402  0.29549154  0.49995920  1
  Hf  Hf35  1  0.40028889  0.40136146  -0.00435829  1
  Hf  Hf36  1  0.79951733  0.40078934  0.79699931  1
  Hf  Hf37  1  0.79828566  0.39481998  0.20021264  1
  Hf  Hf38  1  0.50242023  0.49553467  0.49757748  1
  Hf  Hf39  1  0.60990799  0.80573857  0.61040582  1
  Hf  Hf40  1  0.50676615  0.69973777  0.50182102  1
  Hf  Hf41  1  0.39037271  0.79271916  0.00241501  1
  Hf  Hf42  1  0.38728764  0.59425573  0.39428542  1
  Hf  Hf43  1  0.79779838  0.20205589  -0.00326600  1
  Hf  Hf44  1  0.70595251  0.90058562  0.09899627  1
  Hf  Hf45  1  0.20632203  0.40078012  -0.00762922  1
  Hf  Hf46  1  0.60416958  0.19302285  -0.00784675  1
  Hf  Hf47  1  0.60882996  0.60234716  0.19996668  1
  Hf  Hf48  1  0.59727744  0.00736603  0.79432323  1
  Hf  Hf49  1  0.09841297  0.51088881  0.89852840  1
  Zr  Zr50  1  0.10622650  0.49994712  0.30238309  1
  Zr  Zr51  1  0.19766817  0.20268618  0.40113098  1
  Zr  Zr52  1  0.30777576  0.09576796  0.09766150  1
  Zr  Zr53  1  0.19197684  0.00293517  -0.00495855  1
  Zr  Zr54  1  0.50671399  0.71715790  0.11271579  1
  Zr  Zr55  1  -0.00751635  0.59628631  0.39981302  1
  Zr  Zr56  1  0.30165633  0.28381077  0.89392552  1
  Zr  Zr57  1  0.10184327  0.50672102  0.10208849  1
  Zr  Zr58  1  0.50979751  0.69655592  0.69961091  1
  Zr  Zr59  1  0.50988719  0.29884957  0.89550619  1
  Zr  Zr60  1  -0.00033936  0.80026513  0.40063953  1
  Zr  Zr61  1  0.40856698  0.00139153  0.40351084  1
  Zr  Zr62  1  0.10069253  0.29855453  0.09796612  1
  Zr  Zr63  1  0.69986765  0.49157897  0.30961346  1
  Zr  Zr64  1  0.90067425  0.29000976  0.10291583  1
  Zr  Zr65  1  0.79722095  -0.00331914  0.40822680  1
  Zr  Zr66  1  0.39308222  0.59142799  0.80901437  1
  Zr  Zr67  1  0.79363389  0.80642164  0.59849512  1
  Zr  Zr68  1  0.21373049  0.39137303  0.21042401  1
  Zr  Zr69  1  0.91103234  0.30579463  0.49480213  1
  Zr  Zr70  1  0.49877911  0.09746833  0.29289216  1
  Zr  Zr71  1  0.90458815  0.50467408  0.89174886  1
  Zr  Zr72  1  -0.01415215  0.59461228  0.20000303  1
  Zr  Zr73  1  0.70347982  0.10435019  0.29708850  1
  Zr  Zr74  1  0.80416200  0.19977120  0.39796703  1
  Zr  Zr75  1  0.00614228  0.19724182  0.78485674  1
  Zr  Zr76  1  0.29444533  0.69531397  0.50214480  1
  Zr  Zr77  1  0.29382884  0.48787692  0.69096669  1
  Zr  Zr78  1  0.51116339  0.70441137  0.89382489  1
  Zr  Zr79  1  0.90972634  0.10471084  0.91205789  1
  Zr  Zr80  1  0.50886770  0.50088179  0.70366599  1
  Zr  Zr81  1  0.19072135  0.39293799  0.79583564  1
  Zr  Zr82  1  0.49373704  0.90716935  0.90208352  1
  Zr  Zr83  1  0.09702912  0.48779901  0.49611136  1
  Zr  Zr84  1  0.79825723  0.00099935  0.60052840  1
  Zr  Zr85  1  0.90143410  0.69818374  0.89480763  1
  Zr  Zr86  1  0.09325584  0.90813287  0.29613179  1
  Zr  Zr87  1  0.39125911  0.79835699  0.79501360  1
  Zr  Zr88  1  0.09389093  0.69621301  0.89270541  1
  Zr  Zr89  1  0.30647065  0.90336824  0.50442897  1
  Zr  Zr90  1  0.30370922  0.90058933  0.28818929  1
  Zr  Zr91  1  0.80218800  0.19646686  0.80033132  1
  Zr  Zr92  1  0.39642528  0.62093371  0.21029509  1
  Zr  Zr93  1  0.61281571  0.60189029  0.00275461  1
  Zr  Zr94  1  -0.00219920  0.80293885  0.00012824  1
  Zr  Zr95  1  0.70807557  0.09945220  0.10359965  1
  Zr  Zr96  1  0.10221668  0.69078633  0.50355263  1
  Zr  Zr97  1  0.50150820  0.49359788  0.10175843  1
  Zr  Zr98  1  -0.00001815  0.79941190  0.19643129  1
  Zr  Zr99  1  0.39452798  0.40240654  0.80646741  1
  Ta  Ta100  1  0.79107713  0.79886506  0.79379662  1
  Ta  Ta101  1  0.40058683  0.19954165  0.40012488  1
  Ta  Ta102  1  0.90109994  0.69945905  0.70045093  1
  Ta  Ta103  1  0.69862579  0.50705274  0.69858241  1
  Ta  Ta104  1  0.90620092  0.30205689  0.69722691  1
  Ta  Ta105  1  0.59444151  0.19718536  0.40139924  1
  Ta  Ta106  1  0.90716766  0.90391014  0.49949775  1
  Ta  Ta107  1  0.30101062  0.90118679  0.10494756  1
  Ta  Ta108  1  0.89813839  0.90762914  0.09916078  1
  Ta  Ta109  1  0.50244362  0.89363120  0.50243942  1
  Ta  Ta110  1  0.88902170  0.71039816  0.30028177  1
  Ta  Ta111  1  0.27815731  0.68740026  0.89967013  1
  Ta  Ta112  1  0.69947813  0.29359231  0.69766753  1
  Ta  Ta113  1  0.08885121  0.29595720  0.89848155  1
  Ta  Ta114  1  0.50308087  0.29562920  0.10166196  1
  Ta  Ta115  1  0.60026382  -0.00522122  0.40682743  1
  Ta  Ta116  1  -0.00007368  0.79582117  0.60305884  1
  Ta  Ta117  1  0.10558964  0.69591416  0.29503666  1
  Ta  Ta118  1  0.89484020  0.70206499  0.09843417  1
  Ta  Ta119  1  0.39957581  0.20633916  0.20091554  1
  Ta  Ta120  1  0.60328058  0.39006306  0.20182645  1
  Ta  Ta121  1  0.19951848  0.01355194  0.60389253  1
  Ta  Ta122  1  0.70839478  0.71428893  0.10369862  1
  Ta  Ta123  1  0.69696685  0.50294815  0.49962489  1
  Ta  Ta124  1  0.60827021  0.80119906  -0.00181161  1
  Ta  Ta125  1  0.90326487  0.09589830  0.29822986  1
  Ta  Ta126  1  0.69682036  0.69957063  0.49741607  1
  Ta  Ta127  1  0.30175621  0.28891769  0.69253540  1
  Ta  Ta128  1  0.90733856  0.30428967  0.89609222  1
  Ta  Ta129  1  0.69429957  0.10282604  0.50254018  1
  Ta  Ta130  1  0.51922989  0.49875899  0.89926425  1
  Ta  Ta131  1  0.69863521  0.29387150  0.10468023  1
  Ta  Ta132  1  0.19160711  0.19557432  0.79250662  1
  Ta  Ta133  1  0.70173145  0.71124720  0.30236334  1
  Ta  Ta134  1  0.80110875  0.00268687  0.79930127  1
  Ta  Ta135  1  0.40801804  0.19782148  0.00134832  1
  Ta  Ta136  1  0.89797250  0.90384414  0.30094934  1
  Ta  Ta137  1  0.30501550  0.10958357  0.51004489  1
  Ta  Ta138  1  0.59970087  0.38716440  0.39619993  1
  Ta  Ta139  1  0.79807789  0.60008048  0.60206145  1
  Ta  Ta140  1  0.81541342  0.19420260  0.59918634  1
  Ta  Ta141  1  0.59976442  -0.00388618  0.59646595  1
  Ta  Ta142  1  0.08955531  0.30857650  0.31660308  1
  Ta  Ta143  1  0.09484842  0.89903686  0.89170981  1
  Ta  Ta144  1  0.90264713  0.09568506  0.10539264  1
  Ta  Ta145  1  0.39272629  0.39734225  0.39574336  1
  Ta  Ta146  1  0.09759215  0.90651702  0.10275518  1
  Ta  Ta147  1  0.79481461  0.40042130  0.00163568  1
  Ta  Ta148  1  0.49847380  0.09849801  0.09995100  1
  Ta  Ta149  1  0.08618205  0.10314630  0.09417087  1
  Ti  Ti150  1  0.19061233  0.01329116  0.79521005  1
  Ti  Ti151  1  0.19416542  0.80150809  0.79814751  1
  Ti  Ti152  1  0.19457484  0.58551587  0.59647164  1
  Ti  Ti153  1  0.39978578  0.80129423  0.60622153  1
  Ti  Ti154  1  0.80143622  0.00157826  -0.00852508  1
  Ti  Ti155  1  0.30046721  0.91364672  0.70700014  1
  Ti  Ti156  1  0.49632216  0.09603957  0.89829562  1
  Ti  Ti157  1  0.20823040  0.60772502  0.20472914  1
  Ti  Ti158  1  0.59884443  0.60503972  0.39587769  1
  Ti  Ti159  1  -0.00016567  0.01279116  0.40245992  1
  Ti  Ti160  1  0.60328407  0.80609581  0.39944456  1
  Ti  Ti161  1  0.89758747  0.48245463  0.31497044  1
  Ti  Ti162  1  -0.00575723  0.40024568  0.20400617  1
  Ti  Ti163  1  0.60894967  0.39787553  0.79721601  1
  Ti  Ti164  1  0.19363848  0.19556994  -0.00674293  1
  Ti  Ti165  1  0.79377677  0.60556889  0.79489384  1
  Ti  Ti166  1  0.61154400  0.39846678  0.00541449  1
  Ti  Ti167  1  0.61894147  0.61227324  0.80050115  1
  Ti  Ti168  1  0.39680769  0.39086257  0.20565830  1
  Ti  Ti169  1  -0.00797213  0.59402112  0.59976353  1
  Ti  Ti170  1  0.60211436  0.00574507  -0.00242608  1
  Ti  Ti171  1  0.69883280  0.49905428  0.89595169  1
  Ti  Ti172  1  0.00706258  0.19150871  0.41075272  1
  Ti  Ti173  1  0.21116651  0.40078596  0.40060196  1
  Ti  Ti174  1  0.18082959  0.19802109  0.60265224  1
  Ti  Ti175  1  0.00429134  0.39491737  0.60303598  1
  Ti  Ti176  1  0.09552534  0.69778676  0.70024259  1
  Ti  Ti177  1  0.58949738  0.18889447  0.59895334  1
  Ti  Ti178  1  0.69966701  0.29872101  0.89405069  1
  Ti  Ti179  1  -0.00057777  0.59901255  0.78388597  1
  Ti  Ti180  1  0.10070344  0.69307942  0.10129164  1
  Ti  Ti181  1  0.90129231  0.89754178  0.89497747  1
  Ti  Ti182  1  0.60062715  0.20501631  0.20253481  1
  Ti  Ti183  1  0.30956299  0.10043773  0.30029259  1
  Ti  Ti184  1  0.80042792  0.79934777  -0.00767625  1
  Ti  Ti185  1  0.30151275  0.10548765  0.69800620  1
  Ti  Ti186  1  0.70643507  0.89281320  0.30516988  1
  Ti  Ti187  1  0.90184340  0.49908461  0.69910966  1
  Ti  Ti188  1  0.41039529  0.18579853  0.79038915  1
  Ti  Ti189  1  0.50131995  0.89858008  0.70704632  1
  Ti  Ti190  1  0.30555765  0.29387663  0.09576498  1
  Ti  Ti191  1  0.00287289  -0.00219847  -0.00205937  1
  Ti  Ti192  1  0.49914643  0.29766834  0.29909707  1
  Ti  Ti193  1  0.80578689  -0.00160990  0.20434320  1
  Ti  Ti194  1  0.50012200  0.88858543  0.29102612  1
  Ti  Ti195  1  0.89912479  0.30095189  0.30580964  1
  Ti  Ti196  1  -0.00152829  0.02540383  0.59895993  1
  Ti  Ti197  1  0.80376675  0.80639228  0.20139207  1
  Ti  Ti198  1  0.19014142  0.38955877  0.59884240  1
  Ti  Ti199  1  0.09373507  0.49533811  0.69987156  1
  Mo  Mo200  1  0.09875976  0.10498020  0.50335366  1
  Mo  Mo201  1  0.70648398  0.69527149  0.70079131  1
  Mo  Mo202  1  0.69315705  0.29493266  0.29966230  1
  Mo  Mo203  1  0.90464246  0.09988458  0.49743653  1
  Mo  Mo204  1  0.28937843  0.70579164  0.10388357  1
  Mo  Mo205  1  0.00176772  0.20257150  -0.00030795  1
  Mo  Mo206  1  0.70252872  0.09298892  0.89816730  1
  Mo  Mo207  1  0.29361227  0.49002050  0.49857473  1
  Mo  Mo208  1  0.18711857  0.59561400  0.78596574  1
  Mo  Mo209  1  0.70672660  0.70638793  0.90118245  1
  Mo  Mo210  1  0.60236469  0.19955847  0.80026825  1
  Mo  Mo211  1  0.10449053  0.10327242  0.90113678  1
  Mo  Mo212  1  0.30182035  0.49860222  0.30028826  1
  Mo  Mo213  1  0.30831613  0.29679936  0.30598968  1
  Mo  Mo214  1  0.70017338  0.48463388  0.10009269  1
  Mo  Mo215  1  0.19670283  0.79705374  0.19341933  1
  Mo  Mo216  1  0.40108737  0.00410411  -0.00016336  1
  Mo  Mo217  1  0.61165466  0.80689679  0.20506389  1
  Mo  Mo218  1  0.60949183  0.59988879  0.59430872  1
  Mo  Mo219  1  0.09942321  0.30040299  0.69284740  1
  Mo  Mo220  1  0.28256555  0.70216346  0.29750966  1
  Mo  Mo221  1  -0.00259068  0.39854778  0.79300466  1
  Mo  Mo222  1  0.89702003  0.49679211  0.10069647  1
  Mo  Mo223  1  0.69061663  0.90064961  0.49616103  1
  Mo  Mo224  1  0.10236838  0.09967112  0.69540856  1
  Mo  Mo225  1  0.80778692  0.19951788  0.20354356  1
  Mo  Mo226  1  -0.00397589  0.80099851  0.79234366  1
  Mo  Mo227  1  0.89780194  0.50001873  0.50839343  1
  Mo  Mo228  1  0.28437948  0.51283450  0.90583052  1
  Mo  Mo229  1  0.19745997  0.60315473  0.00937830  1
  Mo  Mo230  1  -0.00273958  0.60401225  0.01216941  1
  Mo  Mo231  1  0.39979764  0.19500052  0.60209813  1
  Mo  Mo232  1  0.61053758  0.80500121  0.79916523  1
  Mo  Mo233  1  0.89969666  0.10204373  0.69430594  1
  Mo  Mo234  1  0.00343480  0.20162651  0.59535439  1
  Mo  Mo235  1  0.69980639  0.90516195  0.70686167  1
  Mo  Mo236  1  0.50478974  0.09965809  0.49913427  1
  Mo  Mo237  1  0.40229902  0.00185468  0.19831628  1
  Mo  Mo238  1  -0.00368660  0.39917037  0.39968676  1
  Mo  Mo239  1  0.51977881  0.70557204  0.30569366  1
  Mo  Mo240  1  -0.00674067  0.00287698  0.19677922  1
  Mo  Mo241  1  0.10122818  0.30036900  0.50132503  1
  Mo  Mo242  1  0.39716948  0.39623501  0.59662031  1
  Mo  Mo243  1  0.39450586  0.80362381  0.19973451  1
  Mo  Mo244  1  0.40006642  0.00474865  0.79269238  1
  Mo  Mo245  1  0.09115183  0.10586709  0.30556668  1
  Mo  Mo246  1  0.79753180  0.80366838  0.39886337  1
  Mo  Mo247  1  0.50434450  0.10300213  0.69890658  1
  Mo  Mo248  1  0.20264795  0.59423664  0.39273172  1
  Mo  Mo249  1  0.79743116  0.39943366  0.40177059  1
