# generated using pymatgen
data_HfZrTaTiMo
_symmetry_space_group_name_H-M   'P 1'
_cell_length_a   16.88913491
_cell_length_b   16.87087774
_cell_length_c   16.88097077
_cell_angle_alpha   89.92300662
_cell_angle_beta   89.94039560
_cell_angle_gamma   89.99710685
_symmetry_Int_Tables_number   1
_chemical_formula_structural   HfZrTaTiMo
_chemical_formula_sum   'Hf50 Zr50 Ta50 Ti50 Mo50'
_cell_volume   4809.96452280
_cell_formula_units_Z   50
loop_
 _symmetry_equiv_pos_site_id
 _symmetry_equiv_pos_as_xyz
  1  'x, y, z'
loop_
 _atom_site_type_symbol
 _atom_site_label
 _atom_site_symmetry_multiplicity
 _atom_site_fract_x
 _atom_site_fract_y
 _atom_site_fract_z
 _atom_site_occupancy
  Hf  Hf0  1  0.59476832  -0.00309838  0.00945517  1
  Hf  Hf1  1  0.89961422  0.49347077  0.10185601  1
  Hf  Hf2  1  0.19531363  0.60197715  0.39221480  1
  Hf  Hf3  1  0.70365787  0.49696901  0.90334416  1
  Hf  Hf4  1  0.69839717  0.69237360  0.89830612  1
  Hf  Hf5  1  0.39325584  -0.00025286  0.39229293  1
  Hf  Hf6  1  0.60216557  0.59361927  0.40358193  1
  Hf  Hf7  1  0.19163704  0.20983706  0.21443034  1
  Hf  Hf8  1  0.49965888  0.10816859  0.29577424  1
  Hf  Hf9  1  0.09592965  0.09364172  0.88970808  1
  Hf  Hf10  1  0.39587751  -0.00030388  0.81287094  1
  Hf  Hf11  1  0.80415440  0.18440097  0.00301394  1
  Hf  Hf12  1  0.59254916  0.79754587  0.60299249  1
  Hf  Hf13  1  0.59649042  0.79609461  0.79519565  1
  Hf  Hf14  1  0.80207625  0.60622664  0.20305937  1
  Hf  Hf15  1  0.20046976  0.39837682  0.39275535  1
  Hf  Hf16  1  0.59410311  0.19942420  0.00335162  1
  Hf  Hf17  1  0.49909915  0.29687442  0.68879903  1
  Hf  Hf18  1  0.70311924  0.29683686  0.68961014  1
  Hf  Hf19  1  0.01469588  0.38529957  0.20854370  1
  Hf  Hf20  1  0.69843318  0.90789252  0.68683202  1
  Hf  Hf21  1  0.89075610  0.90150399  0.49964092  1
  Hf  Hf22  1  0.29929370  0.70240099  0.49351298  1
  Hf  Hf23  1  0.49567473  0.50212192  0.10272935  1
  Hf  Hf24  1  0.89703371  0.50676686  0.69311104  1
  Hf  Hf25  1  0.89859797  0.90508105  0.69160173  1
  Hf  Hf26  1  0.89686603  0.49982483  0.90470829  1
  Hf  Hf27  1  0.09653365  0.10490667  0.69878672  1
  Hf  Hf28  1  0.09416916  0.70290567  0.70669901  1
  Hf  Hf29  1  0.00681660  0.79634790  0.39258544  1
  Hf  Hf30  1  0.21427249  0.40432610  0.79494046  1
  Hf  Hf31  1  0.20839238  0.20174609  -0.00579072  1
  Hf  Hf32  1  0.60528701  0.19428844  0.79510578  1
  Hf  Hf33  1  0.60931831  0.78721923  0.01412204  1
  Hf  Hf34  1  0.79445200  0.39372589  0.20273720  1
  Hf  Hf35  1  0.90961336  0.90487579  0.88659357  1
  Hf  Hf36  1  -0.01269459  0.39198227  0.60121823  1
  Hf  Hf37  1  0.69870226  0.09543535  0.90025373  1
  Hf  Hf38  1  0.60027497  0.40714669  0.58368342  1
  Hf  Hf39  1  0.89185404  0.89623722  0.30746329  1
  Hf  Hf40  1  0.10472218  0.29256163  0.50829561  1
  Hf  Hf41  1  0.79941888  0.79840609  0.80021703  1
  Hf  Hf42  1  0.80581243  0.79948478  0.00279299  1
  Hf  Hf43  1  0.49718704  0.70392191  0.28730474  1
  Hf  Hf44  1  0.89046646  0.30192366  0.90955008  1
  Hf  Hf45  1  0.50161258  0.90668041  0.50023640  1
  Hf  Hf46  1  0.19625472  0.81170117  0.59997797  1
  Hf  Hf47  1  0.49314600  0.70086847  0.48848249  1
  Hf  Hf48  1  0.30266479  0.49830205  0.49807673  1
  Hf  Hf49  1  -0.01893027  0.20901034  0.79109833  1
  Zr  Zr50  1  0.10352173  0.70279715  0.49963691  1
  Zr  Zr51  1  0.00740787  0.79307222  0.20255567  1
  Zr  Zr52  1  0.10628942  0.50120477  0.89822651  1
  Zr  Zr53  1  0.00394913  0.60683211  0.01024248  1
  Zr  Zr54  1  0.89504083  0.28950339  0.30881820  1
  Zr  Zr55  1  0.50318017  0.89697388  0.90490400  1
  Zr  Zr56  1  0.30003642  0.69820443  0.70476854  1
  Zr  Zr57  1  -0.00124916  0.39558426  0.40646724  1
  Zr  Zr58  1  0.19872642  0.00190629  0.58957541  1
  Zr  Zr59  1  0.30310541  0.09696190  0.69989230  1
  Zr  Zr60  1  0.01649253  0.19559469  0.39540402  1
  Zr  Zr61  1  0.21566475  0.80477299  0.81748979  1
  Zr  Zr62  1  0.19823532  0.60780203  0.19650111  1
  Zr  Zr63  1  0.49433690  0.88090078  0.10826381  1
  Zr  Zr64  1  0.70930085  0.50729708  0.69156604  1
  Zr  Zr65  1  0.40958749  0.59225677  0.60999104  1
  Zr  Zr66  1  0.39886955  0.20592255  0.80302454  1
  Zr  Zr67  1  0.09230352  0.91102638  0.71839240  1
  Zr  Zr68  1  0.78647352  0.00980450  0.39565932  1
  Zr  Zr69  1  0.69356110  0.09480757  0.10916990  1
  Zr  Zr70  1  0.09630410  0.90498478  0.89989979  1
  Zr  Zr71  1  0.49729608  0.10327379  0.50144883  1
  Zr  Zr72  1  0.90624910  0.28836926  0.10487372  1
  Zr  Zr73  1  0.49363901  0.69152109  0.91186169  1
  Zr  Zr74  1  0.20749671  -0.00551751  0.20532600  1
  Zr  Zr75  1  0.89863689  0.49491976  0.30441127  1
  Zr  Zr76  1  0.00921408  0.39806848  0.00426496  1
  Zr  Zr77  1  0.69422616  0.49602961  0.29527866  1
  Zr  Zr78  1  0.69337980  0.30419565  0.09780582  1
  Zr  Zr79  1  0.19942823  0.59031553  0.60761003  1
  Zr  Zr80  1  0.10131994  0.30014916  0.89894651  1
  Zr  Zr81  1  0.21439017  -0.00482397  -0.00446534  1
  Zr  Zr82  1  0.79301182  0.00961142  0.79364856  1
  Zr  Zr83  1  0.10341265  0.29883595  0.69815147  1
  Zr  Zr84  1  0.09628027  0.10488046  0.10526436  1
  Zr  Zr85  1  0.09965434  0.69922563  0.89733196  1
  Zr  Zr86  1  0.39651265  0.80538217  0.60150111  1
  Zr  Zr87  1  0.70720066  0.70750724  0.50250330  1
  Zr  Zr88  1  0.59478434  0.40733507  0.79534092  1
  Zr  Zr89  1  0.00357570  -0.00828251  0.20347252  1
  Zr  Zr90  1  0.80728135  0.38963214  0.78920223  1
  Zr  Zr91  1  0.30433454  0.10911158  0.10873751  1
  Zr  Zr92  1  0.50034667  0.50289496  0.28741901  1
  Zr  Zr93  1  0.90294274  0.10250459  0.49426598  1
  Zr  Zr94  1  0.89464115  0.70721350  0.50016092  1
  Zr  Zr95  1  -0.00404329  0.79993654  0.00613392  1
  Zr  Zr96  1  0.79620349  0.18955268  0.20710139  1
  Zr  Zr97  1  0.59470714  0.59618099  0.59772492  1
  Zr  Zr98  1  0.50232827  0.30625343  0.90451187  1
  Zr  Zr99  1  0.30323301  0.30064958  0.50618299  1
  Ta  Ta100  1  0.60002062  0.80628461  0.39686311  1
  Ta  Ta101  1  0.30431065  0.49842289  0.09864038  1
  Ta  Ta102  1  0.40051390  0.20002154  0.00075436  1
  Ta  Ta103  1  0.39943186  0.40977588  0.79485203  1
  Ta  Ta104  1  0.79960534  0.60309661  0.39781061  1
  Ta  Ta105  1  0.60159777  0.59584982  0.00686201  1
  Ta  Ta106  1  0.69605440  0.89734346  0.29503973  1
  Ta  Ta107  1  0.39750750  0.20743043  0.39630406  1
  Ta  Ta108  1  0.69879380  0.90287371  0.90567422  1
  Ta  Ta109  1  -0.00208992  0.60254084  0.39517579  1
  Ta  Ta110  1  0.89221669  0.10393733  0.68851743  1
  Ta  Ta111  1  0.30074119  0.90659235  0.70887301  1
  Ta  Ta112  1  0.00247626  0.80684467  0.59948751  1
  Ta  Ta113  1  0.00318807  0.00578588  0.59070064  1
  Ta  Ta114  1  0.39856029  0.00162413  0.00696641  1
  Ta  Ta115  1  0.49684405  0.30508508  0.10785704  1
  Ta  Ta116  1  0.49901506  0.09881226  0.90302831  1
  Ta  Ta117  1  0.91134661  0.09636629  0.29786499  1
  Ta  Ta118  1  0.49685614  0.90974821  0.69852357  1
  Ta  Ta119  1  0.39769091  -0.00779022  0.20044149  1
  Ta  Ta120  1  0.70227677  0.89625225  0.10924627  1
  Ta  Ta121  1  0.20337484  0.80033629  0.19922247  1
  Ta  Ta122  1  0.70785508  0.69810874  0.69426518  1
  Ta  Ta123  1  -0.01290955  0.00100463  0.01051555  1
  Ta  Ta124  1  0.10526664  0.89704012  0.09834383  1
  Ta  Ta125  1  0.20702591  0.79410356  0.01010329  1
  Ta  Ta126  1  0.60004572  -0.00039675  0.39800769  1
  Ta  Ta127  1  0.80697770  -0.00728109  0.00854554  1
  Ta  Ta128  1  0.20472041  0.39919812  0.20125886  1
  Ta  Ta129  1  0.11161360  0.49804641  0.10198811  1
  Ta  Ta130  1  0.79620064  0.20220193  0.59021781  1
  Ta  Ta131  1  0.50057800  0.89565719  0.29627740  1
  Ta  Ta132  1  0.89698281  0.70343469  0.69151417  1
  Ta  Ta133  1  -0.00188571  0.60107184  0.59516903  1
  Ta  Ta134  1  0.00574921  0.60474413  0.20579898  1
  Ta  Ta135  1  0.40331525  0.79694224  0.80132153  1
  Ta  Ta136  1  0.79843038  0.60516359  0.00728646  1
  Ta  Ta137  1  0.21037204  0.60592545  0.00352592  1
  Ta  Ta138  1  0.09976210  0.50048376  0.29860923  1
  Ta  Ta139  1  0.89086938  0.50290287  0.50138408  1
  Ta  Ta140  1  0.40777684  0.39948623  0.39629205  1
  Ta  Ta141  1  0.21427047  0.20198945  0.80189683  1
  Ta  Ta142  1  0.09438285  0.49885342  0.50201225  1
  Ta  Ta143  1  0.80099450  0.79579324  0.20048905  1
  Ta  Ta144  1  0.40406404  0.59183528  0.80456587  1
  Ta  Ta145  1  0.39683278  0.80714508  0.39211035  1
  Ta  Ta146  1  0.30316615  0.70538971  0.29888517  1
  Ta  Ta147  1  0.50433430  0.09191423  0.69355451  1
  Ta  Ta148  1  0.59579130  0.39598391  0.40190762  1
  Ta  Ta149  1  0.59443750  -0.00427328  0.20418240  1
  Ti  Ti150  1  0.70230921  0.90214409  0.50024227  1
  Ti  Ti151  1  0.78548846  0.20076932  0.40556987  1
  Ti  Ti152  1  -0.01061706  0.60688655  0.80118053  1
  Ti  Ti153  1  0.78576204  0.39319939  0.41214165  1
  Ti  Ti154  1  0.30043363  0.10337041  0.30176673  1
  Ti  Ti155  1  0.11497307  0.90111752  0.31057073  1
  Ti  Ti156  1  0.61261724  0.61545885  0.18691968  1
  Ti  Ti157  1  0.48964251  0.69362675  0.10496769  1
  Ti  Ti158  1  0.59895157  0.00167560  0.79568632  1
  Ti  Ti159  1  0.70080498  0.70979297  0.30205743  1
  Ti  Ti160  1  0.39324788  -0.00225256  0.59559350  1
  Ti  Ti161  1  0.21290066  0.59491665  0.80407348  1
  Ti  Ti162  1  0.58811496  0.59833270  0.79481161  1
  Ti  Ti163  1  0.29779859  0.10257094  0.49388530  1
  Ti  Ti164  1  0.90037648  0.69966881  0.10615830  1
  Ti  Ti165  1  0.30671636  0.50388067  0.91114866  1
  Ti  Ti166  1  0.60215663  0.20355092  0.40518857  1
  Ti  Ti167  1  0.40196498  0.40668090  0.60492468  1
  Ti  Ti168  1  0.20822576  0.19791785  0.60349493  1
  Ti  Ti169  1  0.20134906  0.19309545  0.39909557  1
  Ti  Ti170  1  0.68662760  0.10161195  0.29822132  1
  Ti  Ti171  1  0.60895806  0.19307196  0.59138011  1
  Ti  Ti172  1  0.49523396  0.10524060  0.10830027  1
  Ti  Ti173  1  0.70587551  0.29962857  0.90126896  1
  Ti  Ti174  1  0.09914127  0.90887516  0.48702677  1
  Ti  Ti175  1  0.20541589  0.40480132  0.60870917  1
  Ti  Ti176  1  0.59808743  0.40586245  0.00049354  1
  Ti  Ti177  1  0.39652539  0.39705577  0.20412617  1
  Ti  Ti178  1  0.50627578  0.29907346  0.29370792  1
  Ti  Ti179  1  0.89982627  0.09648456  0.89223613  1
  Ti  Ti180  1  0.69836489  0.49683689  0.10019661  1
  Ti  Ti181  1  0.28848870  0.89938330  0.48199227  1
  Ti  Ti182  1  0.10750653  0.29818044  0.09653150  1
  Ti  Ti183  1  0.49644338  0.29830675  0.49851916  1
  Ti  Ti184  1  0.30372731  0.30988635  0.90630422  1
  Ti  Ti185  1  0.31334140  0.69728594  0.10429269  1
  Ti  Ti186  1  0.39793178  0.20970372  0.20137150  1
  Ti  Ti187  1  0.40340888  0.40457528  -0.00398812  1
  Ti  Ti188  1  0.30224047  0.31071105  0.09535176  1
  Ti  Ti189  1  0.38428835  0.80001536  -0.00378732  1
  Ti  Ti190  1  0.30394171  0.30087326  0.30295232  1
  Ti  Ti191  1  0.80670815  0.60676795  0.80289835  1
  Ti  Ti192  1  0.09365482  0.50285196  0.70217350  1
  Ti  Ti193  1  0.68525869  0.29680773  0.29921191  1
  Ti  Ti194  1  0.39561501  0.19844988  0.59964984  1
  Ti  Ti195  1  0.39999890  0.59478900  0.39316489  1
  Ti  Ti196  1  -0.00352129  0.19041118  0.00152400  1
  Ti  Ti197  1  0.80441180  -0.00262158  0.19572235  1
  Ti  Ti198  1  0.30428179  0.50379750  0.29169124  1
  Ti  Ti199  1  -0.00376686  0.39818687  0.79397865  1
  Mo  Mo200  1  0.10919719  0.30286345  0.30573332  1
  Mo  Mo201  1  0.69703257  0.10080873  0.68732001  1
  Mo  Mo202  1  0.50191961  0.69924860  0.71183040  1
  Mo  Mo203  1  0.01045134  -0.00172098  0.39896479  1
  Mo  Mo204  1  0.89384569  0.29328245  0.68875858  1
  Mo  Mo205  1  0.20169801  0.00654337  0.39729325  1
  Mo  Mo206  1  0.90200150  0.09311653  0.10687145  1
  Mo  Mo207  1  0.79081658  0.40713894  0.00352238  1
  Mo  Mo208  1  0.30457535  0.49738877  0.70299834  1
  Mo  Mo209  1  0.60581422  0.79644698  0.20419544  1
  Mo  Mo210  1  -0.00871904  0.19886965  0.59617948  1
  Mo  Mo211  1  0.70665025  0.69839172  0.10091967  1
  Mo  Mo212  1  0.10778847  0.70156783  0.10088208  1
  Mo  Mo213  1  0.79841474  0.39650762  0.58505042  1
  Mo  Mo214  1  0.21032466  0.00644549  0.80364525  1
  Mo  Mo215  1  0.69402323  0.10182427  0.49785670  1
  Mo  Mo216  1  0.39798371  0.59644818  0.00354163  1
  Mo  Mo217  1  0.10508870  0.09157953  0.30818442  1
  Mo  Mo218  1  0.69422302  0.29519111  0.49252075  1
  Mo  Mo219  1  0.59557570  0.39343490  0.20101669  1
  Mo  Mo220  1  0.79880708  0.80358717  0.60112792  1
  Mo  Mo221  1  0.70784903  0.49802354  0.49237766  1
  Mo  Mo222  1  -0.01120428  0.78623392  0.79512846  1
  Mo  Mo223  1  0.59127871  0.20099248  0.20326891  1
  Mo  Mo224  1  0.89539331  0.89836354  0.10849054  1
  Mo  Mo225  1  0.10261767  0.69896642  0.29874249  1
  Mo  Mo226  1  0.80479145  0.60140600  0.59526267  1
  Mo  Mo227  1  0.21129605  0.40172051  0.00631340  1
  Mo  Mo228  1  0.30557893  0.30237277  0.69615911  1
  Mo  Mo229  1  0.79582647  0.19834922  0.79677776  1
  Mo  Mo230  1  0.49213408  0.49331058  0.48965739  1
  Mo  Mo231  1  0.88796261  0.29687853  0.49962278  1
  Mo  Mo232  1  0.20329955  0.80455085  0.39311586  1
  Mo  Mo233  1  0.60114483  0.00281111  0.59590063  1
  Mo  Mo234  1  -0.01113456  0.01798854  0.79108020  1
  Mo  Mo235  1  0.39039416  0.60095632  0.19882216  1
  Mo  Mo236  1  0.79334923  0.00936970  0.59356806  1
  Mo  Mo237  1  0.89796667  0.69833160  0.30140614  1
  Mo  Mo238  1  0.49987314  0.49695679  0.70335958  1
  Mo  Mo239  1  0.30256234  0.89470347  0.29719796  1
  Mo  Mo240  1  0.30752378  0.89739073  0.90604005  1
  Mo  Mo241  1  0.79014977  0.80222719  0.39294719  1
  Mo  Mo242  1  0.50047522  0.50109505  0.90499286  1
  Mo  Mo243  1  0.30549055  0.10379133  0.90486710  1
  Mo  Mo244  1  0.39213153  0.79696367  0.19961675  1
  Mo  Mo245  1  0.00627176  0.19375021  0.20380306  1
  Mo  Mo246  1  0.30178451  0.89174055  0.10151880  1
  Mo  Mo247  1  0.30458858  0.69258241  0.90619759  1
  Mo  Mo248  1  0.10595539  0.10035275  0.50327615  1
  Mo  Mo249  1  0.89641864  0.69562969  0.89445325  1
