# generated using pymatgen
data_HfZrTaTiMo
_symmetry_space_group_name_H-M   'P 1'
_cell_length_a   16.88788326
_cell_length_b   16.88901609
_cell_length_c   16.88645523
_cell_angle_alpha   89.95574594
_cell_angle_beta   90.01324272
_cell_angle_gamma   89.96553430
_symmetry_Int_Tables_number   1
_chemical_formula_structural   HfZrTaTiMo
_chemical_formula_sum   'Hf50 Zr50 Ta50 Ti50 Mo50'
_cell_volume   4816.34779801
_cell_formula_units_Z   50
loop_
 _symmetry_equiv_pos_site_id
 _symmetry_equiv_pos_as_xyz
  1  'x, y, z'
loop_
 _atom_site_type_symbol
 _atom_site_label
 _atom_site_symmetry_multiplicity
 _atom_site_fract_x
 _atom_site_fract_y
 _atom_site_fract_z
 _atom_site_occupancy
  Hf  Hf0  1  0.19180385  0.60965477  -0.00138495  1
  Hf  Hf1  1  0.30173809  0.89799679  0.29009715  1
  Hf  Hf2  1  0.59567343  0.00464072  0.19216725  1
  Hf  Hf3  1  0.60457261  0.80567919  0.59486753  1
  Hf  Hf4  1  0.30513688  0.71401433  0.09855312  1
  Hf  Hf5  1  0.42030281  0.60376829  -0.02098163  1
  Hf  Hf6  1  0.19560875  0.79511733  0.80102702  1
  Hf  Hf7  1  0.50060025  0.09677665  0.89966818  1
  Hf  Hf8  1  0.00016658  0.20485509  0.19754566  1
  Hf  Hf9  1  0.60548153  0.40387819  -0.00570916  1
  Hf  Hf10  1  0.29789997  0.69933452  0.49621578  1
  Hf  Hf11  1  0.49405780  0.90231958  0.29423204  1
  Hf  Hf12  1  0.09462027  0.89522201  0.09674802  1
  Hf  Hf13  1  0.19581392  0.60119446  0.59382658  1
  Hf  Hf14  1  0.40199754  0.20411560  0.80502580  1
  Hf  Hf15  1  0.51307674  0.29244686  0.10382856  1
  Hf  Hf16  1  0.39723048  0.20413677  0.40452105  1
  Hf  Hf17  1  0.28876182  0.50273576  0.69701714  1
  Hf  Hf18  1  0.80590564  0.39873400  0.40317438  1
  Hf  Hf19  1  0.61117645  0.80136994  0.19735298  1
  Hf  Hf20  1  0.29641189  0.09756152  0.28817319  1
  Hf  Hf21  1  0.50820920  0.70368535  0.70355199  1
  Hf  Hf22  1  0.60093809  0.19639613  0.60500177  1
  Hf  Hf23  1  0.19564775  0.79730745  0.60193692  1
  Hf  Hf24  1  0.39589693  0.60460849  0.79503757  1
  Hf  Hf25  1  0.10553968  0.28699858  0.90486062  1
  Hf  Hf26  1  0.59949537  0.59388173  0.59298992  1
  Hf  Hf27  1  0.10712423  0.10517424  0.29329885  1
  Hf  Hf28  1  0.70754032  0.50653588  0.30061389  1
  Hf  Hf29  1  0.79843774  0.79666753  0.79537332  1
  Hf  Hf30  1  0.49806088  0.70467645  0.10152682  1
  Hf  Hf31  1  0.80321860  0.40499996  0.18997363  1
  Hf  Hf32  1  0.09239333  0.49353715  0.30276466  1
  Hf  Hf33  1  0.09314365  0.90998831  0.70693198  1
  Hf  Hf34  1  0.80565005  0.40263223  0.60415649  1
  Hf  Hf35  1  0.09595248  0.51496524  0.88597709  1
  Hf  Hf36  1  0.30220966  0.50923608  0.09771982  1
  Hf  Hf37  1  0.40696465  0.19917433  0.19965724  1
  Hf  Hf38  1  0.69648844  0.90033118  0.88922925  1
  Hf  Hf39  1  0.40060967  0.38953917  -0.00558302  1
  Hf  Hf40  1  0.90461482  0.69547039  0.90221288  1
  Hf  Hf41  1  0.90280681  0.69366004  0.69329946  1
  Hf  Hf42  1  0.60013961  0.39278475  0.80794222  1
  Hf  Hf43  1  0.71168795  0.29427786  0.70824544  1
  Hf  Hf44  1  0.90974783  0.30910763  0.30008158  1
  Hf  Hf45  1  0.19308433  0.39305054  0.79249972  1
  Hf  Hf46  1  0.00735657  0.18814571  0.79632127  1
  Hf  Hf47  1  0.89583247  0.49912319  0.89817945  1
  Hf  Hf48  1  -0.00065006  -0.00070200  0.20272929  1
  Hf  Hf49  1  0.10851764  0.10809796  0.09364969  1
  Zr  Zr50  1  0.79273773  0.59273834  0.79910403  1
  Zr  Zr51  1  0.40174053  0.60040997  0.21599349  1
  Zr  Zr52  1  0.20209906  0.40194263  -0.00056154  1
  Zr  Zr53  1  0.19084828  0.20570553  0.60479538  1
  Zr  Zr54  1  0.19028234  0.61020216  0.20491712  1
  Zr  Zr55  1  0.80356015  0.20211636  0.19864157  1
  Zr  Zr56  1  0.69899131  0.29539245  0.29648575  1
  Zr  Zr57  1  0.91005122  0.89200804  0.09652169  1
  Zr  Zr58  1  0.40003442  0.39423823  0.80622312  1
  Zr  Zr59  1  0.20036642  0.20700811  0.41535538  1
  Zr  Zr60  1  0.69742559  0.90410130  0.31075464  1
  Zr  Zr61  1  0.59902433  0.80283780  0.00539916  1
  Zr  Zr62  1  0.59074257  0.19710155  0.39307490  1
  Zr  Zr63  1  0.80184728  0.00640944  -0.00677691  1
  Zr  Zr64  1  0.80392235  0.79923467  0.40090239  1
  Zr  Zr65  1  0.08706816  0.50101977  0.10540199  1
  Zr  Zr66  1  0.38825151  0.40048802  0.58913190  1
  Zr  Zr67  1  0.30317925  0.89782294  0.50356345  1
  Zr  Zr68  1  0.69618671  0.69833082  0.48858712  1
  Zr  Zr69  1  0.39926001  0.40349938  0.39911493  1
  Zr  Zr70  1  0.19618568  -0.00278983  0.40641523  1
  Zr  Zr71  1  0.00414342  0.20030099  0.40757475  1
  Zr  Zr72  1  0.29772726  0.70280892  0.90179701  1
  Zr  Zr73  1  0.20255797  0.00154749  -0.00623639  1
  Zr  Zr74  1  0.80124641  0.79859248  0.00271385  1
  Zr  Zr75  1  0.80475564  0.79178614  0.20438249  1
  Zr  Zr76  1  0.70540084  0.09077000  0.50229446  1
  Zr  Zr77  1  0.50602320  0.50408439  0.09772023  1
  Zr  Zr78  1  0.58790429  0.58684817  0.82381327  1
  Zr  Zr79  1  0.30833099  0.89902263  0.90616234  1
  Zr  Zr80  1  0.00191317  -0.00556861  0.40623435  1
  Zr  Zr81  1  0.89777203  0.10016627  0.09413893  1
  Zr  Zr82  1  0.60308307  0.40186484  0.59451411  1
  Zr  Zr83  1  0.40043556  0.79745217  0.40203628  1
  Zr  Zr84  1  -0.00164818  0.39042056  0.79464025  1
  Zr  Zr85  1  0.69418364  0.69286416  0.90751275  1
  Zr  Zr86  1  0.19945977  0.00776367  0.60093249  1
  Zr  Zr87  1  0.30404570  0.90271673  0.70663005  1
  Zr  Zr88  1  0.28585205  0.30186803  0.29807487  1
  Zr  Zr89  1  -0.00518769  0.39709731  0.00058498  1
  Zr  Zr90  1  0.59741755  0.00109862  0.00344561  1
  Zr  Zr91  1  0.49736523  0.49590066  0.69750382  1
  Zr  Zr92  1  0.40329067  0.39855387  0.20573588  1
  Zr  Zr93  1  0.49958233  0.90289569  0.70374301  1
  Zr  Zr94  1  0.91230290  0.50399313  0.50275589  1
  Zr  Zr95  1  0.70288889  0.29600679  0.49921650  1
  Zr  Zr96  1  0.89437965  0.89979568  0.69686114  1
  Zr  Zr97  1  0.40056876  0.01199793  0.40707428  1
  Zr  Zr98  1  0.00999698  0.79808302  0.59201423  1
  Zr  Zr99  1  0.51197620  0.70599004  0.30791699  1
  Ta  Ta100  1  0.69781390  0.10956815  0.10288083  1
  Ta  Ta101  1  0.89708507  0.09752841  0.30405134  1
  Ta  Ta102  1  0.39819320  0.59067476  0.40494112  1
  Ta  Ta103  1  0.29301128  0.29716181  0.69825713  1
  Ta  Ta104  1  0.18143143  0.79492759  0.40011881  1
  Ta  Ta105  1  0.80089119  0.00009430  0.20421360  1
  Ta  Ta106  1  -0.00044954  0.00493121  0.59656229  1
  Ta  Ta107  1  0.60242331  0.40297730  0.20464401  1
  Ta  Ta108  1  0.60259839  0.19937674  -0.00451259  1
  Ta  Ta109  1  -0.00988326  0.60875595  0.20792210  1
  Ta  Ta110  1  0.19167013  0.01378011  0.80752848  1
  Ta  Ta111  1  0.60592211  0.59828621  0.20169416  1
  Ta  Ta112  1  0.89339703  0.90036439  0.50730367  1
  Ta  Ta113  1  0.90219917  0.70027349  0.50303592  1
  Ta  Ta114  1  0.90635469  0.29607699  0.50864765  1
  Ta  Ta115  1  0.69601761  0.70123446  0.69760081  1
  Ta  Ta116  1  0.30211091  0.10260422  0.09863149  1
  Ta  Ta117  1  0.81222435  0.19032874  0.60013919  1
  Ta  Ta118  1  0.29884615  0.10651297  0.70810758  1
  Ta  Ta119  1  0.49849938  0.89830945  0.89368944  1
  Ta  Ta120  1  0.90792055  0.90238540  0.89233379  1
  Ta  Ta121  1  0.09672089  0.68477072  0.70853830  1
  Ta  Ta122  1  0.10185695  0.29586355  0.09978316  1
  Ta  Ta123  1  0.08344143  0.71069427  0.09994068  1
  Ta  Ta124  1  0.59524717  0.00111502  0.40540651  1
  Ta  Ta125  1  0.79642418  0.59890727  0.59818427  1
  Ta  Ta126  1  0.29486508  0.50385232  0.89476496  1
  Ta  Ta127  1  0.39292478  0.20176815  0.59730266  1
  Ta  Ta128  1  0.60413816  0.00618748  0.79423669  1
  Ta  Ta129  1  0.59116103  0.40322088  0.39547083  1
  Ta  Ta130  1  0.39924426  0.01223174  0.60195485  1
  Ta  Ta131  1  0.00795388  0.61268691  0.40092804  1
  Ta  Ta132  1  0.19636502  0.40065515  0.19552397  1
  Ta  Ta133  1  0.90685860  0.50295575  0.69908348  1
  Ta  Ta134  1  0.88926689  0.29208043  0.89774473  1
  Ta  Ta135  1  0.28558493  0.49824456  0.30687968  1
  Ta  Ta136  1  0.90220039  0.09102615  0.69908210  1
  Ta  Ta137  1  -0.00627453  0.19434426  -0.00935964  1
  Ta  Ta138  1  0.79659671  0.40061050  -0.00078958  1
  Ta  Ta139  1  0.49889900  0.30032142  0.50049500  1
  Ta  Ta140  1  0.00643440  0.00460496  -0.01866605  1
  Ta  Ta141  1  0.80981162  0.19484772  0.40474385  1
  Ta  Ta142  1  0.19394114  0.60218942  0.40098158  1
  Ta  Ta143  1  0.19276663  0.79933334  0.20176943  1
  Ta  Ta144  1  0.49797158  0.10086375  0.70146901  1
  Ta  Ta145  1  0.00623186  0.79707673  0.80533724  1
  Ta  Ta146  1  0.70144762  0.09786232  0.29936371  1
  Ta  Ta147  1  0.70992447  0.29420027  0.89880642  1
  Ta  Ta148  1  0.00902309  0.39234890  0.60541223  1
  Ta  Ta149  1  0.39881472  0.60029539  0.59157417  1
  Ti  Ti150  1  0.89832398  0.29475233  0.70243291  1
  Ti  Ti151  1  0.70420944  0.50241198  0.49253274  1
  Ti  Ti152  1  0.90075507  0.30010001  0.09152449  1
  Ti  Ti153  1  0.39874441  0.79180879  0.60543579  1
  Ti  Ti154  1  0.40105305  0.19819858  -0.00136345  1
  Ti  Ti155  1  0.39468497  0.00876660  0.80287679  1
  Ti  Ti156  1  0.81482373  0.60314577  0.39662530  1
  Ti  Ti157  1  0.50057333  0.10227076  0.50810743  1
  Ti  Ti158  1  0.70608156  0.09482596  0.69943610  1
  Ti  Ti159  1  0.40139383  0.00542042  0.00577593  1
  Ti  Ti160  1  0.29592501  0.70402053  0.30255392  1
  Ti  Ti161  1  0.70411358  0.10686292  0.89959476  1
  Ti  Ti162  1  0.90626256  0.50141745  0.29656330  1
  Ti  Ti163  1  0.71006058  0.90853380  0.10170649  1
  Ti  Ti164  1  0.70728625  0.68240019  0.09964220  1
  Ti  Ti165  1  0.70182841  0.29433644  0.09586671  1
  Ti  Ti166  1  0.09587113  0.10107501  0.50665609  1
  Ti  Ti167  1  0.09425988  0.50379096  0.69598737  1
  Ti  Ti168  1  0.48041478  0.89739639  0.10436688  1
  Ti  Ti169  1  0.70206503  0.49600891  0.70527058  1
  Ti  Ti170  1  0.89942924  0.69496822  0.09993344  1
  Ti  Ti171  1  -0.00103655  0.79149246  0.21925148  1
  Ti  Ti172  1  0.00199531  0.19926093  0.60503553  1
  Ti  Ti173  1  0.09808600  0.89490367  0.30040374  1
  Ti  Ti174  1  0.28997046  0.28897022  0.09824495  1
  Ti  Ti175  1  0.30532238  0.89652199  0.10124912  1
  Ti  Ti176  1  0.59887743  0.00042572  0.60234226  1
  Ti  Ti177  1  0.50224504  0.70128341  0.49680409  1
  Ti  Ti178  1  0.58699680  0.58447708  0.39950838  1
  Ti  Ti179  1  0.70468044  0.51249662  0.09413668  1
  Ti  Ti180  1  0.59981674  0.19813874  0.80198864  1
  Ti  Ti181  1  0.80656827  0.00370815  0.40434962  1
  Ti  Ti182  1  0.00020295  0.60592856  0.00248558  1
  Ti  Ti183  1  0.80204666  0.00490234  0.79974162  1
  Ti  Ti184  1  0.18603784  0.80069989  -0.00578022  1
  Ti  Ti185  1  0.00811637  0.39393227  0.41078578  1
  Ti  Ti186  1  0.70769538  0.90406407  0.50551900  1
  Ti  Ti187  1  0.10393791  0.49479742  0.50072087  1
  Ti  Ti188  1  0.89562160  0.51180078  0.10006926  1
  Ti  Ti189  1  0.10177855  0.30805010  0.29526509  1
  Ti  Ti190  1  0.90137042  0.89946753  0.30651733  1
  Ti  Ti191  1  0.40075105  0.79287468  0.80049943  1
  Ti  Ti192  1  0.49790139  0.29610219  0.69473585  1
  Ti  Ti193  1  0.29048374  0.28722400  0.90050829  1
  Ti  Ti194  1  0.19889204  -0.00722210  0.19215468  1
  Ti  Ti195  1  0.50181575  0.09702360  0.28989429  1
  Ti  Ti196  1  0.70184640  0.69229298  0.30361391  1
  Ti  Ti197  1  0.50004309  0.90202327  0.50154187  1
  Ti  Ti198  1  0.70476095  0.90282361  0.69393700  1
  Ti  Ti199  1  0.80830714  0.18703252  0.80065293  1
  Mo  Mo200  1  0.60245238  0.19682007  0.19556943  1
  Mo  Mo201  1  0.30312439  0.10637856  0.51057231  1
  Mo  Mo202  1  0.60477476  0.59810098  0.00695216  1
  Mo  Mo203  1  0.30462801  0.10203236  0.90221712  1
  Mo  Mo204  1  0.70687973  0.49157380  0.90708191  1
  Mo  Mo205  1  0.00163107  0.80031793  -0.00952836  1
  Mo  Mo206  1  0.50265483  0.72513071  0.89672055  1
  Mo  Mo207  1  0.90185578  0.69590704  0.30738737  1
  Mo  Mo208  1  -0.00200595  0.40154058  0.19390821  1
  Mo  Mo209  1  0.49674441  0.10251321  0.09383754  1
  Mo  Mo210  1  0.90367239  0.09971755  0.50503827  1
  Mo  Mo211  1  0.20019081  0.20671451  0.19294897  1
  Mo  Mo212  1  0.09627451  0.70305875  0.30023001  1
  Mo  Mo213  1  0.89824335  0.09787415  0.89212136  1
  Mo  Mo214  1  0.50566310  0.30262397  0.29968349  1
  Mo  Mo215  1  0.49687944  0.50099355  0.49560964  1
  Mo  Mo216  1  0.80359249  0.59468594  0.00722971  1
  Mo  Mo217  1  0.09402978  0.89903798  0.49997857  1
  Mo  Mo218  1  0.30264596  0.69946034  0.69369762  1
  Mo  Mo219  1  0.09719006  0.89963392  0.89790752  1
  Mo  Mo220  1  0.09378446  0.70253215  0.90174942  1
  Mo  Mo221  1  0.38953614  0.80146986  0.19936494  1
  Mo  Mo222  1  0.09807893  0.69700545  0.49801155  1
  Mo  Mo223  1  0.20818662  0.19797198  -0.00084101  1
  Mo  Mo224  1  0.29174311  0.50317941  0.49435802  1
  Mo  Mo225  1  0.00267073  0.59372462  0.59650359  1
  Mo  Mo226  1  0.09602065  0.30843693  0.50762743  1
  Mo  Mo227  1  0.00024220  -0.00092639  0.79946475  1
  Mo  Mo228  1  0.20457039  0.19545470  0.80058314  1
  Mo  Mo229  1  0.39862993  0.00338926  0.18741844  1
  Mo  Mo230  1  0.19899383  0.59972920  0.79443861  1
  Mo  Mo231  1  0.79641587  0.20487004  -0.00314607  1
  Mo  Mo232  1  0.60419284  0.81031084  0.79297463  1
  Mo  Mo233  1  0.29401429  0.30539030  0.50493948  1
  Mo  Mo234  1  0.50737474  0.50124567  0.29918826  1
  Mo  Mo235  1  0.19248334  0.40043961  0.59677199  1
  Mo  Mo236  1  0.10164000  0.10049871  0.89924571  1
  Mo  Mo237  1  0.49185306  0.48331232  0.90239768  1
  Mo  Mo238  1  -0.00272080  0.59899425  0.79527185  1
  Mo  Mo239  1  0.09710174  0.09815561  0.70220429  1
  Mo  Mo240  1  0.40586926  0.80869448  -0.00130764  1
  Mo  Mo241  1  0.09974677  0.29601076  0.70055328  1
  Mo  Mo242  1  0.19440485  0.40536120  0.40472678  1
  Mo  Mo243  1  -0.00230409  0.80182884  0.40120388  1
  Mo  Mo244  1  0.80079481  0.39476328  0.79860218  1
  Mo  Mo245  1  0.79550947  0.79513033  0.59890934  1
  Mo  Mo246  1  0.80349918  0.59891267  0.20069298  1
  Mo  Mo247  1  0.59784157  0.81766459  0.40923815  1
  Mo  Mo248  1  0.80150189  -0.00147655  0.60234236  1
  Mo  Mo249  1  0.50952336  0.28904593  0.90491403  1
