# generated using pymatgen
data_HfZrTaTiMo
_symmetry_space_group_name_H-M   'P 1'
_cell_length_a   16.87857904
_cell_length_b   16.89381575
_cell_length_c   16.88033570
_cell_angle_alpha   90.05140274
_cell_angle_beta   90.02630676
_cell_angle_gamma   90.00004982
_symmetry_Int_Tables_number   1
_chemical_formula_structural   HfZrTaTiMo
_chemical_formula_sum   'Hf50 Zr50 Ta50 Ti50 Mo50'
_cell_volume   4813.31732114
_cell_formula_units_Z   50
loop_
 _symmetry_equiv_pos_site_id
 _symmetry_equiv_pos_as_xyz
  1  'x, y, z'
loop_
 _atom_site_type_symbol
 _atom_site_label
 _atom_site_symmetry_multiplicity
 _atom_site_fract_x
 _atom_site_fract_y
 _atom_site_fract_z
 _atom_site_occupancy
  Hf  Hf0  1  0.60806893  0.80444383  0.59780781  1
  Hf  Hf1  1  0.50797819  0.69840801  0.49771666  1
  Hf  Hf2  1  0.38939451  0.58720184  0.39835587  1
  Hf  Hf3  1  0.10074706  0.90496117  0.89396033  1
  Hf  Hf4  1  0.70736624  0.90015486  0.10639431  1
  Hf  Hf5  1  0.01130287  0.60595073  0.00940682  1
  Hf  Hf6  1  0.59632462  0.19991721  0.39566026  1
  Hf  Hf7  1  0.19155652  0.81324968  0.20351522  1
  Hf  Hf8  1  0.19150230  -0.00207162  0.01424621  1
  Hf  Hf9  1  0.40464831  0.19593805  0.20120802  1
  Hf  Hf10  1  0.40059181  0.20338836  0.00102439  1
  Hf  Hf11  1  -0.00396657  0.19551026  0.59553347  1
  Hf  Hf12  1  0.29323042  0.29537691  0.29555118  1
  Hf  Hf13  1  0.38686134  0.81073178  0.40185878  1
  Hf  Hf14  1  0.70517535  0.10682813  0.10696866  1
  Hf  Hf15  1  0.39553678  0.80454419  0.20548291  1
  Hf  Hf16  1  0.50150158  0.09771214  0.49795223  1
  Hf  Hf17  1  0.38804825  0.00246400  0.38611617  1
  Hf  Hf18  1  0.49926125  0.90449999  0.70518497  1
  Hf  Hf19  1  0.80888751  0.39951931  0.20822156  1
  Hf  Hf20  1  0.00044969  0.80128459  0.20002932  1
  Hf  Hf21  1  0.59560502  0.00509787  0.19667716  1
  Hf  Hf22  1  0.90514419  0.50592262  0.49701856  1
  Hf  Hf23  1  0.50440892  0.50124728  0.70134731  1
  Hf  Hf24  1  0.39287990  0.80465146  0.59404557  1
  Hf  Hf25  1  0.60075177  0.20720160  0.80967596  1
  Hf  Hf26  1  0.19308515  0.80425600  0.01459969  1
  Hf  Hf27  1  0.50338037  0.70482193  0.69901654  1
  Hf  Hf28  1  0.18833515  0.19490831  0.60049202  1
  Hf  Hf29  1  0.60923163  0.40136115  0.58203968  1
  Hf  Hf30  1  0.70290061  0.90323638  0.71009655  1
  Hf  Hf31  1  0.29210681  0.10907679  0.10648830  1
  Hf  Hf32  1  0.29327514  0.29735974  0.49779297  1
  Hf  Hf33  1  0.29918884  0.10256971  0.50166453  1
  Hf  Hf34  1  0.51021200  0.90737194  0.49007486  1
  Hf  Hf35  1  0.28583145  0.69753412  0.49985976  1
  Hf  Hf36  1  0.39653326  0.40204517  0.19575249  1
  Hf  Hf37  1  0.60951990  0.61819348  0.80654107  1
  Hf  Hf38  1  0.60799356  0.61386676  -0.00173061  1
  Hf  Hf39  1  0.09923520  0.69162795  0.68801881  1
  Hf  Hf40  1  0.80435799  0.60600713  0.20816542  1
  Hf  Hf41  1  0.39459552  0.40337123  0.58877178  1
  Hf  Hf42  1  0.80952672  0.79691443  0.40131487  1
  Hf  Hf43  1  0.80632929  0.60392785  0.80173047  1
  Hf  Hf44  1  0.09719737  0.30697271  0.70246919  1
  Hf  Hf45  1  0.90456614  0.09346630  0.29961048  1
  Hf  Hf46  1  0.10364197  0.70317679  0.90281769  1
  Hf  Hf47  1  0.39558972  0.60361430  0.80375459  1
  Hf  Hf48  1  -0.00259643  0.39612616  0.39770682  1
  Hf  Hf49  1  0.70796298  0.10117219  0.29429932  1
  Zr  Zr50  1  0.29340195  0.09726687  0.89866989  1
  Zr  Zr51  1  0.69958043  0.30223115  0.70504418  1
  Zr  Zr52  1  0.80454712  0.39790674  0.59513633  1
  Zr  Zr53  1  0.09922294  0.30194358  0.29543564  1
  Zr  Zr54  1  0.19010529  0.00596353  0.21154445  1
  Zr  Zr55  1  0.10421056  0.10172922  0.89959638  1
  Zr  Zr56  1  0.19335580  0.59892535  0.19422352  1
  Zr  Zr57  1  0.59865365  0.60085090  0.19679011  1
  Zr  Zr58  1  0.39784328  0.60568585  -0.00072235  1
  Zr  Zr59  1  0.49866123  0.90191078  0.10105013  1
  Zr  Zr60  1  0.19947328  0.57778295  0.59622878  1
  Zr  Zr61  1  0.79921430  0.00332631  0.59318836  1
  Zr  Zr62  1  0.50781562  0.50170531  0.49476118  1
  Zr  Zr63  1  0.29819338  0.09558659  0.70178185  1
  Zr  Zr64  1  -0.00372859  0.20476487  0.80399176  1
  Zr  Zr65  1  0.50039862  0.31217935  0.70234995  1
  Zr  Zr66  1  0.81751658  0.39330269  0.80767278  1
  Zr  Zr67  1  0.49940631  0.90274648  0.89320511  1
  Zr  Zr68  1  0.69896266  0.70234667  0.30749138  1
  Zr  Zr69  1  0.89367401  0.09530137  0.11110269  1
  Zr  Zr70  1  0.30611422  0.47646698  0.91271822  1
  Zr  Zr71  1  0.19939160  0.58868018  0.80586168  1
  Zr  Zr72  1  0.80336272  -0.00281632  0.40216565  1
  Zr  Zr73  1  0.00244856  0.38993473  0.00077693  1
  Zr  Zr74  1  0.50477513  0.48898029  0.89318350  1
  Zr  Zr75  1  0.89218141  0.90239508  0.70145172  1
  Zr  Zr76  1  0.29336758  0.70181184  0.70013971  1
  Zr  Zr77  1  0.89358239  0.89878994  0.89361939  1
  Zr  Zr78  1  0.19536007  -0.00182332  0.39864999  1
  Zr  Zr79  1  0.00380614  0.59316564  0.79941891  1
  Zr  Zr80  1  0.39303676  0.20979672  0.80175262  1
  Zr  Zr81  1  0.80168960  -0.00551896  -0.00303390  1
  Zr  Zr82  1  0.39298833  0.80233587  -0.00107838  1
  Zr  Zr83  1  0.49634941  0.09553559  0.69886941  1
  Zr  Zr84  1  0.69275360  0.49850549  0.70350486  1
  Zr  Zr85  1  -0.00180230  0.79626497  0.79553111  1
  Zr  Zr86  1  0.70357975  0.49729001  0.10022779  1
  Zr  Zr87  1  0.29118408  0.69869184  0.30068384  1
  Zr  Zr88  1  0.90646299  0.50174398  0.10494995  1
  Zr  Zr89  1  0.80008040  0.59956366  0.59776789  1
  Zr  Zr90  1  0.69866892  0.29660055  0.29568261  1
  Zr  Zr91  1  0.50225396  0.69962955  0.30619590  1
  Zr  Zr92  1  0.29664696  0.90841701  0.70766624  1
  Zr  Zr93  1  0.49961395  0.49049534  0.08881572  1
  Zr  Zr94  1  0.70629332  0.49915949  0.90336559  1
  Zr  Zr95  1  0.80559562  0.38649206  0.00012394  1
  Zr  Zr96  1  -0.00399130  0.80247851  0.59398241  1
  Zr  Zr97  1  0.08851706  0.70002240  0.31182993  1
  Zr  Zr98  1  0.70571195  0.09633446  0.89574565  1
  Zr  Zr99  1  0.20484557  0.40766304  0.19488943  1
  Ta  Ta100  1  0.90578296  0.28992967  0.11037842  1
  Ta  Ta101  1  0.69783723  0.10356217  0.49455131  1
  Ta  Ta102  1  0.39666815  0.59613168  0.59831044  1
  Ta  Ta103  1  0.39913983  0.20041373  0.39315211  1
  Ta  Ta104  1  0.60807858  0.37847385  -0.00514673  1
  Ta  Ta105  1  0.60126917  0.80017921  0.19904880  1
  Ta  Ta106  1  0.29476649  0.90845305  0.89687638  1
  Ta  Ta107  1  0.00315235  0.00614233  0.79008885  1
  Ta  Ta108  1  0.39443771  0.59246842  0.19761659  1
  Ta  Ta109  1  0.60874145  0.80102082  -0.00137646  1
  Ta  Ta110  1  0.69853618  0.49531001  0.30803550  1
  Ta  Ta111  1  0.59783225  0.19701861  0.00079443  1
  Ta  Ta112  1  -0.00006089  0.80546847  0.00899781  1
  Ta  Ta113  1  0.00164546  0.00555303  0.59998705  1
  Ta  Ta114  1  0.50865960  0.29573132  0.10290502  1
  Ta  Ta115  1  0.19388897  0.19070710  0.39190799  1
  Ta  Ta116  1  0.59832090  0.00342025  0.00031470  1
  Ta  Ta117  1  0.18376369  -0.00276575  0.60037554  1
  Ta  Ta118  1  0.20090144  0.39412781  0.80196683  1
  Ta  Ta119  1  0.08852821  0.49843009  0.29794246  1
  Ta  Ta120  1  0.19327306  0.81367865  0.40062477  1
  Ta  Ta121  1  0.50586901  0.49209083  0.30061723  1
  Ta  Ta122  1  0.00219904  0.19379282  0.00587747  1
  Ta  Ta123  1  0.00096432  0.19588839  0.40151452  1
  Ta  Ta124  1  0.70301049  0.28835977  0.10642991  1
  Ta  Ta125  1  0.40064653  0.00701352  0.00574836  1
  Ta  Ta126  1  0.19503708  0.58457837  0.39883494  1
  Ta  Ta127  1  0.80949188  0.20192392  0.40641119  1
  Ta  Ta128  1  0.19134041  0.81399560  0.59133552  1
  Ta  Ta129  1  0.49882568  0.70579899  0.10163411  1
  Ta  Ta130  1  0.30106141  0.48725016  0.70170685  1
  Ta  Ta131  1  0.29750935  0.69916586  0.10250897  1
  Ta  Ta132  1  0.39693185  0.39740035  0.39326009  1
  Ta  Ta133  1  0.79971866  0.19974958  0.59669469  1
  Ta  Ta134  1  0.09425769  0.69474958  0.49643185  1
  Ta  Ta135  1  0.80095211  0.39992694  0.40065797  1
  Ta  Ta136  1  0.49737712  0.09689325  0.90058996  1
  Ta  Ta137  1  0.20264744  0.40953512  0.40321107  1
  Ta  Ta138  1  0.00105825  -0.00069669  0.00773675  1
  Ta  Ta139  1  0.80728932  0.20350288  0.80218934  1
  Ta  Ta140  1  0.90716477  0.50437772  0.90749567  1
  Ta  Ta141  1  0.11012505  0.29753399  0.90668895  1
  Ta  Ta142  1  0.01042936  0.19150552  0.20072983  1
  Ta  Ta143  1  0.60495532  0.20119632  0.59517060  1
  Ta  Ta144  1  0.89856840  0.69860061  0.91137222  1
  Ta  Ta145  1  0.50650673  0.90324177  0.30225854  1
  Ta  Ta146  1  0.69953586  0.69434313  0.49722521  1
  Ta  Ta147  1  0.89497264  0.10144029  0.69995240  1
  Ta  Ta148  1  0.80023275  0.79706353  0.58950245  1
  Ta  Ta149  1  0.89608686  0.70654044  0.09919444  1
  Ti  Ti150  1  0.50472608  0.30429870  0.29699004  1
  Ti  Ti151  1  0.48937746  0.30943454  0.90261520  1
  Ti  Ti152  1  0.90194833  0.09581625  0.89747052  1
  Ti  Ti153  1  0.50107571  0.09627426  0.29658810  1
  Ti  Ti154  1  0.80733253  0.20325199  -0.00635794  1
  Ti  Ti155  1  0.40484705  0.20593281  0.59728964  1
  Ti  Ti156  1  0.00776334  0.40328502  0.59940499  1
  Ti  Ti157  1  0.19823277  0.20287944  0.79583599  1
  Ti  Ti158  1  0.70400026  0.10330802  0.69977746  1
  Ti  Ti159  1  0.08639523  0.90043040  0.49041277  1
  Ti  Ti160  1  0.60211117  0.00536180  0.80189305  1
  Ti  Ti161  1  0.29289556  0.30478415  0.08578192  1
  Ti  Ti162  1  0.10329637  0.30394085  0.49787788  1
  Ti  Ti163  1  0.28938901  0.70750038  0.90282512  1
  Ti  Ti164  1  0.60946315  0.59192401  0.40297321  1
  Ti  Ti165  1  0.60786605  0.00563793  0.59892005  1
  Ti  Ti166  1  0.10068346  0.48799121  0.90236708  1
  Ti  Ti167  1  0.39264343  0.79986724  0.80289955  1
  Ti  Ti168  1  0.20063263  0.59330923  0.00976146  1
  Ti  Ti169  1  0.69859311  0.89539955  0.89249119  1
  Ti  Ti170  1  0.60241921  0.39759076  0.19746851  1
  Ti  Ti171  1  -0.00118793  0.60759527  0.19965897  1
  Ti  Ti172  1  0.19431759  0.80591148  0.79282247  1
  Ti  Ti173  1  0.90981105  0.68976369  0.48707427  1
  Ti  Ti174  1  0.10672475  0.29177206  0.10152744  1
  Ti  Ti175  1  0.39159804  -0.00838304  0.59000219  1
  Ti  Ti176  1  0.69408542  0.90087360  0.48852508  1
  Ti  Ti177  1  0.90634442  0.30301588  0.69801458  1
  Ti  Ti178  1  0.79355342  0.78482210  0.79891292  1
  Ti  Ti179  1  0.50485571  0.71582697  0.89819971  1
  Ti  Ti180  1  0.90849031  0.90542331  0.49449267  1
  Ti  Ti181  1  0.91797394  0.49519174  0.69905438  1
  Ti  Ti182  1  0.89766076  0.90300062  0.10948130  1
  Ti  Ti183  1  0.90489705  0.29227078  0.29653083  1
  Ti  Ti184  1  0.70894196  0.70666011  0.09977003  1
  Ti  Ti185  1  0.69222649  0.90108030  0.30407108  1
  Ti  Ti186  1  0.30557145  0.91035164  0.10841889  1
  Ti  Ti187  1  0.09060695  0.09489032  0.49259048  1
  Ti  Ti188  1  0.90215355  0.69617360  0.69054746  1
  Ti  Ti189  1  0.50013517  0.29952524  0.49118591  1
  Ti  Ti190  1  0.90270866  0.29990319  0.50050486  1
  Ti  Ti191  1  0.91251528  0.90346149  0.30331124  1
  Ti  Ti192  1  0.70234358  0.29791714  0.49045648  1
  Ti  Ti193  1  0.90568352  0.50963594  0.30630934  1
  Ti  Ti194  1  0.79973688  0.79873389  -0.00205376  1
  Ti  Ti195  1  0.09188752  0.50048558  0.49912469  1
  Ti  Ti196  1  0.29540329  0.30536935  0.69668756  1
  Ti  Ti197  1  0.09670325  0.48987637  0.10252269  1
  Ti  Ti198  1  0.80543254  0.80193268  0.21004083  1
  Ti  Ti199  1  0.69954261  0.70272959  0.69191963  1
  Mo  Mo200  1  0.59980767  0.39535300  0.39315496  1
  Mo  Mo201  1  0.00066696  0.59663301  0.39940126  1
  Mo  Mo202  1  0.71113732  0.71026832  0.90520889  1
  Mo  Mo203  1  0.59300715  0.19970177  0.19800799  1
  Mo  Mo204  1  0.60245115  0.00385696  0.39323321  1
  Mo  Mo205  1  0.70692676  0.50251272  0.48741308  1
  Mo  Mo206  1  0.90765673  0.28919900  0.90819682  1
  Mo  Mo207  1  0.08636443  0.90679580  0.10418105  1
  Mo  Mo208  1  0.80202612  -0.02070336  0.20780688  1
  Mo  Mo209  1  0.19649748  0.39686374  0.00293585  1
  Mo  Mo210  1  0.30074256  0.49581745  0.30143312  1
  Mo  Mo211  1  0.19536329  0.20545643  0.00463739  1
  Mo  Mo212  1  0.70788580  0.28945319  0.90757328  1
  Mo  Mo213  1  0.00595181  0.40162517  0.80588253  1
  Mo  Mo214  1  0.89886458  0.69954523  0.29771332  1
  Mo  Mo215  1  0.29897726  0.50485090  0.09681920  1
  Mo  Mo216  1  0.28866576  0.90543014  0.50281188  1
  Mo  Mo217  1  0.60118858  0.39211183  0.81478321  1
  Mo  Mo218  1  0.39337161  0.39779104  0.79467943  1
  Mo  Mo219  1  0.30007524  0.49385736  0.50009023  1
  Mo  Mo220  1  0.19504514  0.39503878  0.59878258  1
  Mo  Mo221  1  0.50060408  0.10155852  0.09449564  1
  Mo  Mo222  1  0.90025574  0.10509833  0.50159763  1
  Mo  Mo223  1  0.09987351  0.48694777  0.70026081  1
  Mo  Mo224  1  0.29117975  0.29643797  0.90116454  1
  Mo  Mo225  1  0.80172800  0.59653723  0.39874220  1
  Mo  Mo226  1  0.09763581  0.90450000  0.69678841  1
  Mo  Mo227  1  0.60686770  0.80493711  0.39840770  1
  Mo  Mo228  1  0.30086481  0.90308358  0.29751326  1
  Mo  Mo229  1  0.40251619  0.38731155  0.00545429  1
  Mo  Mo230  1  0.80345274  0.01289605  0.79717983  1
  Mo  Mo231  1  0.09422555  0.10167237  0.30220172  1
  Mo  Mo232  1  0.61030216  0.80128571  0.80201854  1
  Mo  Mo233  1  0.09543190  0.10331435  0.10309411  1
  Mo  Mo234  1  0.08487614  0.90425053  0.30779167  1
  Mo  Mo235  1  0.60229990  0.60569604  0.59760665  1
  Mo  Mo236  1  0.09858053  0.70285235  0.10036780  1
  Mo  Mo237  1  0.00062502  0.39319792  0.20175790  1
  Mo  Mo238  1  0.19292766  -0.00141320  0.79410583  1
  Mo  Mo239  1  0.29910288  0.10797664  0.29883316  1
  Mo  Mo240  1  0.19650236  0.20210658  0.19740609  1
  Mo  Mo241  1  0.80770314  0.60947429  0.00354597  1
  Mo  Mo242  1  0.81036849  0.20752707  0.20629745  1
  Mo  Mo243  1  0.39891482  0.00264748  0.20205161  1
  Mo  Mo244  1  -0.00027665  0.00086610  0.40431403  1
  Mo  Mo245  1  0.00060289  -0.00353209  0.20190777  1
  Mo  Mo246  1  -0.00262963  0.80071798  0.40152913  1
  Mo  Mo247  1  0.00170156  0.59796507  0.59720022  1
  Mo  Mo248  1  0.39935246  0.00035315  0.81108154  1
  Mo  Mo249  1  0.09476574  0.10037259  0.69890800  1
