# generated using pymatgen
data_HfZrTaTiMo
_symmetry_space_group_name_H-M   'P 1'
_cell_length_a   16.89295118
_cell_length_b   16.88457773
_cell_length_c   16.88365548
_cell_angle_alpha   89.97387357
_cell_angle_beta   90.01000216
_cell_angle_gamma   89.98661829
_symmetry_Int_Tables_number   1
_chemical_formula_structural   HfZrTaTiMo
_chemical_formula_sum   'Hf50 Zr50 Ta50 Ti50 Mo50'
_cell_volume   4815.73021297
_cell_formula_units_Z   50
loop_
 _symmetry_equiv_pos_site_id
 _symmetry_equiv_pos_as_xyz
  1  'x, y, z'
loop_
 _atom_site_type_symbol
 _atom_site_label
 _atom_site_symmetry_multiplicity
 _atom_site_fract_x
 _atom_site_fract_y
 _atom_site_fract_z
 _atom_site_occupancy
  Hf  Hf0  1  0.29309411  0.70576080  0.30524034  1
  Hf  Hf1  1  0.79898641  0.20188764  0.60345238  1
  Hf  Hf2  1  0.80368858  -0.00256247  0.40027784  1
  Hf  Hf3  1  0.30016984  0.48832651  0.90384534  1
  Hf  Hf4  1  0.79676082  0.00442684  0.19325830  1
  Hf  Hf5  1  0.49732644  0.70468654  0.90187774  1
  Hf  Hf6  1  0.50503758  0.10581559  0.50313612  1
  Hf  Hf7  1  0.70212433  0.10725095  0.89709990  1
  Hf  Hf8  1  -0.00343822  0.00153496  0.79510771  1
  Hf  Hf9  1  0.70264281  0.49905417  0.30187042  1
  Hf  Hf10  1  0.59438481  0.79518481  0.19909020  1
  Hf  Hf11  1  0.01001241  0.59994979  0.20321337  1
  Hf  Hf12  1  0.90627744  0.90134784  0.09425804  1
  Hf  Hf13  1  0.78304586  0.39125372  0.60863337  1
  Hf  Hf14  1  0.10835945  0.09906455  0.70845101  1
  Hf  Hf15  1  0.60038124  0.21436318  0.60651360  1
  Hf  Hf16  1  0.80558728  0.38935452  0.20185015  1
  Hf  Hf17  1  0.19862634  0.00452665  0.19957766  1
  Hf  Hf18  1  0.89990170  0.49388980  0.70153400  1
  Hf  Hf19  1  0.70343879  0.50382308  0.49306563  1
  Hf  Hf20  1  0.09921889  0.29944382  0.70512365  1
  Hf  Hf21  1  0.29286125  0.49817081  0.71054114  1
  Hf  Hf22  1  0.89663045  0.49995550  0.50317376  1
  Hf  Hf23  1  0.10379548  0.10213439  0.89864486  1
  Hf  Hf24  1  0.70369053  0.10046452  0.70548826  1
  Hf  Hf25  1  -0.00285230  0.18539202  0.60582414  1
  Hf  Hf26  1  0.58747862  0.39961666  0.40157616  1
  Hf  Hf27  1  0.58017590  0.59569970  0.39047578  1
  Hf  Hf28  1  0.90832106  0.10269721  0.09488007  1
  Hf  Hf29  1  0.19642381  0.20631012  0.00684238  1
  Hf  Hf30  1  0.69962929  0.69810213  0.49730857  1
  Hf  Hf31  1  0.00094192  0.80788364  0.60368594  1
  Hf  Hf32  1  0.90350778  0.30400568  0.49950081  1
  Hf  Hf33  1  0.20274592  0.60890205  -0.00600785  1
  Hf  Hf34  1  0.89582137  0.69643312  0.70109345  1
  Hf  Hf35  1  0.20032600  0.39938801  0.60441725  1
  Hf  Hf36  1  0.40122309  0.80313557  0.19166227  1
  Hf  Hf37  1  0.10539846  0.70296318  0.50456158  1
  Hf  Hf38  1  0.19055375  0.60092655  0.40051307  1
  Hf  Hf39  1  0.70224717  0.69824100  0.30423892  1
  Hf  Hf40  1  0.90311658  0.70496597  0.09186965  1
  Hf  Hf41  1  0.38716247  0.80639174  0.00112227  1
  Hf  Hf42  1  0.69615387  0.49230328  0.09176845  1
  Hf  Hf43  1  0.39853024  -0.00252002  0.39563068  1
  Hf  Hf44  1  0.10134562  0.89570056  0.90234151  1
  Hf  Hf45  1  0.00032876  0.39572736  0.20123272  1
  Hf  Hf46  1  0.38637654  0.61015589  0.60069792  1
  Hf  Hf47  1  0.00781680  0.79345773  0.20002727  1
  Hf  Hf48  1  0.90474875  0.48880373  0.08669522  1
  Hf  Hf49  1  0.89587843  0.69988718  0.30505297  1
  Zr  Zr50  1  0.59496665  0.80774055  0.00629266  1
  Zr  Zr51  1  0.29662510  0.89482957  0.30412050  1
  Zr  Zr52  1  0.80192212  0.59803903  0.19396688  1
  Zr  Zr53  1  0.10185545  0.29510761  0.29497951  1
  Zr  Zr54  1  0.79206977  0.59705253  -0.00627495  1
  Zr  Zr55  1  0.09392403  0.29932672  0.49999130  1
  Zr  Zr56  1  0.11009935  0.48841846  0.09807891  1
  Zr  Zr57  1  0.30037035  0.10676761  0.90327046  1
  Zr  Zr58  1  0.20140844  -0.01073132  0.60601872  1
  Zr  Zr59  1  0.39895078  0.19907252  0.39634921  1
  Zr  Zr60  1  0.90107396  0.09499469  0.49762944  1
  Zr  Zr61  1  0.90877347  0.09743830  0.29495138  1
  Zr  Zr62  1  0.50412685  0.10745506  0.09766740  1
  Zr  Zr63  1  0.89313341  0.48523938  0.89929173  1
  Zr  Zr64  1  0.41061513  0.60242164  0.20383540  1
  Zr  Zr65  1  0.19678288  0.79679605  0.18690641  1
  Zr  Zr66  1  0.40418750  0.39936371  0.20033408  1
  Zr  Zr67  1  0.50895348  0.28706855  0.29398732  1
  Zr  Zr68  1  0.88503450  0.90435271  0.70574446  1
  Zr  Zr69  1  0.70730809  0.90480892  0.89685060  1
  Zr  Zr70  1  0.90211181  0.30592529  0.70954939  1
  Zr  Zr71  1  0.19675518  0.00312926  0.40204190  1
  Zr  Zr72  1  0.00164767  0.40962393  0.39113022  1
  Zr  Zr73  1  0.29015400  0.30097385  0.29617422  1
  Zr  Zr74  1  0.39973466  0.00109914  0.80345405  1
  Zr  Zr75  1  0.59537031  -0.00397812  0.40266567  1
  Zr  Zr76  1  0.69625218  0.90166424  0.29551638  1
  Zr  Zr77  1  0.40470487  0.39857477  0.60032455  1
  Zr  Zr78  1  0.00929555  0.79884824  0.79798378  1
  Zr  Zr79  1  0.49736398  0.50356673  0.71352476  1
  Zr  Zr80  1  0.38947778  0.61138179  0.80961817  1
  Zr  Zr81  1  0.50158704  0.29623633  0.09012255  1
  Zr  Zr82  1  0.68658985  0.69681066  0.69375457  1
  Zr  Zr83  1  0.59373946  0.39737401  0.59922926  1
  Zr  Zr84  1  0.89751898  0.71208500  0.90053603  1
  Zr  Zr85  1  0.20459205  0.19548522  0.59883531  1
  Zr  Zr86  1  0.28625667  0.50035155  0.28704087  1
  Zr  Zr87  1  0.39999726  0.59775612  0.39992971  1
  Zr  Zr88  1  0.59444842  0.81022797  0.79495668  1
  Zr  Zr89  1  0.69747034  0.89894556  0.50455523  1
  Zr  Zr90  1  0.01671742  0.40789178  0.81062394  1
  Zr  Zr91  1  0.40401637  0.20833971  0.79756705  1
  Zr  Zr92  1  0.59246812  0.00504038  0.80124637  1
  Zr  Zr93  1  0.30936048  0.09457926  0.50837308  1
  Zr  Zr94  1  0.01459419  0.60155547  -0.01104791  1
  Zr  Zr95  1  0.00576924  0.59832970  0.60650367  1
  Zr  Zr96  1  0.50091736  0.70955404  0.50851931  1
  Zr  Zr97  1  0.29564523  0.30204960  0.49235341  1
  Zr  Zr98  1  0.78727477  0.59334679  0.80309979  1
  Zr  Zr99  1  0.51020555  0.09840061  0.28736430  1
  Ta  Ta100  1  0.80034607  0.00945254  -0.00080327  1
  Ta  Ta101  1  0.39678586  -0.00046493  0.00239827  1
  Ta  Ta102  1  0.20652412  -0.01306920  0.80130728  1
  Ta  Ta103  1  0.20506820  -0.00662776  0.00109409  1
  Ta  Ta104  1  0.40658934  0.21350807  0.60672290  1
  Ta  Ta105  1  0.69864669  0.29406163  0.29708784  1
  Ta  Ta106  1  0.09891927  0.89440234  0.30649927  1
  Ta  Ta107  1  0.69254356  0.70291142  0.90487946  1
  Ta  Ta108  1  0.89713214  0.90385801  0.90404003  1
  Ta  Ta109  1  0.49972092  0.49469069  0.09002931  1
  Ta  Ta110  1  0.10339011  0.89521196  0.50032790  1
  Ta  Ta111  1  0.48883577  0.71197404  0.70115172  1
  Ta  Ta112  1  0.49771692  0.48855434  0.90672209  1
  Ta  Ta113  1  0.69699109  0.70030186  0.09826321  1
  Ta  Ta114  1  0.80344468  0.20208466  0.39019256  1
  Ta  Ta115  1  0.90651103  0.89865933  0.29966024  1
  Ta  Ta116  1  0.80124813  0.20342554  0.19250858  1
  Ta  Ta117  1  0.80287937  0.20219803  -0.00124153  1
  Ta  Ta118  1  0.29926933  0.10182169  0.09583969  1
  Ta  Ta119  1  0.50222563  0.30243913  0.90566450  1
  Ta  Ta120  1  0.19142979  0.18230307  0.39507906  1
  Ta  Ta121  1  0.50131896  0.10629077  0.69813640  1
  Ta  Ta122  1  0.01470812  0.60039737  0.80570691  1
  Ta  Ta123  1  0.40491131  0.40931269  0.40090512  1
  Ta  Ta124  1  0.00512542  -0.00542869  0.60124869  1
  Ta  Ta125  1  0.79956370  0.80353939  0.19699120  1
  Ta  Ta126  1  0.80125515  0.80268281  0.59583436  1
  Ta  Ta127  1  0.59739664  0.00077190  0.60552211  1
  Ta  Ta128  1  0.60231859  0.00611619  0.00261924  1
  Ta  Ta129  1  0.09666895  0.90048915  0.09200210  1
  Ta  Ta130  1  0.90540690  0.29921294  0.08985488  1
  Ta  Ta131  1  0.80893968  0.80587036  0.40468784  1
  Ta  Ta132  1  0.21118169  0.79386723  0.60429242  1
  Ta  Ta133  1  0.19374015  0.41143993  0.39715987  1
  Ta  Ta134  1  0.69858692  0.10546459  0.49641726  1
  Ta  Ta135  1  0.89632835  0.69723222  0.50078631  1
  Ta  Ta136  1  0.49347789  0.90527618  0.90422119  1
  Ta  Ta137  1  0.60406061  0.39731714  0.19426889  1
  Ta  Ta138  1  0.11429741  0.69803111  0.70219072  1
  Ta  Ta139  1  0.38480442  0.19454676  0.19607504  1
  Ta  Ta140  1  0.29257786  0.50424244  0.50166452  1
  Ta  Ta141  1  0.31068341  0.88790161  0.70521807  1
  Ta  Ta142  1  0.69783198  0.29466117  0.48395621  1
  Ta  Ta143  1  0.30010158  0.49382585  0.09542428  1
  Ta  Ta144  1  0.59441574  0.59704375  0.19618305  1
  Ta  Ta145  1  0.00461312  0.60267565  0.39769840  1
  Ta  Ta146  1  0.39253778  0.00062773  0.19486952  1
  Ta  Ta147  1  0.59715721  0.59572436  -0.00312687  1
  Ta  Ta148  1  0.69556611  0.10664934  0.29448099  1
  Ta  Ta149  1  0.00009009  0.80000514  0.40414239  1
  Ti  Ti150  1  0.89998505  0.30278863  0.90234450  1
  Ti  Ti151  1  0.59927124  0.39166075  0.80063578  1
  Ti  Ti152  1  0.59040104  0.80073988  0.39490146  1
  Ti  Ti153  1  0.78556580  0.38596793  -0.00597419  1
  Ti  Ti154  1  0.21249333  0.21169495  0.79883576  1
  Ti  Ti155  1  0.49991617  0.90266339  0.29166332  1
  Ti  Ti156  1  0.89416005  0.50740140  0.30584412  1
  Ti  Ti157  1  0.00348983  0.20206508  0.19636903  1
  Ti  Ti158  1  0.69583615  0.29935136  0.89257879  1
  Ti  Ti159  1  0.79312632  0.80537859  0.00462410  1
  Ti  Ti160  1  0.00202377  0.20602532  -0.00555142  1
  Ti  Ti161  1  0.58758692  0.58965897  0.59678440  1
  Ti  Ti162  1  0.39724596  0.59947723  -0.00041004  1
  Ti  Ti163  1  0.30552301  0.09960842  0.70085246  1
  Ti  Ti164  1  0.10301565  0.29844749  0.89854418  1
  Ti  Ti165  1  0.69635550  0.90563844  0.10051158  1
  Ti  Ti166  1  -0.01113365  0.19258301  0.80625419  1
  Ti  Ti167  1  0.49379810  0.89750159  0.50855909  1
  Ti  Ti168  1  0.09683258  0.09808058  0.09583111  1
  Ti  Ti169  1  0.18658878  0.60951558  0.19642795  1
  Ti  Ti170  1  0.21223676  0.79594464  0.80523458  1
  Ti  Ti171  1  0.61738737  0.20634143  0.00429148  1
  Ti  Ti172  1  0.59444041  0.81409242  0.60864189  1
  Ti  Ti173  1  0.19547066  0.19306412  0.19707172  1
  Ti  Ti174  1  0.09925643  0.49956412  0.51050811  1
  Ti  Ti175  1  0.79075128  0.79695726  0.79729453  1
  Ti  Ti176  1  0.29721390  0.30566930  0.09861484  1
  Ti  Ti177  1  0.80906134  0.19999714  0.80328393  1
  Ti  Ti178  1  0.50146711  0.11357888  0.91002446  1
  Ti  Ti179  1  0.30032336  0.69157689  0.10019700  1
  Ti  Ti180  1  0.10998293  0.50276084  0.70585638  1
  Ti  Ti181  1  0.79355815  0.59824156  0.60358919  1
  Ti  Ti182  1  0.30479038  0.88612822  0.50320960  1
  Ti  Ti183  1  0.40720412  -0.00664585  0.60770233  1
  Ti  Ti184  1  0.00702832  -0.00423051  0.40567176  1
  Ti  Ti185  1  0.00034343  0.00322914  -0.00807802  1
  Ti  Ti186  1  0.80420426  0.39011908  0.39136580  1
  Ti  Ti187  1  0.40471914  0.79630282  0.40155074  1
  Ti  Ti188  1  0.50136993  0.69293257  0.09381463  1
  Ti  Ti189  1  0.69255315  0.49603941  0.70751551  1
  Ti  Ti190  1  0.19347483  0.39119147  -0.00375721  1
  Ti  Ti191  1  0.20239968  0.79709185  -0.00192815  1
  Ti  Ti192  1  0.50201852  0.91485879  0.10183922  1
  Ti  Ti193  1  0.19869362  0.60951524  0.81056609  1
  Ti  Ti194  1  0.01111521  -0.00250017  0.20347287  1
  Ti  Ti195  1  0.31013261  0.30685074  0.90595852  1
  Ti  Ti196  1  0.00499502  0.19160022  0.39670040  1
  Ti  Ti197  1  0.80376203  0.00156822  0.59802185  1
  Ti  Ti198  1  0.59843419  0.59862356  0.80932448  1
  Ti  Ti199  1  0.70411970  0.90858912  0.70069972  1
  Mo  Mo200  1  0.49976379  0.71167687  0.29784696  1
  Mo  Mo201  1  0.29814271  0.89840643  0.90097137  1
  Mo  Mo202  1  0.59996681  -0.00080951  0.19057004  1
  Mo  Mo203  1  0.39791365  0.80357156  0.80257195  1
  Mo  Mo204  1  0.89692380  0.09627745  0.70433833  1
  Mo  Mo205  1  0.00555469  0.80548327  -0.00048077  1
  Mo  Mo206  1  0.78367609  0.39233971  0.80384898  1
  Mo  Mo207  1  0.59529833  0.20487380  0.80455699  1
  Mo  Mo208  1  0.60775196  0.19936861  0.40047435  1
  Mo  Mo209  1  0.39711179  0.80386743  0.60191621  1
  Mo  Mo210  1  0.20591395  0.38733974  0.80369872  1
  Mo  Mo211  1  0.09310224  0.08944198  0.49775731  1
  Mo  Mo212  1  0.60127284  0.39717656  -0.00620767  1
  Mo  Mo213  1  0.50198521  0.30297118  0.71315004  1
  Mo  Mo214  1  0.29911206  0.70549102  0.90327203  1
  Mo  Mo215  1  0.70410124  0.10292219  0.09539683  1
  Mo  Mo216  1  0.10762951  0.70533488  0.89432002  1
  Mo  Mo217  1  0.29577632  0.90805846  0.09674044  1
  Mo  Mo218  1  0.29748134  0.70513453  0.50023784  1
  Mo  Mo219  1  0.70579105  0.29856086  0.09657077  1
  Mo  Mo220  1  0.09778742  0.70279419  0.30777322  1
  Mo  Mo221  1  0.61920208  0.20181307  0.18915909  1
  Mo  Mo222  1  0.29546157  0.10196485  0.28922060  1
  Mo  Mo223  1  0.69750286  0.29473374  0.72029342  1
  Mo  Mo224  1  0.09507628  0.09641674  0.29618435  1
  Mo  Mo225  1  0.11649854  0.49634420  0.89634798  1
  Mo  Mo226  1  0.00772454  0.40682363  0.60685482  1
  Mo  Mo227  1  0.90173513  0.10460878  0.90236397  1
  Mo  Mo228  1  0.10163013  0.70750298  0.08972249  1
  Mo  Mo229  1  0.49568030  0.90403245  0.69598546  1
  Mo  Mo230  1  0.09828562  0.50359610  0.29475560  1
  Mo  Mo231  1  0.09722357  0.29292697  0.09723747  1
  Mo  Mo232  1  0.68498095  0.49142557  0.89810520  1
  Mo  Mo233  1  0.39214791  0.20344994  0.00203956  1
  Mo  Mo234  1  0.80642224  0.00870198  0.80526860  1
  Mo  Mo235  1  0.49038863  0.50237181  0.50504105  1
  Mo  Mo236  1  0.11632052  0.89473025  0.70103114  1
  Mo  Mo237  1  0.89931652  0.28853232  0.29576774  1
  Mo  Mo238  1  0.20168678  0.59906767  0.60308119  1
  Mo  Mo239  1  0.39741274  0.39822720  0.00239793  1
  Mo  Mo240  1  0.01016118  0.38384318  -0.00310451  1
  Mo  Mo241  1  0.19954024  0.39472297  0.19241770  1
  Mo  Mo242  1  0.29540893  0.70353382  0.70528405  1
  Mo  Mo243  1  0.49982147  0.30015947  0.49498838  1
  Mo  Mo244  1  0.19642217  0.80046543  0.41080441  1
  Mo  Mo245  1  0.40372001  0.39576440  0.80617417  1
  Mo  Mo246  1  0.50436117  0.49167208  0.28676412  1
  Mo  Mo247  1  0.80739303  0.60391947  0.40448621  1
  Mo  Mo248  1  0.90559295  0.89805905  0.49949538  1
  Mo  Mo249  1  0.30012932  0.30311429  0.70689597  1
