# generated using pymatgen
data_HfZrTaTiMo
_symmetry_space_group_name_H-M   'P 1'
_cell_length_a   16.88778649
_cell_length_b   16.88471194
_cell_length_c   16.89491301
_cell_angle_alpha   89.99179959
_cell_angle_beta   89.99729966
_cell_angle_gamma   90.06268293
_symmetry_Int_Tables_number   1
_chemical_formula_structural   HfZrTaTiMo
_chemical_formula_sum   'Hf50 Zr50 Ta50 Ti50 Mo50'
_cell_volume   4817.50396147
_cell_formula_units_Z   50
loop_
 _symmetry_equiv_pos_site_id
 _symmetry_equiv_pos_as_xyz
  1  'x, y, z'
loop_
 _atom_site_type_symbol
 _atom_site_label
 _atom_site_symmetry_multiplicity
 _atom_site_fract_x
 _atom_site_fract_y
 _atom_site_fract_z
 _atom_site_occupancy
  Hf  Hf0  1  0.49252273  0.29359638  0.49897591  1
  Hf  Hf1  1  0.28847320  0.10079541  0.91002788  1
  Hf  Hf2  1  0.59238990  0.59707584  0.00551280  1
  Hf  Hf3  1  0.70976188  0.49904871  0.10927642  1
  Hf  Hf4  1  0.29099007  0.29114515  0.30974055  1
  Hf  Hf5  1  0.59716804  0.39563588  0.60665870  1
  Hf  Hf6  1  0.20375612  0.20219490  0.58432091  1
  Hf  Hf7  1  -0.00429481  0.59646247  0.59595456  1
  Hf  Hf8  1  -0.00051137  0.00421225  0.59864356  1
  Hf  Hf9  1  0.40181948  0.00683305  0.80194897  1
  Hf  Hf10  1  0.49828035  0.70473310  0.30236161  1
  Hf  Hf11  1  0.59700464  0.19745602  0.79536909  1
  Hf  Hf12  1  0.89833465  0.70687837  0.09941349  1
  Hf  Hf13  1  0.71487612  0.69916551  0.10015337  1
  Hf  Hf14  1  0.89713006  0.09337969  0.89424158  1
  Hf  Hf15  1  0.49980060  0.90457499  0.49663309  1
  Hf  Hf16  1  0.60515563  0.79490606  0.59324737  1
  Hf  Hf17  1  0.29456961  0.70720692  0.49823462  1
  Hf  Hf18  1  0.60190699  0.59835033  0.20457423  1
  Hf  Hf19  1  0.60757003  0.80353654  0.40010242  1
  Hf  Hf20  1  0.60365668  0.60364220  0.59729373  1
  Hf  Hf21  1  0.59728073  -0.00015081  -0.00170466  1
  Hf  Hf22  1  0.70015238  0.09816079  0.10632095  1
  Hf  Hf23  1  0.79550820  0.00217469  0.39874251  1
  Hf  Hf24  1  -0.00215145  0.38995145  0.20018658  1
  Hf  Hf25  1  0.90561253  0.29933967  0.89301679  1
  Hf  Hf26  1  0.19771186  0.80576181  0.38021938  1
  Hf  Hf27  1  0.79080584  -0.02279345  0.79381692  1
  Hf  Hf28  1  0.70443212  0.49980188  0.49441797  1
  Hf  Hf29  1  0.58869637  0.40487694  0.01158185  1
  Hf  Hf30  1  0.19165196  0.60378968  0.39737004  1
  Hf  Hf31  1  0.90772359  0.49196126  0.70572583  1
  Hf  Hf32  1  0.20942720  0.79741612  0.79852147  1
  Hf  Hf33  1  0.00302673  0.18656102  0.79764151  1
  Hf  Hf34  1  0.49397227  0.89579580  0.90446624  1
  Hf  Hf35  1  0.58646412  0.18788278  0.59941786  1
  Hf  Hf36  1  -0.00368583  0.00459375  0.00452306  1
  Hf  Hf37  1  0.09022679  0.48804654  0.31539625  1
  Hf  Hf38  1  0.29772399  0.90447661  0.50094723  1
  Hf  Hf39  1  0.40382475  0.39493115  0.19767324  1
  Hf  Hf40  1  0.29911890  0.70582358  0.09718956  1
  Hf  Hf41  1  0.40122347  0.60639710  0.59984112  1
  Hf  Hf42  1  0.50172807  0.30507901  0.89873660  1
  Hf  Hf43  1  0.70469137  0.29462574  0.49800879  1
  Hf  Hf44  1  0.69970318  0.49734976  0.90213168  1
  Hf  Hf45  1  0.29150018  0.49141205  0.49673233  1
  Hf  Hf46  1  0.09145310  0.70674361  0.09173634  1
  Hf  Hf47  1  0.20445177  0.60446702  0.80095622  1
  Hf  Hf48  1  0.18868889  0.59755929  0.60496004  1
  Hf  Hf49  1  0.60085089  0.80145597  0.00391782  1
  Zr  Zr50  1  -0.00533308  0.58714879  -0.01061241  1
  Zr  Zr51  1  0.50423643  0.90855054  0.68895477  1
  Zr  Zr52  1  0.38981714  0.79661985  0.79247001  1
  Zr  Zr53  1  0.39498298  0.60607033  0.39978548  1
  Zr  Zr54  1  0.59774919  0.00530288  0.80084776  1
  Zr  Zr55  1  0.90344346  0.29830274  0.69809867  1
  Zr  Zr56  1  0.20710646  0.40316940  0.80435959  1
  Zr  Zr57  1  0.30216437  0.50219228  0.10132523  1
  Zr  Zr58  1  0.70527291  0.90399217  0.11249604  1
  Zr  Zr59  1  0.39399554  0.00363145  0.39034176  1
  Zr  Zr60  1  0.40524620  0.20244309  0.79255632  1
  Zr  Zr61  1  0.70139610  0.29966939  0.10405089  1
  Zr  Zr62  1  0.10059408  0.30572848  0.70169210  1
  Zr  Zr63  1  0.09937467  0.50256777  0.10425918  1
  Zr  Zr64  1  0.50410467  0.69723342  0.70738070  1
  Zr  Zr65  1  0.29375748  0.10435029  0.69784861  1
  Zr  Zr66  1  0.20282383  -0.00669646  0.20992328  1
  Zr  Zr67  1  0.62098261  0.81158577  0.80098089  1
  Zr  Zr68  1  0.80406780  0.39963752  0.59781418  1
  Zr  Zr69  1  0.81074601  0.40168279  -0.00432664  1
  Zr  Zr70  1  0.80792075  0.19902053  0.19817056  1
  Zr  Zr71  1  0.30232356  0.49883911  0.69799661  1
  Zr  Zr72  1  0.50124579  0.50216772  0.30255608  1
  Zr  Zr73  1  0.80566248  0.61206870  0.22524326  1
  Zr  Zr74  1  0.49821475  0.09625857  0.11429473  1
  Zr  Zr75  1  0.10602012  0.90214809  0.90707523  1
  Zr  Zr76  1  0.19798147  0.80193908  0.20462477  1
  Zr  Zr77  1  0.19512420  0.39033422  0.19949331  1
  Zr  Zr78  1  0.19730373  0.61048727  0.21451966  1
  Zr  Zr79  1  0.40768409  0.03072920  0.58999361  1
  Zr  Zr80  1  0.90003383  0.71226151  0.71311410  1
  Zr  Zr81  1  0.11197332  0.09766329  0.09375328  1
  Zr  Zr82  1  0.70093183  0.09104550  0.68852951  1
  Zr  Zr83  1  0.90694374  0.10339977  0.30211193  1
  Zr  Zr84  1  0.61268762  0.80182001  0.21267124  1
  Zr  Zr85  1  0.00353452  0.19401923  0.59475602  1
  Zr  Zr86  1  0.48870695  0.70413686  0.10429190  1
  Zr  Zr87  1  0.90912303  0.88921247  0.88756559  1
  Zr  Zr88  1  0.20463953  0.59814266  -0.01470231  1
  Zr  Zr89  1  0.39651161  0.39461739  0.39875684  1
  Zr  Zr90  1  0.10576712  0.28792463  0.90706992  1
  Zr  Zr91  1  0.89619144  0.50367266  0.10806445  1
  Zr  Zr92  1  0.09063072  0.70732431  0.49634956  1
  Zr  Zr93  1  0.90399943  0.70400362  0.90070682  1
  Zr  Zr94  1  0.80542989  0.59215773  0.80427620  1
  Zr  Zr95  1  0.59595779  0.19609356  -0.00259664  1
  Zr  Zr96  1  -0.00571108  0.80954524  0.60753361  1
  Zr  Zr97  1  0.59805537  0.39139316  0.39446346  1
  Zr  Zr98  1  0.10094811  0.89889722  0.49782709  1
  Zr  Zr99  1  0.90014286  0.89627292  0.10569833  1
  Ta  Ta100  1  0.01409816  0.59428830  0.79834132  1
  Ta  Ta101  1  0.70792059  0.49155882  0.30507217  1
  Ta  Ta102  1  -0.00388260  0.60863754  0.21876399  1
  Ta  Ta103  1  0.90558173  0.29549306  0.48877514  1
  Ta  Ta104  1  0.79564693  0.19793552  0.79631855  1
  Ta  Ta105  1  0.30268789  0.90609119  0.09428190  1
  Ta  Ta106  1  0.80683523  0.19485321  -0.00123417  1
  Ta  Ta107  1  0.70260461  0.69537298  0.90175191  1
  Ta  Ta108  1  0.00405232  -0.00134735  0.39485361  1
  Ta  Ta109  1  0.39987958  0.79451922  0.59674715  1
  Ta  Ta110  1  0.70068934  0.50178839  0.70101537  1
  Ta  Ta111  1  -0.00497255  0.19765047  0.01001430  1
  Ta  Ta112  1  0.80559151  0.60417298  0.59675207  1
  Ta  Ta113  1  0.90005097  0.29985008  0.30864050  1
  Ta  Ta114  1  0.89669374  0.89953314  0.49491405  1
  Ta  Ta115  1  0.09617697  0.71401469  0.90151351  1
  Ta  Ta116  1  0.10201405  0.30664867  0.48455944  1
  Ta  Ta117  1  0.60182013  0.00537078  0.39818752  1
  Ta  Ta118  1  0.29680306  0.90191430  0.91122077  1
  Ta  Ta119  1  0.79402485  0.80741635  -0.01326622  1
  Ta  Ta120  1  0.60108097  0.59647007  0.80219734  1
  Ta  Ta121  1  0.59510754  0.39388537  0.20415677  1
  Ta  Ta122  1  0.40151391  0.19932365  -0.00012022  1
  Ta  Ta123  1  0.19602157  0.00848635  0.59111316  1
  Ta  Ta124  1  0.00408032  0.19876012  0.19479592  1
  Ta  Ta125  1  0.69122842  0.09993152  0.29227746  1
  Ta  Ta126  1  0.29551107  0.28727804  0.09634003  1
  Ta  Ta127  1  0.80299361  0.19201102  0.59410601  1
  Ta  Ta128  1  0.79753550  0.80576689  0.60263786  1
  Ta  Ta129  1  0.30290863  0.10064598  0.10228240  1
  Ta  Ta130  1  0.39681763  0.39906354  -0.00009817  1
  Ta  Ta131  1  0.19585067  0.00622006  0.39260987  1
  Ta  Ta132  1  0.09357123  0.28803751  0.31010819  1
  Ta  Ta133  1  0.48897826  0.90241322  0.10935486  1
  Ta  Ta134  1  0.40172506  0.39565287  0.60245931  1
  Ta  Ta135  1  0.00589971  0.39185655  0.00361150  1
  Ta  Ta136  1  0.50059105  0.10392334  0.29695960  1
  Ta  Ta137  1  0.49949054  0.50149159  0.50460904  1
  Ta  Ta138  1  0.50055216  0.49948061  0.70519140  1
  Ta  Ta139  1  0.10098984  0.89565799  0.09710329  1
  Ta  Ta140  1  0.49497736  0.50100698  0.89507658  1
  Ta  Ta141  1  0.00878251  0.40532821  0.59025016  1
  Ta  Ta142  1  0.59982546  0.19621737  0.39606038  1
  Ta  Ta143  1  0.00040079  0.79962227  0.21375676  1
  Ta  Ta144  1  0.20325119  0.39518032  0.00135332  1
  Ta  Ta145  1  0.00466780  -0.00514114  0.78688345  1
  Ta  Ta146  1  0.70306390  0.29750357  0.89678239  1
  Ta  Ta147  1  0.50011795  0.69657723  0.89861981  1
  Ta  Ta148  1  0.40076898  0.39906028  0.79917923  1
  Ta  Ta149  1  0.70755048  0.09997279  0.90106604  1
  Ti  Ti150  1  0.49729330  0.29252495  0.10608372  1
  Ti  Ti151  1  0.70069435  0.90846347  0.50227005  1
  Ti  Ti152  1  0.39910764  0.20238484  0.20556606  1
  Ti  Ti153  1  0.39308769  0.60128948  0.80733918  1
  Ti  Ti154  1  0.09618115  0.70524236  0.70454601  1
  Ti  Ti155  1  0.10659477  0.90235283  0.69900365  1
  Ti  Ti156  1  0.20204331  0.20218605  0.79818171  1
  Ti  Ti157  1  0.10624341  0.09629253  0.90229299  1
  Ti  Ti158  1  0.39713664  0.59775296  0.20339390  1
  Ti  Ti159  1  0.40015301  0.59440898  -0.00630008  1
  Ti  Ti160  1  0.79338468  0.80325305  0.39307259  1
  Ti  Ti161  1  0.38809793  0.81053897  0.21227164  1
  Ti  Ti162  1  0.71134390  0.69822211  0.49628677  1
  Ti  Ti163  1  0.90120550  0.10110085  0.49370455  1
  Ti  Ti164  1  0.09728915  0.48824633  0.89618885  1
  Ti  Ti165  1  0.60008042  0.39965100  0.79495001  1
  Ti  Ti166  1  0.79391580  0.19318818  0.40055280  1
  Ti  Ti167  1  0.89290804  0.09303921  0.70053688  1
  Ti  Ti168  1  0.10865857  0.09708795  0.70076539  1
  Ti  Ti169  1  0.60100577  0.60744724  0.40524347  1
  Ti  Ti170  1  0.09945597  0.10813642  0.48102654  1
  Ti  Ti171  1  0.39229173  0.19048130  0.41148958  1
  Ti  Ti172  1  0.70639803  0.30033896  0.29742795  1
  Ti  Ti173  1  0.29787755  0.10472955  0.29671367  1
  Ti  Ti174  1  0.19230161  0.19756061  0.20198149  1
  Ti  Ti175  1  0.79836029  0.39622049  0.80006141  1
  Ti  Ti176  1  0.19375007  0.40007862  0.59438735  1
  Ti  Ti177  1  -0.00963399  0.60325850  0.39938891  1
  Ti  Ti178  1  0.39870590  0.80339801  0.39675372  1
  Ti  Ti179  1  0.70348122  0.29735382  0.70034220  1
  Ti  Ti180  1  0.39444891  0.79560857  -0.00582691  1
  Ti  Ti181  1  0.89994599  0.89642822  0.30339171  1
  Ti  Ti182  1  0.80154103  -0.00165761  0.00015825  1
  Ti  Ti183  1  0.90202178  0.48990412  0.48916761  1
  Ti  Ti184  1  0.30086731  0.29784393  0.90609146  1
  Ti  Ti185  1  0.89620837  0.71215630  0.49430429  1
  Ti  Ti186  1  0.00406968  0.00034182  0.20296608  1
  Ti  Ti187  1  0.80752023  0.60148348  0.40389911  1
  Ti  Ti188  1  0.80357168  -0.00188011  0.59259224  1
  Ti  Ti189  1  0.29329074  0.49488697  0.30188988  1
  Ti  Ti190  1  0.80552257  -0.00037418  0.20745574  1
  Ti  Ti191  1  0.20113192  -0.00298789  0.79730819  1
  Ti  Ti192  1  0.20661445  0.79822378  0.61137769  1
  Ti  Ti193  1  0.40278666  0.00687628  -0.00009586  1
  Ti  Ti194  1  0.89879137  0.29924223  0.10155365  1
  Ti  Ti195  1  0.50140396  0.91114115  0.29062967  1
  Ti  Ti196  1  0.89436142  0.48562735  0.30841624  1
  Ti  Ti197  1  0.30276096  0.30054926  0.69010891  1
  Ti  Ti198  1  0.30115184  0.90897631  0.68963615  1
  Ti  Ti199  1  0.70865935  0.69700188  0.70464619  1
  Mo  Mo200  1  0.30924887  0.49593708  0.90262900  1
  Mo  Mo201  1  0.08735266  0.90638202  0.29728761  1
  Mo  Mo202  1  0.10030206  0.29305059  0.10170653  1
  Mo  Mo203  1  0.09867674  0.49957635  0.69905540  1
  Mo  Mo204  1  0.69980961  0.90194555  0.67481056  1
  Mo  Mo205  1  0.31115503  0.70558279  0.29917209  1
  Mo  Mo206  1  0.49814906  0.70417864  0.49577539  1
  Mo  Mo207  1  0.20483739  -0.00137274  0.00565921  1
  Mo  Mo208  1  0.20504050  0.19924409  0.00269095  1
  Mo  Mo209  1  0.89828401  0.71143681  0.31631868  1
  Mo  Mo210  1  0.80097395  0.39473170  0.21027235  1
  Mo  Mo211  1  0.59430409  -0.00030853  0.20645106  1
  Mo  Mo212  1  -0.00917961  0.80839065  0.39867907  1
  Mo  Mo213  1  0.29915321  0.70074173  0.69598480  1
  Mo  Mo214  1  0.59699389  0.20685626  0.21032689  1
  Mo  Mo215  1  0.19581184  0.39655628  0.40107467  1
  Mo  Mo216  1  0.01920311  0.80428458  0.79494563  1
  Mo  Mo217  1  0.78572727  0.80002115  0.79566441  1
  Mo  Mo218  1  0.00576658  0.40340837  0.80381032  1
  Mo  Mo219  1  0.00119723  0.19753782  0.39892937  1
  Mo  Mo220  1  0.80213510  0.39591554  0.39806092  1
  Mo  Mo221  1  0.30588806  0.90379677  0.30070525  1
  Mo  Mo222  1  0.89656403  0.90540765  0.69219791  1
  Mo  Mo223  1  0.80515019  0.80313028  0.22184353  1
  Mo  Mo224  1  0.20417454  0.80218071  0.00026893  1
  Mo  Mo225  1  0.49734478  0.30658401  0.69970780  1
  Mo  Mo226  1  0.49413808  0.49765920  0.09991811  1
  Mo  Mo227  1  0.49901927  0.10482611  0.70003524  1
  Mo  Mo228  1  0.28913513  0.10355882  0.48837270  1
  Mo  Mo229  1  -0.00496069  0.39665646  0.40128456  1
  Mo  Mo230  1  0.49478156  0.28563927  0.29840429  1
  Mo  Mo231  1  0.70538531  0.91101299  0.30433086  1
  Mo  Mo232  1  0.09943622  0.10144493  0.29623698  1
  Mo  Mo233  1  0.91076355  0.48935484  0.89315310  1
  Mo  Mo234  1  0.19735539  0.19508413  0.39500922  1
  Mo  Mo235  1  0.09491194  0.49782486  0.49885153  1
  Mo  Mo236  1  0.30589470  0.70131141  0.90410054  1
  Mo  Mo237  1  0.79864389  0.60447788  -0.00450072  1
  Mo  Mo238  1  0.39424703  0.21036469  0.59413235  1
  Mo  Mo239  1  0.90083179  0.09644620  0.10032771  1
  Mo  Mo240  1  0.50350426  0.10290596  0.48496193  1
  Mo  Mo241  1  0.00048899  0.80488512  0.00679859  1
  Mo  Mo242  1  0.08346181  0.70106751  0.30600705  1
  Mo  Mo243  1  0.29732988  0.30007561  0.50218750  1
  Mo  Mo244  1  0.60493333  0.00191854  0.58308966  1
  Mo  Mo245  1  0.70234211  0.68911720  0.31840203  1
  Mo  Mo246  1  0.70052497  0.90660423  0.91578418  1
  Mo  Mo247  1  0.70151148  0.10154970  0.49340575  1
  Mo  Mo248  1  0.49505664  0.10183846  0.90317402  1
  Mo  Mo249  1  0.39626285  0.00101242  0.19973305  1
