# generated using pymatgen
data_HfZrTaTiMo
_symmetry_space_group_name_H-M   'P 1'
_cell_length_a   16.89217588
_cell_length_b   16.89657760
_cell_length_c   16.89117151
_cell_angle_alpha   89.98749780
_cell_angle_beta   89.98825130
_cell_angle_gamma   89.97497052
_symmetry_Int_Tables_number   1
_chemical_formula_structural   HfZrTaTiMo
_chemical_formula_sum   'Hf50 Zr50 Ta50 Ti50 Mo50'
_cell_volume   4821.07682778
_cell_formula_units_Z   50
loop_
 _symmetry_equiv_pos_site_id
 _symmetry_equiv_pos_as_xyz
  1  'x, y, z'
loop_
 _atom_site_type_symbol
 _atom_site_label
 _atom_site_symmetry_multiplicity
 _atom_site_fract_x
 _atom_site_fract_y
 _atom_site_fract_z
 _atom_site_occupancy
  Hf  Hf0  1  0.11192685  0.28681191  0.90320442  1
  Hf  Hf1  1  0.48668743  0.10862532  0.90225128  1
  Hf  Hf2  1  0.51272522  0.29760561  0.49053488  1
  Hf  Hf3  1  0.68807779  0.50185011  0.70753314  1
  Hf  Hf4  1  0.90720055  0.69797364  0.90896540  1
  Hf  Hf5  1  0.69801505  0.50259832  0.89604535  1
  Hf  Hf6  1  0.49898407  0.50283674  0.10751720  1
  Hf  Hf7  1  0.19488514  0.79772207  0.40687082  1
  Hf  Hf8  1  0.40033933  0.80239858  0.00305412  1
  Hf  Hf9  1  0.50703434  0.49917004  0.89638163  1
  Hf  Hf10  1  0.29999867  0.50564878  0.29948164  1
  Hf  Hf11  1  0.80666751  0.79298330  0.19917456  1
  Hf  Hf12  1  0.19483849  0.81083244  0.00703805  1
  Hf  Hf13  1  0.79941830  0.39833558  0.60595768  1
  Hf  Hf14  1  0.70538501  0.32591777  0.91835681  1
  Hf  Hf15  1  0.69019848  0.69969514  0.30077384  1
  Hf  Hf16  1  0.80700719  0.60123823  0.00805613  1
  Hf  Hf17  1  0.19345086  0.60006184  0.40448795  1
  Hf  Hf18  1  0.50070714  0.69617137  0.70455307  1
  Hf  Hf19  1  0.50166201  0.50148549  0.70366204  1
  Hf  Hf20  1  0.81100391  0.20611555  0.00234029  1
  Hf  Hf21  1  0.60287025  0.00517179  0.39663352  1
  Hf  Hf22  1  0.90932909  0.50129981  0.50467242  1
  Hf  Hf23  1  0.39488181  0.79698167  0.19308130  1
  Hf  Hf24  1  0.38538171  0.21540747  0.00184751  1
  Hf  Hf25  1  0.10303097  0.29616636  0.70349398  1
  Hf  Hf26  1  0.79592783  0.41210282  0.38810348  1
  Hf  Hf27  1  0.19337388  0.80296741  0.19133393  1
  Hf  Hf28  1  0.00412604  0.80232429  0.79747197  1
  Hf  Hf29  1  0.69277715  0.70142095  0.89145799  1
  Hf  Hf30  1  0.39882373  0.80534700  0.80804852  1
  Hf  Hf31  1  -0.00115313  0.19560571  0.81191698  1
  Hf  Hf32  1  0.60121275  0.19834915  0.20124913  1
  Hf  Hf33  1  0.90609857  0.87480652  0.49720330  1
  Hf  Hf34  1  0.07531175  0.70804743  0.50944087  1
  Hf  Hf35  1  0.39628946  0.39098642  0.60137454  1
  Hf  Hf36  1  0.09499063  0.90157304  0.30306740  1
  Hf  Hf37  1  0.40042083  0.78564783  0.39738893  1
  Hf  Hf38  1  0.29233074  0.69941084  0.90467973  1
  Hf  Hf39  1  0.39763963  0.00209137  0.80222387  1
  Hf  Hf40  1  0.09969755  0.50172473  0.09589578  1
  Hf  Hf41  1  0.01114623  0.40288628  0.39691378  1
  Hf  Hf42  1  0.59488673  0.79755384  0.59078339  1
  Hf  Hf43  1  0.10601734  0.70152401  0.69582166  1
  Hf  Hf44  1  0.00226465  0.59982707  0.39737057  1
  Hf  Hf45  1  0.20249287  0.40082954  0.80226249  1
  Hf  Hf46  1  0.00832761  0.79972026  0.01279449  1
  Hf  Hf47  1  0.90115592  0.90475634  0.10039170  1
  Hf  Hf48  1  0.80315763  -0.00716738  0.39728761  1
  Hf  Hf49  1  0.49248306  0.50180882  0.50207619  1
  Zr  Zr50  1  0.79632335  0.39524813  0.19691057  1
  Zr  Zr51  1  0.61644064  0.19332214  0.81124924  1
  Zr  Zr52  1  0.59906549  -0.00294898  -0.00604372  1
  Zr  Zr53  1  0.80149584  0.60229393  0.59732656  1
  Zr  Zr54  1  0.70421539  0.10806713  0.68224592  1
  Zr  Zr55  1  0.80442627  0.60112569  0.39362402  1
  Zr  Zr56  1  0.80425025  0.79723310  0.79243968  1
  Zr  Zr57  1  0.80357486  0.59393881  0.20303941  1
  Zr  Zr58  1  0.90625980  0.29604288  0.29669556  1
  Zr  Zr59  1  0.61173531  0.19765726  0.00488033  1
  Zr  Zr60  1  0.29847796  0.90904814  0.49436856  1
  Zr  Zr61  1  0.58504263  0.61377165  -0.00108560  1
  Zr  Zr62  1  0.69545429  0.89537942  0.69039734  1
  Zr  Zr63  1  0.30035928  0.51260332  0.69045455  1
  Zr  Zr64  1  0.40428452  0.19798311  0.59814403  1
  Zr  Zr65  1  0.51083264  0.31194165  0.09964147  1
  Zr  Zr66  1  0.29262326  0.91249235  0.29620736  1
  Zr  Zr67  1  0.80443832  0.20234403  0.81178991  1
  Zr  Zr68  1  0.81087226  0.60399790  0.78885104  1
  Zr  Zr69  1  0.39710015  0.79180443  0.59726780  1
  Zr  Zr70  1  0.40095692  0.20491214  0.20416171  1
  Zr  Zr71  1  0.10734132  0.09425423  0.29592740  1
  Zr  Zr72  1  0.69519387  0.29345105  0.50154160  1
  Zr  Zr73  1  0.90574041  0.48760134  0.90318311  1
  Zr  Zr74  1  0.00656261  0.19200076  0.59537712  1
  Zr  Zr75  1  0.49884116  0.90543442  0.50101431  1
  Zr  Zr76  1  0.20857996  0.39224698  0.00333196  1
  Zr  Zr77  1  0.90364709  0.09386543  0.69551398  1
  Zr  Zr78  1  0.10483955  0.68778536  0.90815114  1
  Zr  Zr79  1  0.00170561  0.59660505  0.78945741  1
  Zr  Zr80  1  0.50412336  0.30584393  0.89767161  1
  Zr  Zr81  1  0.68548307  0.49770856  0.49528598  1
  Zr  Zr82  1  0.40854403  0.01951792  0.39400251  1
  Zr  Zr83  1  0.10878669  0.29671395  0.49598842  1
  Zr  Zr84  1  0.69031641  0.69790144  0.10370119  1
  Zr  Zr85  1  0.29792281  0.90482146  0.69731323  1
  Zr  Zr86  1  0.79381799  0.00105455  0.80330833  1
  Zr  Zr87  1  0.19355204  0.00307923  0.59462734  1
  Zr  Zr88  1  0.71565397  0.09208665  0.10191473  1
  Zr  Zr89  1  0.89699308  0.29568926  0.50120987  1
  Zr  Zr90  1  0.28315230  0.11286537  0.90334260  1
  Zr  Zr91  1  0.69077115  0.29191733  0.31483011  1
  Zr  Zr92  1  0.90313379  0.90317220  0.90389789  1
  Zr  Zr93  1  0.69973878  0.11359602  0.49610457  1
  Zr  Zr94  1  0.10837665  0.28966973  0.29585417  1
  Zr  Zr95  1  0.59936619  -0.00027588  0.80560946  1
  Zr  Zr96  1  0.49587168  0.90061579  0.29406177  1
  Zr  Zr97  1  0.38759394  0.39729119  0.80628299  1
  Zr  Zr98  1  0.59891338  0.00266040  0.20214419  1
  Zr  Zr99  1  0.69104989  0.48752413  0.09025643  1
  Ta  Ta100  1  0.50821098  0.29495349  0.70971075  1
  Ta  Ta101  1  0.20299370  0.40626799  0.39873051  1
  Ta  Ta102  1  0.90598933  0.89557801  0.30024739  1
  Ta  Ta103  1  0.58742740  0.80594180  -0.00098570  1
  Ta  Ta104  1  0.19402196  0.00229116  0.80664463  1
  Ta  Ta105  1  0.70237526  0.88799530  0.29902760  1
  Ta  Ta106  1  0.92023062  0.49819729  0.28548326  1
  Ta  Ta107  1  0.29950953  0.29906337  0.49086201  1
  Ta  Ta108  1  0.00653533  0.39783348  0.60547098  1
  Ta  Ta109  1  0.40202248  0.60628568  0.20117691  1
  Ta  Ta110  1  0.80266740  -0.00656021  0.20647516  1
  Ta  Ta111  1  0.39968602  0.60654648  0.80876054  1
  Ta  Ta112  1  0.69189937  0.70135335  0.69637436  1
  Ta  Ta113  1  0.29137403  0.69399935  0.29462214  1
  Ta  Ta114  1  0.29678729  0.10752791  0.49230606  1
  Ta  Ta115  1  0.29195074  0.10564184  0.29631314  1
  Ta  Ta116  1  0.49954858  0.90587954  0.69830100  1
  Ta  Ta117  1  0.19851523  0.81045899  0.80369974  1
  Ta  Ta118  1  0.39372328  0.40165118  0.20337432  1
  Ta  Ta119  1  0.39743932  0.60257549  0.00198783  1
  Ta  Ta120  1  0.00217345  0.19463541  0.18862955  1
  Ta  Ta121  1  0.39911415  0.40016396  0.39518979  1
  Ta  Ta122  1  0.91571959  0.49928121  0.09932441  1
  Ta  Ta123  1  0.09677850  0.90844030  0.70331915  1
  Ta  Ta124  1  0.10203588  0.09699013  0.70967239  1
  Ta  Ta125  1  0.29155684  0.91025088  0.90803932  1
  Ta  Ta126  1  0.30094939  0.49946661  0.49928529  1
  Ta  Ta127  1  0.90414248  0.90192496  0.69076936  1
  Ta  Ta128  1  0.90560504  0.30126585  0.70406691  1
  Ta  Ta129  1  0.09862390  0.69787577  0.29252030  1
  Ta  Ta130  1  0.00590697  0.19459036  0.00693685  1
  Ta  Ta131  1  0.48556262  0.09637482  0.09935830  1
  Ta  Ta132  1  0.00120200  0.18827346  0.39687258  1
  Ta  Ta133  1  0.58658946  0.79538200  0.19414577  1
  Ta  Ta134  1  0.29702234  0.29913990  0.30532543  1
  Ta  Ta135  1  0.69925000  0.89391604  0.10283068  1
  Ta  Ta136  1  0.90666147  0.09214674  0.29467533  1
  Ta  Ta137  1  0.39207542  0.40598901  0.00509955  1
  Ta  Ta138  1  0.28998804  0.68779069  0.09925635  1
  Ta  Ta139  1  0.70314137  0.70597423  0.49366799  1
  Ta  Ta140  1  0.91446692  0.71291521  0.66429198  1
  Ta  Ta141  1  0.09779232  0.49738583  0.90313518  1
  Ta  Ta142  1  0.20200773  0.39904047  0.20206394  1
  Ta  Ta143  1  0.20348651  0.19651499  0.59942720  1
  Ta  Ta144  1  0.80228623  -0.00920151  0.58801899  1
  Ta  Ta145  1  0.90792449  0.08779094  0.91427317  1
  Ta  Ta146  1  0.29699919  0.10358007  0.70339497  1
  Ta  Ta147  1  0.28927413  0.10039873  0.10607642  1
  Ta  Ta148  1  0.89832757  0.09660899  0.49791503  1
  Ta  Ta149  1  0.79809875  0.79619385  0.00645055  1
  Ti  Ti150  1  0.81265479  0.19402358  0.39497273  1
  Ti  Ti151  1  0.40452844  0.01175021  0.59850327  1
  Ti  Ti152  1  0.59764043  0.39160123  0.60800986  1
  Ti  Ti153  1  0.59518785  0.60839306  0.59287860  1
  Ti  Ti154  1  0.90410107  0.30590651  0.09743410  1
  Ti  Ti155  1  0.19555471  0.80629499  0.59715858  1
  Ti  Ti156  1  0.59535450  0.00741294  0.59407739  1
  Ti  Ti157  1  0.29864625  0.28549510  0.70978200  1
  Ti  Ti158  1  0.00302311  0.38473939  -0.00352925  1
  Ti  Ti159  1  0.70449987  0.88831852  0.49145101  1
  Ti  Ti160  1  0.70910261  0.10227975  0.29935661  1
  Ti  Ti161  1  0.01106876  0.38985905  0.19262681  1
  Ti  Ti162  1  0.70374994  0.89420022  0.90905575  1
  Ti  Ti163  1  0.50154990  0.30516071  0.30519871  1
  Ti  Ti164  1  0.90370192  0.09190262  0.10047600  1
  Ti  Ti165  1  0.40278477  0.60464732  0.39914982  1
  Ti  Ti166  1  0.20097425  0.59673553  0.80011930  1
  Ti  Ti167  1  0.49485619  0.90927861  0.10027677  1
  Ti  Ti168  1  0.58744997  0.80670844  0.80954400  1
  Ti  Ti169  1  0.91055168  0.49053730  0.69963998  1
  Ti  Ti170  1  0.80631103  0.20019385  0.19742681  1
  Ti  Ti171  1  0.10048146  0.49607535  0.69856889  1
  Ti  Ti172  1  0.59011964  0.79457192  0.39838711  1
  Ti  Ti173  1  0.09434793  0.91432340  0.90152712  1
  Ti  Ti174  1  0.58881177  0.60508252  0.39644600  1
  Ti  Ti175  1  0.30252469  0.68714376  0.50699392  1
  Ti  Ti176  1  0.00029173  -0.00343588  0.40727603  1
  Ti  Ti177  1  0.10713643  0.09683914  0.48787585  1
  Ti  Ti178  1  0.29509544  0.91896157  0.10281148  1
  Ti  Ti179  1  0.28943006  0.29598832  0.11223248  1
  Ti  Ti180  1  0.10375306  0.49734759  0.51230697  1
  Ti  Ti181  1  0.50043597  0.50287251  0.29930237  1
  Ti  Ti182  1  0.39435126  0.00060028  -0.00024096  1
  Ti  Ti183  1  0.10105940  0.68093549  0.10344148  1
  Ti  Ti184  1  0.70093963  0.29641908  0.70070321  1
  Ti  Ti185  1  0.80793715  0.39456188  0.79844507  1
  Ti  Ti186  1  0.10291046  0.50699357  0.28432056  1
  Ti  Ti187  1  0.19684385  0.60083010  0.59597090  1
  Ti  Ti188  1  0.40515153  0.20079683  0.39636715  1
  Ti  Ti189  1  0.29587736  0.50726621  0.10606253  1
  Ti  Ti190  1  0.00307140  0.79463867  0.19509323  1
  Ti  Ti191  1  0.50139635  0.10705340  0.70123016  1
  Ti  Ti192  1  0.18128090  0.00708465  0.00890045  1
  Ti  Ti193  1  0.29537291  0.69901971  0.70028990  1
  Ti  Ti194  1  0.60417638  0.40190139  0.21153838  1
  Ti  Ti195  1  0.00749816  0.00149983  0.19048792  1
  Ti  Ti196  1  0.00344424  -0.00399835  0.59072340  1
  Ti  Ti197  1  0.20606513  0.39454623  0.59959175  1
  Ti  Ti198  1  0.29580503  0.50836566  0.90794252  1
  Ti  Ti199  1  0.90936288  0.70499706  0.30293925  1
  Mo  Mo200  1  0.19967268  0.59746889  0.20058859  1
  Mo  Mo201  1  0.49036601  0.90196229  0.90197775  1
  Mo  Mo202  1  0.48914196  0.70232264  0.10232865  1
  Mo  Mo203  1  0.39550162  0.19938343  0.79669433  1
  Mo  Mo204  1  0.49324757  0.70415563  0.90006985  1
  Mo  Mo205  1  0.80159100  -0.00873322  0.00696136  1
  Mo  Mo206  1  0.19376504  0.19876391  0.01663334  1
  Mo  Mo207  1  0.19846752  0.00127373  0.19537345  1
  Mo  Mo208  1  0.50328777  0.69080071  0.49509658  1
  Mo  Mo209  1  0.81880452  0.40042535  0.00760224  1
  Mo  Mo210  1  0.60746931  0.39654269  0.79473710  1
  Mo  Mo211  1  0.19958165  0.19598215  0.79359033  1
  Mo  Mo212  1  0.09841705  0.29818207  0.10116973  1
  Mo  Mo213  1  0.50163963  0.10729320  0.50386658  1
  Mo  Mo214  1  0.59124692  0.41533539  0.38994268  1
  Mo  Mo215  1  0.20575404  0.19905657  0.40134147  1
  Mo  Mo216  1  0.29917455  0.30118743  0.90160706  1
  Mo  Mo217  1  0.89792561  0.69952901  0.49712985  1
  Mo  Mo218  1  0.09649662  0.91040890  0.10679458  1
  Mo  Mo219  1  0.20149244  0.20221550  0.20034724  1
  Mo  Mo220  1  0.00520317  0.58335669  0.60201875  1
  Mo  Mo221  1  0.72033355  0.08499588  0.91402040  1
  Mo  Mo222  1  0.10073256  0.10307054  0.10022827  1
  Mo  Mo223  1  0.00316610  0.59688884  0.00366093  1
  Mo  Mo224  1  0.57933343  0.17908913  0.38721542  1
  Mo  Mo225  1  0.58996332  0.40719450  -0.00095357  1
  Mo  Mo226  1  0.70664181  0.30140168  0.10696887  1
  Mo  Mo227  1  0.79996114  0.79677279  0.39302258  1
  Mo  Mo228  1  0.79156388  0.79858524  0.59390972  1
  Mo  Mo229  1  0.90830754  0.69970369  0.10260943  1
  Mo  Mo230  1  0.00512933  0.00325614  0.00487124  1
  Mo  Mo231  1  0.00125648  0.60604519  0.19872657  1
  Mo  Mo232  1  0.09633400  0.90332182  0.49711117  1
  Mo  Mo233  1  0.58862641  0.60167481  0.20869239  1
  Mo  Mo234  1  0.00409449  -0.00033585  0.80293089  1
  Mo  Mo235  1  0.19979212  0.00436250  0.40006191  1
  Mo  Mo236  1  0.67912126  0.50669943  0.29655790  1
  Mo  Mo237  1  0.49528863  0.69640412  0.29878240  1
  Mo  Mo238  1  0.09682711  0.09562436  0.90581275  1
  Mo  Mo239  1  0.59651892  0.20306829  0.60902197  1
  Mo  Mo240  1  0.39584501  0.60174270  0.60030561  1
  Mo  Mo241  1  0.49283695  0.10322318  0.28941315  1
  Mo  Mo242  1  0.00060201  0.79625462  0.38744828  1
  Mo  Mo243  1  0.20299133  0.59084107  0.00224490  1
  Mo  Mo244  1  0.00568776  0.39626503  0.79807741  1
  Mo  Mo245  1  0.59588443  0.60943928  0.79835583  1
  Mo  Mo246  1  0.39381887  0.00470726  0.18987011  1
  Mo  Mo247  1  0.90871741  0.30066651  0.90228681  1
  Mo  Mo248  1  0.80754386  0.20394775  0.59993547  1
  Mo  Mo249  1  0.01354995  0.81866912  0.60318177  1
