# generated using pymatgen
data_HfZrTaTiMo
_symmetry_space_group_name_H-M   'P 1'
_cell_length_a   16.88681543
_cell_length_b   16.89142853
_cell_length_c   16.89188675
_cell_angle_alpha   90.03269814
_cell_angle_beta   89.98675225
_cell_angle_gamma   90.07000860
_symmetry_Int_Tables_number   1
_chemical_formula_structural   HfZrTaTiMo
_chemical_formula_sum   'Hf50 Zr50 Ta50 Ti50 Mo50'
_cell_volume   4818.27841711
_cell_formula_units_Z   50
loop_
 _symmetry_equiv_pos_site_id
 _symmetry_equiv_pos_as_xyz
  1  'x, y, z'
loop_
 _atom_site_type_symbol
 _atom_site_label
 _atom_site_symmetry_multiplicity
 _atom_site_fract_x
 _atom_site_fract_y
 _atom_site_fract_z
 _atom_site_occupancy
  Hf  Hf0  1  0.29559635  0.50006580  0.70579886  1
  Hf  Hf1  1  0.80267763  0.60128431  0.40725566  1
  Hf  Hf2  1  -0.00681268  0.79917256  0.78840092  1
  Hf  Hf3  1  0.39709192  0.60788808  0.20714403  1
  Hf  Hf4  1  0.88176016  0.90273988  0.88158623  1
  Hf  Hf5  1  0.81169168  0.79849987  0.60388964  1
  Hf  Hf6  1  0.80324968  0.79727132  0.40666833  1
  Hf  Hf7  1  0.79516545  0.40036394  0.59757939  1
  Hf  Hf8  1  0.20645565  -0.00044837  -0.00501686  1
  Hf  Hf9  1  0.00378361  0.40247909  0.60120441  1
  Hf  Hf10  1  0.59455844  -0.00324813  0.80602167  1
  Hf  Hf11  1  0.39684261  0.39963653  0.80752925  1
  Hf  Hf12  1  0.09653940  0.89838657  0.10022440  1
  Hf  Hf13  1  0.29540443  0.28867370  0.09846269  1
  Hf  Hf14  1  0.40091502  0.39470292  0.40142328  1
  Hf  Hf15  1  0.10633001  0.70264188  0.69745273  1
  Hf  Hf16  1  0.71657643  0.89946128  0.71488615  1
  Hf  Hf17  1  0.80341392  -0.00809371  0.18414663  1
  Hf  Hf18  1  0.01027775  0.79579238  0.39253915  1
  Hf  Hf19  1  0.29103683  0.89770686  0.50355340  1
  Hf  Hf20  1  0.69984833  0.10255508  0.29793098  1
  Hf  Hf21  1  0.60253911  -0.01563606  0.59031518  1
  Hf  Hf22  1  0.30176622  0.09631685  0.69599421  1
  Hf  Hf23  1  0.09210718  0.10292157  0.09380978  1
  Hf  Hf24  1  0.60440456  0.59977368  0.00263790  1
  Hf  Hf25  1  0.59683527  -0.00580545  0.19872764  1
  Hf  Hf26  1  0.69492132  0.29588243  0.70928828  1
  Hf  Hf27  1  0.19752402  0.39832201  0.59461899  1
  Hf  Hf28  1  0.09951654  0.89677215  0.88716975  1
  Hf  Hf29  1  0.50732450  0.10898045  0.70139811  1
  Hf  Hf30  1  0.20143212  0.60772928  0.20729341  1
  Hf  Hf31  1  0.90606983  0.09441351  0.50096783  1
  Hf  Hf32  1  0.40138697  -0.00332286  0.59908073  1
  Hf  Hf33  1  0.19722062  0.39925614  0.19464258  1
  Hf  Hf34  1  0.80431007  0.59385357  0.60322934  1
  Hf  Hf35  1  0.81369930  0.21562098  0.19451065  1
  Hf  Hf36  1  0.89899753  0.50505101  0.10070302  1
  Hf  Hf37  1  0.20144823  -0.00242447  0.38886252  1
  Hf  Hf38  1  0.40007081  0.60935013  0.39769646  1
  Hf  Hf39  1  0.80208806  0.20129796  0.60143812  1
  Hf  Hf40  1  0.28486914  0.70563889  0.49628195  1
  Hf  Hf41  1  0.39431632  0.79907575  0.60876626  1
  Hf  Hf42  1  0.30026759  0.29591456  0.29493477  1
  Hf  Hf43  1  0.40210989  0.79967583  0.39396864  1
  Hf  Hf44  1  0.49868921  0.49654458  0.69958625  1
  Hf  Hf45  1  0.90122841  0.10363541  0.29772849  1
  Hf  Hf46  1  0.90090500  0.30194086  0.71461685  1
  Hf  Hf47  1  0.50359695  0.50056529  0.29732644  1
  Hf  Hf48  1  0.90176643  0.89621042  0.29154369  1
  Hf  Hf49  1  0.41123624  0.20208376  0.39634922  1
  Zr  Zr50  1  0.10811848  0.89345645  0.50983979  1
  Zr  Zr51  1  0.20666049  -0.00027427  0.80087215  1
  Zr  Zr52  1  -0.00132170  0.39688027  -0.00846174  1
  Zr  Zr53  1  0.50188960  0.50014479  0.50992766  1
  Zr  Zr54  1  0.09842617  0.70166220  0.10004135  1
  Zr  Zr55  1  0.00483323  0.18786940  0.80844251  1
  Zr  Zr56  1  0.78519187  -0.01559666  0.40099989  1
  Zr  Zr57  1  0.70493640  0.71494349  0.89756019  1
  Zr  Zr58  1  0.60517689  0.59514197  0.80480401  1
  Zr  Zr59  1  0.10434939  0.29983971  0.70859791  1
  Zr  Zr60  1  0.09270800  0.49982217  0.10238732  1
  Zr  Zr61  1  0.40729859  -0.00667014  0.19754642  1
  Zr  Zr62  1  0.89812083  0.50278422  0.29805021  1
  Zr  Zr63  1  -0.02040623  0.37509313  0.19781545  1
  Zr  Zr64  1  0.59452070  0.80495970  0.60493114  1
  Zr  Zr65  1  0.91358374  0.90573217  0.50704765  1
  Zr  Zr66  1  0.90497806  0.29383790  0.50242508  1
  Zr  Zr67  1  0.70056168  0.10428442  0.70591069  1
  Zr  Zr68  1  0.59843744  0.81271435  0.00508245  1
  Zr  Zr69  1  0.49662394  0.50218822  0.90428363  1
  Zr  Zr70  1  0.40001667  0.19876492  0.80193714  1
  Zr  Zr71  1  0.79179121  0.39981229  -0.00165631  1
  Zr  Zr72  1  0.29620891  0.29570260  0.90511970  1
  Zr  Zr73  1  0.20305564  0.79281900  -0.01848104  1
  Zr  Zr74  1  0.70209909  0.10079404  0.49601605  1
  Zr  Zr75  1  0.70276607  0.10621862  0.89910023  1
  Zr  Zr76  1  0.40086752  0.81446121  -0.01272962  1
  Zr  Zr77  1  0.41169688  -0.00638380  0.39485819  1
  Zr  Zr78  1  0.20088591  0.59829328  -0.01116358  1
  Zr  Zr79  1  0.70380895  0.50282178  0.29656179  1
  Zr  Zr80  1  0.70167699  0.10735440  0.09499688  1
  Zr  Zr81  1  0.60150961  0.39186020  0.40329640  1
  Zr  Zr82  1  0.79553382  0.60145445  0.00307142  1
  Zr  Zr83  1  0.09622693  0.28813123  0.29399694  1
  Zr  Zr84  1  0.30010760  0.89493193  0.10313968  1
  Zr  Zr85  1  0.29800919  0.50252041  0.49914641  1
  Zr  Zr86  1  -0.00868163  0.00375214  -0.01114781  1
  Zr  Zr87  1  0.50902055  0.09875807  0.49650029  1
  Zr  Zr88  1  0.69573869  0.69741317  0.50636763  1
  Zr  Zr89  1  0.09595334  0.50497284  0.30339644  1
  Zr  Zr90  1  0.49630356  0.70874802  0.10450976  1
  Zr  Zr91  1  0.59999210  0.82395912  0.40819817  1
  Zr  Zr92  1  0.09873627  0.50250767  0.70700103  1
  Zr  Zr93  1  0.20077330  0.18785817  0.40454396  1
  Zr  Zr94  1  -0.00858858  0.79796175  -0.00229091  1
  Zr  Zr95  1  0.00189034  0.39766277  0.40571923  1
  Zr  Zr96  1  0.89142960  0.70131345  0.89566137  1
  Zr  Zr97  1  0.30961002  0.10448879  0.28562346  1
  Zr  Zr98  1  0.01712445  -0.00018758  0.38571655  1
  Zr  Zr99  1  0.40262404  0.39721415  0.19878766  1
  Ta  Ta100  1  0.59201629  -0.00281217  0.00417736  1
  Ta  Ta101  1  0.00509851  0.19110088  0.60616478  1
  Ta  Ta102  1  0.49823354  0.69921528  0.70895133  1
  Ta  Ta103  1  0.20137128  0.60391433  0.60228273  1
  Ta  Ta104  1  0.69880934  0.70494371  0.29635102  1
  Ta  Ta105  1  0.59613540  0.20678041  0.00278654  1
  Ta  Ta106  1  0.49915232  0.50258820  0.09972129  1
  Ta  Ta107  1  0.10589210  0.90123376  0.69327517  1
  Ta  Ta108  1  0.89637625  0.70161100  0.29676853  1
  Ta  Ta109  1  -0.00013083  0.60500827  -0.00998620  1
  Ta  Ta110  1  0.79761529  0.59111331  0.79501817  1
  Ta  Ta111  1  0.09378221  0.28753039  0.08992373  1
  Ta  Ta112  1  0.59826971  0.60619058  0.39867913  1
  Ta  Ta113  1  0.70144827  0.30089582  0.29694386  1
  Ta  Ta114  1  0.70473381  0.90425143  0.90079302  1
  Ta  Ta115  1  0.69901539  0.71147626  0.11317643  1
  Ta  Ta116  1  0.50473907  0.30119523  0.69913083  1
  Ta  Ta117  1  0.69233673  0.49754430  0.50483172  1
  Ta  Ta118  1  0.79867925  0.39591287  0.40503924  1
  Ta  Ta119  1  0.19950063  0.19112671  0.80563897  1
  Ta  Ta120  1  0.59454694  0.80573904  0.80354398  1
  Ta  Ta121  1  0.19775690  0.39681492  0.40387940  1
  Ta  Ta122  1  -0.00001758  0.61132722  0.40591041  1
  Ta  Ta123  1  0.29851580  0.29486261  0.50250705  1
  Ta  Ta124  1  0.60003343  0.39844390  0.00221145  1
  Ta  Ta125  1  0.49625778  0.10454046  0.09746047  1
  Ta  Ta126  1  0.38874704  0.60794994  0.80437722  1
  Ta  Ta127  1  0.60151231  0.60328346  0.19991972  1
  Ta  Ta128  1  0.10457543  0.09017974  0.51480069  1
  Ta  Ta129  1  0.69928951  0.69918265  0.70410830  1
  Ta  Ta130  1  0.60221517  0.39737200  0.80953993  1
  Ta  Ta131  1  0.29799800  0.29645538  0.69841400  1
  Ta  Ta132  1  0.59091493  0.20649169  0.20150198  1
  Ta  Ta133  1  0.19989340  0.40302718  -0.00174125  1
  Ta  Ta134  1  0.80332574  0.81211843  0.02105442  1
  Ta  Ta135  1  0.00094174  0.60162367  0.80318580  1
  Ta  Ta136  1  0.29271631  0.50261713  0.30672435  1
  Ta  Ta137  1  0.39706873  0.40369149  0.00282197  1
  Ta  Ta138  1  0.60098244  0.39634497  0.19256936  1
  Ta  Ta139  1  0.39215208  0.60445999  -0.00285185  1
  Ta  Ta140  1  0.39534307  0.60881045  0.60804387  1
  Ta  Ta141  1  0.49931614  0.10085756  0.90727066  1
  Ta  Ta142  1  0.30244017  0.70616997  0.10431593  1
  Ta  Ta143  1  0.00688032  0.19231330  0.39939892  1
  Ta  Ta144  1  0.19389353  0.00012189  0.20201711  1
  Ta  Ta145  1  0.59889529  0.20653274  0.39278839  1
  Ta  Ta146  1  0.90005817  0.49854470  0.89216877  1
  Ta  Ta147  1  0.49553123  0.70498065  0.89491133  1
  Ta  Ta148  1  0.39847587  0.20212646  0.59452262  1
  Ta  Ta149  1  0.30265255  0.50354206  0.09951131  1
  Ti  Ti150  1  0.22136235  0.79820735  0.79361579  1
  Ti  Ti151  1  0.90355585  0.68665692  0.69617864  1
  Ti  Ti152  1  -0.00597869  0.79608493  0.19653432  1
  Ti  Ti153  1  0.20318130  0.60938254  0.80923011  1
  Ti  Ti154  1  0.80611753  -0.00332804  0.60613481  1
  Ti  Ti155  1  0.50223592  0.30360664  0.51085274  1
  Ti  Ti156  1  -0.00228494  0.79399791  0.60143069  1
  Ti  Ti157  1  0.20393112  0.19348215  0.60018131  1
  Ti  Ti158  1  0.88671018  0.10766998  0.89968944  1
  Ti  Ti159  1  0.09804953  0.29689568  0.90055553  1
  Ti  Ti160  1  0.50018366  0.70103299  0.50610627  1
  Ti  Ti161  1  0.79325029  0.40630945  0.80510368  1
  Ti  Ti162  1  0.69866007  0.88738947  0.28325449  1
  Ti  Ti163  1  0.10485613  0.70004529  0.50168148  1
  Ti  Ti164  1  0.79882750  0.39260794  0.19935278  1
  Ti  Ti165  1  0.19263365  0.19043286  -0.01091188  1
  Ti  Ti166  1  0.40412085  0.20039479  0.00172133  1
  Ti  Ti167  1  0.79930885  -0.00365362  0.00314419  1
  Ti  Ti168  1  0.09571157  0.49904815  0.89402425  1
  Ti  Ti169  1  0.90708953  0.50536163  0.50364029  1
  Ti  Ti170  1  0.89509362  0.09548011  0.70695126  1
  Ti  Ti171  1  0.10227334  0.28743678  0.50258648  1
  Ti  Ti172  1  0.51205559  0.71161982  0.29470872  1
  Ti  Ti173  1  0.90783387  0.49763112  0.70810496  1
  Ti  Ti174  1  0.59710901  0.60102093  0.60430290  1
  Ti  Ti175  1  0.39908907  -0.01273081  0.81140807  1
  Ti  Ti176  1  0.39529903  0.39318661  0.60332925  1
  Ti  Ti177  1  0.20134194  0.39880430  0.81149528  1
  Ti  Ti178  1  0.80052404  0.61180717  0.19663422  1
  Ti  Ti179  1  0.31044632  0.09681611  0.90635744  1
  Ti  Ti180  1  0.50313754  0.29766074  0.90165397  1
  Ti  Ti181  1  0.89339245  0.29435440  0.89994444  1
  Ti  Ti182  1  0.70106300  0.29229632  0.89726172  1
  Ti  Ti183  1  0.69668209  0.50140847  0.10705948  1
  Ti  Ti184  1  -0.00180048  0.00235216  0.79348626  1
  Ti  Ti185  1  0.49651162  0.29999145  0.09871730  1
  Ti  Ti186  1  0.30522227  0.10189581  0.09664367  1
  Ti  Ti187  1  0.00026308  0.00256074  0.19541706  1
  Ti  Ti188  1  0.29881290  0.88925925  0.29430531  1
  Ti  Ti189  1  0.69173320  0.49387804  0.69815112  1
  Ti  Ti190  1  0.60479867  0.21112015  0.58860697  1
  Ti  Ti191  1  0.79857339  0.20991895  0.39988062  1
  Ti  Ti192  1  0.10238803  0.51423019  0.49895267  1
  Ti  Ti193  1  0.19215409  0.18862618  0.19655448  1
  Ti  Ti194  1  0.49202849  0.89643063  0.71004784  1
  Ti  Ti195  1  0.19514541  0.79656049  0.21146673  1
  Ti  Ti196  1  0.69906832  0.29831708  0.09788318  1
  Ti  Ti197  1  -0.00379680  0.61419888  0.20125385  1
  Ti  Ti198  1  0.90306228  0.11302958  0.08874826  1
  Ti  Ti199  1  0.10565885  0.09210231  0.69710197  1
  Mo  Mo200  1  0.29551054  0.50050418  0.90364951  1
  Mo  Mo201  1  0.90413738  0.90189000  0.10090715  1
  Mo  Mo202  1  0.80054888  0.79821028  0.20037429  1
  Mo  Mo203  1  0.30418008  0.70145987  0.89661724  1
  Mo  Mo204  1  0.80527637  0.20394821  0.80337290  1
  Mo  Mo205  1  0.30487825  0.90070232  0.89239220  1
  Mo  Mo206  1  -0.00189075  0.40367719  0.80816375  1
  Mo  Mo207  1  0.10290814  0.09795039  0.89823522  1
  Mo  Mo208  1  0.69792428  0.30100587  0.49691127  1
  Mo  Mo209  1  0.29126683  0.70338744  0.30205634  1
  Mo  Mo210  1  0.90931728  0.91105374  0.69848510  1
  Mo  Mo211  1  0.50151357  0.90673490  0.89810532  1
  Mo  Mo212  1  0.40205551  0.80054506  0.79847258  1
  Mo  Mo213  1  0.40042847  0.79924223  0.20567847  1
  Mo  Mo214  1  0.59980073  0.00099490  0.39127022  1
  Mo  Mo215  1  0.19117963  0.60134162  0.40288019  1
  Mo  Mo216  1  0.80214534  0.01138561  0.80135624  1
  Mo  Mo217  1  0.20080372  0.79887243  0.61252500  1
  Mo  Mo218  1  0.79898009  0.20704311  -0.00234674  1
  Mo  Mo219  1  0.59216908  0.20720181  0.81303422  1
  Mo  Mo220  1  0.30076385  0.89730278  0.70303228  1
  Mo  Mo221  1  0.49033219  0.89866707  0.49803245  1
  Mo  Mo222  1  0.40898570  0.19835204  0.19179782  1
  Mo  Mo223  1  0.09353404  0.70215141  0.29851466  1
  Mo  Mo224  1  0.50445061  0.89139690  0.29373533  1
  Mo  Mo225  1  -0.00460486  0.20103019  -0.00592847  1
  Mo  Mo226  1  0.29760335  0.10332352  0.50485865  1
  Mo  Mo227  1  0.10071737  0.89695615  0.28385441  1
  Mo  Mo228  1  0.49882897  0.90694521  0.09849784  1
  Mo  Mo229  1  0.00352059  0.00590373  0.61610450  1
  Mo  Mo230  1  0.29886022  0.69756156  0.70262737  1
  Mo  Mo231  1  0.69880910  0.90246718  0.09621283  1
  Mo  Mo232  1  0.00185550  0.60096158  0.59832454  1
  Mo  Mo233  1  0.60067867  0.39697606  0.60742734  1
  Mo  Mo234  1  0.59819756  0.80252274  0.20115911  1
  Mo  Mo235  1  0.20352851  0.00031150  0.60419489  1
  Mo  Mo236  1  0.19552150  0.79701116  0.38239253  1
  Mo  Mo237  1  0.80091780  0.78818803  0.78643343  1
  Mo  Mo238  1  0.50503858  0.30073268  0.29212551  1
  Mo  Mo239  1  0.89385444  0.29625813  0.31401538  1
  Mo  Mo240  1  0.89879510  0.29404070  0.08056254  1
  Mo  Mo241  1  -0.00393789  0.19353924  0.19508232  1
  Mo  Mo242  1  0.91178995  0.69495052  0.50509946  1
  Mo  Mo243  1  0.40122790  0.00776195  -0.00158909  1
  Mo  Mo244  1  0.89565552  0.69981211  0.10781333  1
  Mo  Mo245  1  0.71164559  0.90126506  0.51462172  1
  Mo  Mo246  1  0.70237266  0.49069334  0.89818970  1
  Mo  Mo247  1  0.09730463  0.09814717  0.28644762  1
  Mo  Mo248  1  0.09971113  0.69782931  0.88582596  1
  Mo  Mo249  1  0.51031018  0.10359200  0.29723497  1
