# generated using pymatgen
data_HfZrTaTiMo
_symmetry_space_group_name_H-M   'P 1'
_cell_length_a   16.89095574
_cell_length_b   16.88468194
_cell_length_c   16.89489627
_cell_angle_alpha   90.00288706
_cell_angle_beta   90.02274440
_cell_angle_gamma   90.00782165
_symmetry_Int_Tables_number   1
_chemical_formula_structural   HfZrTaTiMo
_chemical_formula_sum   'Hf50 Zr50 Ta50 Ti50 Mo50'
_cell_volume   4818.39721312
_cell_formula_units_Z   50
loop_
 _symmetry_equiv_pos_site_id
 _symmetry_equiv_pos_as_xyz
  1  'x, y, z'
loop_
 _atom_site_type_symbol
 _atom_site_label
 _atom_site_symmetry_multiplicity
 _atom_site_fract_x
 _atom_site_fract_y
 _atom_site_fract_z
 _atom_site_occupancy
  Hf  Hf0  1  0.17506991  0.20859878  0.79405018  1
  Hf  Hf1  1  -0.00657312  0.59266770  0.58618887  1
  Hf  Hf2  1  0.29610093  0.71642233  0.50419375  1
  Hf  Hf3  1  0.70487340  0.29961435  0.30075098  1
  Hf  Hf4  1  0.29902243  0.89468560  0.68761257  1
  Hf  Hf5  1  0.70687961  0.31093675  0.70642632  1
  Hf  Hf6  1  0.60813410  0.41127055  0.80635297  1
  Hf  Hf7  1  0.59629361  -0.00324212  0.59611559  1
  Hf  Hf8  1  0.59735593  0.19687163  -0.00026895  1
  Hf  Hf9  1  0.50417800  0.50457282  0.69718678  1
  Hf  Hf10  1  0.91374819  0.09596637  0.70441818  1
  Hf  Hf11  1  0.59550682  0.20595954  0.79902004  1
  Hf  Hf12  1  0.50088351  0.71165916  0.50210651  1
  Hf  Hf13  1  0.49481706  0.89178727  0.69706633  1
  Hf  Hf14  1  0.89510209  0.90441101  0.29068681  1
  Hf  Hf15  1  0.39828482  0.60243085  0.20236094  1
  Hf  Hf16  1  0.39820784  0.19718228  0.19653287  1
  Hf  Hf17  1  -0.00432897  0.79518813  0.39938186  1
  Hf  Hf18  1  0.40289586  0.21134004  0.59964928  1
  Hf  Hf19  1  0.49370553  0.50583114  0.90516405  1
  Hf  Hf20  1  0.70183639  0.30011224  0.09785574  1
  Hf  Hf21  1  0.40093722  0.39888282  0.20056499  1
  Hf  Hf22  1  0.19626054  0.20266238  0.00263258  1
  Hf  Hf23  1  0.30786156  0.88934164  0.90219868  1
  Hf  Hf24  1  0.69644579  0.89506389  0.70788262  1
  Hf  Hf25  1  0.19111037  0.40440212  0.80624800  1
  Hf  Hf26  1  0.70419936  0.89720026  0.90534276  1
  Hf  Hf27  1  0.81122858  0.19726533  0.39281533  1
  Hf  Hf28  1  -0.00656807  0.79945674  0.58583028  1
  Hf  Hf29  1  0.70185619  0.69430764  0.29452224  1
  Hf  Hf30  1  0.10125573  0.69531894  0.69163512  1
  Hf  Hf31  1  0.21501479  0.00929177  0.00561622  1
  Hf  Hf32  1  0.07222040  0.09737428  0.10434330  1
  Hf  Hf33  1  0.29177550  0.09869942  0.69155181  1
  Hf  Hf34  1  0.80421557  -0.00424248  0.59237662  1
  Hf  Hf35  1  0.30526575  0.69588143  0.08825687  1
  Hf  Hf36  1  0.19387341  0.59201072  0.40795043  1
  Hf  Hf37  1  0.29584646  0.49788816  0.29850985  1
  Hf  Hf38  1  0.80413325  0.20216247  0.60779774  1
  Hf  Hf39  1  0.09321321  0.09222976  0.90201959  1
  Hf  Hf40  1  0.30008314  0.70173370  0.69627414  1
  Hf  Hf41  1  0.91051580  0.50076363  0.09490132  1
  Hf  Hf42  1  0.50556074  0.29278293  0.30955625  1
  Hf  Hf43  1  0.81858484  0.21200211  0.80728312  1
  Hf  Hf44  1  0.39818851  0.59830471  0.59684593  1
  Hf  Hf45  1  0.30320051  0.50634908  0.90432316  1
  Hf  Hf46  1  -0.00524587  0.79011554  0.80062548  1
  Hf  Hf47  1  0.89606401  0.69225070  0.91123008  1
  Hf  Hf48  1  0.39467401  0.00007570  0.19504138  1
  Hf  Hf49  1  0.59624824  0.20983820  0.60094899  1
  Zr  Zr50  1  0.89772531  0.89621262  0.69804831  1
  Zr  Zr51  1  0.01135301  0.20689466  0.38955136  1
  Zr  Zr52  1  0.10479143  0.10051503  0.51387316  1
  Zr  Zr53  1  0.40362436  0.39610716  0.78954213  1
  Zr  Zr54  1  0.19858567  0.79380046  0.79954531  1
  Zr  Zr55  1  0.00418070  -0.01308328  0.80156053  1
  Zr  Zr56  1  -0.00371148  0.21663153  -0.01343706  1
  Zr  Zr57  1  0.49631818  0.29974111  0.90303978  1
  Zr  Zr58  1  -0.00833926  0.79601679  0.19559203  1
  Zr  Zr59  1  0.10410329  0.89045083  0.91229399  1
  Zr  Zr60  1  0.50067215  0.90412824  0.30447185  1
  Zr  Zr61  1  0.60348314  0.60016390  -0.00558958  1
  Zr  Zr62  1  0.70917788  0.08997558  0.09938428  1
  Zr  Zr63  1  0.30750601  0.10844527  0.88424166  1
  Zr  Zr64  1  0.60682136  0.80451778  0.19842450  1
  Zr  Zr65  1  0.69398508  0.89005926  0.49630223  1
  Zr  Zr66  1  0.09524535  0.32068994  0.10619032  1
  Zr  Zr67  1  0.59399100  -0.00084401  -0.00486587  1
  Zr  Zr68  1  0.80088687  0.40835219  0.60119630  1
  Zr  Zr69  1  0.29812119  0.30207435  0.90119687  1
  Zr  Zr70  1  0.10545447  0.29931959  0.51620636  1
  Zr  Zr71  1  0.70136284  0.50670791  0.10458161  1
  Zr  Zr72  1  0.19267449  0.20109411  0.20142180  1
  Zr  Zr73  1  0.59680573  0.40011314  0.19838531  1
  Zr  Zr74  1  0.70278535  0.50259535  0.30097178  1
  Zr  Zr75  1  0.90501119  0.30653549  0.50489088  1
  Zr  Zr76  1  0.39703660  0.60203305  0.40294624  1
  Zr  Zr77  1  0.09694193  0.90124206  0.09450569  1
  Zr  Zr78  1  0.80376764  -0.00144611  0.39905357  1
  Zr  Zr79  1  0.40064861  0.79778864  0.20707886  1
  Zr  Zr80  1  0.00710671  0.40939816  0.40426977  1
  Zr  Zr81  1  -0.00028235  0.60592505  0.19918961  1
  Zr  Zr82  1  0.10882449  0.69486159  0.09369831  1
  Zr  Zr83  1  0.10632765  0.90376587  0.68060216  1
  Zr  Zr84  1  0.79826163  0.78849039  0.59615410  1
  Zr  Zr85  1  0.09934214  0.90506496  0.29676904  1
  Zr  Zr86  1  0.70173012  0.09607032  0.70671853  1
  Zr  Zr87  1  -0.00525044  0.59028901  0.80586425  1
  Zr  Zr88  1  0.20696948  0.79857523  0.20165590  1
  Zr  Zr89  1  0.60875841  0.60359313  0.60009166  1
  Zr  Zr90  1  0.91569806  0.10378655  0.51021006  1
  Zr  Zr91  1  0.69604107  0.09648256  0.29616057  1
  Zr  Zr92  1  0.89951094  0.08632792  0.91244259  1
  Zr  Zr93  1  0.09174403  0.49207773  0.69420427  1
  Zr  Zr94  1  0.69957224  0.30224546  0.49168966  1
  Zr  Zr95  1  0.20902949  0.00539994  0.19452287  1
  Zr  Zr96  1  0.50608882  0.10471007  0.49075446  1
  Zr  Zr97  1  0.10381069  0.49186717  0.28298301  1
  Zr  Zr98  1  0.48810808  0.09708843  0.70697975  1
  Zr  Zr99  1  0.29131780  0.29909056  0.30458827  1
  Ta  Ta100  1  0.50288875  0.69793925  0.09670360  1
  Ta  Ta101  1  0.49730216  0.50805265  0.10140281  1
  Ta  Ta102  1  0.70646422  0.30371487  0.90324713  1
  Ta  Ta103  1  0.29820424  0.90309872  0.31127499  1
  Ta  Ta104  1  0.80545497  0.40189138  -0.00724428  1
  Ta  Ta105  1  0.39646999  -0.00911471  0.58185086  1
  Ta  Ta106  1  0.81090122  0.19974281  0.19400703  1
  Ta  Ta107  1  0.89261672  0.89233850  0.91142601  1
  Ta  Ta108  1  0.39735620  0.39896596  0.59448666  1
  Ta  Ta109  1  0.59738806  0.78768695  0.80525419  1
  Ta  Ta110  1  0.39528533  0.00177878  0.40506618  1
  Ta  Ta111  1  0.70535735  0.70078983  0.90570319  1
  Ta  Ta112  1  0.70645902  0.69869473  0.09730029  1
  Ta  Ta113  1  0.29740411  0.50142459  0.69863115  1
  Ta  Ta114  1  0.90364981  0.30523233  0.09984180  1
  Ta  Ta115  1  -0.00045136  0.60172924  0.39952674  1
  Ta  Ta116  1  0.90756201  0.30970228  0.29055328  1
  Ta  Ta117  1  0.39824560  0.20143991  0.40565610  1
  Ta  Ta118  1  0.29210094  0.29935138  0.69648079  1
  Ta  Ta119  1  0.30346152  0.69552116  0.90384976  1
  Ta  Ta120  1  0.80115841  0.80059551  0.19148880  1
  Ta  Ta121  1  0.91297472  0.09569484  0.28104105  1
  Ta  Ta122  1  0.59871009  0.59929346  0.40215474  1
  Ta  Ta123  1  0.60365927  0.60787763  0.80277123  1
  Ta  Ta124  1  0.89542914  0.50079228  0.29900576  1
  Ta  Ta125  1  0.40209979  0.00481672  0.00193108  1
  Ta  Ta126  1  0.00216336  -0.00470462  0.40396971  1
  Ta  Ta127  1  0.80621823  0.40078547  0.19608815  1
  Ta  Ta128  1  0.19904706  0.39861390  0.40783532  1
  Ta  Ta129  1  0.80454484  0.20391847  0.00075627  1
  Ta  Ta130  1  0.39907170  0.39714171  0.41111574  1
  Ta  Ta131  1  0.20120369  0.59222936  0.59225730  1
  Ta  Ta132  1  0.88789992  0.69220952  0.29824005  1
  Ta  Ta133  1  0.69742919  0.10584614  0.49422205  1
  Ta  Ta134  1  0.39924817  0.19672873  0.00817906  1
  Ta  Ta135  1  0.20093427  0.00097497  0.40781774  1
  Ta  Ta136  1  -0.01350095  0.79283983  0.00871562  1
  Ta  Ta137  1  0.10203520  0.69485795  0.91020294  1
  Ta  Ta138  1  0.70528387  0.10156502  0.89952726  1
  Ta  Ta139  1  0.50089674  0.10025335  0.30240843  1
  Ta  Ta140  1  0.09982336  0.09841225  0.30221749  1
  Ta  Ta141  1  0.50134236  0.49904296  0.49929240  1
  Ta  Ta142  1  0.29816287  0.10219102  0.31139735  1
  Ta  Ta143  1  0.29435151  0.30881374  0.09803398  1
  Ta  Ta144  1  0.49613813  0.89407316  0.09115962  1
  Ta  Ta145  1  0.39866866  0.40338062  0.01102093  1
  Ta  Ta146  1  0.79932849  0.78948314  0.80334179  1
  Ta  Ta147  1  0.59646803  0.40343943  0.40615154  1
  Ta  Ta148  1  0.79477883  0.59178811  0.80584979  1
  Ta  Ta149  1  0.50234065  0.50253768  0.30379387  1
  Ti  Ti150  1  0.49574621  0.89177664  0.90230643  1
  Ti  Ti151  1  0.49255020  0.69948288  0.90741134  1
  Ti  Ti152  1  0.70482563  0.69512806  0.70499554  1
  Ti  Ti153  1  0.59328905  0.39782216  0.59764932  1
  Ti  Ti154  1  0.19252467  0.81083780  0.40659312  1
  Ti  Ti155  1  0.80114511  -0.00451012  0.80410621  1
  Ti  Ti156  1  0.60160722  -0.00603924  0.39926709  1
  Ti  Ti157  1  0.29069794  0.50069434  0.10209611  1
  Ti  Ti158  1  0.29145919  0.70325300  0.30838864  1
  Ti  Ti159  1  0.60270550  -0.00849702  0.19933834  1
  Ti  Ti160  1  0.70185603  0.69555397  0.49366001  1
  Ti  Ti161  1  0.89625583  0.49341821  0.70568222  1
  Ti  Ti162  1  0.79975674  0.59625666  0.40076122  1
  Ti  Ti163  1  0.89256921  0.91825960  0.09584044  1
  Ti  Ti164  1  0.60252743  0.80090276  0.39373773  1
  Ti  Ti165  1  0.29248331  0.10659414  0.50135276  1
  Ti  Ti166  1  0.89110379  0.49931752  0.49248541  1
  Ti  Ti167  1  0.20419298  0.40586964  0.59799478  1
  Ti  Ti168  1  0.49228697  0.10280987  0.89445623  1
  Ti  Ti169  1  0.89019249  0.68437850  0.69658838  1
  Ti  Ti170  1  0.40023313  0.81366432  0.40766568  1
  Ti  Ti171  1  0.30839516  0.88670372  0.08843446  1
  Ti  Ti172  1  0.39937604  -0.00681675  0.80214211  1
  Ti  Ti173  1  0.79863565  0.80201353  0.39397049  1
  Ti  Ti174  1  0.40849891  0.78904506  0.79792598  1
  Ti  Ti175  1  0.59803229  0.79326210  0.60784051  1
  Ti  Ti176  1  0.09060071  0.49731787  0.91603640  1
  Ti  Ti177  1  0.10528352  0.49979196  0.09738302  1
  Ti  Ti178  1  0.50225956  0.09472868  0.10494764  1
  Ti  Ti179  1  0.29064373  0.29434797  0.50230817  1
  Ti  Ti180  1  -0.00728966  0.38721769  0.80989534  1
  Ti  Ti181  1  0.10053493  0.09204137  0.69155126  1
  Ti  Ti182  1  0.49966023  0.30213773  0.09753313  1
  Ti  Ti183  1  0.59946096  0.19727326  0.19791243  1
  Ti  Ti184  1  0.00765900  0.21967434  0.63116931  1
  Ti  Ti185  1  0.59439712  -0.00284376  0.80659265  1
  Ti  Ti186  1  0.88785373  0.69257116  0.49144201  1
  Ti  Ti187  1  0.50660727  0.69598797  0.30051295  1
  Ti  Ti188  1  0.40454747  0.60666941  0.79575860  1
  Ti  Ti189  1  0.80128523  0.59257530  -0.00088312  1
  Ti  Ti190  1  0.19949804  0.59357089  -0.00240358  1
  Ti  Ti191  1  0.60148577  0.40416318  -0.00101811  1
  Ti  Ti192  1  0.19989304  -0.00409244  0.79956908  1
  Ti  Ti193  1  0.60005348  0.79668860  -0.00129004  1
  Ti  Ti194  1  0.70262325  0.50081778  0.49656650  1
  Ti  Ti195  1  0.19609850  0.59720863  0.80104305  1
  Ti  Ti196  1  0.10402577  0.70173435  0.50095795  1
  Ti  Ti197  1  0.70793385  0.89965020  0.09524011  1
  Ti  Ti198  1  0.70633293  0.50583529  0.70083325  1
  Ti  Ti199  1  0.10733696  0.69633272  0.30011816  1
  Mo  Mo200  1  0.70383597  0.50128132  0.90133264  1
  Mo  Mo201  1  0.50097754  0.70050944  0.70599873  1
  Mo  Mo202  1  0.29594389  0.90205832  0.49719775  1
  Mo  Mo203  1  0.79744935  -0.00097063  0.00128159  1
  Mo  Mo204  1  0.20319789  0.19756289  0.40347776  1
  Mo  Mo205  1  0.89985803  0.49900247  0.90130409  1
  Mo  Mo206  1  0.49892657  0.89623806  0.49751310  1
  Mo  Mo207  1  -0.00697888  0.40539842  0.60365934  1
  Mo  Mo208  1  0.09517154  0.31394332  0.90427093  1
  Mo  Mo209  1  0.20170692  0.40977594  0.00209289  1
  Mo  Mo210  1  0.89825750  0.31023051  0.90307080  1
  Mo  Mo211  1  0.20701291  0.60017016  0.20059038  1
  Mo  Mo212  1  0.40103729  0.59763767  0.00387160  1
  Mo  Mo213  1  0.19414523  0.79630329  0.59114965  1
  Mo  Mo214  1  0.29891252  0.49110326  0.50315049  1
  Mo  Mo215  1  0.20461807  -0.00041434  0.59102942  1
  Mo  Mo216  1  0.40053587  0.20373301  0.79188141  1
  Mo  Mo217  1  -0.00249448  -0.00203209  0.20053092  1
  Mo  Mo218  1  0.49890227  0.30761344  0.49856086  1
  Mo  Mo219  1  0.50124669  0.31032238  0.69529444  1
  Mo  Mo220  1  0.59153421  0.60614743  0.20233564  1
  Mo  Mo221  1  0.59941677  0.20013241  0.39666574  1
  Mo  Mo222  1  -0.00317313  0.20757828  0.20137281  1
  Mo  Mo223  1  0.90156132  0.89422848  0.48860093  1
  Mo  Mo224  1  0.00624844  0.59940763  0.00107080  1
  Mo  Mo225  1  0.20180145  0.20278725  0.60723876  1
  Mo  Mo226  1  0.10152861  0.30121410  0.30043442  1
  Mo  Mo227  1  0.88792074  0.69376990  0.09937720  1
  Mo  Mo228  1  0.00147405  -0.01025839  0.59031054  1
  Mo  Mo229  1  0.90596622  0.31187025  0.70678440  1
  Mo  Mo230  1  0.10101401  0.49975183  0.50103760  1
  Mo  Mo231  1  0.40497489  0.80274760  0.59820037  1
  Mo  Mo232  1  0.09993237  0.90068695  0.49419329  1
  Mo  Mo233  1  0.20342839  0.40306626  0.19709725  1
  Mo  Mo234  1  0.80348856  0.40925776  0.80572000  1
  Mo  Mo235  1  -0.00059339  0.40780199  -0.00315629  1
  Mo  Mo236  1  -0.00715259  -0.01256069  0.00376929  1
  Mo  Mo237  1  0.41027903  0.79662775  -0.00488929  1
  Mo  Mo238  1  0.30892313  0.11010650  0.10004784  1
  Mo  Mo239  1  0.10065289  0.31460585  0.70378193  1
  Mo  Mo240  1  0.80342072  0.60180438  0.19609410  1
  Mo  Mo241  1  0.80162649  0.40645149  0.39310580  1
  Mo  Mo242  1  -0.00374316  0.40409348  0.19947526  1
  Mo  Mo243  1  0.79802376  0.80037920  0.00798788  1
  Mo  Mo244  1  0.89656577  0.10355791  0.10195773  1
  Mo  Mo245  1  0.70158521  0.89553215  0.29517568  1
  Mo  Mo246  1  0.00130982  0.21007576  0.79859078  1
  Mo  Mo247  1  0.21059270  0.79229807  -0.00475322  1
  Mo  Mo248  1  0.80053587  -0.00251531  0.19503276  1
  Mo  Mo249  1  0.80109893  0.59620966  0.60047957  1
