# generated using pymatgen
data_HfZrTaTiMo
_symmetry_space_group_name_H-M   'P 1'
_cell_length_a   16.88806410
_cell_length_b   16.87471227
_cell_length_c   16.87842374
_cell_angle_alpha   90.00222817
_cell_angle_beta   89.97567917
_cell_angle_gamma   90.00043438
_symmetry_Int_Tables_number   1
_chemical_formula_structural   HfZrTaTiMo
_chemical_formula_sum   'Hf50 Zr50 Ta50 Ti50 Mo50'
_cell_volume   4810.03339538
_cell_formula_units_Z   50
loop_
 _symmetry_equiv_pos_site_id
 _symmetry_equiv_pos_as_xyz
  1  'x, y, z'
loop_
 _atom_site_type_symbol
 _atom_site_label
 _atom_site_symmetry_multiplicity
 _atom_site_fract_x
 _atom_site_fract_y
 _atom_site_fract_z
 _atom_site_occupancy
  Hf  Hf0  1  0.50476389  0.29120321  0.69478665  1
  Hf  Hf1  1  0.60376696  0.60696201  0.80126244  1
  Hf  Hf2  1  0.49824190  0.90619159  0.50022638  1
  Hf  Hf3  1  0.00379781  0.19027372  0.40184681  1
  Hf  Hf4  1  0.29569253  0.50286979  0.30082612  1
  Hf  Hf5  1  0.78660540  0.00565237  -0.01216671  1
  Hf  Hf6  1  0.61104543  0.80112922  -0.00791020  1
  Hf  Hf7  1  0.70694922  0.90118796  0.70202821  1
  Hf  Hf8  1  0.49648853  0.29398164  0.89936488  1
  Hf  Hf9  1  0.09162711  0.89725793  0.50907913  1
  Hf  Hf10  1  0.20263469  0.40412905  0.59891794  1
  Hf  Hf11  1  0.38197403  0.19377492  0.80080528  1
  Hf  Hf12  1  0.60997370  0.19924727  0.39776794  1
  Hf  Hf13  1  0.09355483  0.89681862  0.30387643  1
  Hf  Hf14  1  0.00757289  0.79423083  0.00059925  1
  Hf  Hf15  1  0.19298597  0.39308023  0.19850721  1
  Hf  Hf16  1  0.50263541  0.90964513  0.29568939  1
  Hf  Hf17  1  0.30243761  0.10112109  0.29252921  1
  Hf  Hf18  1  0.00620150  0.00377134  0.80251447  1
  Hf  Hf19  1  0.89913498  0.90353406  0.10070689  1
  Hf  Hf20  1  0.09572960  0.10585912  0.09459953  1
  Hf  Hf21  1  0.41105877  0.59979148  0.40538502  1
  Hf  Hf22  1  0.19586758  0.00706295  0.60695609  1
  Hf  Hf23  1  0.29588659  0.89059432  0.71160045  1
  Hf  Hf24  1  0.49621901  0.09904733  0.10770104  1
  Hf  Hf25  1  0.49204308  0.09582150  0.91025135  1
  Hf  Hf26  1  0.20395167  0.00391902  0.00089097  1
  Hf  Hf27  1  0.60040108  0.39846287  0.00842687  1
  Hf  Hf28  1  -0.00040085  0.79578041  0.80668353  1
  Hf  Hf29  1  0.09241079  0.11210159  0.70563498  1
  Hf  Hf30  1  -0.00184233  0.40365965  0.80466424  1
  Hf  Hf31  1  0.40678130  0.19751040  0.39396426  1
  Hf  Hf32  1  0.49949433  0.49970374  0.90329254  1
  Hf  Hf33  1  0.80553540  0.60085346  0.60002463  1
  Hf  Hf34  1  0.20330121  0.01049398  0.80586383  1
  Hf  Hf35  1  0.08985973  0.70073187  0.50560604  1
  Hf  Hf36  1  0.49939709  0.90576795  0.09951592  1
  Hf  Hf37  1  0.89622614  0.29431849  0.69921030  1
  Hf  Hf38  1  0.19529723  0.60560471  0.00075760  1
  Hf  Hf39  1  0.80833904  0.60696013  -0.00560076  1
  Hf  Hf40  1  0.49727680  0.28466612  0.09863492  1
  Hf  Hf41  1  0.19739198  0.79871849  0.00233185  1
  Hf  Hf42  1  0.39493329  0.00466336  0.61745210  1
  Hf  Hf43  1  0.90045868  0.90581103  0.90032637  1
  Hf  Hf44  1  0.30159856  0.09853791  0.49651293  1
  Hf  Hf45  1  0.90565970  0.10086168  0.09612216  1
  Hf  Hf46  1  0.90198546  0.49137460  0.49250770  1
  Hf  Hf47  1  0.60115264  0.39266496  0.39481318  1
  Hf  Hf48  1  0.90081652  0.70219709  0.10881496  1
  Hf  Hf49  1  0.80367315  0.18923550  0.40873847  1
  Zr  Zr50  1  0.29120052  0.69254536  0.29433362  1
  Zr  Zr51  1  0.61739002  0.00225713  0.81202415  1
  Zr  Zr52  1  0.50872893  0.10120738  0.70407995  1
  Zr  Zr53  1  0.30188242  0.90649139  0.49414400  1
  Zr  Zr54  1  0.30120781  0.29774848  0.49901668  1
  Zr  Zr55  1  0.10351942  0.70118445  0.70067136  1
  Zr  Zr56  1  0.09281761  0.50018311  0.30192749  1
  Zr  Zr57  1  0.30318961  0.90522420  0.30134906  1
  Zr  Zr58  1  0.79714879  0.59127789  0.20864291  1
  Zr  Zr59  1  0.50133375  0.49939605  0.70280100  1
  Zr  Zr60  1  0.70247456  0.90666282  0.11258856  1
  Zr  Zr61  1  0.90418734  0.30000832  0.89893492  1
  Zr  Zr62  1  0.39142763  0.79319082  0.00364303  1
  Zr  Zr63  1  0.29606298  0.69651804  0.49685991  1
  Zr  Zr64  1  0.79137913  0.39017240  0.38483935  1
  Zr  Zr65  1  0.17678049  0.01599879  0.39667754  1
  Zr  Zr66  1  0.81011937  0.60585317  0.80182885  1
  Zr  Zr67  1  0.61220100  0.39843927  0.20024146  1
  Zr  Zr68  1  0.79551567  0.20683158  0.19978494  1
  Zr  Zr69  1  0.90065717  0.70045393  0.29697875  1
  Zr  Zr70  1  0.60154551  0.79428174  0.40073343  1
  Zr  Zr71  1  0.90317110  0.90070723  0.50126908  1
  Zr  Zr72  1  0.79938201  0.01466773  0.59016412  1
  Zr  Zr73  1  0.50286097  0.09988350  0.50500096  1
  Zr  Zr74  1  0.70217614  0.50135597  0.49556520  1
  Zr  Zr75  1  0.69885745  0.08438250  0.29077516  1
  Zr  Zr76  1  0.59338979  0.60933571  0.59159908  1
  Zr  Zr77  1  0.29324891  0.50231239  0.10177968  1
  Zr  Zr78  1  0.60352001  0.39595082  0.59745075  1
  Zr  Zr79  1  0.61607016  0.19238098  -0.00008902  1
  Zr  Zr80  1  0.00504576  -0.00305346  0.20340387  1
  Zr  Zr81  1  0.50070010  0.28422091  0.28652288  1
  Zr  Zr82  1  0.40190962  0.60172277  0.00231724  1
  Zr  Zr83  1  0.80017636  0.79836689  0.59259713  1
  Zr  Zr84  1  0.79931812  0.40006112  0.19745213  1
  Zr  Zr85  1  0.49092321  0.90167010  0.89870623  1
  Zr  Zr86  1  0.00232456  0.59597985  0.00312742  1
  Zr  Zr87  1  0.20262249  0.58756329  0.60047319  1
  Zr  Zr88  1  0.39460873  0.59278143  0.60380419  1
  Zr  Zr89  1  0.41521824  0.60119864  0.19485827  1
  Zr  Zr90  1  0.81321983  0.40928622  0.00678171  1
  Zr  Zr91  1  0.19495653  0.79662201  0.39746790  1
  Zr  Zr92  1  0.19907762  0.38825557  -0.00328714  1
  Zr  Zr93  1  0.38932574  0.39651986  0.79625218  1
  Zr  Zr94  1  0.70883792  0.30394635  0.89209839  1
  Zr  Zr95  1  0.40513995  0.40329215  0.19366711  1
  Zr  Zr96  1  0.69958255  0.50237100  0.89894485  1
  Zr  Zr97  1  0.90758765  0.10366356  0.89885504  1
  Zr  Zr98  1  0.19117224  0.20531543  0.39551394  1
  Zr  Zr99  1  0.40294009  0.79212432  0.59968353  1
  Ta  Ta100  1  -0.00529108  0.60192691  0.40444764  1
  Ta  Ta101  1  0.09559407  0.89538575  0.70026839  1
  Ta  Ta102  1  0.40029181  0.79803461  0.20056063  1
  Ta  Ta103  1  0.91093371  0.29768762  0.29773237  1
  Ta  Ta104  1  0.91242323  0.29511960  0.09719439  1
  Ta  Ta105  1  -0.00329985  0.40500827  0.19092570  1
  Ta  Ta106  1  0.60482539  0.39596567  0.79603877  1
  Ta  Ta107  1  0.39512193  0.39593725  0.00026986  1
  Ta  Ta108  1  0.90515981  0.90337760  0.69948177  1
  Ta  Ta109  1  0.19777975  0.39908282  0.40120470  1
  Ta  Ta110  1  0.90480248  0.70609725  0.69611800  1
  Ta  Ta111  1  0.69577240  0.90631054  0.49408754  1
  Ta  Ta112  1  0.40709448  0.79432988  0.39625824  1
  Ta  Ta113  1  0.49955007  0.70818486  0.70794860  1
  Ta  Ta114  1  0.90184872  0.09658162  0.29477594  1
  Ta  Ta115  1  0.40168305  0.39964423  0.40028819  1
  Ta  Ta116  1  0.29019012  0.69871382  0.71693008  1
  Ta  Ta117  1  0.79953477  0.79593896  -0.00924231  1
  Ta  Ta118  1  -0.00405837  0.59670372  0.80215461  1
  Ta  Ta119  1  0.49795716  0.29589118  0.50712888  1
  Ta  Ta120  1  0.70435357  0.49832793  0.69939465  1
  Ta  Ta121  1  0.19234126  0.20082705  0.60115711  1
  Ta  Ta122  1  0.09544877  0.30141665  0.70032720  1
  Ta  Ta123  1  0.39218883  0.40260392  0.59731220  1
  Ta  Ta124  1  -0.01118063  0.79544648  0.40106831  1
  Ta  Ta125  1  0.80024336  0.79894191  0.80523398  1
  Ta  Ta126  1  0.09903676  0.49894744  0.70641520  1
  Ta  Ta127  1  0.10218647  0.49756604  0.89851001  1
  Ta  Ta128  1  0.39323548  0.60331266  0.80329298  1
  Ta  Ta129  1  0.08979600  0.30684841  0.50326205  1
  Ta  Ta130  1  0.19634165  -0.00139837  0.19261440  1
  Ta  Ta131  1  0.79832239  0.20203621  0.00463451  1
  Ta  Ta132  1  0.19236102  0.80478925  0.19132869  1
  Ta  Ta133  1  0.29339442  0.50246189  0.89715587  1
  Ta  Ta134  1  0.09243098  0.29559263  0.09838118  1
  Ta  Ta135  1  0.09147632  0.69564718  0.29550338  1
  Ta  Ta136  1  0.89854327  0.10474880  0.70030747  1
  Ta  Ta137  1  0.79652790  0.80227959  0.39592110  1
  Ta  Ta138  1  -0.00703919  0.19910060  0.59295006  1
  Ta  Ta139  1  0.70883190  0.29768275  0.69934942  1
  Ta  Ta140  1  0.50359663  0.89647765  0.70771175  1
  Ta  Ta141  1  -0.00601699  0.59471580  0.60297356  1
  Ta  Ta142  1  0.19490672  0.20654485  0.81107452  1
  Ta  Ta143  1  0.60534672  0.79738436  0.20715429  1
  Ta  Ta144  1  0.59967949  0.80131867  0.60101473  1
  Ta  Ta145  1  0.60359633  0.60445334  0.20135194  1
  Ta  Ta146  1  0.70484402  0.70434882  0.10498478  1
  Ta  Ta147  1  0.69791597  0.51179536  0.09729413  1
  Ta  Ta148  1  0.50001736  0.70129340  0.89725075  1
  Ta  Ta149  1  0.70025849  0.70436936  0.70070087  1
  Ti  Ti150  1  0.11523211  0.69508045  0.88443771  1
  Ti  Ti151  1  0.30160808  0.89970205  0.90104335  1
  Ti  Ti152  1  0.51012410  0.70626720  0.10046008  1
  Ti  Ti153  1  0.50695130  0.49969435  0.29916707  1
  Ti  Ti154  1  0.60293693  0.60869499  0.00245898  1
  Ti  Ti155  1  0.79789978  0.19047874  0.80328159  1
  Ti  Ti156  1  0.60143231  0.00346850  0.39816048  1
  Ti  Ti157  1  0.60814246  -0.00013326  -0.00316184  1
  Ti  Ti158  1  0.38955873  0.19820905  0.60742967  1
  Ti  Ti159  1  0.01367797  0.20603213  -0.01599209  1
  Ti  Ti160  1  0.69889574  0.09513624  0.10906452  1
  Ti  Ti161  1  0.08807565  0.30077684  0.29682545  1
  Ti  Ti162  1  -0.00397746  0.40321979  0.60564945  1
  Ti  Ti163  1  0.28955207  0.29822235  0.69867466  1
  Ti  Ti164  1  0.60284153  0.60302219  0.39313329  1
  Ti  Ti165  1  0.20157256  0.79990997  0.60253871  1
  Ti  Ti166  1  0.19341499  0.19707072  0.20033193  1
  Ti  Ti167  1  0.90195600  0.30228805  0.49986689  1
  Ti  Ti168  1  0.80432686  -0.00585261  0.39297047  1
  Ti  Ti169  1  0.79493029  0.81022155  0.21663796  1
  Ti  Ti170  1  0.29375738  0.69951760  0.11012845  1
  Ti  Ti171  1  0.37943701  0.19329356  -0.00038921  1
  Ti  Ti172  1  0.71018083  0.29572692  0.50924059  1
  Ti  Ti173  1  0.09043111  0.49233106  0.49735243  1
  Ti  Ti174  1  0.39537086  0.79228172  0.80698863  1
  Ti  Ti175  1  0.90750991  0.49618060  0.30282503  1
  Ti  Ti176  1  0.50226275  0.70212257  0.29848570  1
  Ti  Ti177  1  0.29889570  0.28810419  0.10469243  1
  Ti  Ti178  1  0.39461858  0.00458798  0.19532293  1
  Ti  Ti179  1  0.70957199  0.10502597  0.70179592  1
  Ti  Ti180  1  0.17519262  0.60012712  0.18721192  1
  Ti  Ti181  1  -0.00070959  0.01167902  0.59746243  1
  Ti  Ti182  1  0.19923608  0.39518941  0.80283172  1
  Ti  Ti183  1  0.10193574  0.90341005  0.90240700  1
  Ti  Ti184  1  0.00539685  0.80252433  0.19851645  1
  Ti  Ti185  1  0.61976067  0.19198913  0.59440545  1
  Ti  Ti186  1  0.49952703  0.49150507  0.49779044  1
  Ti  Ti187  1  0.30372746  0.90456562  0.10172887  1
  Ti  Ti188  1  0.80916915  0.41456016  0.79553561  1
  Ti  Ti189  1  0.60829187  0.79924909  0.80451867  1
  Ti  Ti190  1  -0.00624604  0.00686344  0.40176415  1
  Ti  Ti191  1  0.70123350  0.70117885  0.49711743  1
  Ti  Ti192  1  0.79838078  0.60488027  0.39668078  1
  Ti  Ti193  1  0.60610133  -0.00024649  0.60268679  1
  Ti  Ti194  1  0.20192356  0.19955826  -0.00927032  1
  Ti  Ti195  1  0.19208916  0.59299185  0.40678247  1
  Ti  Ti196  1  0.60949104  0.19885589  0.80212245  1
  Ti  Ti197  1  0.80395424  0.40168732  0.60499538  1
  Ti  Ti198  1  0.30225835  0.29898309  0.29500935  1
  Ti  Ti199  1  0.39003287  0.00678110  0.80239982  1
  Mo  Mo200  1  0.50315200  0.70237443  0.50013106  1
  Mo  Mo201  1  0.38502456  0.19573182  0.19483317  1
  Mo  Mo202  1  0.29289308  0.49758939  0.71254017  1
  Mo  Mo203  1  0.10256570  0.10724120  0.90246921  1
  Mo  Mo204  1  0.00011579  0.20368477  0.20307594  1
  Mo  Mo205  1  0.69114413  0.51197143  0.30286656  1
  Mo  Mo206  1  0.90342283  0.49949346  0.69560258  1
  Mo  Mo207  1  0.29761638  0.10217249  0.90533380  1
  Mo  Mo208  1  0.70602713  0.29830712  0.09896122  1
  Mo  Mo209  1  0.80041113  0.20363989  0.59840308  1
  Mo  Mo210  1  0.90098843  0.09702647  0.49569620  1
  Mo  Mo211  1  -0.00177769  0.59311572  0.20172654  1
  Mo  Mo212  1  0.80815097  -0.00099235  0.20231387  1
  Mo  Mo213  1  0.19767969  0.58975261  0.80285741  1
  Mo  Mo214  1  0.01100942  -0.00540997  -0.00156607  1
  Mo  Mo215  1  0.51254155  0.50863128  0.09635366  1
  Mo  Mo216  1  0.59738907  -0.00203197  0.19850484  1
  Mo  Mo217  1  0.30234987  0.49244642  0.48634456  1
  Mo  Mo218  1  0.49968406  0.09099845  0.29402318  1
  Mo  Mo219  1  0.70653442  0.10464166  0.89528496  1
  Mo  Mo220  1  0.70147334  0.89973480  0.30562081  1
  Mo  Mo221  1  -0.00298573  0.79771562  0.60510288  1
  Mo  Mo222  1  0.70717962  0.89950894  0.89531917  1
  Mo  Mo223  1  0.89832073  0.90170613  0.30350750  1
  Mo  Mo224  1  0.70161490  0.28780807  0.29937446  1
  Mo  Mo225  1  0.29502481  0.10425757  0.10155380  1
  Mo  Mo226  1  0.00650843  0.40092764  0.00396862  1
  Mo  Mo227  1  0.90969841  0.50308984  0.89893876  1
  Mo  Mo228  1  0.89966948  0.69469827  0.49670571  1
  Mo  Mo229  1  0.29842892  0.69910058  0.89447231  1
  Mo  Mo230  1  0.80873004  0.00240634  0.79115076  1
  Mo  Mo231  1  0.09382314  0.49206905  0.09675292  1
  Mo  Mo232  1  0.09597016  0.70423478  0.10999784  1
  Mo  Mo233  1  0.09267339  0.10428741  0.51131622  1
  Mo  Mo234  1  -0.00009149  0.39459776  0.39775364  1
  Mo  Mo235  1  0.00195458  0.20591754  0.79567469  1
  Mo  Mo236  1  0.69900240  0.70418417  0.90038154  1
  Mo  Mo237  1  0.29768525  0.30036964  0.90500528  1
  Mo  Mo238  1  0.10215548  0.30176945  0.89762462  1
  Mo  Mo239  1  0.09952208  0.90163475  0.09795776  1
  Mo  Mo240  1  0.09787391  0.10244797  0.28754109  1
  Mo  Mo241  1  0.60748090  0.19409521  0.19656104  1
  Mo  Mo242  1  0.90292010  0.70499612  0.89648471  1
  Mo  Mo243  1  0.41043577  0.00590325  0.39223706  1
  Mo  Mo244  1  0.69998437  0.70206700  0.30067506  1
  Mo  Mo245  1  0.38855669  0.00033122  0.00278971  1
  Mo  Mo246  1  0.90426931  0.50040864  0.10192068  1
  Mo  Mo247  1  0.19708226  0.80839409  0.80836260  1
  Mo  Mo248  1  0.28982197  0.10909678  0.70274812  1
  Mo  Mo249  1  0.69873937  0.09139132  0.49662672  1
