# generated using pymatgen
data_HfZrTaTiMo
_symmetry_space_group_name_H-M   'P 1'
_cell_length_a   16.88714157
_cell_length_b   16.87860927
_cell_length_c   16.88257193
_cell_angle_alpha   89.97353891
_cell_angle_beta   90.00295571
_cell_angle_gamma   90.02007810
_symmetry_Int_Tables_number   1
_chemical_formula_structural   HfZrTaTiMo
_chemical_formula_sum   'Hf50 Zr50 Ta50 Ti50 Mo50'
_cell_volume   4812.06337991
_cell_formula_units_Z   50
loop_
 _symmetry_equiv_pos_site_id
 _symmetry_equiv_pos_as_xyz
  1  'x, y, z'
loop_
 _atom_site_type_symbol
 _atom_site_label
 _atom_site_symmetry_multiplicity
 _atom_site_fract_x
 _atom_site_fract_y
 _atom_site_fract_z
 _atom_site_occupancy
  Hf  Hf0  1  0.79953803  0.00007457  0.79859737  1
  Hf  Hf1  1  0.91057540  0.30530324  0.50155395  1
  Hf  Hf2  1  0.20491092  0.59543466  0.80029808  1
  Hf  Hf3  1  0.00758336  0.00153005  0.79890013  1
  Hf  Hf4  1  0.10605832  0.30551964  0.09994476  1
  Hf  Hf5  1  0.90140339  0.30820338  0.90132137  1
  Hf  Hf6  1  0.90132004  0.70279201  0.48899894  1
  Hf  Hf7  1  0.30329279  0.71418426  0.10225629  1
  Hf  Hf8  1  0.90022447  0.09850891  0.69096998  1
  Hf  Hf9  1  0.39660353  -0.00348205  0.59795850  1
  Hf  Hf10  1  0.70094627  0.29796247  0.29176937  1
  Hf  Hf11  1  0.69815240  0.10746033  0.29292961  1
  Hf  Hf12  1  0.00912025  0.00408479  0.59092227  1
  Hf  Hf13  1  0.79991023  0.79890664  0.00778812  1
  Hf  Hf14  1  0.01040964  0.00398105  -0.00132991  1
  Hf  Hf15  1  0.59821288  0.40601037  0.79539152  1
  Hf  Hf16  1  0.80309277  -0.00282729  0.19879679  1
  Hf  Hf17  1  0.49748646  0.71036910  0.10447852  1
  Hf  Hf18  1  0.49506980  0.10615358  0.50538109  1
  Hf  Hf19  1  0.79195687  0.59941709  0.60235702  1
  Hf  Hf20  1  0.10450110  0.29826780  0.69565071  1
  Hf  Hf21  1  0.49685124  0.49689531  0.09693938  1
  Hf  Hf22  1  0.68673067  0.49715908  0.50029795  1
  Hf  Hf23  1  0.68590375  0.29636862  0.69314768  1
  Hf  Hf24  1  0.29477561  0.89012892  0.70368239  1
  Hf  Hf25  1  0.29758375  0.10876889  0.50279179  1
  Hf  Hf26  1  0.68728164  0.28984294  0.10632754  1
  Hf  Hf27  1  0.10545628  0.88634324  0.49460810  1
  Hf  Hf28  1  0.69374632  0.10268152  0.90064462  1
  Hf  Hf29  1  0.40361386  0.21040698  0.39440132  1
  Hf  Hf30  1  0.48872038  0.89927792  0.10745698  1
  Hf  Hf31  1  0.00107126  0.60476696  0.79880254  1
  Hf  Hf32  1  0.49940593  0.30475493  0.51813741  1
  Hf  Hf33  1  0.68556532  0.29722662  0.50342593  1
  Hf  Hf34  1  0.29409012  0.70980777  0.30189160  1
  Hf  Hf35  1  0.59234259  -0.00276081  0.20497024  1
  Hf  Hf36  1  0.89293576  0.69768417  0.30707178  1
  Hf  Hf37  1  0.10628937  0.89252541  0.09358663  1
  Hf  Hf38  1  0.10331479  0.70407782  0.90659875  1
  Hf  Hf39  1  -0.00245313  0.79830466  0.20077283  1
  Hf  Hf40  1  0.29391104  0.49866864  0.30054561  1
  Hf  Hf41  1  0.90259632  0.10135997  0.89947800  1
  Hf  Hf42  1  0.29277671  0.70757184  0.49977742  1
  Hf  Hf43  1  0.60777044  0.59864996  0.00641258  1
  Hf  Hf44  1  0.69502979  0.29919607  0.89609543  1
  Hf  Hf45  1  0.71007735  0.69278903  0.90606512  1
  Hf  Hf46  1  0.59218045  -0.00312588  0.40242043  1
  Hf  Hf47  1  0.89879675  0.70201207  0.69871797  1
  Hf  Hf48  1  0.00203077  0.60237593  0.60045887  1
  Hf  Hf49  1  0.10813276  0.89212523  0.69754691  1
  Zr  Zr50  1  0.90427376  0.89811152  0.49571252  1
  Zr  Zr51  1  0.90358197  0.50454530  0.49725144  1
  Zr  Zr52  1  0.59583596  0.60150054  0.79923102  1
  Zr  Zr53  1  0.30629762  0.28784551  0.69568570  1
  Zr  Zr54  1  0.20199106  -0.00061441  0.19677554  1
  Zr  Zr55  1  0.10656759  0.69450039  0.10504933  1
  Zr  Zr56  1  0.80273788  0.20566420  0.79100527  1
  Zr  Zr57  1  0.20573959  0.40354392  0.60395666  1
  Zr  Zr58  1  0.29944163  0.09786034  0.30471462  1
  Zr  Zr59  1  0.29331337  0.49625797  0.10849518  1
  Zr  Zr60  1  0.80696264  0.20187710  0.40098092  1
  Zr  Zr61  1  0.00379619  0.41477661  0.38415475  1
  Zr  Zr62  1  0.49894379  0.29278269  0.90454517  1
  Zr  Zr63  1  0.40360686  0.39346150  0.20723473  1
  Zr  Zr64  1  0.80259691  0.20112851  0.00492358  1
  Zr  Zr65  1  0.40763586  0.60899976  0.39579358  1
  Zr  Zr66  1  0.40463891  0.79220970  0.81091122  1
  Zr  Zr67  1  0.49711705  0.89465258  0.69942619  1
  Zr  Zr68  1  0.40326108  0.60369326  0.20556155  1
  Zr  Zr69  1  0.79111508  0.80805521  0.59207066  1
  Zr  Zr70  1  0.11177663  0.88809725  0.89991887  1
  Zr  Zr71  1  0.69485722  0.90333710  0.90306959  1
  Zr  Zr72  1  0.79618342  0.40111593  0.60686852  1
  Zr  Zr73  1  0.60535226  0.60468181  0.20502303  1
  Zr  Zr74  1  0.20719189  0.59626413  0.00188899  1
  Zr  Zr75  1  0.79478678  -0.00573415  0.40333717  1
  Zr  Zr76  1  0.39742547  0.39836745  0.79748614  1
  Zr  Zr77  1  0.10249350  0.30144404  0.49832375  1
  Zr  Zr78  1  0.79677814  0.79314052  0.19512285  1
  Zr  Zr79  1  0.59582932  0.81043483  0.40188552  1
  Zr  Zr80  1  0.30463442  0.69513464  0.69254187  1
  Zr  Zr81  1  0.89535439  0.50358036  0.90972120  1
  Zr  Zr82  1  0.70007768  0.10259244  0.51130494  1
  Zr  Zr83  1  -0.00265065  0.59452369  0.21290506  1
  Zr  Zr84  1  0.78830618  0.40329874  0.01433167  1
  Zr  Zr85  1  0.69494557  0.90617069  0.69455042  1
  Zr  Zr86  1  0.59475447  0.79211264  0.80491920  1
  Zr  Zr87  1  0.09008968  0.49957417  0.90969495  1
  Zr  Zr88  1  0.80405401  0.80025927  0.79898022  1
  Zr  Zr89  1  0.20161594  0.39564332  -0.00993444  1
  Zr  Zr90  1  0.00575172  0.19649237  0.19543594  1
  Zr  Zr91  1  0.20900744  0.00353102  0.80812716  1
  Zr  Zr92  1  0.79774525  0.40658896  0.38831809  1
  Zr  Zr93  1  0.30497657  0.28632618  0.90434607  1
  Zr  Zr94  1  0.90446672  0.09977469  0.09932392  1
  Zr  Zr95  1  0.49806252  0.49563577  0.50035503  1
  Zr  Zr96  1  0.48748714  0.50191417  0.68925023  1
  Zr  Zr97  1  0.30672433  0.50443988  0.50498312  1
  Zr  Zr98  1  0.00791970  0.39463370  0.80186006  1
  Zr  Zr99  1  0.39992346  0.19885561  0.20143675  1
  Ta  Ta100  1  0.59955386  0.60457159  0.59996509  1
  Ta  Ta101  1  0.19562519  0.19556809  0.80795775  1
  Ta  Ta102  1  0.00678503  0.00270944  0.39641992  1
  Ta  Ta103  1  0.01648998  0.20693698  -0.01017852  1
  Ta  Ta104  1  -0.00047840  0.79862216  0.79946616  1
  Ta  Ta105  1  0.11310108  0.70534569  0.69420369  1
  Ta  Ta106  1  0.28355700  0.30333000  0.30183119  1
  Ta  Ta107  1  0.90182618  0.69441976  0.90662668  1
  Ta  Ta108  1  0.79789292  -0.00380863  0.00407557  1
  Ta  Ta109  1  0.79519158  0.59238192  0.79405244  1
  Ta  Ta110  1  0.49512674  0.09742363  0.09758246  1
  Ta  Ta111  1  0.90200347  0.49674400  0.10459653  1
  Ta  Ta112  1  0.19728395  -0.00094769  0.40251038  1
  Ta  Ta113  1  0.90470925  0.90216845  0.09864120  1
  Ta  Ta114  1  0.90653698  0.09861753  0.30211160  1
  Ta  Ta115  1  0.69281801  0.70181542  0.49657923  1
  Ta  Ta116  1  0.59884144  0.79609834  0.00456290  1
  Ta  Ta117  1  0.10364787  0.70283445  0.49757610  1
  Ta  Ta118  1  0.59840891  0.60696420  0.39463500  1
  Ta  Ta119  1  0.30921163  0.90066013  0.30330153  1
  Ta  Ta120  1  0.69091846  0.09780030  0.10064995  1
  Ta  Ta121  1  0.58529198  0.00941967  0.79913253  1
  Ta  Ta122  1  0.90626027  0.30423519  0.28886605  1
  Ta  Ta123  1  0.30066412  0.10119861  0.69822580  1
  Ta  Ta124  1  0.10222302  0.50255428  0.69431044  1
  Ta  Ta125  1  0.90583948  0.89679718  0.90481314  1
  Ta  Ta126  1  0.29959908  0.29107036  0.09890077  1
  Ta  Ta127  1  0.10203097  0.10225148  0.30337880  1
  Ta  Ta128  1  0.60895974  0.40984022  0.19717295  1
  Ta  Ta129  1  0.50006414  0.70593996  0.50388004  1
  Ta  Ta130  1  0.11066546  0.10408894  0.69296473  1
  Ta  Ta131  1  0.50127165  0.29504280  0.09694104  1
  Ta  Ta132  1  0.49666278  0.90095906  0.91094889  1
  Ta  Ta133  1  0.59407791  -0.00525909  0.59683187  1
  Ta  Ta134  1  0.19075749  0.59945449  0.39798313  1
  Ta  Ta135  1  0.30328916  0.29917149  0.50089227  1
  Ta  Ta136  1  0.10289529  0.50469708  0.50489924  1
  Ta  Ta137  1  0.00716988  -0.00255248  0.20441134  1
  Ta  Ta138  1  0.00531809  0.19695486  0.59679913  1
  Ta  Ta139  1  0.90097100  0.49266869  0.70423859  1
  Ta  Ta140  1  0.09203634  0.49412645  0.10406386  1
  Ta  Ta141  1  0.00987002  0.19711376  0.79936321  1
  Ta  Ta142  1  0.49352479  0.50522641  0.90329678  1
  Ta  Ta143  1  0.30045565  0.70771393  0.90379815  1
  Ta  Ta144  1  0.20167027  0.00042725  0.59311424  1
  Ta  Ta145  1  0.21263362  0.00036531  -0.00130557  1
  Ta  Ta146  1  0.69129326  0.89954682  0.10176789  1
  Ta  Ta147  1  0.59191253  0.19888523  0.39375682  1
  Ta  Ta148  1  0.90690658  0.89866804  0.30269396  1
  Ta  Ta149  1  0.10287308  0.30052577  0.29677167  1
  Ti  Ti150  1  0.00086234  0.79747638  0.60162239  1
  Ti  Ti151  1  0.69760075  0.89576166  0.29297639  1
  Ti  Ti152  1  0.69675965  0.70539873  0.30029470  1
  Ti  Ti153  1  0.69356198  0.10073820  0.69276119  1
  Ti  Ti154  1  -0.00734286  0.79459054  0.00311280  1
  Ti  Ti155  1  0.59403618  0.00066920  0.00029388  1
  Ti  Ti156  1  0.30657422  0.50940653  0.69337377  1
  Ti  Ti157  1  0.40291406  0.60975386  -0.00470360  1
  Ti  Ti158  1  0.30660271  0.10416755  0.90710769  1
  Ti  Ti159  1  0.39435051  -0.00260879  -0.00117169  1
  Ti  Ti160  1  0.10550037  0.70862305  0.30663468  1
  Ti  Ti161  1  0.90201904  0.90361177  0.69527089  1
  Ti  Ti162  1  0.59813624  0.39907521  0.38900930  1
  Ti  Ti163  1  0.30506645  0.10091290  0.09586526  1
  Ti  Ti164  1  0.31341177  0.50557414  0.89752766  1
  Ti  Ti165  1  0.11483938  0.49457664  0.28480844  1
  Ti  Ti166  1  0.49261808  0.69577885  0.68930790  1
  Ti  Ti167  1  0.79023164  0.80662849  0.39999844  1
  Ti  Ti168  1  0.19828335  0.40336968  0.40260207  1
  Ti  Ti169  1  0.19291412  0.19906598  0.40306297  1
  Ti  Ti170  1  0.40141343  0.00164373  0.80747465  1
  Ti  Ti171  1  0.58502132  0.19016267  0.79138729  1
  Ti  Ti172  1  0.49623264  0.72626184  0.29594776  1
  Ti  Ti173  1  0.00375199  0.19436548  0.40026168  1
  Ti  Ti174  1  0.59987727  0.40411000  0.00161026  1
  Ti  Ti175  1  0.30000056  0.89628807  0.48934415  1
  Ti  Ti176  1  0.90721285  0.30449759  0.69631869  1
  Ti  Ti177  1  0.51434146  0.29735136  0.28849722  1
  Ti  Ti178  1  0.40185971  0.39343105  0.39514990  1
  Ti  Ti179  1  0.20434262  0.80942473  0.20175149  1
  Ti  Ti180  1  0.78605855  0.59399671  0.39092136  1
  Ti  Ti181  1  0.41000871  0.18393009  0.79706078  1
  Ti  Ti182  1  0.78893174  0.58846093  0.19596673  1
  Ti  Ti183  1  0.89682079  0.68296328  0.09341562  1
  Ti  Ti184  1  0.91108408  0.31155953  0.10325728  1
  Ti  Ti185  1  0.20378367  0.40104871  0.80142534  1
  Ti  Ti186  1  0.90070789  0.09890492  0.49958677  1
  Ti  Ti187  1  0.70470165  0.49799228  0.89845723  1
  Ti  Ti188  1  0.11131809  0.10392734  0.09347570  1
  Ti  Ti189  1  0.50451843  0.49615537  0.30180377  1
  Ti  Ti190  1  0.69350623  0.70273317  0.69457648  1
  Ti  Ti191  1  0.58880240  0.18949752  -0.00000103  1
  Ti  Ti192  1  0.20182696  0.19923349  0.19838908  1
  Ti  Ti193  1  0.39882233  0.39570575  0.00119266  1
  Ti  Ti194  1  0.00915373  0.59868189  0.39424495  1
  Ti  Ti195  1  0.49071215  0.09209238  0.29862096  1
  Ti  Ti196  1  0.80858316  0.20089940  0.19605437  1
  Ti  Ti197  1  0.80622660  0.20287848  0.59921469  1
  Ti  Ti198  1  0.10257407  0.89525449  0.30568516  1
  Ti  Ti199  1  0.40333778  0.80550913  0.58961289  1
  Mo  Mo200  1  0.10327253  0.10013128  0.49500759  1
  Mo  Mo201  1  0.69842502  0.50104797  0.70004870  1
  Mo  Mo202  1  0.40279129  0.60999263  0.59473493  1
  Mo  Mo203  1  0.19896127  0.80359620  0.39417824  1
  Mo  Mo204  1  0.59527041  0.79564454  0.59674866  1
  Mo  Mo205  1  0.20311965  0.18956811  0.00190319  1
  Mo  Mo206  1  0.10630847  0.10258487  0.90025881  1
  Mo  Mo207  1  0.20270444  0.79230229  0.80261707  1
  Mo  Mo208  1  0.49306927  0.09411201  0.70089306  1
  Mo  Mo209  1  0.30136162  0.90456481  0.10145932  1
  Mo  Mo210  1  0.70000155  0.70161994  0.10304246  1
  Mo  Mo211  1  0.19661753  0.60140304  0.59651527  1
  Mo  Mo212  1  0.69571013  0.50273545  0.30095033  1
  Mo  Mo213  1  0.49930474  0.28913443  0.70018035  1
  Mo  Mo214  1  0.00120452  0.39970155  0.20100615  1
  Mo  Mo215  1  0.21425610  0.80749447  0.00078224  1
  Mo  Mo216  1  -0.00527182  0.60038703  0.00920642  1
  Mo  Mo217  1  0.70047030  0.49944087  0.10349344  1
  Mo  Mo218  1  0.60190684  0.80515199  0.20258604  1
  Mo  Mo219  1  0.30829557  0.90004687  0.90721120  1
  Mo  Mo220  1  -0.00158459  0.39742812  0.00801321  1
  Mo  Mo221  1  0.39937750  0.60067725  0.80905173  1
  Mo  Mo222  1  0.59686377  0.40443020  0.60807970  1
  Mo  Mo223  1  0.40113790  0.80776998  0.40299131  1
  Mo  Mo224  1  0.59014320  0.19018803  0.61157590  1
  Mo  Mo225  1  0.69151435  0.89928051  0.50257118  1
  Mo  Mo226  1  0.20284569  0.80289932  0.59411273  1
  Mo  Mo227  1  0.20069939  0.19543283  0.59977554  1
  Mo  Mo228  1  0.10485536  0.29633733  0.89752940  1
  Mo  Mo229  1  0.39708780  -0.00277333  0.40149621  1
  Mo  Mo230  1  0.49790822  0.69768340  0.91375046  1
  Mo  Mo231  1  0.40046124  0.19067767  0.00625315  1
  Mo  Mo232  1  0.39808383  0.80901757  0.20604336  1
  Mo  Mo233  1  0.48459553  0.90438129  0.30247920  1
  Mo  Mo234  1  0.19895514  0.39419585  0.20017251  1
  Mo  Mo235  1  0.19389042  0.60216774  0.20659672  1
  Mo  Mo236  1  0.39709490  0.00220181  0.19931681  1
  Mo  Mo237  1  0.40170035  0.80646340  0.00013682  1
  Mo  Mo238  1  0.39577402  0.39510851  0.60058623  1
  Mo  Mo239  1  0.79768132  0.00508863  0.60121919  1
  Mo  Mo240  1  0.49201087  0.90001519  0.50007352  1
  Mo  Mo241  1  0.00235605  0.40295742  0.60580035  1
  Mo  Mo242  1  0.79995095  0.59883953  0.00660795  1
  Mo  Mo243  1  0.80417302  0.40169443  0.19979240  1
  Mo  Mo244  1  0.00435210  0.79678905  0.39097964  1
  Mo  Mo245  1  0.39863662  0.19715994  0.60413660  1
  Mo  Mo246  1  0.88776280  0.50254462  0.29241168  1
  Mo  Mo247  1  0.79605927  0.40598932  0.79695988  1
  Mo  Mo248  1  0.58987745  0.19282733  0.19882944  1
  Mo  Mo249  1  0.49497161  0.09212536  0.90243224  1
