# generated using pymatgen
data_HfZrTaTiMo
_symmetry_space_group_name_H-M   'P 1'
_cell_length_a   16.87660723
_cell_length_b   16.88162634
_cell_length_c   16.88724996
_cell_angle_alpha   89.99154115
_cell_angle_beta   90.01105947
_cell_angle_gamma   90.01628297
_symmetry_Int_Tables_number   1
_chemical_formula_structural   HfZrTaTiMo
_chemical_formula_sum   'Hf50 Zr50 Ta50 Ti50 Mo50'
_cell_volume   4811.25447151
_cell_formula_units_Z   50
loop_
 _symmetry_equiv_pos_site_id
 _symmetry_equiv_pos_as_xyz
  1  'x, y, z'
loop_
 _atom_site_type_symbol
 _atom_site_label
 _atom_site_symmetry_multiplicity
 _atom_site_fract_x
 _atom_site_fract_y
 _atom_site_fract_z
 _atom_site_occupancy
  Hf  Hf0  1  0.80565661  -0.00503897  0.79792926  1
  Hf  Hf1  1  0.90196012  0.50701216  0.90440922  1
  Hf  Hf2  1  0.68868596  0.09131704  0.90869154  1
  Hf  Hf3  1  0.79926003  0.20266621  0.80254841  1
  Hf  Hf4  1  0.20204415  0.39926177  0.19936327  1
  Hf  Hf5  1  0.00136346  0.00774239  0.20777296  1
  Hf  Hf6  1  0.79812743  0.80218261  0.40203802  1
  Hf  Hf7  1  0.30185590  0.70432358  0.50725132  1
  Hf  Hf8  1  -0.00873976  0.61452733  0.79265719  1
  Hf  Hf9  1  0.50371048  0.50413792  0.89670920  1
  Hf  Hf10  1  0.19621633  0.19129850  0.80111873  1
  Hf  Hf11  1  0.79798874  0.61301072  0.39563056  1
  Hf  Hf12  1  0.59985460  0.19865778  0.59419234  1
  Hf  Hf13  1  0.81326391  0.79599884  0.77843430  1
  Hf  Hf14  1  0.50601608  0.90450685  0.70401955  1
  Hf  Hf15  1  0.48978682  0.10249632  0.49270464  1
  Hf  Hf16  1  0.90204413  0.89331018  0.91133283  1
  Hf  Hf17  1  0.20299415  0.60567154  0.39539367  1
  Hf  Hf18  1  0.49858100  0.09587511  0.90612559  1
  Hf  Hf19  1  0.09855519  0.09403845  0.50419787  1
  Hf  Hf20  1  0.70491595  0.89667523  0.90467124  1
  Hf  Hf21  1  0.69810041  0.50546204  0.29652097  1
  Hf  Hf22  1  0.00348194  0.40685200  0.00939371  1
  Hf  Hf23  1  0.59399021  0.19337288  0.39615861  1
  Hf  Hf24  1  0.90287315  0.09989971  0.90203644  1
  Hf  Hf25  1  0.49990512  0.70067433  0.69697517  1
  Hf  Hf26  1  0.59865589  0.20392218  0.80351117  1
  Hf  Hf27  1  0.10449894  0.70355423  0.90153448  1
  Hf  Hf28  1  0.09975865  0.29359862  0.29820046  1
  Hf  Hf29  1  0.90533499  0.50991224  0.50257748  1
  Hf  Hf30  1  0.20468601  0.58924562  0.60583622  1
  Hf  Hf31  1  0.19411086  0.60393749  0.19480458  1
  Hf  Hf32  1  0.00164926  0.80407159  0.79342980  1
  Hf  Hf33  1  0.59398066  0.59718206  0.59027840  1
  Hf  Hf34  1  0.70393602  0.69902590  0.89937124  1
  Hf  Hf35  1  0.09950101  0.50496588  0.89635517  1
  Hf  Hf36  1  0.19693538  0.79758470  0.39454667  1
  Hf  Hf37  1  -0.00827561  0.80430106  0.60984484  1
  Hf  Hf38  1  -0.00528581  0.80159518  0.39819712  1
  Hf  Hf39  1  0.50870874  0.49707614  0.31588823  1
  Hf  Hf40  1  0.30208370  0.70383102  0.69846882  1
  Hf  Hf41  1  0.09459858  0.50189992  0.70061944  1
  Hf  Hf42  1  0.20505593  0.00648354  0.00197540  1
  Hf  Hf43  1  0.39303157  0.39196563  0.40585581  1
  Hf  Hf44  1  0.79882287  0.39681980  0.80421888  1
  Hf  Hf45  1  0.30882264  0.29418420  0.89808317  1
  Hf  Hf46  1  0.39586288  -0.00334980  0.59504139  1
  Hf  Hf47  1  0.89646134  0.50177300  0.69129379  1
  Hf  Hf48  1  0.49104117  0.90200457  0.09931219  1
  Hf  Hf49  1  0.00012794  0.19517639  0.39430090  1
  Zr  Zr50  1  0.09963316  0.30091429  0.89632219  1
  Zr  Zr51  1  0.79698722  0.39688055  -0.00145252  1
  Zr  Zr52  1  0.10890941  0.10425049  0.11506654  1
  Zr  Zr53  1  0.70245167  0.50696324  0.69414262  1
  Zr  Zr54  1  0.69130741  0.29840053  0.29176448  1
  Zr  Zr55  1  0.38938686  0.20598420  0.60055208  1
  Zr  Zr56  1  0.60325837  0.00140883  0.58763711  1
  Zr  Zr57  1  0.59695131  0.61151400  0.20625123  1
  Zr  Zr58  1  -0.00062148  0.19777817  0.60191491  1
  Zr  Zr59  1  0.79568406  0.60434926  0.01125743  1
  Zr  Zr60  1  0.70237481  0.30036873  0.68822348  1
  Zr  Zr61  1  0.20145618  0.60384024  0.00524716  1
  Zr  Zr62  1  0.30758648  0.29637118  0.10785732  1
  Zr  Zr63  1  0.10463988  0.29304684  0.10497180  1
  Zr  Zr64  1  0.80281312  0.39499784  0.19761646  1
  Zr  Zr65  1  -0.00453293  0.00214844  0.39341435  1
  Zr  Zr66  1  0.90363561  0.89242920  0.10355402  1
  Zr  Zr67  1  0.80952752  0.39466330  0.39344764  1
  Zr  Zr68  1  0.40154117  0.40596085  0.00327352  1
  Zr  Zr69  1  0.69491037  0.09461478  0.70363574  1
  Zr  Zr70  1  0.39798284  0.80191728  0.39339076  1
  Zr  Zr71  1  0.50956538  0.90638833  0.90723514  1
  Zr  Zr72  1  0.60590662  0.79275285  0.00568827  1
  Zr  Zr73  1  -0.00162324  0.61205526  0.39828846  1
  Zr  Zr74  1  0.90093245  0.70688386  0.92012119  1
  Zr  Zr75  1  0.39638572  0.60669248  -0.00211195  1
  Zr  Zr76  1  0.30238780  0.49250933  0.29914224  1
  Zr  Zr77  1  0.80340838  0.19644979  0.39639932  1
  Zr  Zr78  1  0.68480271  0.29295055  0.09391680  1
  Zr  Zr79  1  0.20903783  0.39892513  0.78897981  1
  Zr  Zr80  1  0.01103180  0.18939660  -0.00734289  1
  Zr  Zr81  1  0.58858894  0.00249187  0.20355921  1
  Zr  Zr82  1  0.09506288  0.69832630  0.51316010  1
  Zr  Zr83  1  0.70018002  0.09947116  0.29213904  1
  Zr  Zr84  1  0.60432441  0.39645175  0.80323956  1
  Zr  Zr85  1  0.19707452  0.20843272  0.59965975  1
  Zr  Zr86  1  0.49717564  0.70680992  0.10069573  1
  Zr  Zr87  1  0.61119694  0.80666145  0.59213499  1
  Zr  Zr88  1  0.40229557  0.60491890  0.39974580  1
  Zr  Zr89  1  0.79722314  -0.00920491  0.59724543  1
  Zr  Zr90  1  0.50484212  0.29565597  0.91400832  1
  Zr  Zr91  1  0.90370348  0.28650076  0.10435522  1
  Zr  Zr92  1  0.68558178  0.49632937  0.48252188  1
  Zr  Zr93  1  0.39577586  0.00105589  0.80228286  1
  Zr  Zr94  1  0.00924394  0.39225901  0.59373363  1
  Zr  Zr95  1  0.00500850  0.00249833  0.80018661  1
  Zr  Zr96  1  0.29808356  0.90246632  0.28266883  1
  Zr  Zr97  1  0.09306660  0.49687828  0.30507389  1
  Zr  Zr98  1  0.39537093  0.79873155  0.80829962  1
  Zr  Zr99  1  0.20147718  0.00289729  0.39501721  1
  Ta  Ta100  1  0.20030053  0.80556735  0.80198419  1
  Ta  Ta101  1  0.10691591  0.90273034  0.90416300  1
  Ta  Ta102  1  0.40384260  -0.00064544  0.39154043  1
  Ta  Ta103  1  0.60696464  0.79484325  0.79634682  1
  Ta  Ta104  1  0.59058611  0.39953848  0.59167362  1
  Ta  Ta105  1  0.90438308  0.29887826  0.49635517  1
  Ta  Ta106  1  0.49176598  0.30250600  0.69793205  1
  Ta  Ta107  1  0.20838019  0.39215747  0.59965268  1
  Ta  Ta108  1  0.79910124  0.39587247  0.58828229  1
  Ta  Ta109  1  0.19755755  0.80969869  0.60526554  1
  Ta  Ta110  1  0.20850440  0.80200856  0.00023034  1
  Ta  Ta111  1  0.50379480  0.69617035  0.89395851  1
  Ta  Ta112  1  0.29279104  0.90474280  0.70147120  1
  Ta  Ta113  1  0.69380638  0.50336158  0.90666403  1
  Ta  Ta114  1  0.30100247  0.49377103  0.50498974  1
  Ta  Ta115  1  0.10881248  0.90053699  0.10625110  1
  Ta  Ta116  1  0.89648549  0.10125751  0.10563731  1
  Ta  Ta117  1  0.89747577  0.09439096  0.50257732  1
  Ta  Ta118  1  0.30081930  0.50173689  0.89546807  1
  Ta  Ta119  1  -0.00238713  0.40051324  0.20224959  1
  Ta  Ta120  1  0.48847107  0.29784666  0.29676131  1
  Ta  Ta121  1  0.80226290  -0.00189257  0.20327549  1
  Ta  Ta122  1  0.19842352  0.38865826  0.41065176  1
  Ta  Ta123  1  0.00813305  -0.00043502  0.00465801  1
  Ta  Ta124  1  0.20348117  0.40802355  0.00349544  1
  Ta  Ta125  1  0.79623293  0.79953849  0.20668206  1
  Ta  Ta126  1  0.69895206  0.09919269  0.09985478  1
  Ta  Ta127  1  0.58968110  0.40117895  0.19950929  1
  Ta  Ta128  1  0.59860855  -0.00365994  0.39927318  1
  Ta  Ta129  1  0.50326759  0.70489835  0.49534120  1
  Ta  Ta130  1  0.40324955  0.59178386  0.59761904  1
  Ta  Ta131  1  0.80204723  0.00045385  0.00982847  1
  Ta  Ta132  1  0.89992924  0.90193190  0.50364275  1
  Ta  Ta133  1  0.29675692  0.09703477  0.70360724  1
  Ta  Ta134  1  0.69928213  0.90127381  0.10535858  1
  Ta  Ta135  1  0.90195940  0.51259412  0.11291319  1
  Ta  Ta136  1  0.39906453  0.60490233  0.20812403  1
  Ta  Ta137  1  0.09625732  0.90309786  0.50611960  1
  Ta  Ta138  1  0.49537738  0.49454406  0.69781627  1
  Ta  Ta139  1  0.30559932  0.50114572  0.10530619  1
  Ta  Ta140  1  0.20798399  0.20363520  0.40206205  1
  Ta  Ta141  1  0.10224941  0.89923250  0.28921423  1
  Ta  Ta142  1  0.90789996  0.70292488  0.11195572  1
  Ta  Ta143  1  0.90501907  0.29516535  0.89869936  1
  Ta  Ta144  1  0.79454945  0.19760709  -0.00292880  1
  Ta  Ta145  1  0.49489938  0.30209790  0.49680816  1
  Ta  Ta146  1  0.69368509  0.50105804  0.10334246  1
  Ta  Ta147  1  0.69442901  0.89624760  0.29901898  1
  Ta  Ta148  1  0.90319209  0.50481958  0.29502561  1
  Ta  Ta149  1  0.49774405  0.29766512  0.10511294  1
  Ti  Ti150  1  0.10483308  0.90997012  0.69914376  1
  Ti  Ti151  1  0.70567645  0.69654943  0.68892169  1
  Ti  Ti152  1  0.39523724  0.18865297  0.01022434  1
  Ti  Ti153  1  0.49585748  0.10171709  0.70583415  1
  Ti  Ti154  1  0.60230183  0.60354047  0.79519800  1
  Ti  Ti155  1  0.39498175  0.59673751  0.79653652  1
  Ti  Ti156  1  0.70658672  0.70405308  0.11268548  1
  Ti  Ti157  1  0.40099491  0.19188085  0.20655356  1
  Ti  Ti158  1  0.39057186  0.79893764  -0.00735925  1
  Ti  Ti159  1  0.40017151  0.80858257  0.59821580  1
  Ti  Ti160  1  0.30275068  0.70455863  0.10244920  1
  Ti  Ti161  1  0.20593517  0.19468352  -0.00182899  1
  Ti  Ti162  1  0.21093711  0.60326002  0.79978856  1
  Ti  Ti163  1  0.09058976  0.70803699  0.28293639  1
  Ti  Ti164  1  0.88782455  0.68093390  0.66701196  1
  Ti  Ti165  1  0.69903031  0.89729196  0.70321691  1
  Ti  Ti166  1  0.69691129  0.30089004  0.49335418  1
  Ti  Ti167  1  0.90344812  0.09869002  0.69473039  1
  Ti  Ti168  1  0.59975507  0.60034917  0.00637654  1
  Ti  Ti169  1  0.39654733  0.01351591  0.19568401  1
  Ti  Ti170  1  0.50337180  0.89182064  0.29655974  1
  Ti  Ti171  1  0.01384032  0.60143138  0.02082579  1
  Ti  Ti172  1  0.69830356  0.70326732  0.49668753  1
  Ti  Ti173  1  0.89925279  0.69776275  0.28385045  1
  Ti  Ti174  1  0.30119945  0.10069571  0.49575442  1
  Ti  Ti175  1  0.49857114  0.49887736  0.10602864  1
  Ti  Ti176  1  0.10080892  0.09301838  0.70067393  1
  Ti  Ti177  1  0.09976485  0.49627466  0.49831608  1
  Ti  Ti178  1  0.30336952  0.90544706  0.09917320  1
  Ti  Ti179  1  0.89971913  0.29708258  0.69694081  1
  Ti  Ti180  1  0.79885489  0.19704335  0.59030701  1
  Ti  Ti181  1  0.79505131  -0.00030305  0.39998489  1
  Ti  Ti182  1  0.89621457  0.89984647  0.29787218  1
  Ti  Ti183  1  0.20282899  0.00045748  0.60161599  1
  Ti  Ti184  1  0.50290967  0.89531135  0.49023800  1
  Ti  Ti185  1  0.01683987  0.80095906  0.01164893  1
  Ti  Ti186  1  0.09273347  0.29690528  0.70841950  1
  Ti  Ti187  1  0.50094793  0.09734041  0.08992550  1
  Ti  Ti188  1  0.29467961  0.90054349  0.49985417  1
  Ti  Ti189  1  0.30431637  0.10030118  0.89888194  1
  Ti  Ti190  1  0.29667695  0.90535305  0.90100177  1
  Ti  Ti191  1  0.80002723  0.60288836  0.79905797  1
  Ti  Ti192  1  0.58448512  0.19428634  0.19854655  1
  Ti  Ti193  1  0.21411674  0.19229011  0.21235738  1
  Ti  Ti194  1  0.39919784  0.79018314  0.20655812  1
  Ti  Ti195  1  0.39710470  0.39903107  0.79273451  1
  Ti  Ti196  1  0.10649558  0.69949842  0.69964880  1
  Ti  Ti197  1  -0.00793018  0.39671404  0.79991479  1
  Ti  Ti198  1  0.30569033  0.10029073  0.30279072  1
  Ti  Ti199  1  0.19980546  0.79516098  0.19170832  1
  Mo  Mo200  1  0.00792665  0.60099794  0.60127920  1
  Mo  Mo201  1  0.60051363  0.80470300  0.39676469  1
  Mo  Mo202  1  0.78710169  0.59636894  0.58755145  1
  Mo  Mo203  1  0.59116903  0.38242065  0.39778767  1
  Mo  Mo204  1  0.69448727  0.70905739  0.29991427  1
  Mo  Mo205  1  0.60020135  -0.00751726  0.79842710  1
  Mo  Mo206  1  0.00155077  0.39601303  0.39799841  1
  Mo  Mo207  1  0.29936135  0.70055528  0.89533863  1
  Mo  Mo208  1  0.60303394  0.80444273  0.20393390  1
  Mo  Mo209  1  0.79805822  0.80192631  0.01993451  1
  Mo  Mo210  1  0.39093414  0.00243973  0.00538619  1
  Mo  Mo211  1  0.39785367  0.19791741  0.79495022  1
  Mo  Mo212  1  0.20037168  -0.00019969  0.80199339  1
  Mo  Mo213  1  0.90133749  0.90427292  0.69549145  1
  Mo  Mo214  1  0.70283862  0.09717799  0.49243571  1
  Mo  Mo215  1  0.59478454  0.19400326  0.00744347  1
  Mo  Mo216  1  0.79947862  0.60561171  0.20285397  1
  Mo  Mo217  1  0.10566332  0.09320221  0.90002073  1
  Mo  Mo218  1  0.89055234  0.09916619  0.29658811  1
  Mo  Mo219  1  0.40659859  0.40346660  0.20220413  1
  Mo  Mo220  1  0.11459862  0.10076608  0.30210551  1
  Mo  Mo221  1  0.20597984  0.00171657  0.19930164  1
  Mo  Mo222  1  0.10022479  0.29971899  0.49319113  1
  Mo  Mo223  1  0.89260161  0.70600915  0.50574238  1
  Mo  Mo224  1  -0.00057685  -0.00210301  0.60205423  1
  Mo  Mo225  1  0.09922804  0.49763980  0.10262108  1
  Mo  Mo226  1  0.30176754  0.29132177  0.30205063  1
  Mo  Mo227  1  -0.00212161  0.19979814  0.79148853  1
  Mo  Mo228  1  0.00016993  0.80458461  0.20421804  1
  Mo  Mo229  1  0.60448568  -0.00152106  0.01031318  1
  Mo  Mo230  1  0.70348995  0.29979717  0.90825901  1
  Mo  Mo231  1  -0.00974702  0.19630846  0.21316316  1
  Mo  Mo232  1  0.59886239  0.62183462  0.39977114  1
  Mo  Mo233  1  0.10112304  0.71127943  0.10049998  1
  Mo  Mo234  1  0.30544229  0.29793068  0.70385095  1
  Mo  Mo235  1  0.29824513  0.70160858  0.28844076  1
  Mo  Mo236  1  0.40054734  0.40150430  0.60177625  1
  Mo  Mo237  1  0.80240103  0.19231537  0.19460586  1
  Mo  Mo238  1  0.70278234  0.90315519  0.48513437  1
  Mo  Mo239  1  0.49540706  0.49699754  0.50204050  1
  Mo  Mo240  1  0.59810657  0.41240955  0.00876817  1
  Mo  Mo241  1  0.50103208  0.70779383  0.30304745  1
  Mo  Mo242  1  0.39186317  0.19864148  0.39526365  1
  Mo  Mo243  1  0.90854003  0.29997803  0.29836295  1
  Mo  Mo244  1  0.29815707  0.30121933  0.50166659  1
  Mo  Mo245  1  0.79913905  0.79663414  0.59281870  1
  Mo  Mo246  1  0.30592719  0.10102339  0.10368756  1
  Mo  Mo247  1  0.00058381  0.60231286  0.19872940  1
  Mo  Mo248  1  0.30833089  0.49908690  0.70031669  1
  Mo  Mo249  1  0.49022042  0.09926702  0.30006628  1
