# generated using pymatgen
data_HfZrTaTiMo
_symmetry_space_group_name_H-M   'P 1'
_cell_length_a   16.88989859
_cell_length_b   16.88544706
_cell_length_c   16.88389567
_cell_angle_alpha   89.96799914
_cell_angle_beta   89.95786195
_cell_angle_gamma   89.97540465
_symmetry_Int_Tables_number   1
_chemical_formula_structural   HfZrTaTiMo
_chemical_formula_sum   'Hf50 Zr50 Ta50 Ti50 Mo50'
_cell_volume   4815.17461063
_cell_formula_units_Z   50
loop_
 _symmetry_equiv_pos_site_id
 _symmetry_equiv_pos_as_xyz
  1  'x, y, z'
loop_
 _atom_site_type_symbol
 _atom_site_label
 _atom_site_symmetry_multiplicity
 _atom_site_fract_x
 _atom_site_fract_y
 _atom_site_fract_z
 _atom_site_occupancy
  Hf  Hf0  1  0.60001262  0.40891065  0.80293866  1
  Hf  Hf1  1  0.08505436  0.49855472  0.90327019  1
  Hf  Hf2  1  0.30371752  0.50909341  0.10783607  1
  Hf  Hf3  1  0.60518400  0.79760612  0.20555386  1
  Hf  Hf4  1  0.80224737  0.79008693  0.19512312  1
  Hf  Hf5  1  0.18407348  -0.01187341  0.80093632  1
  Hf  Hf6  1  0.80685336  0.19784553  0.40049376  1
  Hf  Hf7  1  0.80219343  -0.00754659  0.19631923  1
  Hf  Hf8  1  0.19662796  0.40455334  0.40343193  1
  Hf  Hf9  1  -0.00121844  0.60460041  0.40093744  1
  Hf  Hf10  1  0.90905094  0.89659024  0.30702825  1
  Hf  Hf11  1  0.89552166  0.50580792  0.50820404  1
  Hf  Hf12  1  0.71030223  0.89288344  0.31169611  1
  Hf  Hf13  1  0.09058717  0.89339100  0.49869681  1
  Hf  Hf14  1  0.39792457  -0.00008090  -0.00299421  1
  Hf  Hf15  1  0.40350250  0.79730210  0.79797126  1
  Hf  Hf16  1  0.19546008  0.00338798  0.39792943  1
  Hf  Hf17  1  0.60859201  0.59817337  0.79398377  1
  Hf  Hf18  1  0.80151421  0.19449658  0.59455456  1
  Hf  Hf19  1  0.20132481  0.60082746  0.58531586  1
  Hf  Hf20  1  0.60272557  0.59481465  0.21084250  1
  Hf  Hf21  1  0.49854504  0.69144357  0.10085142  1
  Hf  Hf22  1  -0.00257758  0.61587885  0.60468643  1
  Hf  Hf23  1  0.08929823  0.30689447  0.09803660  1
  Hf  Hf24  1  0.51134217  0.49529966  0.09987329  1
  Hf  Hf25  1  0.91642193  0.09392779  0.29888492  1
  Hf  Hf26  1  0.61902429  0.59593385  0.59790157  1
  Hf  Hf27  1  0.69331329  0.30682313  0.09999377  1
  Hf  Hf28  1  0.89622552  0.29610180  0.70954322  1
  Hf  Hf29  1  0.50323712  0.30206585  0.50218228  1
  Hf  Hf30  1  0.31229351  0.30093983  0.69861137  1
  Hf  Hf31  1  0.19357938  0.20560714  0.39931521  1
  Hf  Hf32  1  0.69112201  0.49514212  0.31509049  1
  Hf  Hf33  1  0.71013627  0.09640114  0.29860168  1
  Hf  Hf34  1  0.50507094  0.10070815  0.09845390  1
  Hf  Hf35  1  0.19142267  0.20832029  0.60181100  1
  Hf  Hf36  1  0.19776168  0.39505906  0.79970122  1
  Hf  Hf37  1  0.51065832  0.70033532  0.90638871  1
  Hf  Hf38  1  0.29513908  0.69707564  0.10489789  1
  Hf  Hf39  1  0.49833612  0.89639137  0.30758694  1
  Hf  Hf40  1  0.28802143  0.88405712  0.69649273  1
  Hf  Hf41  1  0.49883728  0.69713784  0.50467186  1
  Hf  Hf42  1  0.19745768  0.20361398  0.79960433  1
  Hf  Hf43  1  0.08986684  0.90249659  0.29831650  1
  Hf  Hf44  1  0.50824040  0.89609560  0.89347481  1
  Hf  Hf45  1  0.39502845  -0.00536729  0.60952388  1
  Hf  Hf46  1  0.40214859  0.41491693  -0.01551760  1
  Hf  Hf47  1  0.49899503  0.08843455  0.30047190  1
  Hf  Hf48  1  0.49674923  0.50334178  0.69028549  1
  Hf  Hf49  1  0.40017664  0.20197319  0.39504003  1
  Zr  Zr50  1  0.50400976  0.30232491  0.09759527  1
  Zr  Zr51  1  0.60268079  0.19783316  0.60227310  1
  Zr  Zr52  1  0.30146110  0.30733247  0.29376011  1
  Zr  Zr53  1  0.80777554  -0.01121437  0.59755718  1
  Zr  Zr54  1  0.90107644  0.10409811  0.11159530  1
  Zr  Zr55  1  0.29075708  0.89769736  0.89913486  1
  Zr  Zr56  1  0.89630071  0.30575007  0.50178317  1
  Zr  Zr57  1  0.30657494  0.30252731  0.09634100  1
  Zr  Zr58  1  0.19985136  0.40107468  -0.00251651  1
  Zr  Zr59  1  0.60829657  0.00605932  -0.00455541  1
  Zr  Zr60  1  0.19577027  0.39903898  0.59351330  1
  Zr  Zr61  1  0.09398941  0.10172301  0.10564836  1
  Zr  Zr62  1  0.50263700  0.08695117  0.50263505  1
  Zr  Zr63  1  0.09048914  0.09446833  0.49990479  1
  Zr  Zr64  1  0.40614293  0.59314428  0.39333712  1
  Zr  Zr65  1  0.01213226  0.80729105  0.79572960  1
  Zr  Zr66  1  0.70134639  0.89408778  0.89037214  1
  Zr  Zr67  1  0.70117035  0.09245492  0.70495270  1
  Zr  Zr68  1  -0.00736856  0.20841385  -0.00324589  1
  Zr  Zr69  1  0.00283577  -0.00686133  -0.00613568  1
  Zr  Zr70  1  0.39406557  0.80480880  0.00721107  1
  Zr  Zr71  1  0.80742424  0.79891277  0.00355184  1
  Zr  Zr72  1  0.30691942  0.71063515  0.49657189  1
  Zr  Zr73  1  0.51316446  0.31080683  0.29199990  1
  Zr  Zr74  1  0.39114982  -0.00600724  0.18788160  1
  Zr  Zr75  1  0.30333699  0.69854376  0.69237460  1
  Zr  Zr76  1  0.70176091  0.89107423  0.70677392  1
  Zr  Zr77  1  0.40706963  0.59693836  0.81039279  1
  Zr  Zr78  1  0.19885028  0.19819730  0.20195282  1
  Zr  Zr79  1  0.79872671  0.20209161  -0.00165839  1
  Zr  Zr80  1  0.30143395  0.50533569  0.69866382  1
  Zr  Zr81  1  0.18615975  0.60306968  0.00147294  1
  Zr  Zr82  1  0.29509683  0.50769364  0.29314379  1
  Zr  Zr83  1  0.09981534  0.50597138  0.70406063  1
  Zr  Zr84  1  -0.00061158  0.61659872  0.80237992  1
  Zr  Zr85  1  0.79888051  0.40597117  0.19877116  1
  Zr  Zr86  1  0.89595000  0.50047366  0.70729612  1
  Zr  Zr87  1  0.08749184  0.09921374  0.70698209  1
  Zr  Zr88  1  0.30363799  0.89553252  0.30905627  1
  Zr  Zr89  1  0.00125829  0.39893498  0.40098197  1
  Zr  Zr90  1  0.70490788  0.70431201  0.89168527  1
  Zr  Zr91  1  0.69340182  0.68983365  0.09109407  1
  Zr  Zr92  1  0.50091836  0.30091124  0.90183488  1
  Zr  Zr93  1  0.30324653  0.09829812  0.50131462  1
  Zr  Zr94  1  0.49299185  0.89178243  0.50139589  1
  Zr  Zr95  1  0.90307763  0.10451441  0.88516190  1
  Zr  Zr96  1  0.29467291  0.69875678  0.29345832  1
  Zr  Zr97  1  0.70310068  0.29964463  0.70983126  1
  Zr  Zr98  1  0.90225420  0.70215701  0.30217489  1
  Zr  Zr99  1  0.60685963  0.19680076  0.39816827  1
  Ta  Ta100  1  0.08916486  0.70388577  0.10781624  1
  Ta  Ta101  1  0.59830310  0.19237981  0.80960108  1
  Ta  Ta102  1  0.50188011  0.09566277  0.70160577  1
  Ta  Ta103  1  0.60558991  0.40479045  0.60025989  1
  Ta  Ta104  1  -0.00045386  0.79440979  -0.00141176  1
  Ta  Ta105  1  0.00290166  0.20035668  0.40057054  1
  Ta  Ta106  1  0.50722714  0.89858566  0.10394404  1
  Ta  Ta107  1  0.60803358  -0.00494223  0.20074592  1
  Ta  Ta108  1  0.29309830  0.09901206  0.89996348  1
  Ta  Ta109  1  0.60900428  -0.00926997  0.40343751  1
  Ta  Ta110  1  0.40285833  0.18993272  0.80149729  1
  Ta  Ta111  1  0.40260410  0.40609873  0.58978418  1
  Ta  Ta112  1  0.39864887  0.00290045  0.79929399  1
  Ta  Ta113  1  0.30180597  0.09475534  0.29929024  1
  Ta  Ta114  1  0.60699108  0.79149148  0.40706769  1
  Ta  Ta115  1  0.39933973  0.19355214  0.19701105  1
  Ta  Ta116  1  0.30570703  0.30333690  0.50075272  1
  Ta  Ta117  1  0.90207400  0.10016853  0.70243879  1
  Ta  Ta118  1  0.19772139  -0.00007820  0.19813224  1
  Ta  Ta119  1  0.70177336  0.08755854  0.50027081  1
  Ta  Ta120  1  -0.00818705  -0.00896342  0.60418204  1
  Ta  Ta121  1  0.08802267  0.29979761  0.89691956  1
  Ta  Ta122  1  -0.01289946  0.60371354  0.00279229  1
  Ta  Ta123  1  0.09959404  0.10163526  0.89909317  1
  Ta  Ta124  1  0.60657151  0.79563566  0.60159711  1
  Ta  Ta125  1  0.91001196  0.89568590  0.10453422  1
  Ta  Ta126  1  0.19406038  -0.00752280  0.60319526  1
  Ta  Ta127  1  0.70520874  0.30305981  0.89956504  1
  Ta  Ta128  1  0.51505309  0.50016056  0.49038877  1
  Ta  Ta129  1  0.60574111  0.19358984  -0.00963845  1
  Ta  Ta130  1  -0.00242320  0.20303442  0.59761107  1
  Ta  Ta131  1  0.70412031  0.10437926  0.10445780  1
  Ta  Ta132  1  0.89475471  0.50404351  0.30239380  1
  Ta  Ta133  1  0.80798046  0.59143336  0.00203797  1
  Ta  Ta134  1  0.79952925  0.59513532  0.19504996  1
  Ta  Ta135  1  0.18634589  0.40804468  0.19834565  1
  Ta  Ta136  1  0.00630739  0.39255102  0.60527420  1
  Ta  Ta137  1  0.90070367  0.89848804  0.89277529  1
  Ta  Ta138  1  0.40127720  0.79881687  0.19818696  1
  Ta  Ta139  1  0.79787725  0.60034653  0.40896232  1
  Ta  Ta140  1  0.09072130  0.30090779  0.29282387  1
  Ta  Ta141  1  0.50977151  0.90062910  0.69878032  1
  Ta  Ta142  1  0.49873337  0.29946671  0.70110032  1
  Ta  Ta143  1  0.80188587  0.00025554  -0.00151913  1
  Ta  Ta144  1  0.40357446  0.40604258  0.40224855  1
  Ta  Ta145  1  0.78819259  0.41046512  0.60480542  1
  Ta  Ta146  1  0.09451003  0.70984397  0.49638842  1
  Ta  Ta147  1  0.28937834  0.70301357  0.90061498  1
  Ta  Ta148  1  0.69920314  0.31004781  0.49479274  1
  Ta  Ta149  1  0.18567836  0.80355855  0.00175523  1
  Ti  Ti150  1  0.09359572  0.89775470  0.10585519  1
  Ti  Ti151  1  0.19189874  0.59890284  0.39954076  1
  Ti  Ti152  1  -0.01161615  0.59960477  0.19335220  1
  Ti  Ti153  1  0.80215393  0.59778989  0.80145101  1
  Ti  Ti154  1  0.09222490  0.50394700  0.50169292  1
  Ti  Ti155  1  0.80547037  -0.00290152  0.80141389  1
  Ti  Ti156  1  0.30290940  0.29392645  0.89902396  1
  Ti  Ti157  1  0.60493016  0.19526062  0.19997480  1
  Ti  Ti158  1  0.19724644  0.20193985  -0.00524779  1
  Ti  Ti159  1  0.17815183  0.59744558  0.19960242  1
  Ti  Ti160  1  0.60936869  0.57870304  -0.01113568  1
  Ti  Ti161  1  0.39867915  0.59797501  -0.00626797  1
  Ti  Ti162  1  0.80847492  0.40823623  0.00257051  1
  Ti  Ti163  1  0.29636936  0.09742192  0.70342973  1
  Ti  Ti164  1  0.29466105  0.10156216  0.09423742  1
  Ti  Ti165  1  0.70129849  0.30220518  0.29790213  1
  Ti  Ti166  1  0.49942729  0.70038440  0.30545743  1
  Ti  Ti167  1  0.71241101  0.70051996  0.50682410  1
  Ti  Ti168  1  0.19864882  0.80851475  0.19334928  1
  Ti  Ti169  1  0.40218562  0.19719422  0.60519781  1
  Ti  Ti170  1  0.90022175  0.29676581  0.29266351  1
  Ti  Ti171  1  0.19431108  0.79772268  0.39895500  1
  Ti  Ti172  1  0.70463124  0.69571483  0.31264087  1
  Ti  Ti173  1  0.19623572  -0.00583758  0.00564070  1
  Ti  Ti174  1  0.70101422  0.90148566  0.09852510  1
  Ti  Ti175  1  0.60265196  0.80440337  0.00627543  1
  Ti  Ti176  1  0.80950456  0.79614465  0.41808426  1
  Ti  Ti177  1  0.49745645  0.70133286  0.68811287  1
  Ti  Ti178  1  0.18746265  0.61803529  0.80219185  1
  Ti  Ti179  1  0.70022638  0.89479279  0.50454015  1
  Ti  Ti180  1  0.71443958  0.49073585  0.89881589  1
  Ti  Ti181  1  0.59574143  0.01096847  0.80653126  1
  Ti  Ti182  1  -0.00861104  0.40679671  0.19898364  1
  Ti  Ti183  1  0.09321235  0.70967066  0.29571164  1
  Ti  Ti184  1  0.71450981  0.70457612  0.69987236  1
  Ti  Ti185  1  0.08992914  0.50102833  0.29581532  1
  Ti  Ti186  1  0.30441047  0.89438410  0.49808237  1
  Ti  Ti187  1  0.40016591  0.19139455  -0.00657459  1
  Ti  Ti188  1  0.89301427  0.31045743  0.89241668  1
  Ti  Ti189  1  0.08368117  0.49848323  0.09786104  1
  Ti  Ti190  1  0.40853996  0.41325421  0.20720544  1
  Ti  Ti191  1  0.40176884  0.40440643  0.80345019  1
  Ti  Ti192  1  0.11655667  0.72683442  0.68231982  1
  Ti  Ti193  1  0.88834377  0.71426465  0.69368825  1
  Ti  Ti194  1  0.28964098  0.51131783  0.89387769  1
  Ti  Ti195  1  0.79967242  0.40201862  0.40250284  1
  Ti  Ti196  1  0.81279415  -0.00175261  0.41280105  1
  Ti  Ti197  1  0.89944597  0.30240763  0.10718165  1
  Ti  Ti198  1  -0.00349061  0.39837256  0.80141896  1
  Ti  Ti199  1  0.89558135  0.70313933  0.89641153  1
  Mo  Mo200  1  0.89737574  0.70284935  0.50488519  1
  Mo  Mo201  1  0.90325383  0.09605244  0.50012429  1
  Mo  Mo202  1  0.09597511  0.29777959  0.49781215  1
  Mo  Mo203  1  0.60207784  0.39871359  0.40353394  1
  Mo  Mo204  1  0.09575909  0.70268349  0.91253896  1
  Mo  Mo205  1  0.28568906  0.89809989  0.10233798  1
  Mo  Mo206  1  0.61139480  0.40257617  -0.00534231  1
  Mo  Mo207  1  0.00522277  -0.00653330  0.19743234  1
  Mo  Mo208  1  0.70667653  0.10173909  0.89877565  1
  Mo  Mo209  1  0.90264287  0.69503510  0.10017829  1
  Mo  Mo210  1  -0.01521297  0.40384590  -0.00160092  1
  Mo  Mo211  1  0.09679417  0.89794810  0.68896146  1
  Mo  Mo212  1  0.49305792  0.09958089  0.89711135  1
  Mo  Mo213  1  0.79975263  0.40253391  0.80479358  1
  Mo  Mo214  1  0.41302750  0.60453721  0.19874708  1
  Mo  Mo215  1  0.90176212  0.90062009  0.70335444  1
  Mo  Mo216  1  0.19354850  0.79259319  0.80926276  1
  Mo  Mo217  1  0.50635858  0.50296017  0.90102249  1
  Mo  Mo218  1  0.79996756  0.20761363  0.20487382  1
  Mo  Mo219  1  0.30687320  0.49934343  0.49530811  1
  Mo  Mo220  1  0.70427945  0.50029579  0.49985942  1
  Mo  Mo221  1  0.09599542  0.89986430  0.90731439  1
  Mo  Mo222  1  0.60184990  -0.00861563  0.59863681  1
  Mo  Mo223  1  0.08848892  0.30037046  0.70381144  1
  Mo  Mo224  1  -0.00335095  -0.00284836  0.79632083  1
  Mo  Mo225  1  0.50479558  0.50088484  0.30149192  1
  Mo  Mo226  1  0.81395077  0.79890601  0.79755829  1
  Mo  Mo227  1  0.59217459  0.78694200  0.78425753  1
  Mo  Mo228  1  0.90251689  0.89133387  0.50087273  1
  Mo  Mo229  1  0.60901041  0.61205959  0.40306519  1
  Mo  Mo230  1  -0.00091097  0.20676915  0.80007229  1
  Mo  Mo231  1  0.90194116  0.50057519  0.10329999  1
  Mo  Mo232  1  0.60426159  0.40191480  0.20168562  1
  Mo  Mo233  1  0.79733046  0.20054788  0.80278626  1
  Mo  Mo234  1  0.80115582  0.60533765  0.60272497  1
  Mo  Mo235  1  0.40363011  0.58895840  0.58862758  1
  Mo  Mo236  1  0.40639171  0.79619501  0.39436308  1
  Mo  Mo237  1  0.39423667  -0.00100623  0.40241704  1
  Mo  Mo238  1  -0.00065419  0.79386173  0.40105177  1
  Mo  Mo239  1  0.00199100  0.79755548  0.19545634  1
  Mo  Mo240  1  0.10032696  0.10146250  0.29956021  1
  Mo  Mo241  1  -0.00395897  0.21300708  0.20630484  1
  Mo  Mo242  1  0.89713506  0.49821271  0.90214522  1
  Mo  Mo243  1  -0.00426921  0.00279084  0.40724088  1
  Mo  Mo244  1  0.70341322  0.49866064  0.09159493  1
  Mo  Mo245  1  0.40596187  0.80321573  0.60318497  1
  Mo  Mo246  1  0.70462602  0.50247176  0.70340708  1
  Mo  Mo247  1  0.80172317  0.79772588  0.59778378  1
  Mo  Mo248  1  0.20175519  0.80480510  0.58289853  1
  Mo  Mo249  1  -0.00698331  0.80310775  0.59977752  1
