# generated using pymatgen
data_HfZrTaTiMo
_symmetry_space_group_name_H-M   'P 1'
_cell_length_a   16.89286735
_cell_length_b   16.89049896
_cell_length_c   16.88317175
_cell_angle_alpha   89.99487858
_cell_angle_beta   90.00688166
_cell_angle_gamma   90.06852306
_symmetry_Int_Tables_number   1
_chemical_formula_structural   HfZrTaTiMo
_chemical_formula_sum   'Hf50 Zr50 Ta50 Ti50 Mo50'
_cell_volume   4817.25430953
_cell_formula_units_Z   50
loop_
 _symmetry_equiv_pos_site_id
 _symmetry_equiv_pos_as_xyz
  1  'x, y, z'
loop_
 _atom_site_type_symbol
 _atom_site_label
 _atom_site_symmetry_multiplicity
 _atom_site_fract_x
 _atom_site_fract_y
 _atom_site_fract_z
 _atom_site_occupancy
  Hf  Hf0  1  0.60255362  0.60905991  0.59656421  1
  Hf  Hf1  1  0.49320419  0.08400717  0.10591504  1
  Hf  Hf2  1  0.49365893  0.28611600  0.10897348  1
  Hf  Hf3  1  0.80147678  0.19654340  0.39931625  1
  Hf  Hf4  1  0.09900687  0.30439488  0.50442324  1
  Hf  Hf5  1  0.69005169  0.08806563  0.10896870  1
  Hf  Hf6  1  0.49312201  0.08852269  0.69809094  1
  Hf  Hf7  1  0.70517153  0.29901165  0.50104733  1
  Hf  Hf8  1  0.90750026  0.49813645  0.69786361  1
  Hf  Hf9  1  0.69460961  0.30070439  0.30091769  1
  Hf  Hf10  1  -0.00145690  0.19877270  0.60668674  1
  Hf  Hf11  1  0.59479908  -0.00684510  0.79902112  1
  Hf  Hf12  1  0.30355271  0.70473652  0.29638262  1
  Hf  Hf13  1  0.90210183  0.09520054  0.50157814  1
  Hf  Hf14  1  0.10072843  0.89417556  0.70358205  1
  Hf  Hf15  1  0.00418810  0.20226088  0.39680609  1
  Hf  Hf16  1  0.21062203  0.79579805  0.80245964  1
  Hf  Hf17  1  0.89950439  0.08972387  0.10516150  1
  Hf  Hf18  1  0.19865627  0.40225576  0.39380429  1
  Hf  Hf19  1  0.49087876  0.09201800  0.90281380  1
  Hf  Hf20  1  0.69265108  0.28951725  0.10335417  1
  Hf  Hf21  1  0.10258890  0.30184677  0.90472206  1
  Hf  Hf22  1  0.40973727  0.19862540  0.39137851  1
  Hf  Hf23  1  0.40437513  0.20473894  0.59738190  1
  Hf  Hf24  1  0.89768288  0.70840336  0.48938519  1
  Hf  Hf25  1  0.80468110  0.39754082  0.00006417  1
  Hf  Hf26  1  0.40572377  0.40374448  0.59669880  1
  Hf  Hf27  1  0.70055136  0.70888023  0.47878636  1
  Hf  Hf28  1  0.90225720  0.50435436  0.29709120  1
  Hf  Hf29  1  0.30315535  0.70186630  0.49711599  1
  Hf  Hf30  1  0.10540912  0.09348555  0.29885987  1
  Hf  Hf31  1  0.30298470  0.70263806  0.69421834  1
  Hf  Hf32  1  0.79632401  -0.00204851  0.80032280  1
  Hf  Hf33  1  0.79531237  0.40235146  0.19874664  1
  Hf  Hf34  1  0.71032399  0.50161426  0.33068568  1
  Hf  Hf35  1  0.19753568  0.00763035  0.79880005  1
  Hf  Hf36  1  0.59207512  0.19319399  0.40275954  1
  Hf  Hf37  1  0.00469965  0.60228414  0.59360913  1
  Hf  Hf38  1  0.90612583  0.29535955  0.10092457  1
  Hf  Hf39  1  0.79907432  0.39870606  0.60324251  1
  Hf  Hf40  1  0.01616202  0.80756589  0.39299532  1
  Hf  Hf41  1  0.77953012  0.00043237  0.39717949  1
  Hf  Hf42  1  0.50187398  0.90248960  0.49670851  1
  Hf  Hf43  1  0.01247675  -0.01877891  0.19553165  1
  Hf  Hf44  1  0.79142722  0.60760336  0.20394446  1
  Hf  Hf45  1  0.69482753  0.49930622  0.89465645  1
  Hf  Hf46  1  0.28857413  0.50774807  0.91312232  1
  Hf  Hf47  1  0.30666145  0.91053219  0.90742989  1
  Hf  Hf48  1  0.09904401  0.90050028  0.90074284  1
  Hf  Hf49  1  0.00875933  0.61235896  0.39058263  1
  Zr  Zr50  1  0.40167288  0.61235173  0.80901887  1
  Zr  Zr51  1  0.79197191  0.60320356  0.59929827  1
  Zr  Zr52  1  0.59455677  0.39988042  0.00816891  1
  Zr  Zr53  1  0.50782772  0.50573529  0.71201449  1
  Zr  Zr54  1  0.19589298  0.19204259  0.79899626  1
  Zr  Zr55  1  0.90732478  0.08614055  0.30154623  1
  Zr  Zr56  1  0.69449986  0.09678898  0.90392976  1
  Zr  Zr57  1  0.70702708  0.70203244  0.90880807  1
  Zr  Zr58  1  0.30098386  0.29397040  0.28882588  1
  Zr  Zr59  1  0.39455576  0.40286583  0.79918946  1
  Zr  Zr60  1  0.49678420  0.29872168  0.90125291  1
  Zr  Zr61  1  0.89571554  0.09913114  0.89978476  1
  Zr  Zr62  1  0.79400353  -0.00348611  0.59904808  1
  Zr  Zr63  1  0.79353853  0.79856880  0.60065908  1
  Zr  Zr64  1  0.20136687  0.80898674  0.39161164  1
  Zr  Zr65  1  0.89440698  0.69829472  0.09028413  1
  Zr  Zr66  1  0.29273903  0.29787189  0.09284418  1
  Zr  Zr67  1  0.39994968  0.40188937  0.19546593  1
  Zr  Zr68  1  0.80678732  0.39386927  0.79905578  1
  Zr  Zr69  1  0.29418271  0.30491203  0.90371746  1
  Zr  Zr70  1  0.89268330  0.89775486  0.29875153  1
  Zr  Zr71  1  0.90311756  0.90205697  0.49247177  1
  Zr  Zr72  1  0.09716784  0.69306864  0.90097474  1
  Zr  Zr73  1  0.88586226  0.49879238  0.48515419  1
  Zr  Zr74  1  0.58737905  0.39164438  0.41002830  1
  Zr  Zr75  1  0.30576961  0.90335171  0.50229867  1
  Zr  Zr76  1  0.00345371  0.39682590  0.39414708  1
  Zr  Zr77  1  0.19897076  0.79840029  0.00528269  1
  Zr  Zr78  1  0.19810291  0.19302195  0.60509934  1
  Zr  Zr79  1  0.79765242  0.19007962  0.20736441  1
  Zr  Zr80  1  0.89929256  0.89063198  0.90166366  1
  Zr  Zr81  1  0.29844995  0.50721568  0.30561513  1
  Zr  Zr82  1  0.40977693  0.80763723  0.79855789  1
  Zr  Zr83  1  0.59715194  0.79964681  0.20119488  1
  Zr  Zr84  1  0.00946746  0.79132797  0.20022339  1
  Zr  Zr85  1  0.20307290  0.41177845  0.60461659  1
  Zr  Zr86  1  0.90681729  0.89507831  0.70380763  1
  Zr  Zr87  1  0.60467700  0.60397611  0.20400526  1
  Zr  Zr88  1  0.40542529  0.60338012  0.19938402  1
  Zr  Zr89  1  0.10262659  0.29631146  0.09935657  1
  Zr  Zr90  1  0.59205586  0.60189670  0.00273049  1
  Zr  Zr91  1  0.09034816  0.31308320  0.70408346  1
  Zr  Zr92  1  0.50271458  0.49863147  0.30369108  1
  Zr  Zr93  1  0.30000291  0.30188034  0.49650942  1
  Zr  Zr94  1  0.59941054  0.40043569  0.60142799  1
  Zr  Zr95  1  0.68771173  0.88989723  0.70465259  1
  Zr  Zr96  1  0.69811609  0.29163065  0.89750072  1
  Zr  Zr97  1  0.91128342  0.51092955  0.09874786  1
  Zr  Zr98  1  0.30171546  0.69724314  0.09525321  1
  Zr  Zr99  1  0.19876480  0.60143730  0.60366673  1
  Ta  Ta100  1  0.80178350  0.60370896  0.79727693  1
  Ta  Ta101  1  0.10307741  0.09258316  0.49568774  1
  Ta  Ta102  1  0.79663248  0.79107980  0.80015355  1
  Ta  Ta103  1  0.30837024  0.09148007  0.69607665  1
  Ta  Ta104  1  0.20484046  -0.01036370  0.19857738  1
  Ta  Ta105  1  0.40047922  0.00241413  0.39215865  1
  Ta  Ta106  1  0.29970299  0.09493820  0.49542092  1
  Ta  Ta107  1  0.39107928  0.19011759  0.00334564  1
  Ta  Ta108  1  0.69339304  0.10102727  0.50754915  1
  Ta  Ta109  1  0.59530764  0.20064487  0.60137637  1
  Ta  Ta110  1  -0.00351730  0.40355988  0.80974918  1
  Ta  Ta111  1  0.59778358  0.80816304  0.00923765  1
  Ta  Ta112  1  0.19435494  0.60186012  0.19415146  1
  Ta  Ta113  1  0.11123437  0.70249042  0.49637416  1
  Ta  Ta114  1  0.30254772  0.09433320  0.29258473  1
  Ta  Ta115  1  0.59496874  0.19709221  0.79365330  1
  Ta  Ta116  1  0.00390620  -0.00419220  0.00276029  1
  Ta  Ta117  1  0.79470059  -0.00776224  0.00747489  1
  Ta  Ta118  1  0.00365016  0.19075394  -0.00154078  1
  Ta  Ta119  1  0.78684459  0.80173841  0.19719173  1
  Ta  Ta120  1  0.89664560  0.10366074  0.70406884  1
  Ta  Ta121  1  0.40943323  0.61000806  0.40160007  1
  Ta  Ta122  1  0.49390215  0.90472455  0.28987647  1
  Ta  Ta123  1  0.19802145  0.00027340  0.60142721  1
  Ta  Ta124  1  0.50177153  0.90558309  0.90865678  1
  Ta  Ta125  1  0.69687029  0.50210696  0.70813399  1
  Ta  Ta126  1  0.90845825  0.70169489  0.70620386  1
  Ta  Ta127  1  0.19718489  0.41431736  0.18989572  1
  Ta  Ta128  1  0.01096246  0.79799442  0.59468586  1
  Ta  Ta129  1  0.19890010  0.17768161  -0.00591845  1
  Ta  Ta130  1  0.41175344  0.60792209  0.59655172  1
  Ta  Ta131  1  0.59387214  0.00431352  0.39263943  1
  Ta  Ta132  1  0.00171827  0.40306948  -0.00412644  1
  Ta  Ta133  1  0.69955688  0.10692867  0.69877382  1
  Ta  Ta134  1  0.40443643  0.80118610  0.00090931  1
  Ta  Ta135  1  0.69652816  0.89445384  0.90899139  1
  Ta  Ta136  1  0.30780935  0.51055846  0.49421941  1
  Ta  Ta137  1  0.00508099  0.00971265  0.79850806  1
  Ta  Ta138  1  0.00929354  0.00089140  0.60325501  1
  Ta  Ta139  1  0.00243440  0.80307584  0.00772669  1
  Ta  Ta140  1  0.31032913  0.90306645  0.10221542  1
  Ta  Ta141  1  0.80174318  0.19446885  0.00298963  1
  Ta  Ta142  1  0.10500794  0.09136277  0.09802000  1
  Ta  Ta143  1  0.49636275  0.70784095  0.10214316  1
  Ta  Ta144  1  0.41136373  0.80216143  0.60348333  1
  Ta  Ta145  1  0.90294422  0.69839425  0.90156102  1
  Ta  Ta146  1  0.09956270  0.50872074  0.29061341  1
  Ta  Ta147  1  0.19697790  0.80461288  0.19763419  1
  Ta  Ta148  1  0.20046784  0.19499671  0.39677559  1
  Ta  Ta149  1  0.90508380  0.29063274  0.90008167  1
  Ti  Ti150  1  0.20163598  -0.00595384  0.39663333  1
  Ti  Ti151  1  0.09431237  0.50116825  0.70404656  1
  Ti  Ti152  1  0.00447426  0.19491172  0.19995026  1
  Ti  Ti153  1  0.30108755  0.08905432  0.09982460  1
  Ti  Ti154  1  0.69772015  0.29545052  0.70723445  1
  Ti  Ti155  1  0.59279522  0.19199978  0.00081456  1
  Ti  Ti156  1  0.39693134  0.40597003  0.00583158  1
  Ti  Ti157  1  0.30710083  0.09096797  0.90085103  1
  Ti  Ti158  1  0.29828210  0.29974598  0.70332278  1
  Ti  Ti159  1  0.49612213  0.50344359  0.09942601  1
  Ti  Ti160  1  0.09589652  0.70417214  0.70316930  1
  Ti  Ti161  1  0.90063820  0.30383010  0.29584480  1
  Ti  Ti162  1  0.60149127  -0.00282999  0.59705296  1
  Ti  Ti163  1  0.50625080  0.71183448  0.90485593  1
  Ti  Ti164  1  0.60074639  0.79967965  0.59539223  1
  Ti  Ti165  1  0.09223005  0.68387105  0.09608999  1
  Ti  Ti166  1  0.10439026  0.50458266  0.49307317  1
  Ti  Ti167  1  0.49979581  0.50941359  0.49675575  1
  Ti  Ti168  1  0.19793438  0.41144101  0.80031210  1
  Ti  Ti169  1  0.90397969  0.30550073  0.50695881  1
  Ti  Ti170  1  0.88853788  0.70601294  0.30243192  1
  Ti  Ti171  1  0.58582403  0.18696070  0.21830447  1
  Ti  Ti172  1  0.59875529  0.40325163  0.19968451  1
  Ti  Ti173  1  0.40687199  0.80460042  0.38892587  1
  Ti  Ti174  1  0.40709847  0.39400268  0.40196729  1
  Ti  Ti175  1  0.30570153  0.51010832  0.69964418  1
  Ti  Ti176  1  0.31233011  0.90981475  0.69680327  1
  Ti  Ti177  1  0.20204778  0.60287499  0.80059339  1
  Ti  Ti178  1  0.39659379  0.19832180  0.79963058  1
  Ti  Ti179  1  0.80265976  0.20373218  0.60960487  1
  Ti  Ti180  1  -0.00063000  0.59825313  0.80251602  1
  Ti  Ti181  1  0.88949407  0.89586078  0.10078973  1
  Ti  Ti182  1  0.50272915  0.30084875  0.70730336  1
  Ti  Ti183  1  0.00857890  0.40412487  0.19632002  1
  Ti  Ti184  1  0.49534040  0.09232586  0.50554987  1
  Ti  Ti185  1  0.69156819  0.90134576  0.29560590  1
  Ti  Ti186  1  0.70357457  0.70418179  0.09041759  1
  Ti  Ti187  1  0.50283300  0.71156602  0.49131620  1
  Ti  Ti188  1  0.70437484  0.50657312  0.09234970  1
  Ti  Ti189  1  0.20284816  0.18934622  0.19538004  1
  Ti  Ti190  1  0.51305169  0.71282696  0.70297567  1
  Ti  Ti191  1  0.90015854  0.51001469  0.90532270  1
  Ti  Ti192  1  0.59485378  0.61120693  0.39585725  1
  Ti  Ti193  1  0.10001437  0.50529138  0.91038771  1
  Ti  Ti194  1  0.00048336  0.19667103  0.79959078  1
  Ti  Ti195  1  0.19958576  0.80690722  0.59850730  1
  Ti  Ti196  1  0.40163330  0.60392790  -0.00314860  1
  Ti  Ti197  1  0.10625710  0.29904773  0.28908557  1
  Ti  Ti198  1  0.60511499  0.61546527  0.79980794  1
  Ti  Ti199  1  0.50316539  0.49602829  0.89754285  1
  Mo  Mo200  1  0.69901589  0.70730660  0.30262638  1
  Mo  Mo201  1  0.09537189  0.09572662  0.69795864  1
  Mo  Mo202  1  0.60181765  0.39198123  0.79646518  1
  Mo  Mo203  1  0.49953464  0.29556159  0.29222690  1
  Mo  Mo204  1  -0.00230843  0.40533833  0.60487488  1
  Mo  Mo205  1  0.78916900  -0.01135563  0.19734171  1
  Mo  Mo206  1  0.68969689  0.09432092  0.30236029  1
  Mo  Mo207  1  0.20196023  0.60023850  0.39719080  1
  Mo  Mo208  1  0.39338899  0.18984714  0.19680255  1
  Mo  Mo209  1  0.90057285  0.29606483  0.70783058  1
  Mo  Mo210  1  0.30506241  0.90255391  0.29401713  1
  Mo  Mo211  1  0.80330698  0.61389079  0.39415676  1
  Mo  Mo212  1  0.30468834  0.69757618  0.90203081  1
  Mo  Mo213  1  0.50079380  0.89784338  0.69166061  1
  Mo  Mo214  1  0.20148918  0.00258850  0.00444996  1
  Mo  Mo215  1  0.80047218  0.59736987  -0.00637296  1
  Mo  Mo216  1  0.69806942  0.90083506  0.10213525  1
  Mo  Mo217  1  0.10952924  0.90182198  0.29602051  1
  Mo  Mo218  1  0.11023471  0.89990755  0.09517269  1
  Mo  Mo219  1  0.01745865  -0.00448987  0.40607544  1
  Mo  Mo220  1  -0.00071999  0.79251845  0.79911252  1
  Mo  Mo221  1  0.59795151  -0.00981087  0.00484484  1
  Mo  Mo222  1  0.59827686  0.79903159  0.81229177  1
  Mo  Mo223  1  0.79979016  0.80421850  0.00300479  1
  Mo  Mo224  1  0.09856376  0.50284679  0.09702706  1
  Mo  Mo225  1  0.39574958  -0.00354618  0.20145138  1
  Mo  Mo226  1  0.59679903  -0.00579554  0.20641909  1
  Mo  Mo227  1  0.29408136  0.50474487  0.09363122  1
  Mo  Mo228  1  0.49863247  0.89870647  0.09945339  1
  Mo  Mo229  1  0.09331652  0.09777973  0.90366022  1
  Mo  Mo230  1  0.49464487  0.09276126  0.29599984  1
  Mo  Mo231  1  0.68498834  0.90185005  0.49299958  1
  Mo  Mo232  1  0.69754534  0.69937966  0.70944091  1
  Mo  Mo233  1  0.39791389  -0.00292824  0.00492418  1
  Mo  Mo234  1  0.79835114  0.19913161  0.79526192  1
  Mo  Mo235  1  0.50021610  0.71070650  0.30495908  1
  Mo  Mo236  1  0.69600279  0.50587251  0.50386962  1
  Mo  Mo237  1  0.39725091  -0.00052099  0.59354554  1
  Mo  Mo238  1  0.59428380  0.81142203  0.39313588  1
  Mo  Mo239  1  0.11195801  0.69687367  0.29552181  1
  Mo  Mo240  1  0.49850293  0.29417049  0.50674857  1
  Mo  Mo241  1  0.18948836  0.41191900  0.00539704  1
  Mo  Mo242  1  0.39798222  -0.00216506  0.79599735  1
  Mo  Mo243  1  0.00383137  0.60461904  0.20238860  1
  Mo  Mo244  1  0.80616085  0.38566741  0.40144929  1
  Mo  Mo245  1  0.39926910  0.80565125  0.19695673  1
  Mo  Mo246  1  0.19416940  0.59844069  0.00717930  1
  Mo  Mo247  1  -0.00115995  0.59850483  -0.00700836  1
  Mo  Mo248  1  0.10604894  0.90313662  0.50499046  1
  Mo  Mo249  1  0.78853933  0.80808938  0.38775940  1
