# generated using pymatgen
data_HfZrTaTiMo
_symmetry_space_group_name_H-M   'P 1'
_cell_length_a   16.89360028
_cell_length_b   16.89267293
_cell_length_c   16.89407449
_cell_angle_alpha   90.02388973
_cell_angle_beta   90.03791040
_cell_angle_gamma   89.96725823
_symmetry_Int_Tables_number   1
_chemical_formula_structural   HfZrTaTiMo
_chemical_formula_sum   'Hf50 Zr50 Ta50 Ti50 Mo50'
_cell_volume   4821.19601166
_cell_formula_units_Z   50
loop_
 _symmetry_equiv_pos_site_id
 _symmetry_equiv_pos_as_xyz
  1  'x, y, z'
loop_
 _atom_site_type_symbol
 _atom_site_label
 _atom_site_symmetry_multiplicity
 _atom_site_fract_x
 _atom_site_fract_y
 _atom_site_fract_z
 _atom_site_occupancy
  Hf  Hf0  1  0.29885765  0.49260461  0.08853988  1
  Hf  Hf1  1  0.79116640  0.40474771  0.60526049  1
  Hf  Hf2  1  0.49740605  0.50342215  0.89837333  1
  Hf  Hf3  1  0.90095506  0.30233949  0.70895684  1
  Hf  Hf4  1  -0.00411862  0.19105590  0.60358569  1
  Hf  Hf5  1  0.70235505  0.90215494  0.70837258  1
  Hf  Hf6  1  0.70068785  0.10544453  0.29489655  1
  Hf  Hf7  1  0.30115111  0.69418142  0.09565201  1
  Hf  Hf8  1  0.00469551  0.59639986  -0.00054713  1
  Hf  Hf9  1  0.70432088  0.29496271  0.90011012  1
  Hf  Hf10  1  0.80407914  0.19460633  0.59788162  1
  Hf  Hf11  1  0.90022555  0.29932571  0.10134637  1
  Hf  Hf12  1  0.60961420  0.79756957  0.59799462  1
  Hf  Hf13  1  0.60298243  0.18870706  0.59941431  1
  Hf  Hf14  1  0.30054689  0.89859049  0.69327865  1
  Hf  Hf15  1  0.90411286  0.49718427  0.70526391  1
  Hf  Hf16  1  0.20017316  0.60455022  0.79878410  1
  Hf  Hf17  1  0.49573439  0.89190688  0.69706452  1
  Hf  Hf18  1  0.49701097  0.10493360  0.29046499  1
  Hf  Hf19  1  -0.00115514  0.79831320  0.60404515  1
  Hf  Hf20  1  0.90447489  0.50344524  0.49935675  1
  Hf  Hf21  1  0.59702692  -0.00156638  -0.00375265  1
  Hf  Hf22  1  0.70606661  0.89541890  0.89078985  1
  Hf  Hf23  1  0.09092054  0.89162690  0.10261878  1
  Hf  Hf24  1  0.59555639  -0.00393952  0.40326079  1
  Hf  Hf25  1  0.59758606  0.79965908  0.19492512  1
  Hf  Hf26  1  0.01404572  0.60823254  0.78984544  1
  Hf  Hf27  1  0.40039733  0.20777851  0.00577723  1
  Hf  Hf28  1  0.50318821  0.69835272  0.50511242  1
  Hf  Hf29  1  0.40902311  0.58406872  0.40123851  1
  Hf  Hf30  1  0.10656913  0.10049349  0.30772703  1
  Hf  Hf31  1  0.50693017  0.69144794  0.30490191  1
  Hf  Hf32  1  0.70817074  0.69513005  0.30195623  1
  Hf  Hf33  1  0.90009908  0.29364907  0.29537674  1
  Hf  Hf34  1  0.69420730  0.29661106  0.09976495  1
  Hf  Hf35  1  0.80367628  0.80167912  0.40245499  1
  Hf  Hf36  1  0.69976202  0.10561738  0.10772886  1
  Hf  Hf37  1  0.09799971  0.29528790  0.49801907  1
  Hf  Hf38  1  0.00413776  0.80419378  0.39966050  1
  Hf  Hf39  1  0.10454742  0.71344836  0.90743449  1
  Hf  Hf40  1  0.49672361  0.48974660  0.08699397  1
  Hf  Hf41  1  0.59810629  -0.00108376  0.59456482  1
  Hf  Hf42  1  0.69591004  0.50810629  0.49511453  1
  Hf  Hf43  1  0.21269904  0.80437432  0.20209129  1
  Hf  Hf44  1  0.00211386  0.80130131  0.78973076  1
  Hf  Hf45  1  0.29516997  0.10300410  0.30008017  1
  Hf  Hf46  1  0.19452172  0.39866535  0.19531588  1
  Hf  Hf47  1  0.49392484  0.09918869  0.10653226  1
  Hf  Hf48  1  0.19491578  0.20296232  0.00281681  1
  Hf  Hf49  1  0.50601000  0.50519781  0.70255341  1
  Zr  Zr50  1  0.49996497  0.30023280  0.50496254  1
  Zr  Zr51  1  0.79974388  0.60799482  0.60921648  1
  Zr  Zr52  1  0.10473401  0.69881804  0.49296328  1
  Zr  Zr53  1  0.90431695  0.70997217  0.10414008  1
  Zr  Zr54  1  0.39935071  0.80437590  0.39967466  1
  Zr  Zr55  1  0.11078647  0.69960839  0.30338904  1
  Zr  Zr56  1  0.90040982  0.09337691  0.31285790  1
  Zr  Zr57  1  0.29251603  0.70543607  0.48983732  1
  Zr  Zr58  1  0.19700419  -0.00346123  0.00474921  1
  Zr  Zr59  1  0.89601879  0.51098376  0.30387013  1
  Zr  Zr60  1  0.39045600  -0.02180762  0.20080755  1
  Zr  Zr61  1  0.69806680  0.29128718  0.29450328  1
  Zr  Zr62  1  0.29158425  0.29887253  0.49294838  1
  Zr  Zr63  1  0.39720338  0.38920340  0.79912693  1
  Zr  Zr64  1  0.30294020  0.89909827  0.90386368  1
  Zr  Zr65  1  0.69836034  0.28985825  0.70713322  1
  Zr  Zr66  1  0.58470155  0.41001902  0.39167821  1
  Zr  Zr67  1  0.00226489  0.40143924  0.39951200  1
  Zr  Zr68  1  0.09817585  0.70470034  0.10138588  1
  Zr  Zr69  1  0.80387826  0.00754844  0.59932175  1
  Zr  Zr70  1  0.79353901  0.40816667  0.19683603  1
  Zr  Zr71  1  0.00660728  0.00061677  0.79730322  1
  Zr  Zr72  1  0.19725613  0.20167320  0.79765889  1
  Zr  Zr73  1  0.70970094  0.09931346  0.89343529  1
  Zr  Zr74  1  0.59894559  0.79291797  -0.00748014  1
  Zr  Zr75  1  0.48649734  0.09926951  0.69480536  1
  Zr  Zr76  1  0.01092686  0.59799744  0.60672443  1
  Zr  Zr77  1  0.00789456  0.39885441  -0.00067575  1
  Zr  Zr78  1  0.29985864  0.49726480  0.71065983  1
  Zr  Zr79  1  0.80651190  -0.00385665  0.19421034  1
  Zr  Zr80  1  0.30117557  0.09342739  0.10440950  1
  Zr  Zr81  1  0.29571496  0.49968507  0.29821664  1
  Zr  Zr82  1  0.29598880  0.10175289  0.50141217  1
  Zr  Zr83  1  0.19337558  0.59762056  0.60642217  1
  Zr  Zr84  1  0.89936352  0.49752323  0.89308087  1
  Zr  Zr85  1  0.39723376  0.60385866  0.60301844  1
  Zr  Zr86  1  0.79452913  0.59761867  -0.00095977  1
  Zr  Zr87  1  0.90449562  0.91620127  0.49153137  1
  Zr  Zr88  1  0.18682973  0.40405533  0.60562131  1
  Zr  Zr89  1  0.60099903  0.59429307  0.19149024  1
  Zr  Zr90  1  0.60337959  0.40053277  0.79895712  1
  Zr  Zr91  1  0.39587355  0.40627429  0.59207561  1
  Zr  Zr92  1  0.40195766  -0.00719041  0.40412840  1
  Zr  Zr93  1  0.70710332  0.90096891  0.29667410  1
  Zr  Zr94  1  0.69261332  0.30493388  0.50100399  1
  Zr  Zr95  1  0.89065805  0.70452973  0.88768109  1
  Zr  Zr96  1  0.29505287  0.30808352  0.91133134  1
  Zr  Zr97  1  0.00081568  0.00129387  0.19798176  1
  Zr  Zr98  1  0.59125301  0.19799758  -0.00322173  1
  Zr  Zr99  1  0.60432530  0.60532462  -0.00506604  1
  Ta  Ta100  1  0.59479511  0.40151411  0.19654569  1
  Ta  Ta101  1  0.79368094  0.40395275  -0.00096178  1
  Ta  Ta102  1  0.40002927  0.79348317  0.80164990  1
  Ta  Ta103  1  0.79833632  0.39837578  0.40029192  1
  Ta  Ta104  1  0.29951649  0.09593157  0.70148476  1
  Ta  Ta105  1  0.70134831  0.70507857  0.72021088  1
  Ta  Ta106  1  0.70223412  0.09799450  0.71565938  1
  Ta  Ta107  1  0.39810172  0.61380818  0.80480607  1
  Ta  Ta108  1  0.39810296  -0.00090316  0.80302983  1
  Ta  Ta109  1  0.59466520  0.19609140  0.39894977  1
  Ta  Ta110  1  0.10419288  0.90511963  0.30196490  1
  Ta  Ta111  1  0.00569879  0.59526980  0.19882353  1
  Ta  Ta112  1  0.60153148  0.80356244  0.40667660  1
  Ta  Ta113  1  0.80703832  0.00019308  0.00083341  1
  Ta  Ta114  1  0.90149743  0.89029776  0.09419047  1
  Ta  Ta115  1  0.09943788  0.30072903  0.09943864  1
  Ta  Ta116  1  0.00504934  0.19932673  0.80787802  1
  Ta  Ta117  1  0.00700197  0.19860239  0.19589037  1
  Ta  Ta118  1  0.57930714  0.19518143  0.80690976  1
  Ta  Ta119  1  0.69721864  0.50816041  0.30429225  1
  Ta  Ta120  1  0.49941108  0.29742780  0.69511088  1
  Ta  Ta121  1  0.19758707  0.19898386  0.60742924  1
  Ta  Ta122  1  0.09960188  0.09692866  0.49710786  1
  Ta  Ta123  1  0.20108436  0.00032369  0.80039094  1
  Ta  Ta124  1  0.40213149  0.39995533  0.39103541  1
  Ta  Ta125  1  -0.00538116  0.00337865  -0.00073643  1
  Ta  Ta126  1  0.30509849  0.09807350  0.89970719  1
  Ta  Ta127  1  0.49601482  0.89650685  0.89712030  1
  Ta  Ta128  1  0.58814565  0.00347834  0.80333914  1
  Ta  Ta129  1  0.40076974  0.20680422  0.39475321  1
  Ta  Ta130  1  0.10096376  0.29252740  0.30004029  1
  Ta  Ta131  1  0.19262616  0.39219585  0.80297219  1
  Ta  Ta132  1  0.60762303  0.60347272  0.60883013  1
  Ta  Ta133  1  0.00240067  0.19408351  -0.00183236  1
  Ta  Ta134  1  0.70732565  0.89443390  0.09561664  1
  Ta  Ta135  1  0.49322586  0.89622482  0.09224637  1
  Ta  Ta136  1  0.49219111  0.10432366  0.49752504  1
  Ta  Ta137  1  0.90167831  0.69207270  0.49195146  1
  Ta  Ta138  1  0.89785429  0.29663849  0.89896987  1
  Ta  Ta139  1  0.80423133  0.20126400  0.41016309  1
  Ta  Ta140  1  0.80898210  0.19721882  0.00068407  1
  Ta  Ta141  1  0.39796874  0.79129884  0.20210743  1
  Ta  Ta142  1  0.80446462  0.79616153  0.60166708  1
  Ta  Ta143  1  0.40129195  0.39219345  0.19685801  1
  Ta  Ta144  1  0.71074839  0.70807526  0.10339681  1
  Ta  Ta145  1  0.89874338  0.90123136  0.89982297  1
  Ta  Ta146  1  0.20013480  0.20505484  0.19642874  1
  Ta  Ta147  1  0.90390404  0.69936019  0.29838111  1
  Ta  Ta148  1  0.90282116  0.49953560  0.10157993  1
  Ta  Ta149  1  0.40020184  0.59794597  0.20006983  1
  Ti  Ti150  1  0.29079613  0.89884235  0.30783812  1
  Ti  Ti151  1  0.89103232  0.90275102  0.70616921  1
  Ti  Ti152  1  0.20152991  -0.00656234  0.40714719  1
  Ti  Ti153  1  0.39989579  0.60562537  -0.00803559  1
  Ti  Ti154  1  -0.00420506  0.19695354  0.40606367  1
  Ti  Ti155  1  0.19424677  0.59364649  -0.00021765  1
  Ti  Ti156  1  0.28781304  0.49981100  0.49239968  1
  Ti  Ti157  1  0.09983608  0.50663830  0.30549444  1
  Ti  Ti158  1  0.29624879  0.29606498  0.29844274  1
  Ti  Ti159  1  0.00737269  0.40554920  0.19941917  1
  Ti  Ti160  1  0.10439524  0.09648875  0.69795222  1
  Ti  Ti161  1  0.70323743  0.69465263  0.49250920  1
  Ti  Ti162  1  0.10648260  0.90391262  0.50010445  1
  Ti  Ti163  1  0.10300877  0.09782602  0.10590435  1
  Ti  Ti164  1  0.70804639  0.90388110  0.49818527  1
  Ti  Ti165  1  0.19454425  0.40062731  0.39537109  1
  Ti  Ti166  1  0.39954159  0.20091970  0.80346511  1
  Ti  Ti167  1  0.79876184  0.79927706  -0.00494681  1
  Ti  Ti168  1  0.80143592  0.59841399  0.19277264  1
  Ti  Ti169  1  0.39893217  -0.01206672  0.58751080  1
  Ti  Ti170  1  0.38997286  0.20567633  0.60338125  1
  Ti  Ti171  1  0.70532401  0.09613555  0.48860826  1
  Ti  Ti172  1  0.10197622  0.09712620  0.90093167  1
  Ti  Ti173  1  0.89418847  0.09883584  0.71541974  1
  Ti  Ti174  1  0.50636472  0.70383338  0.70725714  1
  Ti  Ti175  1  0.89893036  0.09930401  0.89650536  1
  Ti  Ti176  1  0.20708980  0.80617949  0.00586183  1
  Ti  Ti177  1  0.00153689  0.00446847  0.60040775  1
  Ti  Ti178  1  0.09083933  0.30138571  0.69818534  1
  Ti  Ti179  1  0.40053217  0.79776721  -0.00094785  1
  Ti  Ti180  1  0.90593255  0.89695742  0.29571781  1
  Ti  Ti181  1  0.01097300  0.39398519  0.80670007  1
  Ti  Ti182  1  0.50326224  0.89405263  0.29752047  1
  Ti  Ti183  1  0.11026402  0.90016618  0.69209719  1
  Ti  Ti184  1  0.69592873  0.50590430  0.89235585  1
  Ti  Ti185  1  0.29963228  0.49733950  0.90484483  1
  Ti  Ti186  1  0.49742898  0.29465158  0.29100813  1
  Ti  Ti187  1  0.29870829  0.71385128  0.69209085  1
  Ti  Ti188  1  0.79317349  0.40592287  0.80132610  1
  Ti  Ti189  1  0.20027553  0.59778764  0.19939037  1
  Ti  Ti190  1  0.50182386  0.31606136  0.91464617  1
  Ti  Ti191  1  0.90306755  0.30631360  0.50567861  1
  Ti  Ti192  1  0.59799497  -0.00930477  0.19487339  1
  Ti  Ti193  1  0.20198735  0.80388501  0.79844438  1
  Ti  Ti194  1  0.19951566  0.00149944  0.59893575  1
  Ti  Ti195  1  0.49439241  0.69904191  0.09704248  1
  Ti  Ti196  1  0.09571624  0.89802314  0.90484477  1
  Ti  Ti197  1  0.29733418  0.70216204  0.90437956  1
  Ti  Ti198  1  0.11081370  0.49351380  0.90113316  1
  Ti  Ti199  1  0.90062668  0.10462712  0.10179777  1
  Mo  Mo200  1  0.69820550  0.70436552  0.89368319  1
  Mo  Mo201  1  0.60789159  0.40319071  -0.00068675  1
  Mo  Mo202  1  0.19539864  0.40270807  -0.00084370  1
  Mo  Mo203  1  0.10124308  0.49965340  0.48372722  1
  Mo  Mo204  1  0.29716851  0.30105260  0.10560794  1
  Mo  Mo205  1  0.81465097  0.19691424  0.19507982  1
  Mo  Mo206  1  0.30562319  0.69329609  0.29404877  1
  Mo  Mo207  1  0.80158012  0.60301397  0.39975219  1
  Mo  Mo208  1  0.30655838  0.89000455  0.09677902  1
  Mo  Mo209  1  0.49283298  0.70328964  0.89581401  1
  Mo  Mo210  1  0.89256326  0.70381641  0.69553821  1
  Mo  Mo211  1  0.20161259  0.81338226  0.39945704  1
  Mo  Mo212  1  0.50312868  0.89503903  0.50404501  1
  Mo  Mo213  1  0.19959280  0.58761952  0.39790533  1
  Mo  Mo214  1  0.09419064  0.29614597  0.90343441  1
  Mo  Mo215  1  0.12054248  0.72316983  0.69943827  1
  Mo  Mo216  1  0.59608982  0.41242134  0.60414685  1
  Mo  Mo217  1  0.79790654  0.00521140  0.39978084  1
  Mo  Mo218  1  0.19801040  -0.00355681  0.20437002  1
  Mo  Mo219  1  0.09653884  0.48357230  0.71635115  1
  Mo  Mo220  1  0.59819668  0.61020157  0.80215523  1
  Mo  Mo221  1  -0.00470065  0.80985352  -0.01288931  1
  Mo  Mo222  1  0.81256116  0.19676146  0.80485502  1
  Mo  Mo223  1  0.90797327  0.10432442  0.49804796  1
  Mo  Mo224  1  0.29128842  0.89899502  0.50553796  1
  Mo  Mo225  1  0.48596927  0.09238815  0.89922007  1
  Mo  Mo226  1  0.19844912  0.80970106  0.59597259  1
  Mo  Mo227  1  0.39908972  0.39989974  0.00146120  1
  Mo  Mo228  1  0.79055093  0.59906559  0.79983006  1
  Mo  Mo229  1  0.60183854  0.60336915  0.40368144  1
  Mo  Mo230  1  0.00215488  0.60125398  0.39456397  1
  Mo  Mo231  1  0.30022023  0.28846621  0.70049821  1
  Mo  Mo232  1  -0.00235306  0.80104800  0.21213558  1
  Mo  Mo233  1  0.80476512  0.79942601  0.19975475  1
  Mo  Mo234  1  0.59361612  0.80144854  0.80010604  1
  Mo  Mo235  1  0.10014960  0.50074902  0.10520480  1
  Mo  Mo236  1  0.40431584  -0.00282475  -0.00385890  1
  Mo  Mo237  1  0.69963481  0.51064766  0.70734364  1
  Mo  Mo238  1  0.58568661  0.20688620  0.20007427  1
  Mo  Mo239  1  0.19883569  0.20341777  0.39836031  1
  Mo  Mo240  1  -0.00201812  0.39525968  0.60322480  1
  Mo  Mo241  1  0.01045160  -0.00179438  0.40348893  1
  Mo  Mo242  1  0.70070170  0.49753204  0.09928104  1
  Mo  Mo243  1  0.39196503  0.21550519  0.20176242  1
  Mo  Mo244  1  0.80759256  0.00044698  0.80241303  1
  Mo  Mo245  1  0.80603557  0.80304541  0.79429273  1
  Mo  Mo246  1  0.49902979  0.30250508  0.10394200  1
  Mo  Mo247  1  0.39973887  0.79826183  0.60359394  1
  Mo  Mo248  1  0.49740904  0.49505561  0.28762736  1
  Mo  Mo249  1  0.51009888  0.50178721  0.51166457  1
