# generated using pymatgen
data_HfZrTaTiMo
_symmetry_space_group_name_H-M   'P 1'
_cell_length_a   16.88364749
_cell_length_b   16.89004156
_cell_length_c   16.88839401
_cell_angle_alpha   90.01279114
_cell_angle_beta   89.98930330
_cell_angle_gamma   90.02967546
_symmetry_Int_Tables_number   1
_chemical_formula_structural   HfZrTaTiMo
_chemical_formula_sum   'Hf50 Zr50 Ta50 Ti50 Mo50'
_cell_volume   4815.98660444
_cell_formula_units_Z   50
loop_
 _symmetry_equiv_pos_site_id
 _symmetry_equiv_pos_as_xyz
  1  'x, y, z'
loop_
 _atom_site_type_symbol
 _atom_site_label
 _atom_site_symmetry_multiplicity
 _atom_site_fract_x
 _atom_site_fract_y
 _atom_site_fract_z
 _atom_site_occupancy
  Hf  Hf0  1  0.50747284  0.50532218  0.10603895  1
  Hf  Hf1  1  0.09752963  0.50585526  0.90832204  1
  Hf  Hf2  1  0.39742385  0.19691948  0.59351183  1
  Hf  Hf3  1  0.30404462  0.91399222  0.50881262  1
  Hf  Hf4  1  0.79916991  0.60239953  0.19245159  1
  Hf  Hf5  1  0.39479268  0.39302585  0.58912779  1
  Hf  Hf6  1  0.80509287  0.59852969  0.79814196  1
  Hf  Hf7  1  0.00223508  0.19844885  0.01321196  1
  Hf  Hf8  1  0.40515551  0.80020086  0.80016478  1
  Hf  Hf9  1  0.80070978  -0.00183633  0.00086297  1
  Hf  Hf10  1  0.20165531  0.60228519  0.20345808  1
  Hf  Hf11  1  0.49936890  0.49326599  0.69720809  1
  Hf  Hf12  1  0.40388340  0.81579804  0.20614239  1
  Hf  Hf13  1  0.09835717  0.69433462  0.70009089  1
  Hf  Hf14  1  0.00829657  0.80228403  -0.00538850  1
  Hf  Hf15  1  0.59319243  0.60425926  0.41142812  1
  Hf  Hf16  1  0.00195911  0.61522966  0.20976444  1
  Hf  Hf17  1  0.39838311  0.60034258  0.59167736  1
  Hf  Hf18  1  0.58990642  0.80892812  0.19163831  1
  Hf  Hf19  1  0.69449499  0.70291073  0.29513606  1
  Hf  Hf20  1  0.11769522  0.09023034  0.11227045  1
  Hf  Hf21  1  0.08637773  0.89878312  0.70028075  1
  Hf  Hf22  1  0.69918226  0.90540241  0.89023582  1
  Hf  Hf23  1  0.19984087  0.19801694  0.59174929  1
  Hf  Hf24  1  0.40071405  0.79829564  0.40538082  1
  Hf  Hf25  1  0.19587591  0.80706585  0.80679872  1
  Hf  Hf26  1  0.70135035  0.70870136  0.50729209  1
  Hf  Hf27  1  0.10287496  0.49322470  0.30167501  1
  Hf  Hf28  1  0.09086606  0.30035905  0.89897211  1
  Hf  Hf29  1  0.69626559  0.29301687  0.30307599  1
  Hf  Hf30  1  0.89557899  0.90702438  0.50539097  1
  Hf  Hf31  1  0.69777380  0.50643735  0.90600564  1
  Hf  Hf32  1  0.00512489  -0.00390156  0.00290930  1
  Hf  Hf33  1  0.39868438  0.20455332  0.19928741  1
  Hf  Hf34  1  0.80328342  0.79944314  -0.00367609  1
  Hf  Hf35  1  -0.00143249  0.19346583  0.60189840  1
  Hf  Hf36  1  0.30069191  0.91365851  0.10264141  1
  Hf  Hf37  1  0.48954299  0.09304976  0.09050321  1
  Hf  Hf38  1  0.89551692  0.90339873  0.69471134  1
  Hf  Hf39  1  0.81158635  0.59562528  0.59890701  1
  Hf  Hf40  1  0.60174384  0.38865149  0.00785700  1
  Hf  Hf41  1  0.19808508  0.80666286  -0.00240434  1
  Hf  Hf42  1  0.30277893  0.30124665  0.70264379  1
  Hf  Hf43  1  0.70230298  0.10310346  0.50648829  1
  Hf  Hf44  1  -0.00508754  0.59959007  0.40057188  1
  Hf  Hf45  1  0.68929215  0.49936562  0.29294686  1
  Hf  Hf46  1  0.90731791  0.89942148  0.88120230  1
  Hf  Hf47  1  0.50294952  0.10234492  0.29905407  1
  Hf  Hf48  1  0.19253458  0.41016095  0.79497021  1
  Hf  Hf49  1  0.30073906  0.29715350  0.89805530  1
  Zr  Zr50  1  0.59474980  -0.00296476  0.19364139  1
  Zr  Zr51  1  0.80686527  0.59952886  0.39644123  1
  Zr  Zr52  1  0.71200280  0.91461277  0.30157300  1
  Zr  Zr53  1  0.50119484  0.69687789  0.29848173  1
  Zr  Zr54  1  0.81141113  0.79942931  0.39437441  1
  Zr  Zr55  1  0.20142778  0.59169868  0.59502788  1
  Zr  Zr56  1  0.29891818  0.09516029  0.09890713  1
  Zr  Zr57  1  0.78925391  0.39792743  0.19170922  1
  Zr  Zr58  1  0.00244426  0.58825048  0.79148047  1
  Zr  Zr59  1  0.20459656  0.80296272  0.39828614  1
  Zr  Zr60  1  0.90735003  0.49791764  0.91291532  1
  Zr  Zr61  1  0.10810677  0.29343057  0.30741554  1
  Zr  Zr62  1  0.29944602  0.69772490  0.90571365  1
  Zr  Zr63  1  -0.00208489  0.79637020  0.37867426  1
  Zr  Zr64  1  0.79162096  0.39527925  0.00677187  1
  Zr  Zr65  1  0.81090203  0.39652223  0.79535708  1
  Zr  Zr66  1  0.81222053  0.80339164  0.19781441  1
  Zr  Zr67  1  0.70573686  0.28879273  0.69061386  1
  Zr  Zr68  1  0.29723754  0.50808483  0.90307909  1
  Zr  Zr69  1  0.69814185  0.49902997  0.50444984  1
  Zr  Zr70  1  0.89767158  0.10061472  0.89684872  1
  Zr  Zr71  1  0.09655333  0.70040032  0.50070188  1
  Zr  Zr72  1  0.19462846  0.39955830  0.00939445  1
  Zr  Zr73  1  0.39607714  0.00174085  0.39316765  1
  Zr  Zr74  1  -0.00268725  0.39495763  0.40682517  1
  Zr  Zr75  1  0.19368673  0.01056334  0.60722241  1
  Zr  Zr76  1  0.69578614  0.50035519  0.69593378  1
  Zr  Zr77  1  0.87941349  0.08994106  0.29822207  1
  Zr  Zr78  1  0.38638056  0.19742018  0.40586736  1
  Zr  Zr79  1  0.70365854  0.90471580  0.50662799  1
  Zr  Zr80  1  0.50130055  0.70502316  0.90845514  1
  Zr  Zr81  1  0.30879410  0.09876479  0.90358766  1
  Zr  Zr82  1  -0.00292225  -0.00072986  0.39175072  1
  Zr  Zr83  1  0.40624951  0.78490247  0.60289843  1
  Zr  Zr84  1  0.59827672  0.79764241  0.79673106  1
  Zr  Zr85  1  0.50326131  0.29979439  0.30651235  1
  Zr  Zr86  1  0.10287983  0.09921109  0.90402484  1
  Zr  Zr87  1  0.50244393  0.90903489  0.51095188  1
  Zr  Zr88  1  0.31275352  0.90920455  0.70381842  1
  Zr  Zr89  1  0.00035296  0.19485316  0.20429675  1
  Zr  Zr90  1  0.19104735  0.19325742  0.79002925  1
  Zr  Zr91  1  0.70432108  0.90597545  0.69556091  1
  Zr  Zr92  1  0.60297814  0.39352461  0.80603504  1
  Zr  Zr93  1  0.39766274  0.40184057  0.19958311  1
  Zr  Zr94  1  0.60290528  0.19606228  0.80302212  1
  Zr  Zr95  1  0.50110723  0.49767063  0.30260987  1
  Zr  Zr96  1  0.09066958  0.30815202  0.69059627  1
  Zr  Zr97  1  0.20820724  0.79708099  0.59862183  1
  Zr  Zr98  1  0.80011677  0.20486750  0.40896284  1
  Zr  Zr99  1  0.90982711  0.49985728  0.10028539  1
  Ta  Ta100  1  0.49436995  0.29444690  0.90041515  1
  Ta  Ta101  1  0.69483253  0.10301145  0.29989462  1
  Ta  Ta102  1  0.40224277  0.40133741  0.80433970  1
  Ta  Ta103  1  0.39755203  0.60379484  0.19887897  1
  Ta  Ta104  1  0.90663913  0.69892299  0.89718084  1
  Ta  Ta105  1  0.80172167  0.79101173  0.79781335  1
  Ta  Ta106  1  0.10838374  0.90421434  0.10648503  1
  Ta  Ta107  1  0.90499224  0.70475046  0.69647400  1
  Ta  Ta108  1  0.29725351  0.68783453  0.71266217  1
  Ta  Ta109  1  0.30416187  0.70548121  0.10320768  1
  Ta  Ta110  1  0.19795371  -0.00191772  0.80216034  1
  Ta  Ta111  1  0.59994094  -0.00086724  -0.00298057  1
  Ta  Ta112  1  0.60550821  0.39296533  0.41100478  1
  Ta  Ta113  1  0.20288505  0.80090477  0.20654720  1
  Ta  Ta114  1  0.59885001  0.20111811  0.18725283  1
  Ta  Ta115  1  0.29570051  0.30071862  0.10534058  1
  Ta  Ta116  1  0.30239254  0.69908198  0.29996747  1
  Ta  Ta117  1  0.60010343  0.00374257  0.40019872  1
  Ta  Ta118  1  0.50257537  0.91712803  0.70478770  1
  Ta  Ta119  1  0.50001296  0.49958258  0.90505704  1
  Ta  Ta120  1  0.59833209  0.60723699  0.00298171  1
  Ta  Ta121  1  0.70693113  0.09579716  0.70054611  1
  Ta  Ta122  1  0.89872830  0.49047155  0.29744668  1
  Ta  Ta123  1  0.80623543  0.39344961  0.59508294  1
  Ta  Ta124  1  0.89268028  0.29054146  0.10103222  1
  Ta  Ta125  1  0.49501190  0.29540633  0.70278946  1
  Ta  Ta126  1  0.09646701  0.09991561  0.49266598  1
  Ta  Ta127  1  0.40411671  0.60142700  0.00954568  1
  Ta  Ta128  1  0.20008272  0.00189831  0.39957405  1
  Ta  Ta129  1  0.70253577  0.69912376  0.69642228  1
  Ta  Ta130  1  0.59661881  0.60372074  0.80073146  1
  Ta  Ta131  1  0.31194281  0.09846720  0.70606108  1
  Ta  Ta132  1  0.59660130  0.38770338  0.59411758  1
  Ta  Ta133  1  0.59114593  0.79293500  0.60666373  1
  Ta  Ta134  1  0.49781841  0.09832474  0.89862667  1
  Ta  Ta135  1  0.20382339  0.59807249  0.39732752  1
  Ta  Ta136  1  0.40597515  0.59589214  0.79979371  1
  Ta  Ta137  1  0.29953899  0.49967705  0.70120520  1
  Ta  Ta138  1  0.90124936  0.29434759  0.90431898  1
  Ta  Ta139  1  0.09299342  0.90710278  0.50215557  1
  Ta  Ta140  1  0.69101413  0.70672255  0.09406268  1
  Ta  Ta141  1  0.80769176  0.19840635  0.79681740  1
  Ta  Ta142  1  0.28749942  0.30302682  0.30219693  1
  Ta  Ta143  1  0.30045071  0.50464397  0.10123458  1
  Ta  Ta144  1  0.90030019  0.29694104  0.50840690  1
  Ta  Ta145  1  0.40253582  0.39975731  0.00399556  1
  Ta  Ta146  1  0.89450311  0.30028336  0.29825284  1
  Ta  Ta147  1  0.49770078  0.49267293  0.49821993  1
  Ta  Ta148  1  0.19706867  0.20775108  0.00945073  1
  Ta  Ta149  1  -0.00115383  -0.00535753  0.20240771  1
  Ti  Ti150  1  0.91752042  0.49220406  0.67927951  1
  Ti  Ti151  1  0.90224409  0.70335889  0.50805337  1
  Ti  Ti152  1  0.79239387  0.19885176  0.19450848  1
  Ti  Ti153  1  0.50402787  0.10263583  0.49714693  1
  Ti  Ti154  1  0.90760814  0.90160598  0.10532048  1
  Ti  Ti155  1  0.89219874  0.09777845  0.10425010  1
  Ti  Ti156  1  0.60189611  0.19769548  0.00226289  1
  Ti  Ti157  1  0.19303028  0.40092858  0.59152446  1
  Ti  Ti158  1  0.69806931  0.89856257  0.09375306  1
  Ti  Ti159  1  0.59526175  0.20128625  0.59801687  1
  Ti  Ti160  1  0.27611497  0.30352335  0.48366720  1
  Ti  Ti161  1  0.20227454  0.40128228  0.19996007  1
  Ti  Ti162  1  0.28905618  0.10009679  0.29029969  1
  Ti  Ti163  1  0.40084893  0.21006264  0.00368160  1
  Ti  Ti164  1  0.09821562  0.49913064  0.10541515  1
  Ti  Ti165  1  0.00731841  0.61086152  0.00842939  1
  Ti  Ti166  1  0.89316460  0.09223088  0.69488690  1
  Ti  Ti167  1  0.50097485  0.90982514  0.90055484  1
  Ti  Ti168  1  0.09180050  0.49550110  0.50576221  1
  Ti  Ti169  1  0.10256663  0.71260007  0.10912619  1
  Ti  Ti170  1  0.60402168  0.38590494  0.18628142  1
  Ti  Ti171  1  -0.00656191  0.19971742  0.79059053  1
  Ti  Ti172  1  0.70069021  0.70127797  0.90171573  1
  Ti  Ti173  1  0.59102750  0.80832259  0.40186767  1
  Ti  Ti174  1  -0.00312702  0.19847987  0.40269022  1
  Ti  Ti175  1  0.70387104  0.09998206  0.09776163  1
  Ti  Ti176  1  0.70198442  0.09666109  0.89571234  1
  Ti  Ti177  1  0.10286647  0.90029384  0.29340510  1
  Ti  Ti178  1  -0.00014307  0.38963102  0.19734235  1
  Ti  Ti179  1  0.00393687  0.38703340  0.01626344  1
  Ti  Ti180  1  0.49671150  0.09985310  0.70812047  1
  Ti  Ti181  1  0.79862235  0.39826514  0.40578201  1
  Ti  Ti182  1  0.90610760  0.70623805  0.09752497  1
  Ti  Ti183  1  0.79790604  0.60630565  0.00460476  1
  Ti  Ti184  1  0.19620593  0.60780566  0.01167166  1
  Ti  Ti185  1  0.58732423  0.60801038  0.60135938  1
  Ti  Ti186  1  -0.00439717  0.39990434  0.79266339  1
  Ti  Ti187  1  0.00729469  0.01156158  0.79249563  1
  Ti  Ti188  1  0.89585063  0.09357572  0.50582517  1
  Ti  Ti189  1  0.50490248  0.29469704  0.49409539  1
  Ti  Ti190  1  0.30884495  0.91072124  0.90490295  1
  Ti  Ti191  1  0.59629913  0.01144913  0.60592759  1
  Ti  Ti192  1  0.71088821  0.28483139  0.90658873  1
  Ti  Ti193  1  -0.00177682  0.79904348  0.59693858  1
  Ti  Ti194  1  0.41027298  0.80674521  0.01007596  1
  Ti  Ti195  1  0.10787645  0.10117570  0.30158748  1
  Ti  Ti196  1  0.39375132  0.59896306  0.40273873  1
  Ti  Ti197  1  0.39164884  0.40063584  0.39804598  1
  Ti  Ti198  1  0.29593108  0.49471746  0.49027293  1
  Ti  Ti199  1  0.09901591  0.69478025  0.89297805  1
  Mo  Mo200  1  0.19989839  -0.00911613  -0.01371567  1
  Mo  Mo201  1  0.10021138  0.49695898  0.68887206  1
  Mo  Mo202  1  0.49540754  0.70441814  0.09831288  1
  Mo  Mo203  1  0.49884991  0.90324400  0.08528847  1
  Mo  Mo204  1  -0.00084524  0.00469384  0.59622540  1
  Mo  Mo205  1  -0.00097547  0.39777699  0.59210840  1
  Mo  Mo206  1  0.40615636  -0.00650737  -0.00594730  1
  Mo  Mo207  1  0.60327645  0.80614150  -0.00026151  1
  Mo  Mo208  1  0.70088971  0.29825962  0.50393526  1
  Mo  Mo209  1  0.19933210  -0.00534312  0.21785362  1
  Mo  Mo210  1  0.29187768  0.10016884  0.49911141  1
  Mo  Mo211  1  0.90396564  0.90378669  0.28821816  1
  Mo  Mo212  1  0.09439762  0.09700690  0.69990269  1
  Mo  Mo213  1  0.00861485  0.80491777  0.19248578  1
  Mo  Mo214  1  0.80885247  0.19859406  0.60517140  1
  Mo  Mo215  1  0.09745840  0.29349136  0.49747528  1
  Mo  Mo216  1  0.20147592  0.59760439  0.79890519  1
  Mo  Mo217  1  0.19683508  0.18925858  0.39947735  1
  Mo  Mo218  1  0.79925419  0.00233261  0.18477493  1
  Mo  Mo219  1  -0.00257721  0.59650800  0.59425305  1
  Mo  Mo220  1  -0.00138375  0.79066407  0.79917575  1
  Mo  Mo221  1  0.79909473  0.00696287  0.79751598  1
  Mo  Mo222  1  0.89900493  0.48982903  0.49818200  1
  Mo  Mo223  1  0.30362186  0.68975646  0.48948195  1
  Mo  Mo224  1  0.68993181  0.51815705  0.09904920  1
  Mo  Mo225  1  0.59833582  0.00732620  0.80232412  1
  Mo  Mo226  1  0.10174176  0.30025663  0.10943809  1
  Mo  Mo227  1  0.50215748  0.69622969  0.50027697  1
  Mo  Mo228  1  0.49816867  0.29562507  0.09181807  1
  Mo  Mo229  1  0.50308817  0.90578938  0.31123697  1
  Mo  Mo230  1  0.20434874  0.20207891  0.20312562  1
  Mo  Mo231  1  0.39774566  -0.00028341  0.20500695  1
  Mo  Mo232  1  0.30010484  0.50095072  0.30156072  1
  Mo  Mo233  1  0.90142705  0.29900798  0.70205339  1
  Mo  Mo234  1  0.79513690  0.00493456  0.40456346  1
  Mo  Mo235  1  0.10965138  0.70081830  0.29893691  1
  Mo  Mo236  1  0.80239346  0.00833102  0.60089824  1
  Mo  Mo237  1  0.29932647  0.90368700  0.29955915  1
  Mo  Mo238  1  0.69937532  0.27716857  0.09616989  1
  Mo  Mo239  1  0.79906482  0.19344169  -0.00201984  1
  Mo  Mo240  1  0.80189084  0.79191919  0.60512401  1
  Mo  Mo241  1  0.40524310  0.00251830  0.80313945  1
  Mo  Mo242  1  0.19909411  0.40948505  0.40490869  1
  Mo  Mo243  1  0.40931266  0.01784619  0.60300712  1
  Mo  Mo244  1  0.50047542  0.68962377  0.70283183  1
  Mo  Mo245  1  0.59965391  0.19724348  0.40569007  1
  Mo  Mo246  1  0.59873293  0.60987510  0.19105730  1
  Mo  Mo247  1  0.89853001  0.69631845  0.29342193  1
  Mo  Mo248  1  0.09929001  0.90540195  0.89515867  1
  Mo  Mo249  1  0.40602256  0.20228085  0.79893982  1
