# generated using pymatgen
data_HfZrTaTiMo
_symmetry_space_group_name_H-M   'P 1'
_cell_length_a   16.89031174
_cell_length_b   16.89370908
_cell_length_c   16.88575852
_cell_angle_alpha   90.04087646
_cell_angle_beta   90.04312226
_cell_angle_gamma   90.02375004
_symmetry_Int_Tables_number   1
_chemical_formula_structural   HfZrTaTiMo
_chemical_formula_sum   'Hf50 Zr50 Ta50 Ti50 Mo50'
_cell_volume   4818.17954796
_cell_formula_units_Z   50
loop_
 _symmetry_equiv_pos_site_id
 _symmetry_equiv_pos_as_xyz
  1  'x, y, z'
loop_
 _atom_site_type_symbol
 _atom_site_label
 _atom_site_symmetry_multiplicity
 _atom_site_fract_x
 _atom_site_fract_y
 _atom_site_fract_z
 _atom_site_occupancy
  Hf  Hf0  1  0.40315049  0.20211924  0.80120401  1
  Hf  Hf1  1  0.81469942  0.01246124  -0.00169283  1
  Hf  Hf2  1  0.19866326  -0.00130819  0.80179124  1
  Hf  Hf3  1  0.69586998  0.09241342  0.50278788  1
  Hf  Hf4  1  0.59204421  0.19606149  0.80542111  1
  Hf  Hf5  1  0.19948470  0.39779321  0.00477166  1
  Hf  Hf6  1  0.80248090  0.59807486  -0.00216891  1
  Hf  Hf7  1  0.80661008  0.38924154  0.00887502  1
  Hf  Hf8  1  0.10578058  0.90153089  0.30126606  1
  Hf  Hf9  1  0.81417282  0.01501625  0.40037148  1
  Hf  Hf10  1  0.00338313  0.59506269  0.20725058  1
  Hf  Hf11  1  0.20747391  0.79536942  -0.00098242  1
  Hf  Hf12  1  0.70290144  0.51251441  0.51051484  1
  Hf  Hf13  1  0.00091805  0.00640566  0.80466348  1
  Hf  Hf14  1  0.39950005  0.00331333  0.00164336  1
  Hf  Hf15  1  0.89663342  0.10344526  0.69275179  1
  Hf  Hf16  1  0.90216574  0.49058963  0.89635245  1
  Hf  Hf17  1  0.29813629  0.90420839  0.49564915  1
  Hf  Hf18  1  0.09212243  0.31381376  0.70936169  1
  Hf  Hf19  1  0.40255033  0.00124006  0.80136423  1
  Hf  Hf20  1  0.40361090  0.80139840  0.59568729  1
  Hf  Hf21  1  0.29387733  0.30248756  0.89907277  1
  Hf  Hf22  1  0.00260571  0.78499585  -0.01174604  1
  Hf  Hf23  1  0.38818091  0.59984596  0.58235770  1
  Hf  Hf24  1  0.79835104  0.20912956  0.58890338  1
  Hf  Hf25  1  0.00402655  0.01130905  -0.00495293  1
  Hf  Hf26  1  0.70033348  0.90357770  0.89396434  1
  Hf  Hf27  1  0.69769913  0.90609712  0.50955160  1
  Hf  Hf28  1  0.29082317  0.47534218  0.48237997  1
  Hf  Hf29  1  0.10424028  0.89728082  0.10153108  1
  Hf  Hf30  1  0.50023357  0.30575601  0.11105714  1
  Hf  Hf31  1  0.31217806  0.69353336  0.10310971  1
  Hf  Hf32  1  0.60430571  0.20268118  0.40988094  1
  Hf  Hf33  1  0.39117277  0.60392687  0.38959149  1
  Hf  Hf34  1  0.70080900  0.10871700  0.10346925  1
  Hf  Hf35  1  0.80473170  0.19995198  0.80659729  1
  Hf  Hf36  1  0.50165893  0.49539854  0.49441721  1
  Hf  Hf37  1  0.00699721  0.59715563  -0.00443676  1
  Hf  Hf38  1  0.69375714  0.68629175  0.68120929  1
  Hf  Hf39  1  0.00533240  0.79868252  0.59810760  1
  Hf  Hf40  1  0.49639208  0.50459165  0.69585008  1
  Hf  Hf41  1  0.59726006  0.59075085  0.19434205  1
  Hf  Hf42  1  0.70504798  0.69680686  0.87992100  1
  Hf  Hf43  1  0.70396146  0.69160182  0.30336181  1
  Hf  Hf44  1  0.10489673  0.48397675  0.88588803  1
  Hf  Hf45  1  0.30295077  0.69047190  0.70183916  1
  Hf  Hf46  1  0.89116599  0.69346370  0.69425682  1
  Hf  Hf47  1  0.11035467  0.67031855  0.69058255  1
  Hf  Hf48  1  0.91154643  0.90122332  0.30902669  1
  Hf  Hf49  1  0.69662210  0.30023047  0.70159097  1
  Zr  Zr50  1  0.59418585  0.79393077  -0.00492643  1
  Zr  Zr51  1  0.59891109  0.40461570  0.00731270  1
  Zr  Zr52  1  0.19870291  0.21002011  0.20620766  1
  Zr  Zr53  1  0.49298402  0.70105897  0.28277036  1
  Zr  Zr54  1  0.29635939  0.10088457  0.50390691  1
  Zr  Zr55  1  0.39259063  0.38819489  0.60116290  1
  Zr  Zr56  1  -0.00262794  0.00956840  0.20116679  1
  Zr  Zr57  1  0.11130308  0.69342963  0.10842297  1
  Zr  Zr58  1  0.79819763  0.80558065  0.20627449  1
  Zr  Zr59  1  0.00123648  0.20473498  0.58830963  1
  Zr  Zr60  1  0.59118251  0.80342955  0.78526649  1
  Zr  Zr61  1  0.40436359  0.20159289  -0.00368908  1
  Zr  Zr62  1  0.39413606  0.20569868  0.40441070  1
  Zr  Zr63  1  0.69535919  0.69675525  0.10355489  1
  Zr  Zr64  1  0.12139244  0.68816233  0.88734614  1
  Zr  Zr65  1  0.39184503  0.00370858  0.20141555  1
  Zr  Zr66  1  0.90663630  0.89708413  0.10134792  1
  Zr  Zr67  1  0.30024125  0.10597628  0.69869201  1
  Zr  Zr68  1  0.69202917  0.91293415  0.31022224  1
  Zr  Zr69  1  0.38457875  0.20519782  0.21749923  1
  Zr  Zr70  1  0.40116443  0.01115175  0.39597961  1
  Zr  Zr71  1  0.90791847  0.49186485  0.10528299  1
  Zr  Zr72  1  0.00442066  0.00300558  0.59272182  1
  Zr  Zr73  1  0.20025959  0.39515695  0.20088003  1
  Zr  Zr74  1  0.59123640  0.00024788  0.79859989  1
  Zr  Zr75  1  0.00880652  0.78781084  0.40615606  1
  Zr  Zr76  1  0.20036262  0.21442265  0.59315976  1
  Zr  Zr77  1  0.59419915  -0.00219250  0.19956647  1
  Zr  Zr78  1  0.69625811  0.91059900  0.09147228  1
  Zr  Zr79  1  0.00844572  0.79720055  0.78974898  1
  Zr  Zr80  1  0.59306904  0.79357536  0.40987144  1
  Zr  Zr81  1  0.50369715  0.10872584  0.10655716  1
  Zr  Zr82  1  0.19630780  0.80411886  0.59658660  1
  Zr  Zr83  1  0.90230844  0.69699048  0.11157236  1
  Zr  Zr84  1  0.80077443  0.39635255  0.40892217  1
  Zr  Zr85  1  -0.00522783  0.59381215  0.79696348  1
  Zr  Zr86  1  0.69670688  0.30082941  0.30177092  1
  Zr  Zr87  1  0.20344079  0.60123654  0.40044330  1
  Zr  Zr88  1  0.69898144  0.49573975  0.89473523  1
  Zr  Zr89  1  0.80396474  0.79090351  -0.00711544  1
  Zr  Zr90  1  0.00312876  0.59311987  0.40430114  1
  Zr  Zr91  1  0.59529484  0.60557409  0.40472600  1
  Zr  Zr92  1  0.88413851  0.90141622  0.69578499  1
  Zr  Zr93  1  0.70002303  0.30088789  0.90271410  1
  Zr  Zr94  1  0.20355724  0.80742814  0.79068031  1
  Zr  Zr95  1  0.10317708  0.11366091  0.70704806  1
  Zr  Zr96  1  0.89684152  0.89035451  0.88976858  1
  Zr  Zr97  1  0.70112860  0.09117925  0.69513180  1
  Zr  Zr98  1  0.79823562  0.79549477  0.40809117  1
  Zr  Zr99  1  0.19302858  0.21032183  0.39698827  1
  Ta  Ta100  1  0.89586688  0.68917968  0.30715379  1
  Ta  Ta101  1  0.49603572  0.10372073  0.69172369  1
  Ta  Ta102  1  0.80383198  0.39567245  0.20648992  1
  Ta  Ta103  1  0.31226278  0.69446031  0.89611901  1
  Ta  Ta104  1  0.59264551  0.59635952  0.79683957  1
  Ta  Ta105  1  0.80879742  0.20198506  0.40148644  1
  Ta  Ta106  1  0.20013156  0.00134966  0.00046844  1
  Ta  Ta107  1  0.49812027  0.49146488  0.29740090  1
  Ta  Ta108  1  0.21011484  0.58880264  -0.00141356  1
  Ta  Ta109  1  0.50248565  0.30567146  0.49680835  1
  Ta  Ta110  1  0.50612619  0.30727856  0.30354879  1
  Ta  Ta111  1  0.69830399  0.49646274  0.30751664  1
  Ta  Ta112  1  0.70233918  0.29322568  0.10942754  1
  Ta  Ta113  1  0.39529597  0.79504621  0.40111114  1
  Ta  Ta114  1  0.30923880  0.49796094  0.09993624  1
  Ta  Ta115  1  0.20609477  0.79181723  0.39936549  1
  Ta  Ta116  1  0.50225822  0.90574117  0.49778122  1
  Ta  Ta117  1  0.89043248  0.68424048  0.50620976  1
  Ta  Ta118  1  0.49660748  0.31543765  0.89860629  1
  Ta  Ta119  1  0.51285636  0.10743906  0.30399726  1
  Ta  Ta120  1  0.59215933  0.59852081  -0.00479657  1
  Ta  Ta121  1  -0.00603474  0.19916133  0.39952007  1
  Ta  Ta122  1  0.10481824  0.90026211  0.90289277  1
  Ta  Ta123  1  0.00151052  0.20610737  0.00186377  1
  Ta  Ta124  1  0.49223062  0.50119055  0.89882962  1
  Ta  Ta125  1  0.79994426  0.58617174  0.20795106  1
  Ta  Ta126  1  0.19032107  -0.00251770  0.60009316  1
  Ta  Ta127  1  0.48906601  0.50061480  0.10001683  1
  Ta  Ta128  1  0.29066563  0.10570977  0.90352847  1
  Ta  Ta129  1  -0.00211777  0.39953027  0.40113486  1
  Ta  Ta130  1  0.29652681  0.89902650  0.30227372  1
  Ta  Ta131  1  0.80793638  0.39690775  0.78684094  1
  Ta  Ta132  1  0.49133205  0.69736108  0.09493082  1
  Ta  Ta133  1  0.59620508  0.20313135  -0.00130957  1
  Ta  Ta134  1  0.38846582  0.41237253  0.79941971  1
  Ta  Ta135  1  0.09433342  0.10159202  0.30003980  1
  Ta  Ta136  1  0.59255254  0.20406209  0.59813890  1
  Ta  Ta137  1  0.30527459  0.89570566  0.90449658  1
  Ta  Ta138  1  0.10315059  0.11190961  0.10039967  1
  Ta  Ta139  1  0.49379043  0.89703443  0.90610645  1
  Ta  Ta140  1  0.90039823  0.90417394  0.50193522  1
  Ta  Ta141  1  0.60478475  0.39713555  0.59835206  1
  Ta  Ta142  1  0.69561360  0.09863093  0.91250889  1
  Ta  Ta143  1  0.49773379  0.69478778  0.69307505  1
  Ta  Ta144  1  0.10235352  0.49256964  0.30019540  1
  Ta  Ta145  1  0.80128219  0.40111749  0.60675322  1
  Ta  Ta146  1  0.28809385  0.10682758  0.09582639  1
  Ta  Ta147  1  0.00884911  0.38863580  0.00410184  1
  Ta  Ta148  1  0.49544124  0.90069947  0.30621846  1
  Ta  Ta149  1  0.81053768  0.20129430  0.21161360  1
  Ti  Ti150  1  0.69712569  0.10340513  0.29998241  1
  Ti  Ti151  1  0.90604112  0.30983069  0.50370598  1
  Ti  Ti152  1  0.10895706  0.11444775  0.90471192  1
  Ti  Ti153  1  0.21522200  0.59152374  0.20762522  1
  Ti  Ti154  1  0.29092099  0.30263622  0.70988823  1
  Ti  Ti155  1  0.59820747  0.40708888  0.79429687  1
  Ti  Ti156  1  0.39996065  0.59515646  -0.00630127  1
  Ti  Ti157  1  0.39562114  0.80775591  0.20091530  1
  Ti  Ti158  1  0.80275547  0.01084549  0.80736857  1
  Ti  Ti159  1  0.40350043  0.20630476  0.59606661  1
  Ti  Ti160  1  0.19979534  0.40743583  0.61050286  1
  Ti  Ti161  1  0.30002103  0.89932861  0.09753873  1
  Ti  Ti162  1  0.20272703  0.00519064  0.19836631  1
  Ti  Ti163  1  0.39202929  0.40279916  0.20754359  1
  Ti  Ti164  1  0.09881465  0.90780100  0.48844442  1
  Ti  Ti165  1  0.00433906  0.79289235  0.20746377  1
  Ti  Ti166  1  0.89969238  0.49370321  0.30458392  1
  Ti  Ti167  1  0.40499944  0.00096091  0.59926098  1
  Ti  Ti168  1  0.90794009  0.30398495  0.89710602  1
  Ti  Ti169  1  0.29864618  0.33249132  0.32930779  1
  Ti  Ti170  1  0.70388203  0.49596772  0.10351975  1
  Ti  Ti171  1  0.10021375  0.31667453  0.49929728  1
  Ti  Ti172  1  0.49628592  0.89338727  0.09415444  1
  Ti  Ti173  1  0.90618464  0.11429860  0.10658460  1
  Ti  Ti174  1  0.07898394  0.30449860  0.29227291  1
  Ti  Ti175  1  0.21024742  0.79651881  0.20656255  1
  Ti  Ti176  1  0.79611053  0.58008502  0.78215236  1
  Ti  Ti177  1  0.80943613  0.20275081  0.00197832  1
  Ti  Ti178  1  0.49030844  0.69794605  0.89446626  1
  Ti  Ti179  1  0.80641690  0.00921923  0.20517003  1
  Ti  Ti180  1  0.10626277  0.68604768  0.50905505  1
  Ti  Ti181  1  0.90182893  0.50183216  0.50802632  1
  Ti  Ti182  1  0.60538204  0.40381762  0.20168364  1
  Ti  Ti183  1  0.49970237  0.30361440  0.70273453  1
  Ti  Ti184  1  0.10329693  0.49564652  0.10642116  1
  Ti  Ti185  1  0.91260944  0.29761571  0.11742556  1
  Ti  Ti186  1  0.19604617  0.00857252  0.39831906  1
  Ti  Ti187  1  0.09493428  0.49753575  0.51515133  1
  Ti  Ti188  1  0.30498078  0.30061934  0.09309646  1
  Ti  Ti189  1  0.10483390  0.29556950  0.89473981  1
  Ti  Ti190  1  0.30396109  0.90558718  0.69661879  1
  Ti  Ti191  1  0.58586238  -0.00204739  0.60296147  1
  Ti  Ti192  1  0.79391964  0.79546901  0.59380799  1
  Ti  Ti193  1  0.40311957  0.80494433  0.79480574  1
  Ti  Ti194  1  -0.00676651  0.20335616  0.80719363  1
  Ti  Ti195  1  0.10741160  0.69546004  0.29682951  1
  Ti  Ti196  1  0.59669406  0.80394400  0.19800978  1
  Ti  Ti197  1  0.91807983  0.48776212  0.68991006  1
  Ti  Ti198  1  0.22385159  0.57050359  0.79658107  1
  Ti  Ti199  1  0.70200684  0.89908884  0.69277558  1
  Mo  Mo200  1  0.59450857  0.80108742  0.59732610  1
  Mo  Mo201  1  0.09239693  0.29937518  0.10122825  1
  Mo  Mo202  1  0.40325441  0.60012730  0.80301350  1
  Mo  Mo203  1  0.30041127  0.49877221  0.29511315  1
  Mo  Mo204  1  0.90143349  0.30146837  0.30473653  1
  Mo  Mo205  1  0.90164044  0.10488515  0.49690481  1
  Mo  Mo206  1  0.58756247  0.60206058  0.59855082  1
  Mo  Mo207  1  0.19475308  0.20223419  0.00288108  1
  Mo  Mo208  1  0.41450807  0.39942058  0.39633934  1
  Mo  Mo209  1  0.70346190  0.69819648  0.50720843  1
  Mo  Mo210  1  0.60298341  0.40077926  0.40261793  1
  Mo  Mo211  1  0.69273572  0.49541272  0.69948955  1
  Mo  Mo212  1  0.80292286  -0.00208406  0.59394815  1
  Mo  Mo213  1  0.88260942  0.69054235  0.87978630  1
  Mo  Mo214  1  0.10463455  0.49365396  0.69541963  1
  Mo  Mo215  1  0.30468662  0.49827482  0.90646003  1
  Mo  Mo216  1  0.90165367  0.11554066  0.90239735  1
  Mo  Mo217  1  0.39854188  0.40280988  -0.00037046  1
  Mo  Mo218  1  -0.00149272  0.40048547  0.20410104  1
  Mo  Mo219  1  0.49866703  0.70435517  0.50625644  1
  Mo  Mo220  1  0.49346060  0.90301394  0.69273522  1
  Mo  Mo221  1  0.30068470  0.49779804  0.69289564  1
  Mo  Mo222  1  0.40062330  0.59018888  0.19662633  1
  Mo  Mo223  1  0.50254177  0.09729229  0.90349524  1
  Mo  Mo224  1  0.00663539  0.00754509  0.40285970  1
  Mo  Mo225  1  0.28298390  0.08808048  0.29549016  1
  Mo  Mo226  1  0.90380848  0.10804040  0.29993056  1
  Mo  Mo227  1  0.89999896  0.30298295  0.69973141  1
  Mo  Mo228  1  0.59163906  0.00411375  -0.00353144  1
  Mo  Mo229  1  -0.00169465  0.40089704  0.59459412  1
  Mo  Mo230  1  -0.00433865  0.39308719  0.80297139  1
  Mo  Mo231  1  0.29755150  0.70784667  0.49786842  1
  Mo  Mo232  1  0.20319834  0.58677516  0.59473675  1
  Mo  Mo233  1  0.09833562  0.09705039  0.48849681  1
  Mo  Mo234  1  0.10194081  0.91090834  0.70390077  1
  Mo  Mo235  1  0.17570330  0.40059228  0.39824217  1
  Mo  Mo236  1  0.29856638  0.70664526  0.29310211  1
  Mo  Mo237  1  0.50018542  0.10353051  0.50848930  1
  Mo  Mo238  1  0.19927234  0.20355099  0.80592837  1
  Mo  Mo239  1  0.59288044  0.00611683  0.40129073  1
  Mo  Mo240  1  0.69780115  0.30411493  0.50613142  1
  Mo  Mo241  1  0.80848924  0.58626532  0.60275864  1
  Mo  Mo242  1  0.39948303  0.79954426  -0.00203661  1
  Mo  Mo243  1  0.29754955  0.30340795  0.50203519  1
  Mo  Mo244  1  0.60622963  0.20496256  0.20528939  1
  Mo  Mo245  1  0.80450043  0.59343355  0.40168765  1
  Mo  Mo246  1  -0.00011780  0.59222767  0.59665301  1
  Mo  Mo247  1  0.00061364  0.20294134  0.20162425  1
  Mo  Mo248  1  0.79058760  0.79671142  0.78705505  1
  Mo  Mo249  1  0.20542440  0.39811616  0.79793794  1
