# generated using pymatgen
data_HfZrTaTiMo
_symmetry_space_group_name_H-M   'P 1'
_cell_length_a   16.88972898
_cell_length_b   16.89109488
_cell_length_c   16.88524401
_cell_angle_alpha   89.99600698
_cell_angle_beta   90.00159581
_cell_angle_gamma   89.98759271
_symmetry_Int_Tables_number   1
_chemical_formula_structural   HfZrTaTiMo
_chemical_formula_sum   'Hf50 Zr50 Ta50 Ti50 Mo50'
_cell_volume   4817.12384483
_cell_formula_units_Z   50
loop_
 _symmetry_equiv_pos_site_id
 _symmetry_equiv_pos_as_xyz
  1  'x, y, z'
loop_
 _atom_site_type_symbol
 _atom_site_label
 _atom_site_symmetry_multiplicity
 _atom_site_fract_x
 _atom_site_fract_y
 _atom_site_fract_z
 _atom_site_occupancy
  Hf  Hf0  1  0.61078161  0.00122495  0.00097142  1
  Hf  Hf1  1  0.60242756  0.80784107  0.00226072  1
  Hf  Hf2  1  0.31069625  0.08851374  0.10074084  1
  Hf  Hf3  1  0.10464345  0.09534461  0.89405497  1
  Hf  Hf4  1  0.59308774  0.39572062  0.80574230  1
  Hf  Hf5  1  0.60471414  0.39546085  0.19950429  1
  Hf  Hf6  1  -0.00030880  -0.00182662  0.20315278  1
  Hf  Hf7  1  0.89843696  0.08566916  0.50053794  1
  Hf  Hf8  1  0.10997403  0.49236058  0.90899348  1
  Hf  Hf9  1  0.30862311  0.89115856  0.08357192  1
  Hf  Hf10  1  0.60255819  0.60685291  -0.00116433  1
  Hf  Hf11  1  0.20349480  0.19594134  0.00520771  1
  Hf  Hf12  1  0.20291156  -0.00787663  -0.00572256  1
  Hf  Hf13  1  0.50337426  0.50968423  0.30675391  1
  Hf  Hf14  1  -0.01163982  0.20302121  0.80714816  1
  Hf  Hf15  1  0.70485878  0.11367331  0.10210649  1
  Hf  Hf16  1  0.89783615  0.71538175  0.90364841  1
  Hf  Hf17  1  0.19974007  0.80866717  0.60131069  1
  Hf  Hf18  1  0.10242187  0.29841027  0.70536265  1
  Hf  Hf19  1  -0.00464464  0.79979243  0.20089948  1
  Hf  Hf20  1  0.19773605  0.19722428  0.40074313  1
  Hf  Hf21  1  0.40590718  0.79627117  0.19898118  1
  Hf  Hf22  1  -0.01121005  0.39511421  0.58920135  1
  Hf  Hf23  1  0.10314719  0.09496926  0.70737098  1
  Hf  Hf24  1  0.30177066  0.49150159  0.08080470  1
  Hf  Hf25  1  0.70627954  0.71434418  0.11282045  1
  Hf  Hf26  1  0.70140087  0.49525409  0.09595454  1
  Hf  Hf27  1  0.80321341  0.39717119  0.39807363  1
  Hf  Hf28  1  0.70177676  0.30202230  0.70816702  1
  Hf  Hf29  1  0.90173711  0.90117966  0.69471724  1
  Hf  Hf30  1  0.88428103  0.30687461  0.70458744  1
  Hf  Hf31  1  0.30022572  0.90221301  0.49587153  1
  Hf  Hf32  1  0.70207393  0.51238709  0.29924307  1
  Hf  Hf33  1  0.89733035  0.09364780  0.70138533  1
  Hf  Hf34  1  0.09411251  0.70569938  0.69775569  1
  Hf  Hf35  1  0.40212702  0.40080696  0.79627271  1
  Hf  Hf36  1  0.50451781  0.10456676  0.89562759  1
  Hf  Hf37  1  0.88696141  0.49093499  0.90361132  1
  Hf  Hf38  1  0.69869768  0.49789280  0.69729604  1
  Hf  Hf39  1  0.29958424  0.70449090  0.70381290  1
  Hf  Hf40  1  0.21068185  0.19764039  0.60692941  1
  Hf  Hf41  1  0.89882909  0.70534863  0.69131452  1
  Hf  Hf42  1  0.20313556  0.60352234  0.19253414  1
  Hf  Hf43  1  -0.00435986  0.19972918  0.39981349  1
  Hf  Hf44  1  -0.00532409  0.20176329  0.59784206  1
  Hf  Hf45  1  0.19996209  0.59724227  0.59755980  1
  Hf  Hf46  1  0.11085835  0.30054674  0.89726789  1
  Hf  Hf47  1  0.19799938  0.39690570  0.19977813  1
  Hf  Hf48  1  -0.00928178  0.39690422  0.39727902  1
  Hf  Hf49  1  0.49626966  0.70786720  0.89723523  1
  Zr  Zr50  1  0.19497202  0.59231254  0.39995075  1
  Zr  Zr51  1  0.70385910  0.08636738  0.49196137  1
  Zr  Zr52  1  0.30756738  0.09810341  0.49531761  1
  Zr  Zr53  1  0.49303835  0.49748465  0.91227904  1
  Zr  Zr54  1  0.41227487  0.79944478  0.40555208  1
  Zr  Zr55  1  -0.00783017  0.39098046  0.00337405  1
  Zr  Zr56  1  0.29632215  0.89472815  0.29955939  1
  Zr  Zr57  1  0.20245834  0.79215414  0.18962020  1
  Zr  Zr58  1  0.90145387  0.90572216  0.08827127  1
  Zr  Zr59  1  0.48775498  0.91099836  0.89981724  1
  Zr  Zr60  1  0.30870973  0.09179320  0.29708225  1
  Zr  Zr61  1  0.18905853  -0.00242660  0.40086478  1
  Zr  Zr62  1  0.31436484  0.49532637  0.49400821  1
  Zr  Zr63  1  0.60524005  0.80073477  0.40354382  1
  Zr  Zr64  1  0.09510496  0.69857252  0.29992832  1
  Zr  Zr65  1  0.09466265  0.50283529  0.10306650  1
  Zr  Zr66  1  0.88938867  0.08790500  0.91299157  1
  Zr  Zr67  1  0.88569931  0.09313142  0.30070051  1
  Zr  Zr68  1  0.40132925  0.60434446  0.19046733  1
  Zr  Zr69  1  0.20625405  0.60538842  0.80969460  1
  Zr  Zr70  1  0.40651441  0.61639407  0.59382598  1
  Zr  Zr71  1  0.19974663  0.19616896  0.19870025  1
  Zr  Zr72  1  0.89682720  0.50457657  0.10390513  1
  Zr  Zr73  1  0.70646815  0.89673015  0.29773519  1
  Zr  Zr74  1  0.61069104  0.39670065  0.39997648  1
  Zr  Zr75  1  -0.01147267  0.59374713  0.39989725  1
  Zr  Zr76  1  0.50549332  0.09871993  0.10113356  1
  Zr  Zr77  1  0.30371539  0.30753767  0.91040795  1
  Zr  Zr78  1  0.61011276  0.20365896  0.40160282  1
  Zr  Zr79  1  0.09588631  0.49783576  0.70301336  1
  Zr  Zr80  1  0.30306915  0.30085623  0.30939305  1
  Zr  Zr81  1  0.78778022  0.80278636  0.59439075  1
  Zr  Zr82  1  0.51584608  0.29315369  0.08604182  1
  Zr  Zr83  1  0.09137570  0.70666548  0.50117641  1
  Zr  Zr84  1  0.70262166  0.10120032  0.71214775  1
  Zr  Zr85  1  0.79444441  0.61083597  -0.00322557  1
  Zr  Zr86  1  0.39088373  0.20366675  0.78919248  1
  Zr  Zr87  1  0.51095345  0.51412000  0.49752580  1
  Zr  Zr88  1  0.20610060  0.39924638  0.59829920  1
  Zr  Zr89  1  0.40614905  0.80693873  0.60306074  1
  Zr  Zr90  1  0.00003666  0.60027771  0.80859550  1
  Zr  Zr91  1  0.78994413  0.60863786  0.80020114  1
  Zr  Zr92  1  0.30576840  0.49950040  0.30600327  1
  Zr  Zr93  1  0.30602239  0.08718991  0.88916070  1
  Zr  Zr94  1  0.50652555  0.09518655  0.50057406  1
  Zr  Zr95  1  0.00016744  0.80425356  0.80536764  1
  Zr  Zr96  1  0.40770433  0.39604873  0.19562884  1
  Zr  Zr97  1  -0.00382661  0.20078503  0.00124898  1
  Zr  Zr98  1  0.88821726  0.49582591  0.69997021  1
  Zr  Zr99  1  0.60462803  0.19826356  0.60277923  1
  Ta  Ta100  1  0.50152498  0.50536534  0.69469289  1
  Ta  Ta101  1  0.80386785  0.20265377  0.59287767  1
  Ta  Ta102  1  0.20056338  0.80850517  0.80650453  1
  Ta  Ta103  1  0.70419069  0.90246233  0.89509139  1
  Ta  Ta104  1  0.21369844  0.40042324  0.79379718  1
  Ta  Ta105  1  0.59749421  0.80503742  0.79451291  1
  Ta  Ta106  1  0.40121208  0.60552555  0.80008158  1
  Ta  Ta107  1  0.09725183  0.89737147  0.09221363  1
  Ta  Ta108  1  0.59899856  0.60747642  0.19612274  1
  Ta  Ta109  1  0.89190132  0.89615730  0.30692436  1
  Ta  Ta110  1  0.09510009  0.89803462  0.90657248  1
  Ta  Ta111  1  0.79971321  0.39307817  0.20184613  1
  Ta  Ta112  1  0.20037095  0.61442054  0.00007715  1
  Ta  Ta113  1  0.09717770  0.90608777  0.70034236  1
  Ta  Ta114  1  0.51514822  0.90638625  0.50810342  1
  Ta  Ta115  1  0.59809660  0.40202794  0.59902526  1
  Ta  Ta116  1  0.50110996  0.30031984  0.69542947  1
  Ta  Ta117  1  0.39931344  0.20069429  0.60262631  1
  Ta  Ta118  1  0.51290809  0.09588498  0.29692121  1
  Ta  Ta119  1  -0.00670231  0.80520706  0.40237403  1
  Ta  Ta120  1  0.31233772  0.50210425  0.69737278  1
  Ta  Ta121  1  0.69653544  0.48858107  0.90305258  1
  Ta  Ta122  1  0.39561430  0.80795365  0.79705328  1
  Ta  Ta123  1  0.70010433  0.09339989  0.29720596  1
  Ta  Ta124  1  0.00271558  0.60948064  -0.00245770  1
  Ta  Ta125  1  0.09757160  0.89340922  0.30286928  1
  Ta  Ta126  1  0.50607181  0.28923078  0.30043876  1
  Ta  Ta127  1  0.88318203  0.28887748  0.10090058  1
  Ta  Ta128  1  0.09484902  0.09400830  0.50802545  1
  Ta  Ta129  1  0.41939968  -0.00912586  0.39529982  1
  Ta  Ta130  1  0.30400089  0.69905456  0.31096012  1
  Ta  Ta131  1  0.40802326  0.19904881  0.20130541  1
  Ta  Ta132  1  0.59621599  0.60273632  0.79955191  1
  Ta  Ta133  1  0.89472281  0.09954570  0.09999260  1
  Ta  Ta134  1  0.79693463  0.60885181  0.40353924  1
  Ta  Ta135  1  0.90128601  0.70468598  0.10158449  1
  Ta  Ta136  1  0.50750833  0.69573426  0.30537750  1
  Ta  Ta137  1  0.09640360  0.30112256  0.30100575  1
  Ta  Ta138  1  -0.00225665  0.19999328  0.19828530  1
  Ta  Ta139  1  0.89623949  0.70572318  0.50064391  1
  Ta  Ta140  1  0.49679742  0.30191828  0.50454226  1
  Ta  Ta141  1  0.30858989  0.30320355  0.49812622  1
  Ta  Ta142  1  0.39905150  0.00099325  0.60860750  1
  Ta  Ta143  1  -0.00905411  0.39038360  0.20237743  1
  Ta  Ta144  1  0.49988897  0.09739586  0.70561868  1
  Ta  Ta145  1  0.09296748  0.09067089  0.09777267  1
  Ta  Ta146  1  0.10481177  0.29920327  0.49511826  1
  Ta  Ta147  1  0.79660761  0.81203125  -0.00106669  1
  Ta  Ta148  1  0.20421440  -0.00044052  0.60663164  1
  Ta  Ta149  1  0.69283077  0.29478814  0.91356481  1
  Ti  Ti150  1  0.09970609  0.29873666  0.10171374  1
  Ti  Ti151  1  0.79543467  -0.00768574  0.18977857  1
  Ti  Ti152  1  0.79506884  0.20197854  0.81860239  1
  Ti  Ti153  1  0.70674910  0.30580095  0.50961893  1
  Ti  Ti154  1  0.89463586  0.29104409  0.29268180  1
  Ti  Ti155  1  0.69875781  0.50800686  0.50381406  1
  Ti  Ti156  1  0.49609892  0.90280562  0.09492080  1
  Ti  Ti157  1  0.40848424  0.19704779  0.39842009  1
  Ti  Ti158  1  -0.00362883  0.59358049  0.59447483  1
  Ti  Ti159  1  0.70010645  0.89560606  0.70665734  1
  Ti  Ti160  1  -0.00066094  -0.00589175  0.39967977  1
  Ti  Ti161  1  0.79336423  0.60517566  0.59707325  1
  Ti  Ti162  1  0.09042144  0.90238769  0.50644836  1
  Ti  Ti163  1  0.19479975  -0.00563597  0.19695740  1
  Ti  Ti164  1  0.41428084  0.39385295  0.40011721  1
  Ti  Ti165  1  0.09194756  0.70616915  0.09129955  1
  Ti  Ti166  1  0.88304833  0.50226416  0.50601584  1
  Ti  Ti167  1  0.79934683  -0.00719468  0.80680066  1
  Ti  Ti168  1  0.50302850  0.90494376  0.70196055  1
  Ti  Ti169  1  0.60526822  -0.00453294  0.61098493  1
  Ti  Ti170  1  0.59390904  0.80638568  0.20022960  1
  Ti  Ti171  1  0.89910508  0.89928277  0.50025646  1
  Ti  Ti172  1  0.79376924  -0.00366075  0.60206903  1
  Ti  Ti173  1  0.60215381  -0.00876545  0.19792315  1
  Ti  Ti174  1  0.09077196  0.49612671  0.29415994  1
  Ti  Ti175  1  0.80282265  0.60781250  0.20303802  1
  Ti  Ti176  1  0.69735942  0.71481387  0.89057097  1
  Ti  Ti177  1  0.10032348  0.48915083  0.49495305  1
  Ti  Ti178  1  0.30747752  0.30098788  0.09619665  1
  Ti  Ti179  1  0.50353717  0.49790791  0.09241958  1
  Ti  Ti180  1  0.89759406  0.50673680  0.29106908  1
  Ti  Ti181  1  0.41217936  -0.00910173  0.20543077  1
  Ti  Ti182  1  0.40473146  0.19907749  -0.00166772  1
  Ti  Ti183  1  -0.00417985  -0.00609242  0.80876961  1
  Ti  Ti184  1  0.89083480  0.70593911  0.30124723  1
  Ti  Ti185  1  0.70367232  0.70438003  0.29972226  1
  Ti  Ti186  1  0.70561052  0.28428791  0.28546658  1
  Ti  Ti187  1  0.69011967  0.70381754  0.69773348  1
  Ti  Ti188  1  0.80133466  0.20423005  0.40461600  1
  Ti  Ti189  1  0.60459731  0.00018293  0.80094736  1
  Ti  Ti190  1  0.09665470  0.09809956  0.29766321  1
  Ti  Ti191  1  0.50901834  0.70274876  0.69806829  1
  Ti  Ti192  1  0.30178390  0.49834821  0.90465679  1
  Ti  Ti193  1  0.29420359  0.70494456  0.48989475  1
  Ti  Ti194  1  -0.00744071  0.39559147  0.80752806  1
  Ti  Ti195  1  0.30271513  0.71972634  0.91088267  1
  Ti  Ti196  1  0.49916620  0.70463486  0.09506847  1
  Ti  Ti197  1  0.39410115  0.61140770  -0.00132097  1
  Ti  Ti198  1  0.68817012  0.69358872  0.50455209  1
  Ti  Ti199  1  0.69975628  0.90468913  0.49548349  1
  Mo  Mo200  1  0.30536320  0.30669409  0.69225843  1
  Mo  Mo201  1  0.20164600  0.20715976  0.79506931  1
  Mo  Mo202  1  0.60487753  0.60585504  0.60596390  1
  Mo  Mo203  1  0.60150679  0.80544153  0.60486404  1
  Mo  Mo204  1  0.18707500  0.39521998  0.39873888  1
  Mo  Mo205  1  0.30140964  0.09453051  0.69843112  1
  Mo  Mo206  1  0.50773122  0.90024688  0.29235726  1
  Mo  Mo207  1  0.70267887  0.90170480  0.10126587  1
  Mo  Mo208  1  0.40880852  0.39761283  0.60000001  1
  Mo  Mo209  1  0.29632377  0.90415731  0.70330623  1
  Mo  Mo210  1  0.00523830  -0.00189318  0.59825972  1
  Mo  Mo211  1  0.18988423  0.80139756  0.40403193  1
  Mo  Mo212  1  0.00560433  -0.00135154  0.00014581  1
  Mo  Mo213  1  0.80156983  0.79395821  0.40480091  1
  Mo  Mo214  1  0.20019745  -0.01364637  0.79820876  1
  Mo  Mo215  1  0.40412387  0.79966056  -0.00120256  1
  Mo  Mo216  1  -0.00833646  0.60363973  0.19796958  1
  Mo  Mo217  1  0.80091253  0.19771888  0.20285698  1
  Mo  Mo218  1  0.89537042  0.90325260  0.89846063  1
  Mo  Mo219  1  0.60392445  0.19755283  0.20654225  1
  Mo  Mo220  1  0.51671726  0.70701777  0.50438346  1
  Mo  Mo221  1  0.69894201  0.09840599  0.89868848  1
  Mo  Mo222  1  0.40348954  -0.00059133  0.00130256  1
  Mo  Mo223  1  0.20220870  0.39757006  0.00420201  1
  Mo  Mo224  1  0.60494925  0.19765243  -0.00801959  1
  Mo  Mo225  1  0.89327353  0.29546463  0.49543777  1
  Mo  Mo226  1  0.50294141  0.29261485  0.89728590  1
  Mo  Mo227  1  0.79030482  0.80605372  0.79792943  1
  Mo  Mo228  1  0.60257548  -0.00439371  0.39126896  1
  Mo  Mo229  1  0.60105232  0.39751128  0.00058403  1
  Mo  Mo230  1  0.79284193  0.38969120  0.00645227  1
  Mo  Mo231  1  0.19507092  0.79720241  -0.00595206  1
  Mo  Mo232  1  0.80662200  0.79969983  0.20081223  1
  Mo  Mo233  1  0.79939538  -0.01180458  0.40439121  1
  Mo  Mo234  1  -0.00000087  0.80088364  0.00202369  1
  Mo  Mo235  1  0.79535079  0.19921439  0.00132717  1
  Mo  Mo236  1  0.59406060  0.20311766  0.80357820  1
  Mo  Mo237  1  0.29817986  0.89612587  0.89363620  1
  Mo  Mo238  1  0.10158831  0.70656990  0.90804485  1
  Mo  Mo239  1  0.79007029  0.39459942  0.81395432  1
  Mo  Mo240  1  0.60997364  0.60912769  0.39821427  1
  Mo  Mo241  1  0.40532854  0.39551639  -0.00187854  1
  Mo  Mo242  1  0.79210125  0.40125636  0.59016897  1
  Mo  Mo243  1  0.40455178  0.61403845  0.40105992  1
  Mo  Mo244  1  0.79225629  -0.00061055  0.00081857  1
  Mo  Mo245  1  0.39641228  -0.00305615  0.78549254  1
  Mo  Mo246  1  0.30468875  0.69890381  0.08941624  1
  Mo  Mo247  1  0.88262050  0.30106069  0.90293570  1
  Mo  Mo248  1  -0.00196437  0.80883747  0.59433992  1
  Mo  Mo249  1  0.70476810  0.29952567  0.09997401  1
