# generated using pymatgen
data_HfZrTaTiMo
_symmetry_space_group_name_H-M   'P 1'
_cell_length_a   16.88354447
_cell_length_b   16.88617271
_cell_length_c   16.87949252
_cell_angle_alpha   89.97683048
_cell_angle_beta   89.99270803
_cell_angle_gamma   89.94446425
_symmetry_Int_Tables_number   1
_chemical_formula_structural   HfZrTaTiMo
_chemical_formula_sum   'Hf50 Zr50 Ta50 Ti50 Mo50'
_cell_volume   4812.31442574
_cell_formula_units_Z   50
loop_
 _symmetry_equiv_pos_site_id
 _symmetry_equiv_pos_as_xyz
  1  'x, y, z'
loop_
 _atom_site_type_symbol
 _atom_site_label
 _atom_site_symmetry_multiplicity
 _atom_site_fract_x
 _atom_site_fract_y
 _atom_site_fract_z
 _atom_site_occupancy
  Hf  Hf0  1  0.80534482  0.60506558  -0.00933674  1
  Hf  Hf1  1  0.50491042  0.69128180  0.30011786  1
  Hf  Hf2  1  0.70426807  0.10462874  0.50491953  1
  Hf  Hf3  1  0.40066169  0.21459734  0.80485818  1
  Hf  Hf4  1  0.60321978  -0.01404448  0.59696602  1
  Hf  Hf5  1  0.18590604  0.81289213  0.80720037  1
  Hf  Hf6  1  0.09743068  0.91612113  0.50014271  1
  Hf  Hf7  1  0.21321203  0.00202474  0.38503578  1
  Hf  Hf8  1  0.40638937  0.20067503  -0.00629175  1
  Hf  Hf9  1  0.80483854  0.79886797  0.79495976  1
  Hf  Hf10  1  0.20328412  0.60026183  0.20488460  1
  Hf  Hf11  1  0.29873429  0.89401693  0.09156209  1
  Hf  Hf12  1  0.30497826  0.71408639  0.70932817  1
  Hf  Hf13  1  0.20486075  0.59845003  0.60187370  1
  Hf  Hf14  1  0.20536714  0.39230863  -0.00139026  1
  Hf  Hf15  1  0.40796145  0.19079069  0.19718328  1
  Hf  Hf16  1  0.09168043  0.50071276  0.30231868  1
  Hf  Hf17  1  0.60328716  0.40358043  0.20158742  1
  Hf  Hf18  1  0.49229075  0.88818446  0.71040082  1
  Hf  Hf19  1  0.40550024  0.60939632  0.00312406  1
  Hf  Hf20  1  0.29470702  0.71406478  0.11053844  1
  Hf  Hf21  1  0.69419148  0.90059763  0.29892449  1
  Hf  Hf22  1  0.40328231  0.60714224  0.80185393  1
  Hf  Hf23  1  0.80267996  0.39840398  0.80178268  1
  Hf  Hf24  1  0.30209145  0.09248243  0.50653169  1
  Hf  Hf25  1  0.79350613  0.59474228  0.59394809  1
  Hf  Hf26  1  0.10334431  0.29128060  0.10699799  1
  Hf  Hf27  1  0.90268263  0.09954344  0.50176410  1
  Hf  Hf28  1  0.30284863  0.08752209  0.70136546  1
  Hf  Hf29  1  0.89311120  0.29829008  0.69152915  1
  Hf  Hf30  1  0.41750465  0.00124362  0.00816246  1
  Hf  Hf31  1  -0.00524305  0.80603445  0.79938694  1
  Hf  Hf32  1  0.00486117  0.80128419  -0.00747635  1
  Hf  Hf33  1  0.80075680  0.80675388  0.19780139  1
  Hf  Hf34  1  0.19147869  0.00032460  -0.00911606  1
  Hf  Hf35  1  0.80079095  -0.00082264  0.00722695  1
  Hf  Hf36  1  0.50399000  0.49402622  0.89767656  1
  Hf  Hf37  1  0.79661646  -0.00281218  0.39884773  1
  Hf  Hf38  1  0.19668275  0.79162861  0.40021892  1
  Hf  Hf39  1  0.59780725  0.20565700  0.80093344  1
  Hf  Hf40  1  0.90301496  0.09749847  0.69513814  1
  Hf  Hf41  1  0.28952740  0.50958795  0.89207309  1
  Hf  Hf42  1  0.20645721  0.19677586  0.39219170  1
  Hf  Hf43  1  -0.00237109  0.80240969  0.40292896  1
  Hf  Hf44  1  0.79701942  0.79890411  0.41115167  1
  Hf  Hf45  1  0.80721216  -0.00269402  0.19821847  1
  Hf  Hf46  1  0.79697954  -0.01756454  0.60497406  1
  Hf  Hf47  1  0.10712468  0.89263359  0.10433791  1
  Hf  Hf48  1  0.40296588  0.60003416  0.60496235  1
  Hf  Hf49  1  0.68961656  0.70122646  0.69643814  1
  Zr  Zr50  1  0.40523823  -0.00305114  0.20093256  1
  Zr  Zr51  1  0.79805167  -0.00656491  0.79642688  1
  Zr  Zr52  1  0.09714171  0.50333321  0.90104863  1
  Zr  Zr53  1  0.29641675  0.87231941  0.28111148  1
  Zr  Zr54  1  0.10219167  0.29528261  0.89852502  1
  Zr  Zr55  1  0.79795266  0.40058741  0.39718935  1
  Zr  Zr56  1  0.50184346  0.30497497  0.29839687  1
  Zr  Zr57  1  0.69252319  0.09554276  0.90281501  1
  Zr  Zr58  1  0.30490179  0.49856410  0.10099054  1
  Zr  Zr59  1  0.59777548  0.40489869  0.58997964  1
  Zr  Zr60  1  0.09821271  0.70055256  0.29545483  1
  Zr  Zr61  1  0.90043435  0.10461720  0.89762778  1
  Zr  Zr62  1  0.60233346  0.21260205  0.40457918  1
  Zr  Zr63  1  0.30088191  0.10084778  0.89619312  1
  Zr  Zr64  1  0.69817750  0.70238950  0.09470777  1
  Zr  Zr65  1  0.40080246  0.21438975  0.60463666  1
  Zr  Zr66  1  0.30189654  0.89841123  0.50933136  1
  Zr  Zr67  1  0.31159911  0.90012600  0.89148675  1
  Zr  Zr68  1  -0.01427027  0.60943021  0.81206842  1
  Zr  Zr69  1  0.09735188  0.69059350  0.70267835  1
  Zr  Zr70  1  -0.00093427  0.00243242  0.00822104  1
  Zr  Zr71  1  0.20238194  0.00848286  0.20167148  1
  Zr  Zr72  1  0.20678771  0.40209364  0.39430352  1
  Zr  Zr73  1  0.59714864  0.80258365  0.40539387  1
  Zr  Zr74  1  0.09833065  0.09518831  0.50256217  1
  Zr  Zr75  1  0.09361370  0.29483832  0.29821183  1
  Zr  Zr76  1  0.50054420  0.08823429  0.70817894  1
  Zr  Zr77  1  0.59346780  -0.00079478  0.18961317  1
  Zr  Zr78  1  0.50998828  0.30266976  0.09679934  1
  Zr  Zr79  1  0.79768197  0.59677487  0.19763180  1
  Zr  Zr80  1  0.19364348  0.79711883  0.59712542  1
  Zr  Zr81  1  0.69305444  0.49772402  0.90328586  1
  Zr  Zr82  1  0.90003705  0.69274136  0.30269145  1
  Zr  Zr83  1  0.09409222  0.50671549  0.49799018  1
  Zr  Zr84  1  0.90456996  0.49675678  0.09561306  1
  Zr  Zr85  1  0.50010764  0.09353309  0.49942760  1
  Zr  Zr86  1  0.00738319  0.39381619  0.60260845  1
  Zr  Zr87  1  0.79168471  0.59827750  0.40376422  1
  Zr  Zr88  1  0.09543290  0.49719255  0.09684108  1
  Zr  Zr89  1  0.39963564  0.20046213  0.39902919  1
  Zr  Zr90  1  -0.00537101  0.79921481  0.59991933  1
  Zr  Zr91  1  0.19778058  0.20578903  0.61204247  1
  Zr  Zr92  1  0.69401853  0.49906903  0.69686228  1
  Zr  Zr93  1  0.80271649  0.38943833  0.00499114  1
  Zr  Zr94  1  0.40495309  0.79721862  0.40086884  1
  Zr  Zr95  1  -0.01126403  0.81311003  0.19914717  1
  Zr  Zr96  1  0.39896157  0.38918030  -0.01464966  1
  Zr  Zr97  1  0.59506079  0.21052283  0.60121121  1
  Zr  Zr98  1  0.80088407  0.60182684  0.80204781  1
  Zr  Zr99  1  0.20663967  0.40149265  0.61017978  1
  Ta  Ta100  1  0.69233011  0.89437434  0.90314995  1
  Ta  Ta101  1  0.60029846  0.40733796  0.40286423  1
  Ta  Ta102  1  0.49872262  0.31758698  0.70302964  1
  Ta  Ta103  1  0.30347219  0.30950715  0.49889759  1
  Ta  Ta104  1  0.09494749  0.91693739  0.69211518  1
  Ta  Ta105  1  0.20771982  0.39758498  0.20303314  1
  Ta  Ta106  1  0.79541419  0.39799057  0.20267665  1
  Ta  Ta107  1  0.10185600  0.29707986  0.49681905  1
  Ta  Ta108  1  0.59515833  0.80199856  0.19542907  1
  Ta  Ta109  1  0.51105058  0.89978236  0.89484446  1
  Ta  Ta110  1  0.89816736  0.29704293  0.29577131  1
  Ta  Ta111  1  0.79459291  0.20488915  0.79885468  1
  Ta  Ta112  1  0.69527878  0.89793738  0.08850837  1
  Ta  Ta113  1  -0.00078212  0.60400157  0.19198367  1
  Ta  Ta114  1  0.89547386  0.89971508  0.90319082  1
  Ta  Ta115  1  0.40712699  -0.00940822  0.38986878  1
  Ta  Ta116  1  0.51161697  0.09767378  0.30116501  1
  Ta  Ta117  1  0.68924120  0.50670796  0.29992766  1
  Ta  Ta118  1  0.90360504  0.70411697  0.09040348  1
  Ta  Ta119  1  0.19004758  0.00295535  0.79809204  1
  Ta  Ta120  1  0.29820765  0.10390393  0.09676059  1
  Ta  Ta121  1  0.69360238  0.10804566  0.10011800  1
  Ta  Ta122  1  0.90289422  0.49828936  0.50077171  1
  Ta  Ta123  1  0.00534256  0.20271915  0.79101571  1
  Ta  Ta124  1  0.70158894  0.10340589  0.69899341  1
  Ta  Ta125  1  0.10033469  0.50422929  0.71213826  1
  Ta  Ta126  1  0.69534110  0.29737886  0.90885184  1
  Ta  Ta127  1  0.29570868  0.70837477  0.90388313  1
  Ta  Ta128  1  0.59220447  0.79881548  0.59687161  1
  Ta  Ta129  1  0.69398237  0.49844145  0.09609379  1
  Ta  Ta130  1  0.39942999  0.40939530  0.60313353  1
  Ta  Ta131  1  0.90123592  0.90294512  0.50439463  1
  Ta  Ta132  1  0.41122064  0.79638690  -0.00144263  1
  Ta  Ta133  1  -0.00115016  0.19850641  0.00390692  1
  Ta  Ta134  1  0.19638700  0.61180128  0.00593809  1
  Ta  Ta135  1  -0.00039847  0.39558601  0.79780013  1
  Ta  Ta136  1  0.00720784  0.20155590  0.60353304  1
  Ta  Ta137  1  0.90323784  0.10103014  0.30101517  1
  Ta  Ta138  1  0.71566224  0.30446041  0.50725567  1
  Ta  Ta139  1  0.69280986  0.71106793  0.90091972  1
  Ta  Ta140  1  0.20987554  0.60575425  0.40051670  1
  Ta  Ta141  1  0.29935074  0.29355260  0.10552181  1
  Ta  Ta142  1  0.08397689  0.09607844  0.30046873  1
  Ta  Ta143  1  0.90608993  0.50052156  0.69298732  1
  Ta  Ta144  1  0.30653699  0.50205121  0.49785134  1
  Ta  Ta145  1  0.80260457  0.20177672  0.39661456  1
  Ta  Ta146  1  0.50312555  0.50391952  0.70451205  1
  Ta  Ta147  1  0.90583024  0.49694663  0.30159235  1
  Ta  Ta148  1  0.59299205  0.60485149  0.00021759  1
  Ta  Ta149  1  0.40032623  0.59774425  0.39762429  1
  Ti  Ti150  1  0.90868579  0.49415179  0.90518393  1
  Ti  Ti151  1  0.70078943  0.29859377  0.29857325  1
  Ti  Ti152  1  0.59132966  0.61281793  0.80440264  1
  Ti  Ti153  1  0.89464315  0.69736468  0.68612435  1
  Ti  Ti154  1  0.59271559  0.59767192  0.19318011  1
  Ti  Ti155  1  0.30746050  0.30301440  0.29551249  1
  Ti  Ti156  1  0.90075109  0.29264410  0.89775812  1
  Ti  Ti157  1  0.00193637  -0.00215106  0.80082229  1
  Ti  Ti158  1  -0.00232483  0.38441575  -0.00097479  1
  Ti  Ti159  1  0.59208178  0.19652906  -0.00187221  1
  Ti  Ti160  1  0.20005120  0.20538283  0.79314893  1
  Ti  Ti161  1  0.20157533  0.19766792  -0.00121587  1
  Ti  Ti162  1  0.40889586  0.40672567  0.40334903  1
  Ti  Ti163  1  0.50508754  0.51043554  0.49579850  1
  Ti  Ti164  1  0.09609353  0.10515110  0.89335053  1
  Ti  Ti165  1  0.50687330  0.08623222  0.89280951  1
  Ti  Ti166  1  0.40284497  0.40491765  0.20101454  1
  Ti  Ti167  1  0.20502453  0.39403530  0.79318424  1
  Ti  Ti168  1  0.10539139  0.69694013  0.90463177  1
  Ti  Ti169  1  0.70531705  0.30052166  0.69350844  1
  Ti  Ti170  1  0.42264944  0.79936412  0.19138352  1
  Ti  Ti171  1  0.09990275  0.10386878  0.10795234  1
  Ti  Ti172  1  0.50291730  0.49753084  0.09608457  1
  Ti  Ti173  1  0.68968711  0.88885241  0.70656262  1
  Ti  Ti174  1  0.80191730  0.20056980  0.00195097  1
  Ti  Ti175  1  0.30359459  0.90150719  0.70178355  1
  Ti  Ti176  1  0.30730645  0.69973199  0.50225406  1
  Ti  Ti177  1  -0.00520328  0.39302716  0.40206178  1
  Ti  Ti178  1  0.59579509  -0.00964676  0.40488253  1
  Ti  Ti179  1  0.30918595  0.50031145  0.30164388  1
  Ti  Ti180  1  0.38913605  0.40042947  0.79483941  1
  Ti  Ti181  1  0.09175437  0.90929319  0.29810152  1
  Ti  Ti182  1  0.40821674  -0.01392409  0.59729076  1
  Ti  Ti183  1  0.89928740  0.29282830  0.10700015  1
  Ti  Ti184  1  0.90742567  0.69069680  0.50428870  1
  Ti  Ti185  1  0.69133769  0.69567065  0.29852498  1
  Ti  Ti186  1  0.40415859  0.59739063  0.20297655  1
  Ti  Ti187  1  0.60288510  0.39296721  0.80123538  1
  Ti  Ti188  1  0.79631413  0.20085473  0.20320130  1
  Ti  Ti189  1  0.89990492  0.10557788  0.10683906  1
  Ti  Ti190  1  0.89692937  0.29771624  0.50423808  1
  Ti  Ti191  1  -0.00547590  0.19601971  0.20030110  1
  Ti  Ti192  1  0.20920959  0.19336864  0.20880965  1
  Ti  Ti193  1  0.69612164  0.29339999  0.09939270  1
  Ti  Ti194  1  0.68655902  0.69407250  0.50584081  1
  Ti  Ti195  1  -0.00475022  0.20396873  0.40347584  1
  Ti  Ti196  1  0.58804749  0.79565326  0.00299787  1
  Ti  Ti197  1  0.69498401  0.10536639  0.29729848  1
  Ti  Ti198  1  -0.00516985  0.39677700  0.19987337  1
  Ti  Ti199  1  0.50132118  0.69493632  0.50612565  1
  Mo  Mo200  1  0.40605080  0.79414528  0.60128021  1
  Mo  Mo201  1  0.49813988  0.89586998  0.50339178  1
  Mo  Mo202  1  0.51148444  0.30613812  0.89349782  1
  Mo  Mo203  1  -0.00435061  0.00284232  0.60206392  1
  Mo  Mo204  1  0.31363429  0.10304300  0.29800346  1
  Mo  Mo205  1  0.50861959  0.10448162  0.09512613  1
  Mo  Mo206  1  0.30780383  0.69069511  0.29824771  1
  Mo  Mo207  1  0.80089043  0.20131192  0.60110200  1
  Mo  Mo208  1  0.30150395  0.50255905  0.70391086  1
  Mo  Mo209  1  0.89164550  0.71122735  0.90691743  1
  Mo  Mo210  1  0.80320362  0.40320169  0.59634995  1
  Mo  Mo211  1  0.89845988  0.90838529  0.30998285  1
  Mo  Mo212  1  0.30260554  0.30827526  0.70391433  1
  Mo  Mo213  1  0.10029699  0.30082270  0.70466118  1
  Mo  Mo214  1  0.09296879  0.90924081  0.89384291  1
  Mo  Mo215  1  -0.00815542  -0.00198471  0.39515110  1
  Mo  Mo216  1  0.60053413  0.79668342  0.80278691  1
  Mo  Mo217  1  -0.00266220  0.59919027  0.40318131  1
  Mo  Mo218  1  0.49907865  0.50282660  0.29916407  1
  Mo  Mo219  1  0.59335347  0.60233001  0.59576268  1
  Mo  Mo220  1  0.90632063  0.89998186  0.69865593  1
  Mo  Mo221  1  0.60435995  0.40091177  0.00303226  1
  Mo  Mo222  1  0.50251558  0.70018481  0.69981883  1
  Mo  Mo223  1  -0.00424115  0.00708832  0.20089582  1
  Mo  Mo224  1  0.00224808  0.61231584  0.00353950  1
  Mo  Mo225  1  0.70134138  0.89141372  0.50413067  1
  Mo  Mo226  1  0.29154996  0.29837780  0.89640985  1
  Mo  Mo227  1  0.60981595  0.19772932  0.20082918  1
  Mo  Mo228  1  -0.00565808  0.59741196  0.60051842  1
  Mo  Mo229  1  0.40419944  0.79789001  0.80705477  1
  Mo  Mo230  1  0.60415621  -0.00645561  0.79826063  1
  Mo  Mo231  1  0.20110549  0.60518315  0.80428366  1
  Mo  Mo232  1  0.50275112  0.70477326  0.89945354  1
  Mo  Mo233  1  0.18514418  0.79679113  0.20099757  1
  Mo  Mo234  1  0.09809010  0.69996295  0.09688111  1
  Mo  Mo235  1  0.09467746  0.68855710  0.49327731  1
  Mo  Mo236  1  0.49197440  0.32068801  0.50104872  1
  Mo  Mo237  1  0.50026652  0.69592698  0.10439781  1
  Mo  Mo238  1  0.59589727  0.59768028  0.40286819  1
  Mo  Mo239  1  0.19880446  0.79739273  -0.00458564  1
  Mo  Mo240  1  0.40357509  -0.00495681  0.80333201  1
  Mo  Mo241  1  0.50454897  0.89234406  0.09320719  1
  Mo  Mo242  1  0.79429126  0.79517223  0.59613832  1
  Mo  Mo243  1  0.80081327  0.80404473  -0.00409537  1
  Mo  Mo244  1  0.09798098  0.10074989  0.70679338  1
  Mo  Mo245  1  0.69797336  0.50059085  0.49350707  1
  Mo  Mo246  1  0.50288628  0.89878145  0.29913668  1
  Mo  Mo247  1  0.20256987  0.00007949  0.61120771  1
  Mo  Mo248  1  0.89590542  0.89908956  0.09391111  1
  Mo  Mo249  1  0.60310988  -0.00122503  -0.00175063  1
