# generated using pymatgen
data_HfZrTaTiMo
_symmetry_space_group_name_H-M   'P 1'
_cell_length_a   16.89012196
_cell_length_b   16.88832334
_cell_length_c   16.89337759
_cell_angle_alpha   89.97039258
_cell_angle_beta   90.00171859
_cell_angle_gamma   89.94891461
_symmetry_Int_Tables_number   1
_chemical_formula_structural   HfZrTaTiMo
_chemical_formula_sum   'Hf50 Zr50 Ta50 Ti50 Mo50'
_cell_volume   4818.76313549
_cell_formula_units_Z   50
loop_
 _symmetry_equiv_pos_site_id
 _symmetry_equiv_pos_as_xyz
  1  'x, y, z'
loop_
 _atom_site_type_symbol
 _atom_site_label
 _atom_site_symmetry_multiplicity
 _atom_site_fract_x
 _atom_site_fract_y
 _atom_site_fract_z
 _atom_site_occupancy
  Hf  Hf0  1  0.09542240  0.50243363  0.29330370  1
  Hf  Hf1  1  0.28729321  0.10152916  0.29168195  1
  Hf  Hf2  1  0.59611117  0.79581749  0.39016838  1
  Hf  Hf3  1  0.80796920  0.40111557  -0.00195247  1
  Hf  Hf4  1  0.80936469  0.60235486  0.19214189  1
  Hf  Hf5  1  0.90369398  0.89524044  0.70242716  1
  Hf  Hf6  1  0.48899265  0.09630623  0.70250788  1
  Hf  Hf7  1  0.30001934  0.29836849  0.70148107  1
  Hf  Hf8  1  0.59428629  0.59935026  0.79854689  1
  Hf  Hf9  1  0.29937187  0.09162543  0.69856025  1
  Hf  Hf10  1  0.20578319  0.60374322  0.39367805  1
  Hf  Hf11  1  0.00888322  -0.00759605  0.39675450  1
  Hf  Hf12  1  0.48577785  0.90832363  0.70116792  1
  Hf  Hf13  1  0.79597174  0.40492064  0.60114220  1
  Hf  Hf14  1  0.60409715  0.19559316  0.59398147  1
  Hf  Hf15  1  0.19602203  0.80373271  0.20070658  1
  Hf  Hf16  1  0.50277919  0.51348232  0.48609394  1
  Hf  Hf17  1  0.69747357  0.51153288  0.30288914  1
  Hf  Hf18  1  -0.00381861  0.17951062  0.19164773  1
  Hf  Hf19  1  0.80626796  0.00068799  0.19443047  1
  Hf  Hf20  1  0.10069894  0.29767667  0.70288362  1
  Hf  Hf21  1  0.49438962  0.71663204  0.71175962  1
  Hf  Hf22  1  -0.00427067  0.60232150  0.18396636  1
  Hf  Hf23  1  0.80732522  0.60382624  0.00286957  1
  Hf  Hf24  1  0.59432687  0.20109151  0.19209530  1
  Hf  Hf25  1  0.40106483  0.59894930  -0.00003854  1
  Hf  Hf26  1  0.60060967  0.38726184  -0.00228806  1
  Hf  Hf27  1  0.20183124  0.00180765  0.81873821  1
  Hf  Hf28  1  0.39354400  0.20574724  0.39772328  1
  Hf  Hf29  1  0.70433977  0.29986061  0.29523180  1
  Hf  Hf30  1  0.19222337  0.19843974  0.40414409  1
  Hf  Hf31  1  0.60493358  0.00214555  -0.00205155  1
  Hf  Hf32  1  0.79861656  0.19351205  0.40378768  1
  Hf  Hf33  1  0.00354030  0.39621869  0.80452298  1
  Hf  Hf34  1  0.20718897  0.18910766  0.00603540  1
  Hf  Hf35  1  0.28806180  0.70865301  0.90430111  1
  Hf  Hf36  1  0.79593292  0.19699575  0.59754806  1
  Hf  Hf37  1  0.80737413  0.00655390  0.81164551  1
  Hf  Hf38  1  0.70824268  0.70769398  0.70645548  1
  Hf  Hf39  1  0.39481821  0.59247266  0.80564408  1
  Hf  Hf40  1  0.40754145  0.59895525  0.61522250  1
  Hf  Hf41  1  0.79013207  0.00689323  0.59709272  1
  Hf  Hf42  1  0.39674509  0.80097869  0.00377258  1
  Hf  Hf43  1  0.71043289  0.29808594  0.10490679  1
  Hf  Hf44  1  0.09518031  0.29383270  0.08905987  1
  Hf  Hf45  1  0.79806711  0.40242177  0.40305225  1
  Hf  Hf46  1  0.39725031  0.41359119  0.38283402  1
  Hf  Hf47  1  0.20065807  0.40229758  0.39949004  1
  Hf  Hf48  1  0.10192046  0.72215917  0.89377357  1
  Hf  Hf49  1  0.59607771  0.80070499  0.59444830  1
  Zr  Zr50  1  0.19760919  0.80492296  0.60085044  1
  Zr  Zr51  1  0.90219309  0.89128535  0.50354945  1
  Zr  Zr52  1  0.50575384  0.09924492  0.29695050  1
  Zr  Zr53  1  0.59246617  0.40551262  0.19788873  1
  Zr  Zr54  1  0.91000850  0.09559206  0.69973766  1
  Zr  Zr55  1  0.09737707  0.89689045  0.71432076  1
  Zr  Zr56  1  0.80259062  -0.00158672  0.00356543  1
  Zr  Zr57  1  0.39235251  0.19884592  0.18652439  1
  Zr  Zr58  1  -0.00466594  0.60218228  -0.00259818  1
  Zr  Zr59  1  0.49568341  0.30110455  0.69996878  1
  Zr  Zr60  1  0.30618354  0.50395911  0.50283400  1
  Zr  Zr61  1  0.29139779  0.69013953  0.10858664  1
  Zr  Zr62  1  0.00504971  0.60788558  0.79274829  1
  Zr  Zr63  1  0.49753187  0.09481941  0.49695396  1
  Zr  Zr64  1  0.19419842  0.41297974  0.18119995  1
  Zr  Zr65  1  0.39571788  0.00104461  0.39284080  1
  Zr  Zr66  1  0.49804638  0.30829907  0.49431863  1
  Zr  Zr67  1  0.59108476  0.20476576  0.81743024  1
  Zr  Zr68  1  0.60400520  0.00111745  0.59556286  1
  Zr  Zr69  1  0.90428952  0.08791853  0.49606081  1
  Zr  Zr70  1  0.70745692  0.89301069  0.70552183  1
  Zr  Zr71  1  0.19715630  0.80421524  0.40032917  1
  Zr  Zr72  1  0.71033815  0.69566559  0.48987768  1
  Zr  Zr73  1  0.09180308  0.29945893  0.28957096  1
  Zr  Zr74  1  0.49895746  0.49372496  0.90782110  1
  Zr  Zr75  1  0.90246901  0.29631168  0.10495218  1
  Zr  Zr76  1  0.19309034  0.19604258  0.59786429  1
  Zr  Zr77  1  0.09123430  0.50418771  0.50187171  1
  Zr  Zr78  1  0.50037877  0.89919850  0.10287399  1
  Zr  Zr79  1  0.18896875  -0.00216560  0.19330759  1
  Zr  Zr80  1  0.81287219  0.19218476  -0.00281126  1
  Zr  Zr81  1  0.89803340  0.49533436  0.30002152  1
  Zr  Zr82  1  0.31520552  0.70455933  0.49301896  1
  Zr  Zr83  1  0.29266413  0.30525193  0.28457802  1
  Zr  Zr84  1  0.09930255  0.69685080  0.29417163  1
  Zr  Zr85  1  0.71448331  0.89157739  0.48810931  1
  Zr  Zr86  1  0.19564370  0.60633264  0.60813190  1
  Zr  Zr87  1  0.70067013  0.29920218  0.70656882  1
  Zr  Zr88  1  0.90361167  0.30226268  0.49950920  1
  Zr  Zr89  1  0.29348189  0.71306605  0.71359653  1
  Zr  Zr90  1  0.60845385  -0.00527191  0.19789076  1
  Zr  Zr91  1  0.80511170  0.39151945  0.80812287  1
  Zr  Zr92  1  0.40362885  0.78946368  0.20844115  1
  Zr  Zr93  1  0.69896683  0.50329854  0.89973287  1
  Zr  Zr94  1  0.00803246  0.19101597  0.80881223  1
  Zr  Zr95  1  0.60227926  0.79811429  0.00131204  1
  Zr  Zr96  1  0.60049550  0.00192710  0.80787384  1
  Zr  Zr97  1  0.89704525  0.70520842  0.50284929  1
  Zr  Zr98  1  0.59996033  0.59945572  0.60541379  1
  Zr  Zr99  1  0.19363810  0.58378884  0.00151891  1
  Ta  Ta100  1  0.50068691  0.89697564  0.30003632  1
  Ta  Ta101  1  0.00078119  0.40004195  0.60286045  1
  Ta  Ta102  1  0.29662651  0.49163649  0.70519726  1
  Ta  Ta103  1  0.80172616  0.59825379  0.60760733  1
  Ta  Ta104  1  0.49997041  0.70661676  0.90050219  1
  Ta  Ta105  1  0.19748411  0.40061504  0.60292923  1
  Ta  Ta106  1  0.20095236  0.19742069  0.81396701  1
  Ta  Ta107  1  0.30159070  0.89641362  0.30000887  1
  Ta  Ta108  1  0.69925057  0.70008039  0.10437046  1
  Ta  Ta109  1  0.09977125  0.49950687  0.69951326  1
  Ta  Ta110  1  0.08863712  0.69878394  0.50312022  1
  Ta  Ta111  1  0.19259977  -0.00598680  0.40124352  1
  Ta  Ta112  1  0.00697810  0.19480962  0.59236007  1
  Ta  Ta113  1  0.49353619  0.90377391  0.90407442  1
  Ta  Ta114  1  0.49454853  0.09424188  0.09231114  1
  Ta  Ta115  1  0.29597123  0.90404156  0.09482104  1
  Ta  Ta116  1  0.80758569  0.60312578  0.79948492  1
  Ta  Ta117  1  0.09794814  0.09702489  0.29580517  1
  Ta  Ta118  1  0.29596050  0.09498461  0.50261263  1
  Ta  Ta119  1  0.91238885  0.89333831  0.90481460  1
  Ta  Ta120  1  0.89901051  0.50920077  0.50337364  1
  Ta  Ta121  1  0.09993958  0.70841219  0.09097542  1
  Ta  Ta122  1  0.89990499  0.71295367  0.89638876  1
  Ta  Ta123  1  0.90438464  0.50100284  0.69682077  1
  Ta  Ta124  1  0.90588778  0.29596138  0.69756310  1
  Ta  Ta125  1  0.70466371  0.70340340  0.89890537  1
  Ta  Ta126  1  0.70284646  0.69963330  0.29480968  1
  Ta  Ta127  1  0.70148512  0.10790685  0.90418921  1
  Ta  Ta128  1  0.89981194  0.89691971  0.29913600  1
  Ta  Ta129  1  0.30089678  0.30541079  0.50597978  1
  Ta  Ta130  1  0.39507457  0.19753234  0.59605815  1
  Ta  Ta131  1  0.39458799  -0.00210931  0.19570986  1
  Ta  Ta132  1  0.49756849  0.30640758  0.29418628  1
  Ta  Ta133  1  0.30003782  0.30172761  0.90707107  1
  Ta  Ta134  1  0.90893568  0.89771216  0.09931363  1
  Ta  Ta135  1  0.30342876  0.90548560  0.50094227  1
  Ta  Ta136  1  0.89645509  0.29654612  0.29276636  1
  Ta  Ta137  1  0.69168869  0.30639839  0.49713213  1
  Ta  Ta138  1  0.70110295  0.50245738  0.10318603  1
  Ta  Ta139  1  0.19994920  0.39790435  0.80674918  1
  Ta  Ta140  1  -0.00022251  0.80307148  0.19770298  1
  Ta  Ta141  1  0.70501376  0.09900949  0.30019729  1
  Ta  Ta142  1  0.59952491  0.41097780  0.60217118  1
  Ta  Ta143  1  0.40029814  0.19505928  -0.00501298  1
  Ta  Ta144  1  0.39675596  0.39712693  0.80836145  1
  Ta  Ta145  1  0.49124557  0.89730171  0.49378002  1
  Ta  Ta146  1  0.39442641  0.19675062  0.81283730  1
  Ta  Ta147  1  0.00232741  0.19505317  0.39817859  1
  Ta  Ta148  1  -0.00702041  0.60456593  0.40002398  1
  Ta  Ta149  1  0.71110693  0.88992899  0.90009143  1
  Ti  Ti150  1  0.59851354  0.80659704  0.80912819  1
  Ti  Ti151  1  0.89878309  0.09270730  0.29962493  1
  Ti  Ti152  1  0.09695040  0.30361571  0.50045915  1
  Ti  Ti153  1  0.19880178  0.40063661  -0.00723111  1
  Ti  Ti154  1  0.40370102  0.40616522  0.60511513  1
  Ti  Ti155  1  0.80600506  0.79673137  0.00473257  1
  Ti  Ti156  1  0.69861380  0.50824905  0.49425991  1
  Ti  Ti157  1  0.80757892  0.79520192  0.19539297  1
  Ti  Ti158  1  0.60184033  0.20189349  0.39802463  1
  Ti  Ti159  1  0.29932685  0.90825395  0.70156667  1
  Ti  Ti160  1  0.50802030  0.69857072  0.10428530  1
  Ti  Ti161  1  0.59296664  0.20103473  -0.00020591  1
  Ti  Ti162  1  0.70060134  0.10606069  0.71435668  1
  Ti  Ti163  1  0.39851869  0.80677318  0.59686016  1
  Ti  Ti164  1  0.90206382  0.70679530  0.70106954  1
  Ti  Ti165  1  0.70799018  0.89410961  0.29681892  1
  Ti  Ti166  1  0.30057775  0.30615021  0.09486358  1
  Ti  Ti167  1  0.90330238  0.50443782  0.89302561  1
  Ti  Ti168  1  0.49384424  0.69938850  0.48711826  1
  Ti  Ti169  1  0.70346862  0.10835730  0.10196332  1
  Ti  Ti170  1  0.70196175  0.49962221  0.70837085  1
  Ti  Ti171  1  0.70464413  0.88651355  0.10344873  1
  Ti  Ti172  1  0.39261675  0.00616850  0.82324320  1
  Ti  Ti173  1  0.49555375  0.49741124  0.10020063  1
  Ti  Ti174  1  0.41054712  0.59785727  0.20629154  1
  Ti  Ti175  1  0.29907153  0.51319028  0.28090531  1
  Ti  Ti176  1  0.00010434  0.00755240  0.00866448  1
  Ti  Ti177  1  0.59508059  0.39542315  0.80401620  1
  Ti  Ti178  1  0.00393911  0.00000421  0.81735855  1
  Ti  Ti179  1  0.00366611  0.41019656  -0.00056238  1
  Ti  Ti180  1  0.60933073  -0.00260328  0.39933001  1
  Ti  Ti181  1  0.00603738  0.80164172  0.39456381  1
  Ti  Ti182  1  0.48507528  0.30632717  0.09505968  1
  Ti  Ti183  1  0.60046614  0.60275275  0.00335449  1
  Ti  Ti184  1  0.38914744  0.81595077  0.81305782  1
  Ti  Ti185  1  -0.00694477  0.40751419  0.18755171  1
  Ti  Ti186  1  0.31130546  0.49402750  0.09749685  1
  Ti  Ti187  1  0.09643444  0.89879937  0.08776955  1
  Ti  Ti188  1  0.19886103  0.59375431  0.80108623  1
  Ti  Ti189  1  0.18880257  -0.00413501  0.58990640  1
  Ti  Ti190  1  0.89632762  0.70428494  0.30478006  1
  Ti  Ti191  1  0.09893848  0.09132684  0.69843369  1
  Ti  Ti192  1  -0.00221758  0.39852864  0.40070017  1
  Ti  Ti193  1  0.10072245  0.49577269  0.89565535  1
  Ti  Ti194  1  0.00909284  0.79345115  0.60826834  1
  Ti  Ti195  1  0.92219186  0.29041279  0.91022879  1
  Ti  Ti196  1  0.80810279  0.20166409  0.81156599  1
  Ti  Ti197  1  0.59415064  0.60388777  0.20171647  1
  Ti  Ti198  1  0.09929525  0.09689769  0.91713357  1
  Ti  Ti199  1  0.59732730  0.40551474  0.39530472  1
  Mo  Mo200  1  0.09787171  0.90624001  0.91228153  1
  Mo  Mo201  1  0.10071591  0.09355230  0.49618284  1
  Mo  Mo202  1  0.69569368  0.10057668  0.48174383  1
  Mo  Mo203  1  0.09863947  0.89403107  0.50363390  1
  Mo  Mo204  1  0.49706588  0.48859628  0.70540705  1
  Mo  Mo205  1  0.39990643  0.40756025  0.19178149  1
  Mo  Mo206  1  0.60819521  0.79426441  0.20118163  1
  Mo  Mo207  1  0.01702659  -0.00151908  0.59376173  1
  Mo  Mo208  1  -0.00060598  -0.00838037  0.19951038  1
  Mo  Mo209  1  0.80067044  0.40423802  0.19859239  1
  Mo  Mo210  1  0.89616630  0.48962718  0.09710262  1
  Mo  Mo211  1  0.00155419  0.80541454  0.00216245  1
  Mo  Mo212  1  0.80084506  -0.00443885  0.38695196  1
  Mo  Mo213  1  -0.00532339  0.60078997  0.60243969  1
  Mo  Mo214  1  0.59861062  0.60536129  0.39319165  1
  Mo  Mo215  1  0.49105850  0.29762218  0.90630522  1
  Mo  Mo216  1  -0.00023531  0.80222379  0.80204349  1
  Mo  Mo217  1  0.30196101  0.09009052  0.09633659  1
  Mo  Mo218  1  0.30142703  0.10057819  0.90510790  1
  Mo  Mo219  1  0.39125643  -0.00204629  0.59420687  1
  Mo  Mo220  1  0.09480514  0.89870323  0.29918119  1
  Mo  Mo221  1  0.39513644  0.39485758  0.00287383  1
  Mo  Mo222  1  0.09891898  0.69917845  0.70201524  1
  Mo  Mo223  1  0.80333406  0.19010700  0.20620098  1
  Mo  Mo224  1  0.20461314  0.81706626  0.80612719  1
  Mo  Mo225  1  0.19867771  -0.00104059  0.00236124  1
  Mo  Mo226  1  0.10742270  0.30127693  0.90528281  1
  Mo  Mo227  1  0.29536539  0.49230600  0.89866987  1
  Mo  Mo228  1  0.39514562  0.00170567  0.00184344  1
  Mo  Mo229  1  0.69499738  0.29289521  0.90564548  1
  Mo  Mo230  1  0.80500587  0.79449561  0.61283041  1
  Mo  Mo231  1  0.19599053  0.59940575  0.19372980  1
  Mo  Mo232  1  0.90793438  0.09370855  0.90437536  1
  Mo  Mo233  1  0.49653685  0.09712206  0.90912294  1
  Mo  Mo234  1  0.40262641  0.60814682  0.37716996  1
  Mo  Mo235  1  0.80340730  0.79834597  0.37859821  1
  Mo  Mo236  1  0.90010875  0.71629031  0.09590070  1
  Mo  Mo237  1  0.40220351  0.80263799  0.39785595  1
  Mo  Mo238  1  0.80228000  0.60214146  0.39988397  1
  Mo  Mo239  1  0.09229679  0.49768563  0.09207614  1
  Mo  Mo240  1  0.00540120  0.18532528  0.00013135  1
  Mo  Mo241  1  0.90428462  0.08833469  0.10175975  1
  Mo  Mo242  1  0.19187412  0.19511125  0.19103376  1
  Mo  Mo243  1  0.50668139  0.69459842  0.29971173  1
  Mo  Mo244  1  0.19779411  0.81334829  0.00396689  1
  Mo  Mo245  1  0.50120411  0.50529150  0.29499196  1
  Mo  Mo246  1  0.29785125  0.90304471  0.90873751  1
  Mo  Mo247  1  0.80797669  0.79937023  0.80811353  1
  Mo  Mo248  1  0.10026973  0.09426232  0.09918182  1
  Mo  Mo249  1  0.30527686  0.69636745  0.29721205  1
