# generated using pymatgen
data_HfZrTaTiMo
_symmetry_space_group_name_H-M   'P 1'
_cell_length_a   16.88686967
_cell_length_b   16.89092370
_cell_length_c   16.88721025
_cell_angle_alpha   89.95544715
_cell_angle_beta   90.01043327
_cell_angle_gamma   89.98849395
_symmetry_Int_Tables_number   1
_chemical_formula_structural   HfZrTaTiMo
_chemical_formula_sum   'Hf50 Zr50 Ta50 Ti50 Mo50'
_cell_volume   4816.81886501
_cell_formula_units_Z   50
loop_
 _symmetry_equiv_pos_site_id
 _symmetry_equiv_pos_as_xyz
  1  'x, y, z'
loop_
 _atom_site_type_symbol
 _atom_site_label
 _atom_site_symmetry_multiplicity
 _atom_site_fract_x
 _atom_site_fract_y
 _atom_site_fract_z
 _atom_site_occupancy
  Hf  Hf0  1  0.40673925  0.00976143  0.80056708  1
  Hf  Hf1  1  0.59327719  0.19430973  0.80140854  1
  Hf  Hf2  1  0.29811606  0.10152472  0.90400913  1
  Hf  Hf3  1  0.09944295  0.10119292  0.29208302  1
  Hf  Hf4  1  0.00405972  0.79518613  0.40180093  1
  Hf  Hf5  1  0.40078549  0.80008293  0.80600268  1
  Hf  Hf6  1  -0.00146424  0.39853339  0.80181914  1
  Hf  Hf7  1  0.30439666  0.30371298  0.69850531  1
  Hf  Hf8  1  0.90003282  0.10344172  0.50272460  1
  Hf  Hf9  1  0.00477744  0.39417789  0.39753013  1
  Hf  Hf10  1  0.20075842  0.20789945  0.19657508  1
  Hf  Hf11  1  0.88885584  0.50785007  0.90946536  1
  Hf  Hf12  1  0.09364311  0.91235502  0.90625731  1
  Hf  Hf13  1  0.19651690  0.39964518  0.19548806  1
  Hf  Hf14  1  0.80659628  0.21207567  -0.00019431  1
  Hf  Hf15  1  0.00472204  0.59762000  0.79636269  1
  Hf  Hf16  1  0.00101197  0.79752467  0.19850666  1
  Hf  Hf17  1  0.11395024  0.89481253  0.51941118  1
  Hf  Hf18  1  0.39519719  0.59165080  0.80421805  1
  Hf  Hf19  1  0.09535390  0.29925977  0.69711673  1
  Hf  Hf20  1  0.30870316  0.89116781  0.30397036  1
  Hf  Hf21  1  0.50017082  0.70684978  0.49942278  1
  Hf  Hf22  1  0.70431784  0.50649502  0.09298246  1
  Hf  Hf23  1  0.19439730  0.21525469  0.39519120  1
  Hf  Hf24  1  0.29847101  0.10684340  0.50567228  1
  Hf  Hf25  1  0.51058638  0.49806013  0.49568873  1
  Hf  Hf26  1  0.00063831  0.59612940  0.59814780  1
  Hf  Hf27  1  0.59775903  0.59876107  0.80031824  1
  Hf  Hf28  1  0.19828978  0.78722858  0.40524984  1
  Hf  Hf29  1  0.39759587  0.40385521  0.39249291  1
  Hf  Hf30  1  0.29607200  0.69879541  0.69587798  1
  Hf  Hf31  1  0.40491371  0.20233078  -0.00300268  1
  Hf  Hf32  1  0.89802105  0.90580958  0.70760028  1
  Hf  Hf33  1  0.89359899  0.10560086  0.29399433  1
  Hf  Hf34  1  0.50024138  0.69170459  0.91797555  1
  Hf  Hf35  1  0.59981204  0.19446545  0.60370114  1
  Hf  Hf36  1  0.69961249  0.49046452  0.70316692  1
  Hf  Hf37  1  0.60232008  0.00342030  0.59893309  1
  Hf  Hf38  1  0.30035144  0.69045004  0.90805276  1
  Hf  Hf39  1  0.29222815  0.50010670  0.49609771  1
  Hf  Hf40  1  0.80227408  0.59421888  0.59524421  1
  Hf  Hf41  1  0.59986288  0.20949605  0.18951499  1
  Hf  Hf42  1  0.39818037  0.60193927  0.39911456  1
  Hf  Hf43  1  0.59498818  0.20310254  0.00157987  1
  Hf  Hf44  1  0.70545040  0.31052764  0.29292564  1
  Hf  Hf45  1  0.40504094  0.20237363  0.19287183  1
  Hf  Hf46  1  0.60344029  0.79751946  0.80665529  1
  Hf  Hf47  1  0.19986912  0.00085766  0.40804469  1
  Hf  Hf48  1  0.69099643  0.49626298  0.49368704  1
  Hf  Hf49  1  0.49388206  0.88762784  0.69097913  1
  Zr  Zr50  1  0.20338486  0.20493870  0.80110703  1
  Zr  Zr51  1  0.71665903  0.09204197  0.70811893  1
  Zr  Zr52  1  0.49834161  0.89895145  0.30944172  1
  Zr  Zr53  1  0.89509180  0.70119652  0.49823269  1
  Zr  Zr54  1  0.29950050  0.09088055  0.09678212  1
  Zr  Zr55  1  0.70243405  0.09781214  0.09952089  1
  Zr  Zr56  1  -0.00073038  -0.00272903  0.40326231  1
  Zr  Zr57  1  0.60730495  0.20202618  0.39929092  1
  Zr  Zr58  1  0.39664673  0.21246985  0.39342030  1
  Zr  Zr59  1  0.28414250  0.50384724  0.69491379  1
  Zr  Zr60  1  0.49168231  0.31040268  0.88952290  1
  Zr  Zr61  1  0.69688241  0.69177160  0.49115658  1
  Zr  Zr62  1  0.80104859  0.79970975  0.38505050  1
  Zr  Zr63  1  0.10542860  0.89648310  0.29558213  1
  Zr  Zr64  1  -0.01352533  0.39074732  0.00019931  1
  Zr  Zr65  1  0.19802919  0.79472094  0.00920196  1
  Zr  Zr66  1  0.09906913  0.90291397  0.70673070  1
  Zr  Zr67  1  0.50185814  0.48519551  0.70441139  1
  Zr  Zr68  1  0.70793333  0.89391686  0.50161819  1
  Zr  Zr69  1  0.81230055  0.40272669  0.40732145  1
  Zr  Zr70  1  0.10823869  0.49837466  0.49545281  1
  Zr  Zr71  1  0.49062593  0.51477779  0.09728518  1
  Zr  Zr72  1  0.19345231  0.79389853  0.80908370  1
  Zr  Zr73  1  0.49793310  0.70164778  0.29910563  1
  Zr  Zr74  1  0.59410243  -0.00323712  0.80030321  1
  Zr  Zr75  1  0.49312385  0.09737645  0.49241102  1
  Zr  Zr76  1  0.49993343  0.30843474  0.50679547  1
  Zr  Zr77  1  0.89904043  0.68963463  0.08976458  1
  Zr  Zr78  1  0.40212121  0.00659318  0.60411379  1
  Zr  Zr79  1  0.50385237  0.09417521  0.29934534  1
  Zr  Zr80  1  0.09550691  0.09717456  0.89538324  1
  Zr  Zr81  1  0.10068323  0.09161915  0.08972539  1
  Zr  Zr82  1  -0.00071653  0.00447531  0.60149778  1
  Zr  Zr83  1  0.79883820  0.20703049  0.40442370  1
  Zr  Zr84  1  0.09385694  0.50054106  0.09704356  1
  Zr  Zr85  1  0.61064654  0.79298912  0.60934686  1
  Zr  Zr86  1  0.70246118  0.09206447  0.90578423  1
  Zr  Zr87  1  0.70737486  0.68385335  0.91466550  1
  Zr  Zr88  1  0.29842513  0.90682378  0.91133269  1
  Zr  Zr89  1  0.79489772  0.80337459  0.80655564  1
  Zr  Zr90  1  0.28784881  0.89634271  0.68568366  1
  Zr  Zr91  1  0.90218042  0.70006339  0.90155218  1
  Zr  Zr92  1  0.89237791  0.49666821  0.70489285  1
  Zr  Zr93  1  -0.00787216  -0.00090716  0.19174087  1
  Zr  Zr94  1  0.79464831  0.20323925  0.59974889  1
  Zr  Zr95  1  0.79684669  0.79742793  0.19778593  1
  Zr  Zr96  1  0.10284118  0.50556860  0.29714865  1
  Zr  Zr97  1  0.30553091  0.09213162  0.30106480  1
  Zr  Zr98  1  0.00657496  0.21004986  0.39779839  1
  Zr  Zr99  1  0.60033052  0.39703941  0.00262514  1
  Ta  Ta100  1  0.49382217  0.30063040  0.70137254  1
  Ta  Ta101  1  0.60528244  0.79915286  0.19493493  1
  Ta  Ta102  1  0.60192881  0.40515294  0.19350380  1
  Ta  Ta103  1  0.10612693  0.68782974  0.29652366  1
  Ta  Ta104  1  0.30555156  0.89724740  0.10256261  1
  Ta  Ta105  1  0.70353724  0.09617652  0.29500710  1
  Ta  Ta106  1  0.19917693  0.20850050  0.00143888  1
  Ta  Ta107  1  0.50334196  0.50324373  0.29111677  1
  Ta  Ta108  1  0.69612448  0.50182936  0.29846792  1
  Ta  Ta109  1  0.30635543  0.89290575  0.50347112  1
  Ta  Ta110  1  0.90484336  0.90735926  0.90194553  1
  Ta  Ta111  1  0.89645436  0.89276301  0.50940710  1
  Ta  Ta112  1  0.09628399  0.10561032  0.69995727  1
  Ta  Ta113  1  0.09970031  0.68937959  0.10197222  1
  Ta  Ta114  1  -0.00834997  0.19810653  0.00050627  1
  Ta  Ta115  1  0.59798030  0.59936492  0.60712674  1
  Ta  Ta116  1  0.00247203  0.40363808  0.59717506  1
  Ta  Ta117  1  0.90076049  0.89953627  0.08905194  1
  Ta  Ta118  1  0.40747306  -0.00619113  0.19592926  1
  Ta  Ta119  1  0.40373458  0.59897641  0.59807296  1
  Ta  Ta120  1  0.29290159  0.30867532  0.50935189  1
  Ta  Ta121  1  0.29639574  0.31019179  0.90464227  1
  Ta  Ta122  1  0.60450199  0.79614539  0.00988789  1
  Ta  Ta123  1  0.50287544  0.89649840  0.10020299  1
  Ta  Ta124  1  0.50465053  0.89877970  0.91418810  1
  Ta  Ta125  1  -0.00531926  0.20572674  0.18710802  1
  Ta  Ta126  1  0.80566031  0.20503093  0.80682428  1
  Ta  Ta127  1  0.00106633  0.79049097  0.60540128  1
  Ta  Ta128  1  0.29787682  0.69485695  0.29455193  1
  Ta  Ta129  1  0.89281090  0.49441009  0.10442663  1
  Ta  Ta130  1  0.60290182  0.60870151  0.19236016  1
  Ta  Ta131  1  0.80172207  0.38927808  0.80838928  1
  Ta  Ta132  1  0.10198395  0.50031257  0.90378123  1
  Ta  Ta133  1  0.90024188  0.30852802  0.28144804  1
  Ta  Ta134  1  0.60338260  -0.00631255  0.19778324  1
  Ta  Ta135  1  0.20198168  0.59328896  0.00162632  1
  Ta  Ta136  1  0.89966906  0.49893736  0.29138578  1
  Ta  Ta137  1  0.30018035  0.50943938  0.28732163  1
  Ta  Ta138  1  0.70213091  0.49714743  0.89935692  1
  Ta  Ta139  1  0.09554161  0.30209043  0.09423254  1
  Ta  Ta140  1  0.79671235  0.60118406  0.20250445  1
  Ta  Ta141  1  0.30387444  0.49897552  0.09703779  1
  Ta  Ta142  1  0.68762613  0.31719877  0.50520228  1
  Ta  Ta143  1  0.19437592  0.40663084  0.80345787  1
  Ta  Ta144  1  0.90269189  0.29486870  0.70088196  1
  Ta  Ta145  1  0.80113438  -0.00276940  0.19559290  1
  Ta  Ta146  1  0.20263710  0.79197403  0.19459088  1
  Ta  Ta147  1  0.09822294  0.30030274  0.90322770  1
  Ta  Ta148  1  0.10431728  0.69555216  0.69990021  1
  Ta  Ta149  1  0.70136661  0.90364270  0.09364667  1
  Ti  Ti150  1  0.91262777  0.29754537  0.51372173  1
  Ti  Ti151  1  0.19776623  0.39135444  0.39059490  1
  Ti  Ti152  1  0.30329245  0.11254251  0.69539795  1
  Ti  Ti153  1  0.89872309  0.90359019  0.29908518  1
  Ti  Ti154  1  0.90575886  0.69027376  0.29865635  1
  Ti  Ti155  1  0.20544441  0.00694285  0.79136128  1
  Ti  Ti156  1  -0.00147697  0.59726609  0.40402514  1
  Ti  Ti157  1  0.48991793  0.89289985  0.49524604  1
  Ti  Ti158  1  0.30661956  0.31151297  0.28728952  1
  Ti  Ti159  1  0.49307488  0.69773921  0.69723466  1
  Ti  Ti160  1  0.09680306  0.68826386  0.90810176  1
  Ti  Ti161  1  0.90775820  0.10460021  0.71099395  1
  Ti  Ti162  1  0.50657959  0.08724101  0.09552765  1
  Ti  Ti163  1  0.40318617  0.79489281  0.01145680  1
  Ti  Ti164  1  0.19627183  0.20700730  0.59789530  1
  Ti  Ti165  1  0.00182739  0.79591863  0.80150775  1
  Ti  Ti166  1  0.10176269  0.90146387  0.09492101  1
  Ti  Ti167  1  0.69512339  0.68871868  0.30273850  1
  Ti  Ti168  1  0.80677020  0.59189877  0.39498541  1
  Ti  Ti169  1  0.30822540  0.68545884  0.10576383  1
  Ti  Ti170  1  0.80040142  0.00103632  0.59510140  1
  Ti  Ti171  1  0.80259820  0.20529160  0.18773371  1
  Ti  Ti172  1  0.39710845  0.40651908  0.59827873  1
  Ti  Ti173  1  0.70263461  0.90851260  0.91052217  1
  Ti  Ti174  1  0.49887751  0.49968057  0.90876490  1
  Ti  Ti175  1  0.81242431  0.00526795  0.00375551  1
  Ti  Ti176  1  0.19153614  0.60598895  0.59191088  1
  Ti  Ti177  1  0.79625735  0.80214440  0.00306784  1
  Ti  Ti178  1  0.70023996  0.90702319  0.29533005  1
  Ti  Ti179  1  0.20535090  -0.00979871  0.19635364  1
  Ti  Ti180  1  0.80527804  0.39689203  0.59780231  1
  Ti  Ti181  1  0.71271555  0.69135188  0.70442851  1
  Ti  Ti182  1  0.71068806  0.90296070  0.70181518  1
  Ti  Ti183  1  0.90544630  0.09484891  0.89378120  1
  Ti  Ti184  1  0.50454174  0.31416212  0.29301932  1
  Ti  Ti185  1  0.40326245  0.79438876  0.19292469  1
  Ti  Ti186  1  0.69878352  0.30501332  0.89942253  1
  Ti  Ti187  1  0.79746474  0.00115041  0.40065005  1
  Ti  Ti188  1  0.69583187  0.30594118  0.70346009  1
  Ti  Ti189  1  0.30271444  0.31425111  0.09074615  1
  Ti  Ti190  1  0.09979555  0.11056394  0.50987546  1
  Ti  Ti191  1  0.00402088  0.79885036  0.00164747  1
  Ti  Ti192  1  -0.00439516  0.59740518  0.19858432  1
  Ti  Ti193  1  0.38671254  0.40878033  0.80683264  1
  Ti  Ti194  1  0.60552898  0.80207666  0.39485399  1
  Ti  Ti195  1  0.48445338  0.32082131  0.10021183  1
  Ti  Ti196  1  0.30219666  0.70174878  0.50420383  1
  Ti  Ti197  1  0.89398142  0.70247692  0.70209096  1
  Ti  Ti198  1  0.61088676  0.00102316  0.40434532  1
  Ti  Ti199  1  0.40802813  -0.00005588  0.00155041  1
  Mo  Mo200  1  -0.00372829  0.00709533  0.80063478  1
  Mo  Mo201  1  0.20247373  -0.00346751  0.00776954  1
  Mo  Mo202  1  0.80773817  0.79781313  0.61263402  1
  Mo  Mo203  1  0.49541244  0.09644724  0.90418356  1
  Mo  Mo204  1  0.70664100  0.30960804  0.10100441  1
  Mo  Mo205  1  0.10122050  0.50082687  0.70100939  1
  Mo  Mo206  1  0.10710581  0.30430898  0.50963658  1
  Mo  Mo207  1  0.79703585  0.59560888  0.79653730  1
  Mo  Mo208  1  0.00567202  0.59667338  0.00072096  1
  Mo  Mo209  1  0.79558050  0.39634583  0.00049527  1
  Mo  Mo210  1  0.39922304  0.60280476  0.19896193  1
  Mo  Mo211  1  0.19504409  0.40027210  0.60300453  1
  Mo  Mo212  1  0.19843122  0.39896289  -0.00193223  1
  Mo  Mo213  1  0.39398515  0.59751971  0.00194313  1
  Mo  Mo214  1  0.80054194  0.59492153  0.00664903  1
  Mo  Mo215  1  0.60111310  0.39573846  0.61146257  1
  Mo  Mo216  1  0.48934247  0.11436387  0.70210985  1
  Mo  Mo217  1  0.59441522  -0.00697875  0.00420360  1
  Mo  Mo218  1  0.39827228  0.40411576  0.19875421  1
  Mo  Mo219  1  0.59690002  0.40219923  0.38277461  1
  Mo  Mo220  1  0.80602557  0.00146156  0.81150570  1
  Mo  Mo221  1  -0.00623168  -0.00075991  -0.00147541  1
  Mo  Mo222  1  0.89773828  0.09980578  0.09630996  1
  Mo  Mo223  1  -0.00544747  0.20036953  0.80210319  1
  Mo  Mo224  1  0.70442767  0.09055186  0.49150284  1
  Mo  Mo225  1  0.19600372  0.78183751  0.59667311  1
  Mo  Mo226  1  0.09863748  0.69556336  0.50134124  1
  Mo  Mo227  1  0.29142412  0.49754646  0.90395935  1
  Mo  Mo228  1  0.90411174  0.49583633  0.49614215  1
  Mo  Mo229  1  0.19229636  0.59716575  0.80833920  1
  Mo  Mo230  1  0.60010192  0.59962365  0.00111509  1
  Mo  Mo231  1  0.89770271  0.30127527  0.10073582  1
  Mo  Mo232  1  0.39221295  0.40527482  -0.00305356  1
  Mo  Mo233  1  0.09467057  0.30284004  0.28304372  1
  Mo  Mo234  1  0.39296330  0.79575847  0.40513983  1
  Mo  Mo235  1  0.59867511  0.59822105  0.38820312  1
  Mo  Mo236  1  0.39747903  0.20997487  0.60415204  1
  Mo  Mo237  1  0.49995664  0.70675168  0.10186506  1
  Mo  Mo238  1  0.39985427  0.20129847  0.79892293  1
  Mo  Mo239  1  -0.00326911  0.39773014  0.19755211  1
  Mo  Mo240  1  0.19966188  0.02314609  0.60352007  1
  Mo  Mo241  1  0.39517428  0.79079891  0.59643853  1
  Mo  Mo242  1  0.20442406  0.60160747  0.19274286  1
  Mo  Mo243  1  0.79879140  0.40674136  0.19750206  1
  Mo  Mo244  1  0.39605237  -0.00902822  0.40337579  1
  Mo  Mo245  1  0.60958599  0.39463992  0.80476585  1
  Mo  Mo246  1  -0.00120339  0.20257850  0.60453968  1
  Mo  Mo247  1  0.69976104  0.70244492  0.10370268  1
  Mo  Mo248  1  0.90112603  0.29493377  0.89583769  1
  Mo  Mo249  1  0.20669331  0.60478666  0.39535883  1
