# generated using pymatgen
data_HfZrTaTiMo
_symmetry_space_group_name_H-M   'P 1'
_cell_length_a   16.88725296
_cell_length_b   16.88126703
_cell_length_c   16.88912026
_cell_angle_alpha   89.99582441
_cell_angle_beta   89.98279642
_cell_angle_gamma   90.07158975
_symmetry_Int_Tables_number   1
_chemical_formula_structural   HfZrTaTiMo
_chemical_formula_sum   'Hf50 Zr50 Ta50 Ti50 Mo50'
_cell_volume   4814.71646352
_cell_formula_units_Z   50
loop_
 _symmetry_equiv_pos_site_id
 _symmetry_equiv_pos_as_xyz
  1  'x, y, z'
loop_
 _atom_site_type_symbol
 _atom_site_label
 _atom_site_symmetry_multiplicity
 _atom_site_fract_x
 _atom_site_fract_y
 _atom_site_fract_z
 _atom_site_occupancy
  Hf  Hf0  1  0.89813680  0.31874614  0.89321851  1
  Hf  Hf1  1  0.80444505  -0.01253626  0.00520146  1
  Hf  Hf2  1  0.89683833  0.29768543  0.69479650  1
  Hf  Hf3  1  0.30362748  0.50330539  0.50188033  1
  Hf  Hf4  1  0.69399416  0.09967507  0.10184117  1
  Hf  Hf5  1  0.79853179  0.60734594  0.20629939  1
  Hf  Hf6  1  0.79597833  0.59886968  0.39101155  1
  Hf  Hf7  1  0.19413053  0.79727410  0.60095083  1
  Hf  Hf8  1  0.39397851  0.40361267  -0.00340551  1
  Hf  Hf9  1  0.11026932  0.49503244  0.29866378  1
  Hf  Hf10  1  -0.00406400  0.80120452  0.60749253  1
  Hf  Hf11  1  0.49782050  0.29685867  0.89651414  1
  Hf  Hf12  1  0.90204869  0.90238221  0.30636829  1
  Hf  Hf13  1  0.70750746  0.09492354  0.69216153  1
  Hf  Hf14  1  0.11503446  0.09531728  0.30606081  1
  Hf  Hf15  1  0.60779282  -0.00646759  0.39799629  1
  Hf  Hf16  1  0.20055155  0.20521222  0.60236805  1
  Hf  Hf17  1  0.49801732  0.70447440  0.09881791  1
  Hf  Hf18  1  0.30433816  0.89401425  0.70158019  1
  Hf  Hf19  1  0.20852331  -0.00470660  -0.00387696  1
  Hf  Hf20  1  0.88999754  0.10281185  0.30767561  1
  Hf  Hf21  1  0.10867199  0.10311566  0.09882279  1
  Hf  Hf22  1  0.19109118  0.58995305  -0.00367889  1
  Hf  Hf23  1  0.60401132  0.59828288  0.20251827  1
  Hf  Hf24  1  0.19956876  0.80478337  -0.01357430  1
  Hf  Hf25  1  0.50253462  0.90184464  0.90213861  1
  Hf  Hf26  1  0.19263648  0.60080888  0.60437832  1
  Hf  Hf27  1  -0.00731208  0.40431948  0.39861316  1
  Hf  Hf28  1  0.39123417  0.80845828  -0.00159512  1
  Hf  Hf29  1  0.00523004  0.19558191  0.80849555  1
  Hf  Hf30  1  0.30924072  0.10376911  0.70410013  1
  Hf  Hf31  1  0.09711311  0.69650492  0.09560796  1
  Hf  Hf32  1  0.61211666  0.21242309  0.39259100  1
  Hf  Hf33  1  0.90351092  0.70849114  0.08599718  1
  Hf  Hf34  1  0.69943310  0.30555054  0.90023524  1
  Hf  Hf35  1  0.30464736  0.89974661  0.50479344  1
  Hf  Hf36  1  0.40026017  0.58975991  0.20542599  1
  Hf  Hf37  1  0.31008390  0.10324268  0.90075111  1
  Hf  Hf38  1  0.38549440  0.80928469  0.19623705  1
  Hf  Hf39  1  -0.00341674  -0.00259558  0.19677566  1
  Hf  Hf40  1  0.20135277  0.39560246  -0.00294380  1
  Hf  Hf41  1  0.80178733  0.80376576  0.19509671  1
  Hf  Hf42  1  0.71054189  0.49671097  0.89302267  1
  Hf  Hf43  1  0.39756367  0.00233379  0.39621831  1
  Hf  Hf44  1  0.49967330  0.70194223  0.30032562  1
  Hf  Hf45  1  -0.00565291  0.60012059  0.39302655  1
  Hf  Hf46  1  -0.00077497  0.59584653  0.60646940  1
  Hf  Hf47  1  0.09265977  0.89245869  0.09339210  1
  Hf  Hf48  1  0.09505479  0.30561201  0.70595732  1
  Hf  Hf49  1  0.88998025  0.49478132  0.50693513  1
  Zr  Zr50  1  0.29660490  0.69441381  0.88501019  1
  Zr  Zr51  1  0.30922966  0.51199784  0.70838575  1
  Zr  Zr52  1  -0.00513605  0.60043457  0.20755114  1
  Zr  Zr53  1  0.49594272  0.89512623  0.50976774  1
  Zr  Zr54  1  0.11800331  0.30706617  0.30188619  1
  Zr  Zr55  1  0.29650516  0.69242541  0.30082698  1
  Zr  Zr56  1  0.90287722  0.08890537  0.68299862  1
  Zr  Zr57  1  0.79632216  0.60748003  0.62673771  1
  Zr  Zr58  1  0.60983871  0.60581320  0.79291227  1
  Zr  Zr59  1  0.79950924  0.19333361  0.80491439  1
  Zr  Zr60  1  0.50222939  0.10418023  0.50344995  1
  Zr  Zr61  1  0.39404563  0.59798444  0.00101029  1
  Zr  Zr62  1  0.09184761  0.48797352  0.88190895  1
  Zr  Zr63  1  0.50700900  0.30975552  0.50123744  1
  Zr  Zr64  1  0.49933411  0.29726085  0.09549761  1
  Zr  Zr65  1  0.89301821  0.30221861  0.30001181  1
  Zr  Zr66  1  0.89876555  0.10584298  0.09679318  1
  Zr  Zr67  1  0.19700828  -0.00490273  0.81043379  1
  Zr  Zr68  1  0.00706581  0.40192316  0.00583190  1
  Zr  Zr69  1  0.80366675  -0.01173963  0.80443665  1
  Zr  Zr70  1  0.40525287  0.40776991  0.39277192  1
  Zr  Zr71  1  0.60288502  0.59985970  -0.00233867  1
  Zr  Zr72  1  0.01237313  0.20869806  -0.00496941  1
  Zr  Zr73  1  0.60345632  0.79705451  0.79817167  1
  Zr  Zr74  1  0.78595804  0.21492413  0.19864615  1
  Zr  Zr75  1  -0.00289025  -0.00320644  0.81311094  1
  Zr  Zr76  1  0.19756074  0.79673825  0.39969383  1
  Zr  Zr77  1  0.19927840  -0.00009086  0.60156518  1
  Zr  Zr78  1  0.49738120  0.90477182  0.29601920  1
  Zr  Zr79  1  0.49991475  0.10251693  0.28621923  1
  Zr  Zr80  1  0.60544819  0.19348195  0.80226744  1
  Zr  Zr81  1  0.89132732  0.70177381  0.50786914  1
  Zr  Zr82  1  0.79929281  0.78372683  0.78895618  1
  Zr  Zr83  1  0.60417152  0.00410170  -0.00403379  1
  Zr  Zr84  1  0.89394714  0.90950329  0.51055511  1
  Zr  Zr85  1  -0.01306348  0.60022956  0.79297077  1
  Zr  Zr86  1  0.89268781  0.50324292  0.09321243  1
  Zr  Zr87  1  0.69253002  0.49471305  0.50705709  1
  Zr  Zr88  1  0.30815712  0.10279903  0.50303572  1
  Zr  Zr89  1  0.00499320  0.20642391  0.19800030  1
  Zr  Zr90  1  0.49864527  0.09794348  0.69851276  1
  Zr  Zr91  1  0.00527937  0.20256093  0.40288788  1
  Zr  Zr92  1  0.78622639  -0.01301589  0.19976057  1
  Zr  Zr93  1  0.00175370  0.79395887  0.39771494  1
  Zr  Zr94  1  0.20268916  0.40322335  0.60463222  1
  Zr  Zr95  1  0.21320367  -0.00623055  0.19419118  1
  Zr  Zr96  1  0.71212529  0.10585286  0.50242620  1
  Zr  Zr97  1  0.78788590  0.79476966  0.39146694  1
  Zr  Zr98  1  0.89701694  0.10147684  0.50354304  1
  Zr  Zr99  1  0.61327149  0.81122348  0.20250211  1
  Ta  Ta100  1  0.49887909  0.89830271  0.69852314  1
  Ta  Ta101  1  0.60132390  0.20892197  0.19588686  1
  Ta  Ta102  1  0.10320089  0.09925003  0.50072205  1
  Ta  Ta103  1  0.30445535  0.70106686  0.69841393  1
  Ta  Ta104  1  0.70372864  0.89000187  0.90410869  1
  Ta  Ta105  1  0.60420037  -0.00623057  0.60174724  1
  Ta  Ta106  1  0.49876830  0.49500150  0.10040329  1
  Ta  Ta107  1  0.58997212  0.59408540  0.60193956  1
  Ta  Ta108  1  0.49933763  0.30089809  0.29258330  1
  Ta  Ta109  1  0.49588274  0.10115616  0.90208721  1
  Ta  Ta110  1  0.50150199  0.30157197  0.70074396  1
  Ta  Ta111  1  0.09953225  0.69367925  0.49994359  1
  Ta  Ta112  1  0.20395347  0.20464913  -0.00339865  1
  Ta  Ta113  1  0.49589971  0.91493169  0.10222177  1
  Ta  Ta114  1  0.19804150  0.59940707  0.40286936  1
  Ta  Ta115  1  0.78898837  0.39467840  0.39722913  1
  Ta  Ta116  1  0.59649597  0.59940606  0.40075674  1
  Ta  Ta117  1  0.19484688  0.79839875  0.20044514  1
  Ta  Ta118  1  0.09401691  0.90196103  0.70501694  1
  Ta  Ta119  1  0.00118856  0.40684709  0.19666120  1
  Ta  Ta120  1  0.48921079  0.69859554  0.69500668  1
  Ta  Ta121  1  0.40301777  -0.00641312  0.80589774  1
  Ta  Ta122  1  0.70453358  0.70475929  0.09070325  1
  Ta  Ta123  1  0.49937053  0.50215904  0.89387036  1
  Ta  Ta124  1  0.39944568  0.39961742  0.20293628  1
  Ta  Ta125  1  0.41163933  0.40949971  0.60526699  1
  Ta  Ta126  1  0.30691060  0.69601766  0.50769657  1
  Ta  Ta127  1  0.10583417  0.30514333  0.49790801  1
  Ta  Ta128  1  0.30259394  0.29836029  0.10618255  1
  Ta  Ta129  1  0.09743965  0.09850604  0.69882358  1
  Ta  Ta130  1  0.31101184  0.29875646  0.70452820  1
  Ta  Ta131  1  0.29178093  0.49598119  0.10904706  1
  Ta  Ta132  1  0.89606601  0.69550393  0.90053193  1
  Ta  Ta133  1  0.49825542  0.69902978  0.89734061  1
  Ta  Ta134  1  0.29077103  0.69668328  0.10090681  1
  Ta  Ta135  1  0.39925954  0.79430058  0.40290741  1
  Ta  Ta136  1  0.30378042  0.30760387  0.49923050  1
  Ta  Ta137  1  0.19693286  0.20062317  0.80712657  1
  Ta  Ta138  1  0.60233081  0.79295964  0.40385075  1
  Ta  Ta139  1  0.40056666  0.79994068  0.80107548  1
  Ta  Ta140  1  0.88895937  0.29561446  0.50218007  1
  Ta  Ta141  1  0.60162234  0.40080376  0.19970837  1
  Ta  Ta142  1  0.21271671  0.20390622  0.40237258  1
  Ta  Ta143  1  0.00138315  0.79638199  0.20629961  1
  Ta  Ta144  1  0.40504202  0.40228267  0.79804543  1
  Ta  Ta145  1  0.59605710  0.40420728  0.79412829  1
  Ta  Ta146  1  0.40695773  0.59596568  0.40192227  1
  Ta  Ta147  1  0.10390847  0.90314410  0.30316729  1
  Ta  Ta148  1  0.60903815  0.21115711  0.60082456  1
  Ta  Ta149  1  0.49598131  0.69780803  0.50512005  1
  Ti  Ti150  1  -0.00114366  0.39944473  0.59696499  1
  Ti  Ti151  1  0.88961198  0.48263216  0.71245702  1
  Ti  Ti152  1  0.00643037  0.20155565  0.59553768  1
  Ti  Ti153  1  0.70202525  0.89494364  0.69344536  1
  Ti  Ti154  1  0.09536083  0.48984653  0.70396221  1
  Ti  Ti155  1  0.79596698  0.39948759  0.00693636  1
  Ti  Ti156  1  -0.00504007  0.80359015  0.79999871  1
  Ti  Ti157  1  0.60560556  0.19800027  -0.00130756  1
  Ti  Ti158  1  0.69962906  0.49984896  0.09804852  1
  Ti  Ti159  1  0.60297250  0.80042728  0.00040275  1
  Ti  Ti160  1  0.90322893  0.88026674  0.91561005  1
  Ti  Ti161  1  0.30634160  0.10396920  0.29524800  1
  Ti  Ti162  1  0.40481438  0.21165446  0.60024452  1
  Ti  Ti163  1  0.30237131  0.50399717  0.89006170  1
  Ti  Ti164  1  0.49409298  0.09803723  0.10121740  1
  Ti  Ti165  1  0.00340521  -0.00308200  -0.00605351  1
  Ti  Ti166  1  0.69736910  0.49550289  0.29956813  1
  Ti  Ti167  1  0.89638272  0.10286986  0.91112107  1
  Ti  Ti168  1  0.60699148  -0.00115822  0.80195830  1
  Ti  Ti169  1  0.29502085  0.90398646  0.30536333  1
  Ti  Ti170  1  0.79227025  0.20353065  0.00006081  1
  Ti  Ti171  1  0.19495252  0.59970070  0.19986289  1
  Ti  Ti172  1  0.69956839  0.10071814  0.29647541  1
  Ti  Ti173  1  0.21558126  0.20279539  0.20261768  1
  Ti  Ti174  1  0.78851229  0.39095905  0.59861296  1
  Ti  Ti175  1  0.60027135  0.40409930  0.00209859  1
  Ti  Ti176  1  0.39799802  0.20876266  0.39173327  1
  Ti  Ti177  1  0.09073848  0.70689287  0.89468306  1
  Ti  Ti178  1  0.18986242  0.60300116  0.79588197  1
  Ti  Ti179  1  0.30687569  0.29354081  0.89331501  1
  Ti  Ti180  1  0.69383190  0.69743212  0.50935027  1
  Ti  Ti181  1  0.10020391  0.70864388  0.70981317  1
  Ti  Ti182  1  0.70185248  0.89322543  0.50895089  1
  Ti  Ti183  1  0.59824215  0.40635460  0.39307335  1
  Ti  Ti184  1  0.20793080  0.39201735  0.80235740  1
  Ti  Ti185  1  0.89603655  0.30365061  0.09866624  1
  Ti  Ti186  1  0.79407021  0.40339502  0.20009377  1
  Ti  Ti187  1  0.00017002  0.59215847  -0.00818397  1
  Ti  Ti188  1  0.29054732  0.49218282  0.30033694  1
  Ti  Ti189  1  0.31449090  0.09968028  0.10185562  1
  Ti  Ti190  1  0.39839608  0.19963744  0.00364119  1
  Ti  Ti191  1  0.69942123  0.30498488  0.70021946  1
  Ti  Ti192  1  0.69908167  0.49229417  0.70142098  1
  Ti  Ti193  1  0.78999707  -0.00532194  0.39959937  1
  Ti  Ti194  1  0.10235951  0.49529776  0.49604990  1
  Ti  Ti195  1  0.09988776  0.90918402  0.49760565  1
  Ti  Ti196  1  0.60040770  0.79391368  0.60224461  1
  Ti  Ti197  1  0.79625880  0.60426965  -0.00832404  1
  Ti  Ti198  1  0.00614698  0.00279537  0.40381943  1
  Ti  Ti199  1  0.11465204  0.30635976  0.11059902  1
  Mo  Mo200  1  0.79192136  0.39942968  0.79191227  1
  Mo  Mo201  1  0.90755019  0.70516576  0.70452756  1
  Mo  Mo202  1  0.10397004  0.49934938  0.10635301  1
  Mo  Mo203  1  0.19402804  0.79752472  0.79625035  1
  Mo  Mo204  1  0.20672545  0.39931763  0.19723556  1
  Mo  Mo205  1  0.50284507  0.49960176  0.69967673  1
  Mo  Mo206  1  0.79171678  -0.01587436  0.60241138  1
  Mo  Mo207  1  0.01015794  -0.00260800  0.60046344  1
  Mo  Mo208  1  0.79424274  0.20584132  0.39953273  1
  Mo  Mo209  1  0.70295029  0.09611478  0.90478751  1
  Mo  Mo210  1  0.20259736  0.00417692  0.39924138  1
  Mo  Mo211  1  0.69315816  0.69855584  0.30202733  1
  Mo  Mo212  1  0.80023935  0.59568513  0.80328827  1
  Mo  Mo213  1  0.69233583  0.31109750  0.29739048  1
  Mo  Mo214  1  0.39528267  0.00309607  0.19542810  1
  Mo  Mo215  1  0.40320129  0.00383783  0.00238086  1
  Mo  Mo216  1  0.59885404  0.40203045  0.61090303  1
  Mo  Mo217  1  0.70368075  0.70056788  0.90910026  1
  Mo  Mo218  1  0.68919362  0.89619476  0.09102860  1
  Mo  Mo219  1  0.69807448  0.90117259  0.30922402  1
  Mo  Mo220  1  -0.00872500  0.39801989  0.79443796  1
  Mo  Mo221  1  0.89039904  0.50321408  0.89862865  1
  Mo  Mo222  1  0.30684347  0.90002369  0.89403694  1
  Mo  Mo223  1  0.30837807  0.29538249  0.29936934  1
  Mo  Mo224  1  0.20712517  0.40041780  0.40471465  1
  Mo  Mo225  1  0.90142689  0.89577568  0.69954475  1
  Mo  Mo226  1  0.50273655  0.50474766  0.49974272  1
  Mo  Mo227  1  0.40876572  -0.00297200  0.60941476  1
  Mo  Mo228  1  0.59625882  0.00810945  0.19632379  1
  Mo  Mo229  1  0.69965841  0.30616899  0.49949764  1
  Mo  Mo230  1  0.50676968  0.49734852  0.29749483  1
  Mo  Mo231  1  0.29805818  0.89613735  0.09731153  1
  Mo  Mo232  1  0.89036509  0.49113499  0.29756064  1
  Mo  Mo233  1  0.39933791  0.79525139  0.60354771  1
  Mo  Mo234  1  0.79308667  0.21443779  0.59886554  1
  Mo  Mo235  1  0.68650328  0.70182712  0.68780975  1
  Mo  Mo236  1  0.09182505  0.89451746  0.89663936  1
  Mo  Mo237  1  0.40131953  0.20477878  0.80179266  1
  Mo  Mo238  1  0.10968558  0.29932051  0.89468667  1
  Mo  Mo239  1  0.40378604  0.60062661  0.59829578  1
  Mo  Mo240  1  0.89934619  0.70240786  0.29456499  1
  Mo  Mo241  1  0.00192899  0.79379649  -0.00871456  1
  Mo  Mo242  1  0.91234002  0.89446843  0.09599865  1
  Mo  Mo243  1  0.40993702  0.60185242  0.79954738  1
  Mo  Mo244  1  0.79138755  0.79957293  0.60325321  1
  Mo  Mo245  1  0.39863696  0.20118634  0.19527774  1
  Mo  Mo246  1  0.10640988  0.10117019  0.90538561  1
  Mo  Mo247  1  0.69597629  0.30862317  0.09361708  1
  Mo  Mo248  1  0.79803851  0.79807519  -0.00294740  1
  Mo  Mo249  1  0.10270286  0.69961745  0.30054215  1
