# generated using pymatgen
data_HfZrTaTiMo
_symmetry_space_group_name_H-M   'P 1'
_cell_length_a   16.87689945
_cell_length_b   16.89124120
_cell_length_c   16.87494231
_cell_angle_alpha   90.00535892
_cell_angle_beta   89.96695767
_cell_angle_gamma   89.98573449
_symmetry_Int_Tables_number   1
_chemical_formula_structural   HfZrTaTiMo
_chemical_formula_sum   'Hf50 Zr50 Ta50 Ti50 Mo50'
_cell_volume   4810.56886021
_cell_formula_units_Z   50
loop_
 _symmetry_equiv_pos_site_id
 _symmetry_equiv_pos_as_xyz
  1  'x, y, z'
loop_
 _atom_site_type_symbol
 _atom_site_label
 _atom_site_symmetry_multiplicity
 _atom_site_fract_x
 _atom_site_fract_y
 _atom_site_fract_z
 _atom_site_occupancy
  Hf  Hf0  1  0.60377467  0.79550641  0.60524803  1
  Hf  Hf1  1  -0.00046694  0.80891370  0.60074204  1
  Hf  Hf2  1  0.80283146  0.19546302  0.39986465  1
  Hf  Hf3  1  0.29722291  0.50035841  0.70224162  1
  Hf  Hf4  1  0.90194875  0.70275370  0.10385179  1
  Hf  Hf5  1  0.29371001  0.50018055  0.89430684  1
  Hf  Hf6  1  0.69714579  0.50140568  0.50160144  1
  Hf  Hf7  1  0.19533033  0.01424468  0.18985602  1
  Hf  Hf8  1  0.09968531  0.71274160  0.30116537  1
  Hf  Hf9  1  0.10460933  0.09831949  0.50387891  1
  Hf  Hf10  1  -0.00542550  0.40211125  0.60374074  1
  Hf  Hf11  1  0.60337078  0.80185051  -0.00676150  1
  Hf  Hf12  1  0.50340948  0.90657075  0.88865646  1
  Hf  Hf13  1  0.70160615  0.10084265  0.10364775  1
  Hf  Hf14  1  0.30236661  0.10793628  0.31105726  1
  Hf  Hf15  1  0.50190730  0.29273375  0.89896212  1
  Hf  Hf16  1  0.90076779  0.50004478  0.29911115  1
  Hf  Hf17  1  0.59833867  0.39365594  0.79401480  1
  Hf  Hf18  1  0.70608502  0.90614075  0.10494491  1
  Hf  Hf19  1  0.20165792  0.01725258  -0.00420110  1
  Hf  Hf20  1  0.20451604  0.79019266  0.00225931  1
  Hf  Hf21  1  0.29690827  0.49848096  0.10565300  1
  Hf  Hf22  1  0.19173557  0.39281329  0.00346094  1
  Hf  Hf23  1  -0.00722866  0.80344668  0.79157944  1
  Hf  Hf24  1  0.70453164  0.30085364  0.50584405  1
  Hf  Hf25  1  0.50690661  0.69778140  0.49936196  1
  Hf  Hf26  1  0.69868199  0.29538388  0.09561817  1
  Hf  Hf27  1  0.50074452  0.70004228  0.10379247  1
  Hf  Hf28  1  0.00558489  0.39227101  0.40558086  1
  Hf  Hf29  1  0.49492904  0.89912626  0.70036147  1
  Hf  Hf30  1  0.19712797  0.60377677  0.60144873  1
  Hf  Hf31  1  0.50045962  0.49013917  0.10996299  1
  Hf  Hf32  1  0.00231217  0.01090526  0.00574892  1
  Hf  Hf33  1  0.01390355  0.19942845  0.19721331  1
  Hf  Hf34  1  0.10321830  0.91117329  0.88948150  1
  Hf  Hf35  1  0.69395514  0.49805976  0.30710161  1
  Hf  Hf36  1  0.20655977  0.80443089  0.59192490  1
  Hf  Hf37  1  0.39097826  0.60857600  -0.00072254  1
  Hf  Hf38  1  0.69918660  0.10818159  0.70561464  1
  Hf  Hf39  1  0.81711663  0.59241510  0.79567910  1
  Hf  Hf40  1  0.60663209  0.59695785  -0.00144765  1
  Hf  Hf41  1  -0.00323893  0.80774013  0.00054076  1
  Hf  Hf42  1  0.80055132  0.19834954  0.20969491  1
  Hf  Hf43  1  0.40570171  0.80351340  0.20825323  1
  Hf  Hf44  1  0.50062216  0.29597565  0.10652391  1
  Hf  Hf45  1  0.80722552  0.00368262  0.79612898  1
  Hf  Hf46  1  0.01023636  0.39088471  0.19953889  1
  Hf  Hf47  1  0.39812731  0.80254211  0.40576751  1
  Hf  Hf48  1  0.29981927  0.90581864  0.89467453  1
  Hf  Hf49  1  0.10597880  0.49839190  0.49651562  1
  Zr  Zr50  1  0.49225239  0.50687580  0.69390448  1
  Zr  Zr51  1  0.59582782  0.00514762  -0.00121909  1
  Zr  Zr52  1  0.90949353  0.70083733  0.29832246  1
  Zr  Zr53  1  0.89953831  0.90377108  0.89652081  1
  Zr  Zr54  1  0.09350201  0.70975936  0.49631111  1
  Zr  Zr55  1  0.49514312  0.29013172  0.29710578  1
  Zr  Zr56  1  0.60332275  -0.00514964  0.60045262  1
  Zr  Zr57  1  0.39979642  0.79708028  -0.00587384  1
  Zr  Zr58  1  0.00112255  0.39719072  -0.00619439  1
  Zr  Zr59  1  0.09460742  0.69661302  0.89340827  1
  Zr  Zr60  1  0.09818143  0.09735395  0.69704688  1
  Zr  Zr61  1  0.79652435  0.79973041  0.39985361  1
  Zr  Zr62  1  0.49738156  0.28725424  0.49835474  1
  Zr  Zr63  1  0.60008214  0.80858885  0.21537026  1
  Zr  Zr64  1  0.70894362  0.70420697  0.09617698  1
  Zr  Zr65  1  0.39922175  0.39499914  0.59827828  1
  Zr  Zr66  1  0.00257817  0.20525658  0.40393619  1
  Zr  Zr67  1  0.29827768  0.50126024  0.49564342  1
  Zr  Zr68  1  0.40432597  0.00115047  0.20273001  1
  Zr  Zr69  1  -0.00799870  0.59546991  0.41269080  1
  Zr  Zr70  1  0.19463486  0.38777475  0.59548907  1
  Zr  Zr71  1  0.19139929  0.19760499  0.00735289  1
  Zr  Zr72  1  0.90208366  0.50538822  0.10063453  1
  Zr  Zr73  1  0.39534972  0.39399347  0.00061985  1
  Zr  Zr74  1  0.59925235  0.61103920  0.79097554  1
  Zr  Zr75  1  0.20311963  0.18860612  0.80966980  1
  Zr  Zr76  1  0.49562013  0.49255375  0.29798681  1
  Zr  Zr77  1  0.10930917  0.09599556  0.31080971  1
  Zr  Zr78  1  0.70568255  0.49806865  0.89292554  1
  Zr  Zr79  1  0.70279672  0.10299281  0.50336109  1
  Zr  Zr80  1  0.29162741  0.49870534  0.30065157  1
  Zr  Zr81  1  0.08842877  0.70401910  0.10921963  1
  Zr  Zr82  1  0.28285549  0.90560742  0.30845468  1
  Zr  Zr83  1  0.90879738  0.08559636  0.29706383  1
  Zr  Zr84  1  0.49640549  0.50037326  0.89618800  1
  Zr  Zr85  1  0.60008627  -0.00719572  0.39774918  1
  Zr  Zr86  1  0.38960682  0.01355841  0.79959569  1
  Zr  Zr87  1  -0.00750892  0.40511764  0.79549073  1
  Zr  Zr88  1  0.80476263  0.01170694  -0.00415640  1
  Zr  Zr89  1  0.80706117  -0.00634885  0.60172594  1
  Zr  Zr90  1  0.10650110  0.50908009  0.29866832  1
  Zr  Zr91  1  0.60722247  0.59647605  0.19928532  1
  Zr  Zr92  1  0.29648575  0.89732114  0.10197376  1
  Zr  Zr93  1  0.89660975  0.29025113  0.09257661  1
  Zr  Zr94  1  0.29123282  0.70952382  0.29862647  1
  Zr  Zr95  1  0.79026338  0.40298371  0.19535036  1
  Zr  Zr96  1  0.70828026  0.49382165  0.69090360  1
  Zr  Zr97  1  0.38804564  0.38645771  0.40300216  1
  Zr  Zr98  1  0.20578274  0.79635874  0.79391072  1
  Zr  Zr99  1  0.49973451  0.10056065  0.69675465  1
  Ta  Ta100  1  0.09836838  0.29059957  0.70243773  1
  Ta  Ta101  1  0.39929329  0.60643116  0.40168025  1
  Ta  Ta102  1  0.69824551  0.10807590  0.89147141  1
  Ta  Ta103  1  0.09947788  0.91233412  0.69658627  1
  Ta  Ta104  1  0.71326365  0.70738865  0.89215283  1
  Ta  Ta105  1  0.49284527  0.09974083  0.49715239  1
  Ta  Ta106  1  0.20739418  -0.00423755  0.59362703  1
  Ta  Ta107  1  0.91003508  0.10428227  0.69948855  1
  Ta  Ta108  1  0.80108320  0.40025340  -0.01145386  1
  Ta  Ta109  1  0.71401554  0.69938888  0.69570739  1
  Ta  Ta110  1  0.70529241  0.29442461  0.69851749  1
  Ta  Ta111  1  0.80648266  -0.00479757  0.40089116  1
  Ta  Ta112  1  0.79680122  0.60264379  0.20375727  1
  Ta  Ta113  1  0.89893981  0.90932470  0.11469997  1
  Ta  Ta114  1  0.90695006  0.89916067  0.49657204  1
  Ta  Ta115  1  0.09783171  0.90361910  0.10733456  1
  Ta  Ta116  1  0.60391684  0.79610768  0.79379225  1
  Ta  Ta117  1  0.49585963  0.90095982  0.50321199  1
  Ta  Ta118  1  0.89603863  0.70352187  0.50573385  1
  Ta  Ta119  1  0.20566088  0.20711972  0.19513644  1
  Ta  Ta120  1  0.59643570  0.39447556  0.59907844  1
  Ta  Ta121  1  0.39329963  0.39003264  0.79581656  1
  Ta  Ta122  1  0.49739988  0.29056096  0.69937862  1
  Ta  Ta123  1  0.29642572  0.29036658  0.69936165  1
  Ta  Ta124  1  0.19970228  0.60334864  -0.00059547  1
  Ta  Ta125  1  0.09951327  0.50439414  0.89267487  1
  Ta  Ta126  1  0.89805593  0.30370417  0.30449305  1
  Ta  Ta127  1  0.49687841  0.10306457  0.30610726  1
  Ta  Ta128  1  0.79964357  0.60076735  0.40531610  1
  Ta  Ta129  1  0.19362499  0.39482600  0.79719549  1
  Ta  Ta130  1  0.59703146  0.39670426  0.40423546  1
  Ta  Ta131  1  0.89746707  0.69784014  0.90127581  1
  Ta  Ta132  1  0.60032664  0.20155266  0.60132053  1
  Ta  Ta133  1  0.70462916  0.29177247  0.89387852  1
  Ta  Ta134  1  0.09607925  0.69692767  0.69901192  1
  Ta  Ta135  1  0.50095172  0.10998704  0.10846929  1
  Ta  Ta136  1  -0.00444434  0.59108780  0.60890036  1
  Ta  Ta137  1  0.70053851  0.90156242  0.88951868  1
  Ta  Ta138  1  -0.00195228  0.20768912  0.59921969  1
  Ta  Ta139  1  0.19416733  0.38390804  0.19799807  1
  Ta  Ta140  1  0.40094593  0.01289233  0.00272699  1
  Ta  Ta141  1  0.80276005  0.80455570  0.20932011  1
  Ta  Ta142  1  0.60086693  0.19786255  -0.00338721  1
  Ta  Ta143  1  -0.00153441  0.59567430  -0.00848436  1
  Ta  Ta144  1  0.60861341  0.39933513  0.00235653  1
  Ta  Ta145  1  0.30337390  0.69797475  0.69781177  1
  Ta  Ta146  1  0.29841730  0.29695388  0.89835641  1
  Ta  Ta147  1  0.20106808  0.61127274  0.18908056  1
  Ta  Ta148  1  0.89129921  0.30079046  0.50740046  1
  Ta  Ta149  1  0.39578245  0.19972207  0.80050946  1
  Ti  Ti150  1  0.40072426  0.78937033  0.79575585  1
  Ti  Ti151  1  0.39715020  0.61052119  0.59373761  1
  Ti  Ti152  1  0.09898042  0.50647389  0.10059002  1
  Ti  Ti153  1  0.09370320  0.29423724  0.89255294  1
  Ti  Ti154  1  0.20768231  0.61880263  0.40853542  1
  Ti  Ti155  1  0.39574942  -0.00136670  0.40903902  1
  Ti  Ti156  1  0.50768541  0.69143759  0.30883694  1
  Ti  Ti157  1  0.80472316  0.80351379  0.60445169  1
  Ti  Ti158  1  0.59933636  0.80518700  0.39961868  1
  Ti  Ti159  1  0.81301269  0.59235202  0.59499278  1
  Ti  Ti160  1  0.39548431  0.79769718  0.59860845  1
  Ti  Ti161  1  0.59913438  0.60392622  0.60424238  1
  Ti  Ti162  1  0.50147913  0.90419507  0.09860236  1
  Ti  Ti163  1  0.70308103  0.89538805  0.50044966  1
  Ti  Ti164  1  0.39376407  0.60762047  0.20341747  1
  Ti  Ti165  1  0.07869441  0.09790645  0.88171920  1
  Ti  Ti166  1  0.90815111  0.09512022  0.50612022  1
  Ti  Ti167  1  0.60315952  0.19549820  0.39863546  1
  Ti  Ti168  1  0.80498192  0.80062321  0.79063894  1
  Ti  Ti169  1  0.80436771  0.40314427  0.40671620  1
  Ti  Ti170  1  0.70210809  0.69425974  0.50278425  1
  Ti  Ti171  1  0.70114216  0.09049231  0.29904463  1
  Ti  Ti172  1  0.50323107  0.70227190  0.89412512  1
  Ti  Ti173  1  0.50506364  0.50612240  0.49473556  1
  Ti  Ti174  1  0.70075790  0.89803172  0.70782742  1
  Ti  Ti175  1  0.90233280  0.69683090  0.69603790  1
  Ti  Ti176  1  0.60426877  0.19618172  0.20799571  1
  Ti  Ti177  1  0.39742285  0.61105171  0.79990247  1
  Ti  Ti178  1  -0.00066269  0.19444570  -0.00349488  1
  Ti  Ti179  1  0.50560401  0.10447758  0.89443228  1
  Ti  Ti180  1  0.81052804  0.39467287  0.79505361  1
  Ti  Ti181  1  0.29929247  0.90232006  0.70049562  1
  Ti  Ti182  1  0.00880340  -0.01648209  0.39944038  1
  Ti  Ti183  1  0.29172888  0.10103888  0.69133894  1
  Ti  Ti184  1  0.69654536  0.69492716  0.30859294  1
  Ti  Ti185  1  0.39442576  0.19495752  0.00206578  1
  Ti  Ti186  1  0.70919813  0.90903081  0.29751176  1
  Ti  Ti187  1  0.38999235  -0.00132655  0.59248078  1
  Ti  Ti188  1  0.89866175  0.09982062  0.10562944  1
  Ti  Ti189  1  0.59260627  -0.00071638  0.20728313  1
  Ti  Ti190  1  0.38669610  0.19501593  0.59319823  1
  Ti  Ti191  1  0.80382278  0.80625370  -0.00064008  1
  Ti  Ti192  1  0.37810598  0.37801958  0.20146112  1
  Ti  Ti193  1  0.69606875  0.30628520  0.30460298  1
  Ti  Ti194  1  0.81185939  0.20072260  0.79642520  1
  Ti  Ti195  1  0.80159417  0.59410120  -0.00232383  1
  Ti  Ti196  1  0.20644739  0.21269686  0.41443398  1
  Ti  Ti197  1  0.89766785  0.28801157  0.89755491  1
  Ti  Ti198  1  0.19476940  0.59979401  0.79572486  1
  Ti  Ti199  1  -0.00101807  0.82417172  0.21489145  1
  Mo  Mo200  1  0.29687806  0.28926628  0.50479082  1
  Mo  Mo201  1  0.90120102  0.11230339  0.89339180  1
  Mo  Mo202  1  0.39681822  0.19076122  0.40412834  1
  Mo  Mo203  1  0.80077475  0.39668996  0.60330646  1
  Mo  Mo204  1  0.10288534  0.90544295  0.49712741  1
  Mo  Mo205  1  0.00217247  -0.00001284  0.19926036  1
  Mo  Mo206  1  0.80052269  0.00019652  0.20655613  1
  Mo  Mo207  1  -0.00257717  0.80983139  0.40246375  1
  Mo  Mo208  1  0.60465187  0.39147717  0.20363071  1
  Mo  Mo209  1  0.59849888  0.59905760  0.40526340  1
  Mo  Mo210  1  0.20048993  0.19638451  0.60204643  1
  Mo  Mo211  1  0.20108124  -0.00277632  0.41372938  1
  Mo  Mo212  1  0.30442596  0.90303894  0.50371852  1
  Mo  Mo213  1  0.90210931  0.50206123  0.90024889  1
  Mo  Mo214  1  0.29931855  0.29557750  0.09927380  1
  Mo  Mo215  1  0.89287263  0.49742806  0.50290263  1
  Mo  Mo216  1  0.70368133  0.49498811  0.09420710  1
  Mo  Mo217  1  0.59746516  0.20062684  0.79939489  1
  Mo  Mo218  1  0.00054883  0.60140290  0.79555047  1
  Mo  Mo219  1  0.29956964  0.69748744  0.10379759  1
  Mo  Mo220  1  0.09871419  0.29531088  0.09619213  1
  Mo  Mo221  1  0.29376681  0.29337569  0.30206011  1
  Mo  Mo222  1  0.90154330  0.90306700  0.69393198  1
  Mo  Mo223  1  0.00443910  0.59124652  0.19311341  1
  Mo  Mo224  1  0.31027645  0.10739060  0.10171772  1
  Mo  Mo225  1  0.30039060  0.09839475  0.50179199  1
  Mo  Mo226  1  0.89472513  0.29528805  0.69727665  1
  Mo  Mo227  1  0.19517057  0.38055188  0.39443864  1
  Mo  Mo228  1  0.90170524  0.90093289  0.30545481  1
  Mo  Mo229  1  -0.00423642  0.00247353  0.79077971  1
  Mo  Mo230  1  0.30608439  0.70256600  0.50280740  1
  Mo  Mo231  1  0.10712348  0.29594160  0.30523260  1
  Mo  Mo232  1  0.49237201  0.70409735  0.69636253  1
  Mo  Mo233  1  0.49831925  0.90702130  0.31219020  1
  Mo  Mo234  1  0.80770277  0.19897228  0.60403429  1
  Mo  Mo235  1  0.90103510  0.49696750  0.69709025  1
  Mo  Mo236  1  0.29886708  0.69343727  0.89037013  1
  Mo  Mo237  1  0.19448613  0.81185867  0.40545997  1
  Mo  Mo238  1  0.09261887  0.10088203  0.10271094  1
  Mo  Mo239  1  0.19979211  0.00152318  0.79227950  1
  Mo  Mo240  1  0.19017391  0.80666667  0.20015602  1
  Mo  Mo241  1  -0.00380444  0.20477852  0.79725815  1
  Mo  Mo242  1  0.60659391  -0.00210643  0.80195532  1
  Mo  Mo243  1  0.00008784  0.00159410  0.59345555  1
  Mo  Mo244  1  0.09928259  0.29556648  0.50546225  1
  Mo  Mo245  1  0.31142236  0.10518041  0.90589662  1
  Mo  Mo246  1  0.39635566  0.19623761  0.20011913  1
  Mo  Mo247  1  0.79835195  0.19983818  -0.01053915  1
  Mo  Mo248  1  0.10058111  0.50433332  0.70505478  1
  Mo  Mo249  1  0.10008523  0.90242082  0.30361796  1
