# generated using pymatgen
data_HfZrTaTiMo
_symmetry_space_group_name_H-M   'P 1'
_cell_length_a   16.88382284
_cell_length_b   16.87721821
_cell_length_c   16.88404221
_cell_angle_alpha   89.98972937
_cell_angle_beta   90.00832000
_cell_angle_gamma   89.97330149
_symmetry_Int_Tables_number   1
_chemical_formula_structural   HfZrTaTiMo
_chemical_formula_sum   'Hf50 Zr50 Ta50 Ti50 Mo50'
_cell_volume   4811.14030825
_cell_formula_units_Z   50
loop_
 _symmetry_equiv_pos_site_id
 _symmetry_equiv_pos_as_xyz
  1  'x, y, z'
loop_
 _atom_site_type_symbol
 _atom_site_label
 _atom_site_symmetry_multiplicity
 _atom_site_fract_x
 _atom_site_fract_y
 _atom_site_fract_z
 _atom_site_occupancy
  Hf  Hf0  1  0.50543160  0.29755375  0.10092513  1
  Hf  Hf1  1  0.79785828  0.19532256  0.39250420  1
  Hf  Hf2  1  0.49536859  0.10263337  0.10030608  1
  Hf  Hf3  1  0.49899320  0.69767627  0.70282303  1
  Hf  Hf4  1  0.79467087  0.00727360  -0.00182511  1
  Hf  Hf5  1  0.70628836  0.10168973  0.50072309  1
  Hf  Hf6  1  0.00288909  0.19354839  0.39789410  1
  Hf  Hf7  1  0.79458000  0.79653304  0.79858622  1
  Hf  Hf8  1  0.19858636  0.40418967  0.39137564  1
  Hf  Hf9  1  0.59762901  -0.00054934  0.39491059  1
  Hf  Hf10  1  0.49700974  0.08039966  0.88464903  1
  Hf  Hf11  1  -0.00348322  0.19432952  0.20337796  1
  Hf  Hf12  1  0.20399826  0.80054454  0.00272325  1
  Hf  Hf13  1  0.30553331  0.90464078  0.89485648  1
  Hf  Hf14  1  0.89713529  0.89969831  0.69473256  1
  Hf  Hf15  1  0.28175010  0.29038108  0.89742901  1
  Hf  Hf16  1  0.30743602  0.10367918  0.71593650  1
  Hf  Hf17  1  0.19874562  0.00329010  0.41289985  1
  Hf  Hf18  1  0.40985857  0.80022807  0.80997844  1
  Hf  Hf19  1  0.20279362  -0.00249133  0.00208509  1
  Hf  Hf20  1  0.40074982  0.39994432  0.59767346  1
  Hf  Hf21  1  0.69140086  0.29562247  0.28109312  1
  Hf  Hf22  1  0.61124997  0.40838655  0.39760334  1
  Hf  Hf23  1  0.20522008  0.59378806  0.20836363  1
  Hf  Hf24  1  0.19985136  0.20038102  0.39920123  1
  Hf  Hf25  1  -0.00525859  0.20206960  0.80414088  1
  Hf  Hf26  1  0.49707828  0.30462824  0.48320808  1
  Hf  Hf27  1  0.10583162  0.10978009  0.90484970  1
  Hf  Hf28  1  0.79679916  0.00392645  0.80671406  1
  Hf  Hf29  1  0.10318533  0.09665961  0.10532807  1
  Hf  Hf30  1  0.48953577  0.50658637  0.29885126  1
  Hf  Hf31  1  0.30292974  0.69581760  0.69859058  1
  Hf  Hf32  1  0.69201433  0.89461526  0.29413069  1
  Hf  Hf33  1  0.30914882  0.69329773  0.90244381  1
  Hf  Hf34  1  0.88676450  0.49971542  0.90154663  1
  Hf  Hf35  1  0.30366987  0.50499797  0.89583712  1
  Hf  Hf36  1  0.10426069  0.90174640  0.30133641  1
  Hf  Hf37  1  0.49767496  0.30100257  0.29576494  1
  Hf  Hf38  1  0.50526405  0.70055833  0.29372717  1
  Hf  Hf39  1  0.11402385  0.30301824  0.71570555  1
  Hf  Hf40  1  0.29873203  0.89599034  0.30345696  1
  Hf  Hf41  1  -0.00803310  0.40335883  0.60333748  1
  Hf  Hf42  1  0.59496214  0.00290636  0.59692500  1
  Hf  Hf43  1  0.89820792  0.30038863  0.29658669  1
  Hf  Hf44  1  0.30541825  0.28569773  0.09846470  1
  Hf  Hf45  1  0.60552155  0.39951120  0.60077257  1
  Hf  Hf46  1  0.30198656  0.29878449  0.71174159  1
  Hf  Hf47  1  0.69051223  0.10775604  0.10234312  1
  Hf  Hf48  1  0.90473857  0.90383942  0.90217321  1
  Hf  Hf49  1  0.10237539  0.49058360  0.89225280  1
  Zr  Zr50  1  0.50430153  0.91183360  0.71319825  1
  Zr  Zr51  1  0.40480607  0.39621607  0.00082170  1
  Zr  Zr52  1  -0.00210162  0.79868415  0.79277984  1
  Zr  Zr53  1  0.48961602  0.50095098  0.70562895  1
  Zr  Zr54  1  0.89322924  0.69831889  0.11041911  1
  Zr  Zr55  1  0.31153255  0.69041490  0.30777722  1
  Zr  Zr56  1  0.80355806  0.00325282  0.20072782  1
  Zr  Zr57  1  0.80310491  0.80133086  0.39228679  1
  Zr  Zr58  1  0.00513790  0.60067327  0.20760302  1
  Zr  Zr59  1  0.89922932  0.09983822  0.69215157  1
  Zr  Zr60  1  0.40749707  -0.01300625  0.00529620  1
  Zr  Zr61  1  0.88278728  0.29921117  0.91348300  1
  Zr  Zr62  1  0.40087502  0.19845621  0.59256077  1
  Zr  Zr63  1  0.20747136  0.40032767  0.59134076  1
  Zr  Zr64  1  0.30963306  0.51111382  0.47821402  1
  Zr  Zr65  1  0.80043523  0.40891178  0.19022622  1
  Zr  Zr66  1  -0.00024479  0.40082240  0.19831880  1
  Zr  Zr67  1  0.10512908  0.28989309  0.09330547  1
  Zr  Zr68  1  0.79665594  0.59900327  0.38544291  1
  Zr  Zr69  1  0.10637724  0.90267857  0.69365205  1
  Zr  Zr70  1  0.40332484  0.80528101  0.59836267  1
  Zr  Zr71  1  0.59931181  0.59898314  0.59794457  1
  Zr  Zr72  1  0.58993825  0.79710681  0.00146337  1
  Zr  Zr73  1  0.40169743  -0.00015338  0.40682113  1
  Zr  Zr74  1  0.89063153  0.69514262  0.89913489  1
  Zr  Zr75  1  0.59223777  0.19778222  -0.01940878  1
  Zr  Zr76  1  0.09972797  0.70031483  0.68308400  1
  Zr  Zr77  1  0.00292845  0.79865816  0.39992545  1
  Zr  Zr78  1  0.59980577  0.60018935  0.80342224  1
  Zr  Zr79  1  0.79939195  0.40342278  0.39877471  1
  Zr  Zr80  1  0.20334860  0.40215649  0.00451761  1
  Zr  Zr81  1  0.10190835  0.69827735  0.89919369  1
  Zr  Zr82  1  -0.00262208  0.59436947  0.00540819  1
  Zr  Zr83  1  0.79248835  0.80639744  0.00560563  1
  Zr  Zr84  1  0.71458950  0.50959652  0.50927641  1
  Zr  Zr85  1  0.09768081  0.90604431  0.11289690  1
  Zr  Zr86  1  0.20528983  0.19962372  0.59244298  1
  Zr  Zr87  1  0.79401915  0.19236602  0.81074415  1
  Zr  Zr88  1  0.60193101  0.20607935  0.59378141  1
  Zr  Zr89  1  0.89723781  0.29744727  0.50055363  1
  Zr  Zr90  1  0.89513061  0.68905962  0.51016719  1
  Zr  Zr91  1  0.00354691  -0.00400597  0.58640162  1
  Zr  Zr92  1  -0.01297457  0.39542403  0.79503730  1
  Zr  Zr93  1  -0.00194399  0.80487156  0.00933911  1
  Zr  Zr94  1  0.70806310  0.89972978  0.50028639  1
  Zr  Zr95  1  0.10400173  0.49838886  0.10152444  1
  Zr  Zr96  1  0.69345606  0.49422705  0.90608564  1
  Zr  Zr97  1  0.00224011  0.59986981  0.39610809  1
  Zr  Zr98  1  0.30408979  0.09985992  0.29995623  1
  Zr  Zr99  1  -0.01231190  0.59733361  0.78220998  1
  Ta  Ta100  1  0.09738332  0.50546155  0.50221030  1
  Ta  Ta101  1  0.19991704  0.00185759  0.80059671  1
  Ta  Ta102  1  0.10774206  0.70078498  0.10659828  1
  Ta  Ta103  1  0.69716889  0.29779484  0.70688186  1
  Ta  Ta104  1  0.70117788  0.70055363  0.50306828  1
  Ta  Ta105  1  0.39668116  0.00474814  0.59774955  1
  Ta  Ta106  1  0.29605992  0.70364341  0.49586177  1
  Ta  Ta107  1  0.30035542  0.89806290  0.11148975  1
  Ta  Ta108  1  0.21109112  0.39962534  0.20611328  1
  Ta  Ta109  1  0.60046440  -0.00761133  -0.00221722  1
  Ta  Ta110  1  0.20251512  0.80186742  0.79784164  1
  Ta  Ta111  1  0.60486063  0.60374929  0.39663751  1
  Ta  Ta112  1  -0.01110322  0.39441166  0.00612891  1
  Ta  Ta113  1  0.09772489  0.10238009  0.50651172  1
  Ta  Ta114  1  0.79369896  0.40257550  0.79064630  1
  Ta  Ta115  1  0.69685917  0.89858645  0.70058444  1
  Ta  Ta116  1  0.69126316  0.89917709  0.10689757  1
  Ta  Ta117  1  0.59877483  0.79624616  0.40236474  1
  Ta  Ta118  1  0.30433471  0.10529030  0.90446338  1
  Ta  Ta119  1  0.50037814  0.10217849  0.70668069  1
  Ta  Ta120  1  0.50458589  0.10894401  0.29748297  1
  Ta  Ta121  1  0.50311954  0.89777205  0.50009654  1
  Ta  Ta122  1  0.00190809  0.20705883  0.60504689  1
  Ta  Ta123  1  0.30723128  0.69954288  0.10375025  1
  Ta  Ta124  1  0.00106007  0.40964891  0.39893255  1
  Ta  Ta125  1  0.40786237  -0.00708864  0.20435959  1
  Ta  Ta126  1  0.40696123  0.79713052  0.00671288  1
  Ta  Ta127  1  0.20371834  0.79197351  0.20666022  1
  Ta  Ta128  1  0.69306905  0.30364814  0.90136602  1
  Ta  Ta129  1  0.40778368  0.80257608  0.40100510  1
  Ta  Ta130  1  0.79111458  0.59711459  0.01117001  1
  Ta  Ta131  1  0.68970115  0.09949806  0.70558734  1
  Ta  Ta132  1  0.20491275  0.60235129  0.00440506  1
  Ta  Ta133  1  0.20312873  0.59827063  0.59430906  1
  Ta  Ta134  1  0.60353296  0.79864290  0.60011212  1
  Ta  Ta135  1  0.10051114  0.90513180  0.89598887  1
  Ta  Ta136  1  0.69213168  0.49983029  0.09673224  1
  Ta  Ta137  1  0.19927798  0.60045475  0.79491030  1
  Ta  Ta138  1  0.80067086  0.39997082  0.60945449  1
  Ta  Ta139  1  0.70496136  0.69531981  0.69850222  1
  Ta  Ta140  1  0.69817977  0.69286413  0.90182969  1
  Ta  Ta141  1  0.90079567  0.10272378  0.09622791  1
  Ta  Ta142  1  0.10495501  0.10177439  0.70069710  1
  Ta  Ta143  1  0.69960142  0.30244959  0.08806235  1
  Ta  Ta144  1  0.20185511  0.20045357  0.20752105  1
  Ta  Ta145  1  0.30001730  0.09899759  0.10187038  1
  Ta  Ta146  1  0.40232376  0.39770174  0.80586686  1
  Ta  Ta147  1  0.49611475  0.50515954  0.90749141  1
  Ta  Ta148  1  0.40926982  0.80466354  0.19775253  1
  Ta  Ta149  1  0.10549406  0.50054567  0.69477038  1
  Ti  Ti150  1  0.09946441  0.30283637  0.29778028  1
  Ti  Ti151  1  0.09609904  0.30280303  0.49891813  1
  Ti  Ti152  1  0.79679815  0.00106039  0.60170593  1
  Ti  Ti153  1  0.29882129  0.90123294  0.69920367  1
  Ti  Ti154  1  -0.00862127  0.20193444  -0.00035087  1
  Ti  Ti155  1  0.69692681  0.70179728  0.28824240  1
  Ti  Ti156  1  0.49424160  0.68968986  0.10495936  1
  Ti  Ti157  1  0.31183448  0.29909050  0.48227101  1
  Ti  Ti158  1  0.00160916  0.00815164  0.80433229  1
  Ti  Ti159  1  0.68906986  0.90107916  0.89550975  1
  Ti  Ti160  1  0.80121604  0.80694376  0.19708938  1
  Ti  Ti161  1  0.29629797  0.89201361  0.50384324  1
  Ti  Ti162  1  0.59271841  0.60031825  0.00596937  1
  Ti  Ti163  1  0.79801760  0.20906970  0.60470710  1
  Ti  Ti164  1  0.59517486  0.39658211  0.80188233  1
  Ti  Ti165  1  0.89980852  0.10121032  0.50186861  1
  Ti  Ti166  1  0.69186505  0.10215965  0.29079912  1
  Ti  Ti167  1  0.50383035  0.29516222  0.70839565  1
  Ti  Ti168  1  0.90904989  0.90700255  0.29059584  1
  Ti  Ti169  1  0.40024686  0.19633202  0.20233033  1
  Ti  Ti170  1  0.60747119  0.20274704  0.39910376  1
  Ti  Ti171  1  0.89458199  0.90172286  0.49791127  1
  Ti  Ti172  1  0.60066349  0.79632087  0.80498139  1
  Ti  Ti173  1  0.18968129  0.60153080  0.39268993  1
  Ti  Ti174  1  0.10008447  0.08675677  0.29408369  1
  Ti  Ti175  1  0.20923061  0.00517879  0.59895002  1
  Ti  Ti176  1  -0.00510069  0.00427232  0.39894638  1
  Ti  Ti177  1  0.49696139  0.10641578  0.49125328  1
  Ti  Ti178  1  0.58797519  -0.00711749  0.19885570  1
  Ti  Ti179  1  0.80460132  0.19882819  0.19221867  1
  Ti  Ti180  1  0.29814492  0.50151154  0.70549850  1
  Ti  Ti181  1  0.39788652  0.59912262  0.59272100  1
  Ti  Ti182  1  0.31195640  0.30207534  0.30215555  1
  Ti  Ti183  1  0.31560446  0.51322237  0.09955811  1
  Ti  Ti184  1  0.59581570  0.40991401  0.19272147  1
  Ti  Ti185  1  -0.00575849  0.79684067  0.59378452  1
  Ti  Ti186  1  0.00225782  0.79912933  0.20345088  1
  Ti  Ti187  1  0.69541051  0.70002565  0.10846846  1
  Ti  Ti188  1  0.80942019  0.00690321  0.38963429  1
  Ti  Ti189  1  0.89513943  0.70111282  0.29151722  1
  Ti  Ti190  1  0.49945547  0.69939461  0.49677346  1
  Ti  Ti191  1  0.10852522  0.70158456  0.50012147  1
  Ti  Ti192  1  0.60181219  0.59467462  0.19703186  1
  Ti  Ti193  1  0.11553347  0.88490297  0.50561304  1
  Ti  Ti194  1  0.89606267  0.50464251  0.29018194  1
  Ti  Ti195  1  0.49689341  0.50318868  0.49008728  1
  Ti  Ti196  1  0.39447146  0.40834135  0.19754224  1
  Ti  Ti197  1  -0.00531619  0.00300231  0.00395027  1
  Ti  Ti198  1  0.79868969  0.79503602  0.60359107  1
  Ti  Ti199  1  0.41583927  0.21146246  0.81800678  1
  Mo  Mo200  1  0.50365061  0.31215844  0.89696074  1
  Mo  Mo201  1  -0.00606772  0.00269701  0.20266803  1
  Mo  Mo202  1  0.59728769  0.20074087  0.79465157  1
  Mo  Mo203  1  0.50062132  0.89618892  0.30284491  1
  Mo  Mo204  1  0.90648780  0.49944168  0.50545846  1
  Mo  Mo205  1  0.39836087  0.19333917  -0.00424994  1
  Mo  Mo206  1  0.89808782  0.90630358  0.10706093  1
  Mo  Mo207  1  0.20813696  0.79796171  0.59728057  1
  Mo  Mo208  1  0.69020744  0.50723941  0.28774416  1
  Mo  Mo209  1  0.40021888  0.20062231  0.39405259  1
  Mo  Mo210  1  0.39920681  0.59605277  0.80304624  1
  Mo  Mo211  1  0.70131683  0.29850296  0.50724356  1
  Mo  Mo212  1  0.50461324  0.89347254  0.90312252  1
  Mo  Mo213  1  0.50263556  0.89874962  0.10727765  1
  Mo  Mo214  1  0.89233244  0.29137112  0.09867608  1
  Mo  Mo215  1  0.59975201  0.79378296  0.19624324  1
  Mo  Mo216  1  0.60962057  -0.00158812  0.80160450  1
  Mo  Mo217  1  0.89070330  0.49876726  0.09574224  1
  Mo  Mo218  1  0.59817171  0.40039937  0.00097105  1
  Mo  Mo219  1  0.80508825  0.59637578  0.61363950  1
  Mo  Mo220  1  0.78946682  0.60171648  0.19683788  1
  Mo  Mo221  1  0.90119733  0.09773709  0.29925714  1
  Mo  Mo222  1  0.10526395  0.49387987  0.30412309  1
  Mo  Mo223  1  0.09209251  0.30009240  0.90587729  1
  Mo  Mo224  1  0.19360380  0.19392190  0.80520128  1
  Mo  Mo225  1  0.40281141  0.60139732  0.19430249  1
  Mo  Mo226  1  0.59898864  0.19945639  0.19853445  1
  Mo  Mo227  1  0.79407996  0.19854340  0.00496590  1
  Mo  Mo228  1  0.70067975  0.49642200  0.70585026  1
  Mo  Mo229  1  0.88800981  0.29776171  0.69870414  1
  Mo  Mo230  1  0.50308803  0.50241546  0.10220141  1
  Mo  Mo231  1  0.21003611  0.00223860  0.20324815  1
  Mo  Mo232  1  0.10650694  0.70639301  0.29981760  1
  Mo  Mo233  1  0.90829339  0.09758600  0.91210523  1
  Mo  Mo234  1  0.69154801  0.09749744  0.90023965  1
  Mo  Mo235  1  0.00236204  0.59289490  0.59407093  1
  Mo  Mo236  1  0.79331154  0.40056480  0.00323938  1
  Mo  Mo237  1  0.40682691  0.60243972  0.00379442  1
  Mo  Mo238  1  0.20170560  0.19349599  0.00539401  1
  Mo  Mo239  1  0.89206519  0.50318281  0.69661597  1
  Mo  Mo240  1  0.29724120  0.09823206  0.50458019  1
  Mo  Mo241  1  0.79207691  0.59751301  0.79746282  1
  Mo  Mo242  1  0.20382430  0.40958460  0.79765209  1
  Mo  Mo243  1  0.50263782  0.69408158  0.90637877  1
  Mo  Mo244  1  0.41309854  0.60950256  0.40481101  1
  Mo  Mo245  1  0.30472320  0.49743179  0.29482381  1
  Mo  Mo246  1  0.39963250  0.40214827  0.39261024  1
  Mo  Mo247  1  0.20327325  0.79783291  0.40389619  1
  Mo  Mo248  1  0.89130265  0.69964356  0.69200919  1
  Mo  Mo249  1  0.39207500  -0.00260785  0.79476585  1
