# generated using pymatgen
data_HfZrTaTiMo
_symmetry_space_group_name_H-M   'P 1'
_cell_length_a   16.88765096
_cell_length_b   16.88169106
_cell_length_c   16.87691866
_cell_angle_alpha   90.01694763
_cell_angle_beta   90.07107499
_cell_angle_gamma   89.98252477
_symmetry_Int_Tables_number   1
_chemical_formula_structural   HfZrTaTiMo
_chemical_formula_sum   'Hf50 Zr50 Ta50 Ti50 Mo50'
_cell_volume   4811.47215313
_cell_formula_units_Z   50
loop_
 _symmetry_equiv_pos_site_id
 _symmetry_equiv_pos_as_xyz
  1  'x, y, z'
loop_
 _atom_site_type_symbol
 _atom_site_label
 _atom_site_symmetry_multiplicity
 _atom_site_fract_x
 _atom_site_fract_y
 _atom_site_fract_z
 _atom_site_occupancy
  Hf  Hf0  1  0.59816053  0.39524269  0.60175472  1
  Hf  Hf1  1  -0.00263338  0.00119963  0.19694200  1
  Hf  Hf2  1  0.20103519  0.80398601  0.00428737  1
  Hf  Hf3  1  0.60974494  0.40598743  0.40871683  1
  Hf  Hf4  1  0.71405252  0.90367120  0.49434256  1
  Hf  Hf5  1  0.79625292  0.59788373  0.39770883  1
  Hf  Hf6  1  0.40280826  0.59617983  0.81074112  1
  Hf  Hf7  1  0.10535000  0.30084594  0.50549883  1
  Hf  Hf8  1  0.09548413  0.69601917  0.29698233  1
  Hf  Hf9  1  0.89311368  0.09442152  0.87640184  1
  Hf  Hf10  1  0.30572758  0.70866860  0.90951203  1
  Hf  Hf11  1  0.00332520  0.40401454  0.40033255  1
  Hf  Hf12  1  0.89536781  0.30656078  0.29342814  1
  Hf  Hf13  1  0.69525290  0.09711529  0.09387557  1
  Hf  Hf14  1  0.79970679  0.59997490  0.20327626  1
  Hf  Hf15  1  0.88867305  0.30818240  0.10032387  1
  Hf  Hf16  1  0.60660926  0.59998596  0.59521266  1
  Hf  Hf17  1  0.09174642  0.89651391  0.49303513  1
  Hf  Hf18  1  0.09996652  0.70543216  0.71155684  1
  Hf  Hf19  1  0.90122477  0.49926459  0.50553025  1
  Hf  Hf20  1  0.29367043  0.29335030  0.29827412  1
  Hf  Hf21  1  0.18750876  0.20819864  0.79675121  1
  Hf  Hf22  1  0.60394662  0.80608948  0.60278678  1
  Hf  Hf23  1  0.40678240  0.19821322  0.19570868  1
  Hf  Hf24  1  0.29747316  0.49893270  0.50426512  1
  Hf  Hf25  1  0.70214722  0.69860335  0.49886754  1
  Hf  Hf26  1  0.81084413  0.20228106  0.60775434  1
  Hf  Hf27  1  0.09747738  0.69280350  0.10455659  1
  Hf  Hf28  1  0.90584549  0.08423785  0.50693581  1
  Hf  Hf29  1  0.10126399  0.89293516  0.30365643  1
  Hf  Hf30  1  0.59084502  0.00103393  0.20096040  1
  Hf  Hf31  1  0.48562728  0.89538523  0.30711529  1
  Hf  Hf32  1  0.00619820  0.19845692  0.60675613  1
  Hf  Hf33  1  0.29529024  0.49833489  0.70101976  1
  Hf  Hf34  1  0.70942642  0.90291042  0.30158146  1
  Hf  Hf35  1  0.80568534  -0.00917911  0.61334548  1
  Hf  Hf36  1  0.20475897  0.59837955  0.80614201  1
  Hf  Hf37  1  0.10490228  0.10130975  0.10395954  1
  Hf  Hf38  1  0.20430290  0.60134272  0.00248058  1
  Hf  Hf39  1  0.49750759  0.50872889  0.49589066  1
  Hf  Hf40  1  -0.00866122  0.79951848  0.59625584  1
  Hf  Hf41  1  0.20652040  0.00310938  0.39616520  1
  Hf  Hf42  1  0.19573354  0.40512612  0.39935379  1
  Hf  Hf43  1  0.10071036  0.89427769  0.70540435  1
  Hf  Hf44  1  0.80190395  0.79380524  0.80125388  1
  Hf  Hf45  1  0.59046008  0.00407856  0.80233427  1
  Hf  Hf46  1  0.90667519  0.69115808  0.10113851  1
  Hf  Hf47  1  0.19572554  0.40094188  0.19375602  1
  Hf  Hf48  1  0.60309584  0.79676308  0.39723775  1
  Hf  Hf49  1  0.30689962  0.51270377  0.10732669  1
  Zr  Zr50  1  0.59850814  0.00326471  0.61011323  1
  Zr  Zr51  1  0.81017629  -0.00424843  0.19192754  1
  Zr  Zr52  1  0.80278794  0.59464491  -0.00844282  1
  Zr  Zr53  1  0.39010959  -0.00089956  0.20522238  1
  Zr  Zr54  1  0.40261190  0.39450632  0.18944399  1
  Zr  Zr55  1  0.00242845  0.19712312  0.39982343  1
  Zr  Zr56  1  0.29666460  0.30073765  0.70016383  1
  Zr  Zr57  1  0.59497125  0.61285842  0.80729186  1
  Zr  Zr58  1  0.49193732  0.69130318  0.10538168  1
  Zr  Zr59  1  0.20268415  -0.00185310  0.00170543  1
  Zr  Zr60  1  0.19213285  0.18726762  0.40224963  1
  Zr  Zr61  1  0.58913011  0.00531547  0.39943511  1
  Zr  Zr62  1  0.70079714  0.30107038  0.70501372  1
  Zr  Zr63  1  0.20833188  0.80241991  0.19930456  1
  Zr  Zr64  1  0.08418909  0.51484381  0.90108440  1
  Zr  Zr65  1  0.19661258  0.40435076  -0.00183162  1
  Zr  Zr66  1  0.58038673  0.19854916  0.79718011  1
  Zr  Zr67  1  0.69611586  0.49040493  0.90336601  1
  Zr  Zr68  1  0.49748461  0.50053445  0.70019620  1
  Zr  Zr69  1  0.50854158  0.30485152  0.29744489  1
  Zr  Zr70  1  0.49067011  0.89782300  0.70082357  1
  Zr  Zr71  1  0.70019307  0.30310988  0.90291921  1
  Zr  Zr72  1  0.39429027  0.40089509  0.39923152  1
  Zr  Zr73  1  0.71690921  0.10330728  0.72103047  1
  Zr  Zr74  1  0.21097896  0.79570078  0.58918561  1
  Zr  Zr75  1  0.90564822  0.89939460  0.31834969  1
  Zr  Zr76  1  0.79892631  0.19764945  -0.00088498  1
  Zr  Zr77  1  0.19375340  0.20830521  -0.00570845  1
  Zr  Zr78  1  0.20572156  0.00081187  0.59238941  1
  Zr  Zr79  1  0.09628054  0.90281804  0.89014327  1
  Zr  Zr80  1  0.69767009  0.69311801  0.10362504  1
  Zr  Zr81  1  0.81265840  -0.00270455  0.00408979  1
  Zr  Zr82  1  0.39214801  0.00420620  -0.00599804  1
  Zr  Zr83  1  0.49830986  0.28893880  0.50547986  1
  Zr  Zr84  1  0.70030733  0.10359071  0.50646857  1
  Zr  Zr85  1  0.80588365  0.20411791  0.40266869  1
  Zr  Zr86  1  0.50192114  0.50714038  0.28889327  1
  Zr  Zr87  1  0.69112669  0.49965340  0.28850415  1
  Zr  Zr88  1  0.70691693  0.10138117  0.30059559  1
  Zr  Zr89  1  0.60123128  0.80182479  0.20111661  1
  Zr  Zr90  1  0.09166994  0.08206438  0.70458817  1
  Zr  Zr91  1  0.70004836  0.90526000  0.89940129  1
  Zr  Zr92  1  0.40988348  0.79187065  0.80353437  1
  Zr  Zr93  1  0.39060777  0.00478517  0.60517430  1
  Zr  Zr94  1  0.70328931  0.49922606  0.70564712  1
  Zr  Zr95  1  0.38851153  0.61512292  0.59916441  1
  Zr  Zr96  1  0.00645967  0.60189677  0.59501668  1
  Zr  Zr97  1  0.49895765  0.09734877  0.09003703  1
  Zr  Zr98  1  0.59546514  0.79637865  -0.00368283  1
  Zr  Zr99  1  -0.00378294  0.19778383  -0.00199662  1
  Ta  Ta100  1  0.90552503  0.89593915  0.89711166  1
  Ta  Ta101  1  0.29789420  0.11155582  0.89333092  1
  Ta  Ta102  1  0.09820606  0.50519792  0.29418956  1
  Ta  Ta103  1  0.40646034  0.59550685  -0.00453833  1
  Ta  Ta104  1  0.40304158  0.40422141  -0.00375220  1
  Ta  Ta105  1  0.80840490  0.60106979  0.80100991  1
  Ta  Ta106  1  0.79742001  0.40331446  0.40304740  1
  Ta  Ta107  1  0.19475104  0.60386388  0.59281172  1
  Ta  Ta108  1  0.90830047  0.90161618  0.70982499  1
  Ta  Ta109  1  0.40018235  0.39291428  0.60501816  1
  Ta  Ta110  1  0.70214552  0.29808944  0.50294190  1
  Ta  Ta111  1  -0.00097273  0.40112599  -0.00125328  1
  Ta  Ta112  1  0.09420140  0.09401399  0.89493753  1
  Ta  Ta113  1  0.80825596  0.79873922  0.00138144  1
  Ta  Ta114  1  0.80604553  0.79001638  0.39588670  1
  Ta  Ta115  1  -0.00255910  0.19668269  0.20061410  1
  Ta  Ta116  1  0.48854892  0.89736999  0.49639890  1
  Ta  Ta117  1  0.00013051  0.20823877  0.79677656  1
  Ta  Ta118  1  0.19346003  0.40087729  0.80748602  1
  Ta  Ta119  1  0.00441643  0.40118668  0.80077754  1
  Ta  Ta120  1  0.60142981  0.20597384  0.19324427  1
  Ta  Ta121  1  0.20023471  0.19308882  0.60492957  1
  Ta  Ta122  1  0.90309261  0.31052375  0.70133866  1
  Ta  Ta123  1  0.90077319  0.30648503  0.89782051  1
  Ta  Ta124  1  0.60148134  0.20073526  0.39610235  1
  Ta  Ta125  1  0.70381818  0.30596333  0.28998251  1
  Ta  Ta126  1  0.81243743  0.40798434  0.80485773  1
  Ta  Ta127  1  0.19873645  0.59980643  0.40167851  1
  Ta  Ta128  1  0.10002989  0.29631742  0.29096684  1
  Ta  Ta129  1  0.09445730  0.70636775  0.89872373  1
  Ta  Ta130  1  -0.00174140  0.59809999  0.39721233  1
  Ta  Ta131  1  0.39340665  0.60580615  0.39471182  1
  Ta  Ta132  1  0.01301869  0.01333141  0.39981775  1
  Ta  Ta133  1  0.59308048  0.20347915  -0.00351048  1
  Ta  Ta134  1  -0.00171198  0.80127928  0.00283268  1
  Ta  Ta135  1  0.50569592  0.69000676  0.29855715  1
  Ta  Ta136  1  0.90304514  0.49819838  0.29243865  1
  Ta  Ta137  1  0.39831124  0.39953411  0.80739793  1
  Ta  Ta138  1  0.80447260  0.60381027  0.60556252  1
  Ta  Ta139  1  0.00223644  0.39993287  0.19547486  1
  Ta  Ta140  1  0.59343183  0.59051159  -0.00124580  1
  Ta  Ta141  1  -0.00880671  0.80090243  0.20065705  1
  Ta  Ta142  1  0.30207099  0.30263709  0.89952435  1
  Ta  Ta143  1  0.49680155  0.70301782  0.49153134  1
  Ta  Ta144  1  0.49567429  0.90439063  0.90539488  1
  Ta  Ta145  1  0.90148632  0.49710634  0.09705477  1
  Ta  Ta146  1  0.90663951  0.50311318  0.70420118  1
  Ta  Ta147  1  0.49716781  0.10519322  0.50442913  1
  Ta  Ta148  1  0.39432441  0.79450285  0.20178184  1
  Ta  Ta149  1  0.30028706  0.29379825  0.50615882  1
  Ti  Ti150  1  0.90070116  0.70176735  0.49360813  1
  Ti  Ti151  1  0.69962895  0.69903443  0.90372739  1
  Ti  Ti152  1  0.29270902  0.10964642  0.09973209  1
  Ti  Ti153  1  0.69880139  0.90012417  0.09434448  1
  Ti  Ti154  1  0.30555883  0.89797543  0.89363839  1
  Ti  Ti155  1  0.09465153  0.89971501  0.10060280  1
  Ti  Ti156  1  0.90078931  0.30760849  0.50655836  1
  Ti  Ti157  1  0.91586374  0.69305387  0.89859997  1
  Ti  Ti158  1  0.29551092  0.50608021  0.29351246  1
  Ti  Ti159  1  0.40112760  0.20367427  -0.00571156  1
  Ti  Ti160  1  0.00892542  0.40342905  0.60518326  1
  Ti  Ti161  1  0.49455290  0.30338460  0.90511970  1
  Ti  Ti162  1  0.58359823  0.39765291  0.80382191  1
  Ti  Ti163  1  -0.00601581  -0.00001697  0.00512527  1
  Ti  Ti164  1  0.39621671  0.01427892  0.39531181  1
  Ti  Ti165  1  0.70366860  0.70207088  0.70077132  1
  Ti  Ti166  1  0.21383360  0.79244540  0.39512438  1
  Ti  Ti167  1  0.39864604  0.01491557  0.79792405  1
  Ti  Ti168  1  0.29321503  0.70698431  0.70713134  1
  Ti  Ti169  1  0.40334179  0.19616526  0.61685482  1
  Ti  Ti170  1  0.10062378  0.70342400  0.48812169  1
  Ti  Ti171  1  0.90746351  0.69744763  0.70820904  1
  Ti  Ti172  1  0.30009843  0.29581207  0.09455922  1
  Ti  Ti173  1  0.49428438  0.89875219  0.09287685  1
  Ti  Ti174  1  0.40394823  0.19217105  0.39194682  1
  Ti  Ti175  1  0.30718977  0.11244325  0.50326606  1
  Ti  Ti176  1  0.21387606  0.00455709  0.79973425  1
  Ti  Ti177  1  0.39403527  0.79699429  0.59268317  1
  Ti  Ti178  1  0.50139211  0.70238318  0.69164070  1
  Ti  Ti179  1  0.79733118  0.40596729  0.59886002  1
  Ti  Ti180  1  0.09871840  0.50423663  0.70182586  1
  Ti  Ti181  1  0.50881286  0.49558305  0.10195889  1
  Ti  Ti182  1  0.60017951  0.79930066  0.80066058  1
  Ti  Ti183  1  0.40048177  0.19953151  0.79868699  1
  Ti  Ti184  1  0.31016054  0.89385537  0.09914356  1
  Ti  Ti185  1  0.79808738  0.19816646  0.19416550  1
  Ti  Ti186  1  0.80568708  0.79892321  0.60372115  1
  Ti  Ti187  1  0.80498278  0.79553689  0.20236804  1
  Ti  Ti188  1  0.69834663  0.09826090  0.90109505  1
  Ti  Ti189  1  0.19221209  0.40339689  0.60364097  1
  Ti  Ti190  1  0.39088337  0.78648966  0.39317212  1
  Ti  Ti191  1  0.31164920  0.89609393  0.48342728  1
  Ti  Ti192  1  0.29189954  0.10673705  0.28923685  1
  Ti  Ti193  1  0.08953380  0.51037970  0.10529716  1
  Ti  Ti194  1  0.20290056  -0.00405704  0.20279269  1
  Ti  Ti195  1  0.70032452  0.48220325  0.09796561  1
  Ti  Ti196  1  0.89812749  0.09817465  0.30148039  1
  Ti  Ti197  1  0.09534348  0.29800484  0.10234770  1
  Ti  Ti198  1  0.29964167  0.68542357  0.28546399  1
  Ti  Ti199  1  0.29723130  0.89102822  0.71114343  1
  Mo  Mo200  1  0.30302776  0.49490731  0.90419739  1
  Mo  Mo201  1  0.19918461  0.59630892  0.20446603  1
  Mo  Mo202  1  0.59798930  0.60619217  0.39895317  1
  Mo  Mo203  1  0.49224515  0.30144530  0.70407346  1
  Mo  Mo204  1  0.90529051  0.09985271  0.70338112  1
  Mo  Mo205  1  0.69536887  0.30074089  0.10036762  1
  Mo  Mo206  1  0.30192125  0.89798165  0.30503582  1
  Mo  Mo207  1  0.59203812  0.39477041  0.00408085  1
  Mo  Mo208  1  0.49237210  0.10436396  0.69908996  1
  Mo  Mo209  1  0.90429432  0.88685924  0.09599908  1
  Mo  Mo210  1  0.60295930  0.59413052  0.19128335  1
  Mo  Mo211  1  0.79827359  -0.01682433  0.79975061  1
  Mo  Mo212  1  0.49945077  0.10690276  0.30515030  1
  Mo  Mo213  1  -0.00280793  0.59292259  0.20123094  1
  Mo  Mo214  1  0.50142769  0.49398555  0.90491653  1
  Mo  Mo215  1  -0.00309566  0.60133474  0.79780205  1
  Mo  Mo216  1  -0.00105859  0.60152648  0.00171631  1
  Mo  Mo217  1  0.80405791  0.40188919  -0.00012658  1
  Mo  Mo218  1  0.59629760  0.19925976  0.59839134  1
  Mo  Mo219  1  0.70942602  0.49876308  0.50558066  1
  Mo  Mo220  1  0.48976653  0.10326590  0.89881289  1
  Mo  Mo221  1  0.19653263  0.20347463  0.19401555  1
  Mo  Mo222  1  -0.00576022  -0.00164876  0.80007051  1
  Mo  Mo223  1  0.81410236  -0.00427405  0.40524699  1
  Mo  Mo224  1  0.10179068  0.09818991  0.28910293  1
  Mo  Mo225  1  0.09740618  0.31455145  0.69825444  1
  Mo  Mo226  1  0.60490576  0.39310461  0.18466856  1
  Mo  Mo227  1  0.80086251  0.40254484  0.19789441  1
  Mo  Mo228  1  -0.00428366  0.78528542  0.40119772  1
  Mo  Mo229  1  0.09240290  0.30453771  0.89703792  1
  Mo  Mo230  1  0.59443132  0.00123500  -0.00384042  1
  Mo  Mo231  1  0.29826382  0.10554070  0.70878364  1
  Mo  Mo232  1  0.50149825  0.29850912  0.08833903  1
  Mo  Mo233  1  0.40083259  0.60033128  0.20064220  1
  Mo  Mo234  1  0.10214423  0.09458619  0.50972587  1
  Mo  Mo235  1  0.10205985  0.50406515  0.49836732  1
  Mo  Mo236  1  0.50242362  0.70046372  0.90930251  1
  Mo  Mo237  1  -0.00479704  0.79635657  0.80486376  1
  Mo  Mo238  1  0.90218264  0.10833173  0.10714849  1
  Mo  Mo239  1  0.20769220  0.80227099  0.80439683  1
  Mo  Mo240  1  0.90154764  0.49806836  0.89953081  1
  Mo  Mo241  1  0.90260595  0.89467987  0.50373586  1
  Mo  Mo242  1  0.40022597  0.80625191  0.00548023  1
  Mo  Mo243  1  0.70800934  0.88936107  0.70637755  1
  Mo  Mo244  1  0.81133350  0.21950314  0.79924228  1
  Mo  Mo245  1  0.90127419  0.69750324  0.29935151  1
  Mo  Mo246  1  0.69955457  0.70017813  0.29971496  1
  Mo  Mo247  1  0.29831183  0.69939530  0.48579474  1
  Mo  Mo248  1  -0.00156344  -0.00848948  0.59999031  1
  Mo  Mo249  1  0.30477550  0.70001898  0.10093558  1
