# generated using pymatgen
data_HfZrTaTiMo
_symmetry_space_group_name_H-M   'P 1'
_cell_length_a   16.88643871
_cell_length_b   16.88204618
_cell_length_c   16.89264579
_cell_angle_alpha   89.97708747
_cell_angle_beta   90.01110600
_cell_angle_gamma   90.00946021
_symmetry_Int_Tables_number   1
_chemical_formula_structural   HfZrTaTiMo
_chemical_formula_sum   'Hf50 Zr50 Ta50 Ti50 Mo50'
_cell_volume   4815.71502291
_cell_formula_units_Z   50
loop_
 _symmetry_equiv_pos_site_id
 _symmetry_equiv_pos_as_xyz
  1  'x, y, z'
loop_
 _atom_site_type_symbol
 _atom_site_label
 _atom_site_symmetry_multiplicity
 _atom_site_fract_x
 _atom_site_fract_y
 _atom_site_fract_z
 _atom_site_occupancy
  Hf  Hf0  1  0.01176612  0.79534385  0.00222558  1
  Hf  Hf1  1  0.10792383  0.30391058  0.50000985  1
  Hf  Hf2  1  0.70263439  0.10480759  0.89161039  1
  Hf  Hf3  1  -0.00319352  -0.00008978  0.39563436  1
  Hf  Hf4  1  0.79428471  0.58709049  0.19740451  1
  Hf  Hf5  1  0.70426950  0.10180089  0.70431799  1
  Hf  Hf6  1  0.70411869  0.89559046  0.10616765  1
  Hf  Hf7  1  0.59868137  0.20897218  0.00469257  1
  Hf  Hf8  1  0.90465226  0.70723922  0.50572723  1
  Hf  Hf9  1  0.80776934  -0.00742135  0.79487674  1
  Hf  Hf10  1  0.38927806  0.80467416  -0.00268677  1
  Hf  Hf11  1  0.70209000  0.30120011  0.70370657  1
  Hf  Hf12  1  0.10793613  0.30035553  0.29993896  1
  Hf  Hf13  1  0.90056213  0.09592205  0.50460968  1
  Hf  Hf14  1  0.59237338  0.80495988  0.20492128  1
  Hf  Hf15  1  0.58356989  0.20310190  0.79733569  1
  Hf  Hf16  1  0.00176312  0.40075337  0.01163215  1
  Hf  Hf17  1  0.40216742  0.19989384  0.79359521  1
  Hf  Hf18  1  0.90190703  0.29042228  0.11252485  1
  Hf  Hf19  1  0.60271418  -0.00469643  -0.00616206  1
  Hf  Hf20  1  0.89163252  0.69926842  0.10041179  1
  Hf  Hf21  1  0.19715429  0.19256934  0.01879828  1
  Hf  Hf22  1  0.40608244  -0.00443168  0.60510619  1
  Hf  Hf23  1  0.10192427  0.29353707  0.88904031  1
  Hf  Hf24  1  0.49729990  0.70388555  0.69775525  1
  Hf  Hf25  1  0.40490300  -0.00259228  0.79343823  1
  Hf  Hf26  1  0.78978027  0.79666878  -0.01739940  1
  Hf  Hf27  1  0.41113726  0.20671747  0.20003581  1
  Hf  Hf28  1  0.40527251  0.19964666  0.60780656  1
  Hf  Hf29  1  0.90256142  0.09728728  0.89997468  1
  Hf  Hf30  1  0.40254217  0.19813209  0.00011037  1
  Hf  Hf31  1  0.89427474  0.29576185  0.69889882  1
  Hf  Hf32  1  0.10812659  0.90004008  0.29496080  1
  Hf  Hf33  1  -0.00906956  0.20994218  0.39458144  1
  Hf  Hf34  1  0.79652365  0.20258514  0.40319934  1
  Hf  Hf35  1  0.59652800  0.19896053  0.60219684  1
  Hf  Hf36  1  0.59741748  0.79948105  -0.00887142  1
  Hf  Hf37  1  0.70068447  0.50239556  0.69495122  1
  Hf  Hf38  1  0.79760537  0.39892483  0.00596969  1
  Hf  Hf39  1  0.30352703  0.89877715  0.30199581  1
  Hf  Hf40  1  0.89426617  0.90250307  0.10234525  1
  Hf  Hf41  1  0.00507650  0.60056682  0.00467207  1
  Hf  Hf42  1  -0.00122112  0.59930305  0.40445651  1
  Hf  Hf43  1  0.68914118  0.30530898  0.30776505  1
  Hf  Hf44  1  0.40045458  0.20180658  0.40116031  1
  Hf  Hf45  1  0.80163461  0.40721922  0.79757512  1
  Hf  Hf46  1  0.19187185  0.40139579  0.01012390  1
  Hf  Hf47  1  0.48442095  0.69394578  0.88909108  1
  Hf  Hf48  1  0.89575732  0.50793807  0.90248786  1
  Hf  Hf49  1  0.89236558  0.89540604  0.29707335  1
  Zr  Zr50  1  0.20197294  -0.00930085  0.79341453  1
  Zr  Zr51  1  0.10243472  0.51184599  0.50360574  1
  Zr  Zr52  1  0.00564349  0.40376933  0.19916501  1
  Zr  Zr53  1  0.69837953  0.89447232  0.70104572  1
  Zr  Zr54  1  0.49616335  0.51060689  0.70024935  1
  Zr  Zr55  1  0.20802034  -0.00114864  0.40686110  1
  Zr  Zr56  1  0.69885074  0.09826278  0.10755546  1
  Zr  Zr57  1  0.49781566  0.69646087  0.31502010  1
  Zr  Zr58  1  0.00814453  0.80133787  0.19514293  1
  Zr  Zr59  1  0.19966644  0.60121947  0.79493470  1
  Zr  Zr60  1  0.68841090  0.49596196  0.08848267  1
  Zr  Zr61  1  0.20363065  0.60229134  -0.00673090  1
  Zr  Zr62  1  0.21065351  0.41400652  0.60666080  1
  Zr  Zr63  1  0.00946623  -0.00597504  0.79689738  1
  Zr  Zr64  1  0.60272772  0.60298814  -0.01193806  1
  Zr  Zr65  1  0.39598584  0.40545989  0.39908709  1
  Zr  Zr66  1  0.09867867  0.49663259  0.89459497  1
  Zr  Zr67  1  0.11002207  0.10153301  0.29221295  1
  Zr  Zr68  1  0.30049234  0.10095294  0.29218190  1
  Zr  Zr69  1  0.00910931  0.19018337  0.00892089  1
  Zr  Zr70  1  0.89578717  0.70698172  0.29741774  1
  Zr  Zr71  1  0.30456235  0.30492499  0.10575689  1
  Zr  Zr72  1  0.90244693  0.49852881  0.30175125  1
  Zr  Zr73  1  0.90507586  0.89631993  0.90150493  1
  Zr  Zr74  1  0.79581198  0.39720060  0.20195164  1
  Zr  Zr75  1  0.78868742  0.00297431  0.40410501  1
  Zr  Zr76  1  -0.00579806  0.41255540  0.59784347  1
  Zr  Zr77  1  0.58961660  0.39517223  0.20231621  1
  Zr  Zr78  1  0.79715570  0.59700081  0.40728136  1
  Zr  Zr79  1  0.28913754  0.29825272  0.89139838  1
  Zr  Zr80  1  0.29732201  0.08905839  0.90629865  1
  Zr  Zr81  1  0.60738922  -0.00807475  0.40141491  1
  Zr  Zr82  1  0.39641558  0.80253178  0.19285573  1
  Zr  Zr83  1  0.70050046  0.69849965  0.10310820  1
  Zr  Zr84  1  0.13071105  0.88791523  0.91262687  1
  Zr  Zr85  1  0.09677314  0.89708195  0.50866479  1
  Zr  Zr86  1  -0.00041371  0.19749667  0.60182929  1
  Zr  Zr87  1  0.01319637  0.79253338  0.80021660  1
  Zr  Zr88  1  0.30125614  0.68988243  0.30930577  1
  Zr  Zr89  1  0.31224817  0.50373988  0.09764939  1
  Zr  Zr90  1  0.48760628  0.68408095  0.09676700  1
  Zr  Zr91  1  0.90181628  0.29527791  0.89364452  1
  Zr  Zr92  1  0.69413753  0.70463359  0.30569765  1
  Zr  Zr93  1  0.79660618  0.20139437  0.00706394  1
  Zr  Zr94  1  0.49998615  0.31125349  0.50014396  1
  Zr  Zr95  1  0.89686124  0.10486670  0.28203467  1
  Zr  Zr96  1  0.60017021  -0.00342242  0.59747618  1
  Zr  Zr97  1  0.10784876  0.30023129  0.70363098  1
  Zr  Zr98  1  0.10529943  0.09871015  0.50408874  1
  Zr  Zr99  1  0.60044070  0.19772816  0.40595708  1
  Ta  Ta100  1  0.20083843  0.79499370  0.40525933  1
  Ta  Ta101  1  0.20679121  0.79868077  0.19412111  1
  Ta  Ta102  1  -0.00257473  -0.00521927  0.61259441  1
  Ta  Ta103  1  0.09839788  0.69859885  0.68778255  1
  Ta  Ta104  1  0.39540596  0.40428366  0.79328174  1
  Ta  Ta105  1  0.01833294  -0.00085550  0.00960361  1
  Ta  Ta106  1  0.69602094  0.30565655  0.89751276  1
  Ta  Ta107  1  0.59631407  0.40088705  0.60509272  1
  Ta  Ta108  1  0.40005786  -0.00147644  0.19289030  1
  Ta  Ta109  1  0.69553034  0.49739030  0.50363656  1
  Ta  Ta110  1  0.79573719  0.79791744  0.60065536  1
  Ta  Ta111  1  0.20203904  0.59636844  0.20211901  1
  Ta  Ta112  1  0.60777924  0.60602764  0.79757764  1
  Ta  Ta113  1  -0.00023001  0.60163388  0.79191019  1
  Ta  Ta114  1  0.00017680  0.41050984  0.78900993  1
  Ta  Ta115  1  0.60092944  0.79914381  0.80227883  1
  Ta  Ta116  1  0.50107588  0.09725933  0.29715992  1
  Ta  Ta117  1  0.69113938  0.70366776  0.50123924  1
  Ta  Ta118  1  0.80295909  -0.00417199  0.59989084  1
  Ta  Ta119  1  0.90006297  0.89500217  0.50412341  1
  Ta  Ta120  1  0.79658692  0.60963249  0.79599022  1
  Ta  Ta121  1  0.49270934  0.50405629  0.89620988  1
  Ta  Ta122  1  0.49769957  0.09499838  0.49797301  1
  Ta  Ta123  1  0.49564450  0.90011066  0.89660532  1
  Ta  Ta124  1  0.20123900  0.79757753  0.59961387  1
  Ta  Ta125  1  0.39403060  0.60333217  0.59603673  1
  Ta  Ta126  1  0.79527792  0.19578729  0.59524585  1
  Ta  Ta127  1  0.50211539  0.50273596  0.31616346  1
  Ta  Ta128  1  0.00178679  0.18523371  0.79130886  1
  Ta  Ta129  1  0.30231268  0.89587280  0.50504371  1
  Ta  Ta130  1  0.10093292  0.70032603  0.50323742  1
  Ta  Ta131  1  0.20523040  0.40862187  0.39804297  1
  Ta  Ta132  1  0.50525698  0.50935774  0.50133576  1
  Ta  Ta133  1  0.10633924  0.69652950  0.30221022  1
  Ta  Ta134  1  0.50042545  0.09542527  0.10118118  1
  Ta  Ta135  1  0.49419990  0.49725844  0.08805303  1
  Ta  Ta136  1  0.59215863  0.59015560  0.20506130  1
  Ta  Ta137  1  0.10693977  0.50655838  0.30568300  1
  Ta  Ta138  1  0.20136814  0.40858548  0.20350558  1
  Ta  Ta139  1  0.30265259  0.70311638  0.69873588  1
  Ta  Ta140  1  -0.00410672  0.40028400  0.40154316  1
  Ta  Ta141  1  0.29713651  0.89187837  0.69528161  1
  Ta  Ta142  1  0.59356174  0.40492464  0.80156878  1
  Ta  Ta143  1  0.21059815  0.19691142  0.60035244  1
  Ta  Ta144  1  0.29662694  0.30246385  0.30017874  1
  Ta  Ta145  1  0.29814227  0.30300141  0.50263829  1
  Ta  Ta146  1  0.59250181  -0.00417622  0.20415066  1
  Ta  Ta147  1  0.11185265  0.69930541  0.10305126  1
  Ta  Ta148  1  0.79842631  0.60502010  0.59969278  1
  Ta  Ta149  1  0.49460712  0.90145497  0.30714360  1
  Ti  Ti150  1  0.39560404  0.40439836  -0.01421383  1
  Ti  Ti151  1  0.11061559  0.09666897  0.69426400  1
  Ti  Ti152  1  0.50107912  0.31151199  0.09251205  1
  Ti  Ti153  1  0.89704537  0.50938431  0.69157688  1
  Ti  Ti154  1  0.89798217  0.69423906  0.89762436  1
  Ti  Ti155  1  0.49812174  0.09214878  0.90414372  1
  Ti  Ti156  1  0.29671007  0.30021184  0.70085365  1
  Ti  Ti157  1  0.80548542  0.40143669  0.40464565  1
  Ti  Ti158  1  0.78603311  0.20905482  0.20319450  1
  Ti  Ti159  1  0.89167673  0.30923194  0.50448020  1
  Ti  Ti160  1  0.01492192  0.19743270  0.19344603  1
  Ti  Ti161  1  0.60017733  0.80226896  0.59783631  1
  Ti  Ti162  1  0.10903493  0.09867929  0.89800075  1
  Ti  Ti163  1  0.79531515  -0.00515076  -0.00732662  1
  Ti  Ti164  1  0.40114616  0.79987272  0.59697246  1
  Ti  Ti165  1  0.90486810  0.88551881  0.69420848  1
  Ti  Ti166  1  0.49452470  0.90705095  0.09370210  1
  Ti  Ti167  1  0.49919338  0.31214363  0.89984737  1
  Ti  Ti168  1  0.39634039  0.80887725  0.79610549  1
  Ti  Ti169  1  0.30250700  0.69192134  0.09958892  1
  Ti  Ti170  1  0.29247202  0.71194678  0.89029099  1
  Ti  Ti171  1  0.30207970  0.51202178  0.49391629  1
  Ti  Ti172  1  0.40106961  0.58657915  0.21303692  1
  Ti  Ti173  1  0.50222923  0.69682291  0.49861140  1
  Ti  Ti174  1  0.28996655  0.91178754  0.08628628  1
  Ti  Ti175  1  0.70270442  0.31337328  0.50582400  1
  Ti  Ti176  1  0.39875244  0.79794768  0.40974483  1
  Ti  Ti177  1  0.59189685  -0.00568365  0.79594296  1
  Ti  Ti178  1  0.00585962  0.59518522  0.19415717  1
  Ti  Ti179  1  0.90324616  0.70103373  0.69505362  1
  Ti  Ti180  1  0.20513982  0.60290858  0.60368944  1
  Ti  Ti181  1  0.79288686  0.79107985  0.79683235  1
  Ti  Ti182  1  0.39710786  0.40630902  0.60488529  1
  Ti  Ti183  1  0.78568655  -0.00458730  0.21212314  1
  Ti  Ti184  1  0.50008979  0.89238927  0.49511827  1
  Ti  Ti185  1  0.40427569  0.40327212  0.21105657  1
  Ti  Ti186  1  0.01197195  -0.00008179  0.18939171  1
  Ti  Ti187  1  0.00626516  0.80017649  0.39927835  1
  Ti  Ti188  1  0.20573438  0.41491372  0.79212068  1
  Ti  Ti189  1  0.29402021  0.09680119  0.69776778  1
  Ti  Ti190  1  0.68670593  0.49776135  0.31574793  1
  Ti  Ti191  1  0.89744107  0.09079928  0.10311716  1
  Ti  Ti192  1  0.78416452  0.81083715  0.40608775  1
  Ti  Ti193  1  0.69909488  0.50098332  0.89819967  1
  Ti  Ti194  1  0.30366789  0.09672789  0.50656898  1
  Ti  Ti195  1  0.60361609  0.60706860  0.60029727  1
  Ti  Ti196  1  0.20881800  0.20255054  0.40508164  1
  Ti  Ti197  1  0.68724111  0.10615129  0.29262870  1
  Ti  Ti198  1  0.29711645  0.69920672  0.50104855  1
  Ti  Ti199  1  0.40240608  -0.00002097  0.40333847  1
  Mo  Mo200  1  0.69270963  0.89809141  0.30095969  1
  Mo  Mo201  1  0.10292148  0.50737033  0.11057189  1
  Mo  Mo202  1  0.39148857  0.59757401  -0.01650830  1
  Mo  Mo203  1  -0.00144030  0.80082785  0.60288084  1
  Mo  Mo204  1  0.70408077  0.89175776  0.50607104  1
  Mo  Mo205  1  0.80575188  0.19952411  0.79750692  1
  Mo  Mo206  1  0.30558796  0.50891100  0.69754965  1
  Mo  Mo207  1  0.59313832  0.80185830  0.41021767  1
  Mo  Mo208  1  0.11136841  0.09063098  0.10910254  1
  Mo  Mo209  1  0.79526222  0.40299621  0.59551871  1
  Mo  Mo210  1  0.30597001  0.49655141  0.89383369  1
  Mo  Mo211  1  0.89816729  0.09904040  0.69849778  1
  Mo  Mo212  1  0.40410028  -0.00218599  0.00164367  1
  Mo  Mo213  1  0.90190187  0.50596062  0.09725263  1
  Mo  Mo214  1  0.79445590  0.80582666  0.20625005  1
  Mo  Mo215  1  0.20307361  0.00343020  0.00290163  1
  Mo  Mo216  1  0.70246815  0.69956043  0.88810842  1
  Mo  Mo217  1  0.20566856  0.79344086  0.78787209  1
  Mo  Mo218  1  0.89122540  0.49972466  0.50382426  1
  Mo  Mo219  1  0.30763749  0.89410636  0.89596670  1
  Mo  Mo220  1  0.30204634  0.49920003  0.29993983  1
  Mo  Mo221  1  -0.00756109  0.60679490  0.60480723  1
  Mo  Mo222  1  0.20199651  0.60337757  0.40249063  1
  Mo  Mo223  1  0.59352131  0.19908565  0.19912309  1
  Mo  Mo224  1  0.70255465  0.09766661  0.50916280  1
  Mo  Mo225  1  0.11281068  0.89910062  0.10219953  1
  Mo  Mo226  1  0.60020088  0.40544355  0.40792874  1
  Mo  Mo227  1  0.20973539  0.79149585  0.01085172  1
  Mo  Mo228  1  0.59936797  0.59955924  0.40858709  1
  Mo  Mo229  1  0.49792552  0.88888582  0.70241906  1
  Mo  Mo230  1  0.39142528  0.60123322  0.79482990  1
  Mo  Mo231  1  0.10232940  0.69805314  0.89834392  1
  Mo  Mo232  1  0.49608844  0.31419908  0.70115120  1
  Mo  Mo233  1  0.19794193  0.18864342  0.78770253  1
  Mo  Mo234  1  0.10453547  0.29688320  0.11340545  1
  Mo  Mo235  1  0.50171893  0.09256660  0.69901383  1
  Mo  Mo236  1  0.20615789  0.20518678  0.19947373  1
  Mo  Mo237  1  0.40001542  0.60043065  0.41415061  1
  Mo  Mo238  1  0.69380571  0.89967845  0.89059821  1
  Mo  Mo239  1  0.89638210  0.29982287  0.30411770  1
  Mo  Mo240  1  0.69794639  0.69980996  0.69346848  1
  Mo  Mo241  1  0.69280979  0.29803917  0.09994094  1
  Mo  Mo242  1  0.59181967  0.40033052  -0.01149190  1
  Mo  Mo243  1  0.10559289  0.89212649  0.69228157  1
  Mo  Mo244  1  0.20825740  -0.00439922  0.19006927  1
  Mo  Mo245  1  0.09692785  0.51042140  0.69901274  1
  Mo  Mo246  1  0.20739180  -0.00268735  0.60272799  1
  Mo  Mo247  1  0.49585188  0.30254670  0.30025496  1
  Mo  Mo248  1  0.80235493  0.59964943  -0.00915532  1
  Mo  Mo249  1  0.30749727  0.09238540  0.10232862  1
