# generated using pymatgen
data_HfZrTaTiMo
_symmetry_space_group_name_H-M   'P 1'
_cell_length_a   16.88700766
_cell_length_b   16.88921747
_cell_length_c   16.89396066
_cell_angle_alpha   90.09075028
_cell_angle_beta   89.99447713
_cell_angle_gamma   90.06840974
_symmetry_Int_Tables_number   1
_chemical_formula_structural   HfZrTaTiMo
_chemical_formula_sum   'Hf50 Zr50 Ta50 Ti50 Mo50'
_cell_volume   4818.28905675
_cell_formula_units_Z   50
loop_
 _symmetry_equiv_pos_site_id
 _symmetry_equiv_pos_as_xyz
  1  'x, y, z'
loop_
 _atom_site_type_symbol
 _atom_site_label
 _atom_site_symmetry_multiplicity
 _atom_site_fract_x
 _atom_site_fract_y
 _atom_site_fract_z
 _atom_site_occupancy
  Hf  Hf0  1  0.60010242  0.38317632  0.60369423  1
  Hf  Hf1  1  0.40865883  0.79500211  0.59207075  1
  Hf  Hf2  1  0.10194073  0.29605433  0.50822179  1
  Hf  Hf3  1  0.39304037  -0.00099260  -0.00500914  1
  Hf  Hf4  1  0.29672307  0.29592805  0.10707644  1
  Hf  Hf5  1  0.70222947  0.70169207  0.09674280  1
  Hf  Hf6  1  0.39759998  0.20625018  -0.00263413  1
  Hf  Hf7  1  0.89717481  0.89458276  0.69838859  1
  Hf  Hf8  1  0.19355799  0.21130047  -0.00767224  1
  Hf  Hf9  1  0.70201691  0.50422149  0.69963770  1
  Hf  Hf10  1  0.30044963  0.70349858  0.09803723  1
  Hf  Hf11  1  0.80386901  0.59718070  0.19598065  1
  Hf  Hf12  1  0.59410687  0.60695415  0.59222147  1
  Hf  Hf13  1  0.09842763  0.09620807  0.09905741  1
  Hf  Hf14  1  0.80367060  0.00191620  0.19758022  1
  Hf  Hf15  1  0.18715340  0.79685519  0.80794491  1
  Hf  Hf16  1  0.60103094  0.60528305  0.40421899  1
  Hf  Hf17  1  0.79683125  0.79218225  0.59062275  1
  Hf  Hf18  1  0.49522959  0.70825897  0.10267796  1
  Hf  Hf19  1  0.70040979  0.10092441  0.69981246  1
  Hf  Hf20  1  0.59997651  0.59993405  0.19952616  1
  Hf  Hf21  1  0.00477768  0.79263235  -0.01560925  1
  Hf  Hf22  1  0.70916241  0.89925921  0.30528769  1
  Hf  Hf23  1  0.19749350  0.79165108  0.59376299  1
  Hf  Hf24  1  0.08687748  0.89155361  0.30054495  1
  Hf  Hf25  1  0.19442417  0.60479442  -0.00912832  1
  Hf  Hf26  1  -0.01128799  0.20136925  0.61216946  1
  Hf  Hf27  1  0.69191515  0.49334245  0.90081638  1
  Hf  Hf28  1  0.71230025  0.90249381  0.70591771  1
  Hf  Hf29  1  0.30797996  0.50244528  0.51123215  1
  Hf  Hf30  1  0.59958177  0.80015204  0.59693814  1
  Hf  Hf31  1  0.40742606  0.61465095  0.41028859  1
  Hf  Hf32  1  0.30808321  0.69518972  0.70290630  1
  Hf  Hf33  1  -0.00640965  0.17911489  0.39879960  1
  Hf  Hf34  1  0.10819601  0.09622082  0.50937379  1
  Hf  Hf35  1  0.40589211  0.59476471  -0.00250700  1
  Hf  Hf36  1  0.49449253  0.09948877  0.50890569  1
  Hf  Hf37  1  0.59432279  0.20491472  0.19982197  1
  Hf  Hf38  1  0.19669239  -0.01233338  0.80291561  1
  Hf  Hf39  1  0.89248432  0.29726176  0.09891005  1
  Hf  Hf40  1  0.70829407  0.70813898  0.30269137  1
  Hf  Hf41  1  0.40141889  -0.00293251  0.80343466  1
  Hf  Hf42  1  0.60116310  -0.01095987  0.59388759  1
  Hf  Hf43  1  0.50689583  0.30491433  0.89855120  1
  Hf  Hf44  1  0.29120738  0.10316303  0.29321602  1
  Hf  Hf45  1  0.80350040  0.40553416  0.39916751  1
  Hf  Hf46  1  0.79905518  0.20561656  0.80161656  1
  Hf  Hf47  1  0.19194223  0.78893019  0.40116588  1
  Hf  Hf48  1  0.29487065  0.09621913  0.50987814  1
  Hf  Hf49  1  -0.00707497  0.21061112  0.80410522  1
  Zr  Zr50  1  0.89710661  0.29447087  0.29534480  1
  Zr  Zr51  1  0.40122723  0.19845976  0.40034662  1
  Zr  Zr52  1  0.11154201  0.10435321  0.70179665  1
  Zr  Zr53  1  0.11071920  0.30619761  0.71087489  1
  Zr  Zr54  1  0.59874906  0.00568752  0.20218636  1
  Zr  Zr55  1  0.91387565  0.71220852  0.29854888  1
  Zr  Zr56  1  0.80894678  0.59655929  0.81100763  1
  Zr  Zr57  1  0.19301928  0.40355708  0.19506497  1
  Zr  Zr58  1  0.50484067  0.31541247  0.31845558  1
  Zr  Zr59  1  0.19630518  0.40410441  0.39719721  1
  Zr  Zr60  1  0.70385491  0.70637975  0.89790243  1
  Zr  Zr61  1  0.59335290  0.00147533  0.39868169  1
  Zr  Zr62  1  0.00196840  0.40565444  0.39662882  1
  Zr  Zr63  1  -0.00206266  0.00007404  0.60165925  1
  Zr  Zr64  1  0.69732871  0.89729661  0.09266261  1
  Zr  Zr65  1  0.49770643  0.49919527  0.70776778  1
  Zr  Zr66  1  0.09943038  0.10108209  0.89741574  1
  Zr  Zr67  1  0.29827799  0.90521846  0.49645054  1
  Zr  Zr68  1  0.30197954  0.49368988  0.89387462  1
  Zr  Zr69  1  0.49607335  0.47667075  0.49266514  1
  Zr  Zr70  1  0.30217456  0.70145017  0.28950132  1
  Zr  Zr71  1  0.50702039  0.10401896  0.70200324  1
  Zr  Zr72  1  0.08947870  0.69803597  0.70460856  1
  Zr  Zr73  1  0.89999822  0.29829348  0.50108150  1
  Zr  Zr74  1  0.50268792  0.49656295  0.30197517  1
  Zr  Zr75  1  0.70410083  0.29118799  0.50189283  1
  Zr  Zr76  1  0.79821161  0.59895274  0.39969030  1
  Zr  Zr77  1  0.40719435  0.39609063  0.19182210  1
  Zr  Zr78  1  0.29084709  0.10222329  0.10284411  1
  Zr  Zr79  1  0.49791861  0.10252668  0.09578815  1
  Zr  Zr80  1  0.00300171  0.40036019  -0.00077001  1
  Zr  Zr81  1  0.69746581  0.29577132  0.90809273  1
  Zr  Zr82  1  0.90172558  0.69655496  0.49687580  1
  Zr  Zr83  1  0.09892493  0.70226895  0.10431978  1
  Zr  Zr84  1  0.89898791  0.09942473  0.09192511  1
  Zr  Zr85  1  -0.00570765  0.40430864  0.80444917  1
  Zr  Zr86  1  0.10272951  0.28704305  0.29603887  1
  Zr  Zr87  1  0.30450387  0.31227757  0.50025294  1
  Zr  Zr88  1  0.89126233  0.89376137  0.88947791  1
  Zr  Zr89  1  0.49798331  0.89939199  0.09451320  1
  Zr  Zr90  1  0.89238349  0.09656111  0.89985033  1
  Zr  Zr91  1  0.39421560  0.21347564  0.79663947  1
  Zr  Zr92  1  0.59006222  0.79649042  0.41109379  1
  Zr  Zr93  1  0.29783778  0.09436867  0.69621198  1
  Zr  Zr94  1  0.09819963  0.50520970  0.50448160  1
  Zr  Zr95  1  0.79786449  0.40942860  0.19673622  1
  Zr  Zr96  1  0.59950435  0.19348915  0.40461641  1
  Zr  Zr97  1  0.48399400  0.89274370  0.29733017  1
  Zr  Zr98  1  0.49765870  0.70498719  0.89650324  1
  Zr  Zr99  1  0.30061563  0.50604006  0.29984920  1
  Ta  Ta100  1  0.29423266  0.89949008  0.29723170  1
  Ta  Ta101  1  0.19436965  0.80259265  0.19953488  1
  Ta  Ta102  1  0.09405135  0.89981540  0.10017513  1
  Ta  Ta103  1  0.80727994  0.80460090  0.19554325  1
  Ta  Ta104  1  0.90234406  0.50912587  0.69799025  1
  Ta  Ta105  1  0.71627065  0.90429857  0.49247183  1
  Ta  Ta106  1  0.00077503  0.79704223  0.59307993  1
  Ta  Ta107  1  0.00244373  0.40911328  0.19866044  1
  Ta  Ta108  1  0.80459810  0.39855319  0.61091205  1
  Ta  Ta109  1  0.80631125  0.39581673  0.80024509  1
  Ta  Ta110  1  0.39402776  0.00173824  0.20137410  1
  Ta  Ta111  1  0.29826860  0.89544292  0.69774467  1
  Ta  Ta112  1  0.10209667  0.49818049  0.89480030  1
  Ta  Ta113  1  0.70615087  0.49941170  0.50901783  1
  Ta  Ta114  1  0.70708770  0.10485583  0.29994418  1
  Ta  Ta115  1  0.29290711  0.10330164  0.89578020  1
  Ta  Ta116  1  0.29976237  0.29216247  0.29401817  1
  Ta  Ta117  1  0.09289818  0.90200818  0.49450015  1
  Ta  Ta118  1  -0.00597233  -0.00072146  0.20377652  1
  Ta  Ta119  1  0.19600838  0.59522444  0.79520359  1
  Ta  Ta120  1  0.40121435  0.39661375  -0.00085538  1
  Ta  Ta121  1  0.19371743  -0.00141879  0.39565727  1
  Ta  Ta122  1  0.60053195  0.80374155  0.79435333  1
  Ta  Ta123  1  0.60578031  0.00140629  0.80699584  1
  Ta  Ta124  1  0.70411840  0.69777432  0.70125607  1
  Ta  Ta125  1  0.89963120  0.50494965  0.51072947  1
  Ta  Ta126  1  0.90284730  0.90078521  0.48705908  1
  Ta  Ta127  1  -0.00226627  0.40404630  0.60979216  1
  Ta  Ta128  1  0.90542912  0.89723143  0.09525472  1
  Ta  Ta129  1  -0.00153337  0.21180858  -0.00630237  1
  Ta  Ta130  1  -0.00353874  0.19199946  0.19838819  1
  Ta  Ta131  1  0.70084240  0.29988540  0.30027089  1
  Ta  Ta132  1  0.00180711  0.60102204  0.19375050  1
  Ta  Ta133  1  0.80804470  0.59541006  0.00044776  1
  Ta  Ta134  1  0.50814824  0.90250265  0.90070756  1
  Ta  Ta135  1  0.79110746  0.00095874  -0.00490981  1
  Ta  Ta136  1  0.29746247  0.50377985  0.09800404  1
  Ta  Ta137  1  0.10433690  0.52134499  0.29365271  1
  Ta  Ta138  1  0.59862927  0.59703529  0.00027874  1
  Ta  Ta139  1  0.30038743  0.70246580  0.89603851  1
  Ta  Ta140  1  0.51042351  0.10385986  0.89997089  1
  Ta  Ta141  1  0.70074296  0.90012270  0.89629101  1
  Ta  Ta142  1  -0.00544870  0.59919359  -0.00787666  1
  Ta  Ta143  1  0.00331130  -0.00934924  0.79957696  1
  Ta  Ta144  1  0.89841482  0.70190921  0.70519355  1
  Ta  Ta145  1  0.80254152  0.40173611  -0.00349247  1
  Ta  Ta146  1  0.19862634  -0.01352940  -0.00447075  1
  Ta  Ta147  1  0.40798918  0.21516150  0.60526506  1
  Ta  Ta148  1  0.59688094  0.79692189  0.20670413  1
  Ta  Ta149  1  0.20143497  0.60096529  0.60433209  1
  Ti  Ti150  1  0.40389863  -0.01242722  0.60244157  1
  Ti  Ti151  1  0.50507191  0.49470243  0.09322403  1
  Ti  Ti152  1  0.40310817  0.80570856  0.79939415  1
  Ti  Ti153  1  0.19919619  0.39668542  -0.00562351  1
  Ti  Ti154  1  0.81215646  0.00936476  0.39370064  1
  Ti  Ti155  1  0.60360284  0.20454082  0.00828450  1
  Ti  Ti156  1  0.90546525  0.50111743  0.09673487  1
  Ti  Ti157  1  0.00004651  0.60288398  0.81210559  1
  Ti  Ti158  1  0.60502053  0.39067509  0.18453794  1
  Ti  Ti159  1  0.39819135  0.79365206  0.40525577  1
  Ti  Ti160  1  0.91222544  0.50901961  0.30135933  1
  Ti  Ti161  1  0.01317942  0.61139277  0.39906488  1
  Ti  Ti162  1  0.79306581  0.19819202  0.19581832  1
  Ti  Ti163  1  0.09575117  0.29702930  0.10474586  1
  Ti  Ti164  1  0.19897582  0.19579744  0.40158084  1
  Ti  Ti165  1  0.60602546  0.38596036  0.78851966  1
  Ti  Ti166  1  0.40702363  0.60010270  0.19772107  1
  Ti  Ti167  1  0.50213170  0.90030231  0.70628466  1
  Ti  Ti168  1  0.29654423  0.89430409  0.10436247  1
  Ti  Ti169  1  0.70096271  0.10459256  0.09008137  1
  Ti  Ti170  1  0.69527634  0.49601397  0.09038867  1
  Ti  Ti171  1  0.00241425  -0.00806579  -0.00680440  1
  Ti  Ti172  1  0.09701174  0.89627751  0.69490338  1
  Ti  Ti173  1  0.19441783  -0.00811755  0.19937644  1
  Ti  Ti174  1  0.40583394  0.38864642  0.61927341  1
  Ti  Ti175  1  0.80433371  0.19136608  0.39588850  1
  Ti  Ti176  1  0.80249087  0.20463295  0.61169078  1
  Ti  Ti177  1  0.39549037  0.80437189  -0.00516881  1
  Ti  Ti178  1  0.88870554  0.08537090  0.70527002  1
  Ti  Ti179  1  0.10341567  0.50598762  0.09775137  1
  Ti  Ti180  1  0.20070095  0.61177427  0.41103324  1
  Ti  Ti181  1  0.09838906  0.09245812  0.29695614  1
  Ti  Ti182  1  0.70983128  0.09610626  0.50599361  1
  Ti  Ti183  1  0.59913397  0.60550845  0.80258760  1
  Ti  Ti184  1  0.59891862  0.80045219  -0.00501186  1
  Ti  Ti185  1  0.40230522  0.59763171  0.80368535  1
  Ti  Ti186  1  0.89107427  0.09170342  0.50751106  1
  Ti  Ti187  1  0.21948516  0.21823235  0.61336414  1
  Ti  Ti188  1  0.30525027  0.49838924  0.70407013  1
  Ti  Ti189  1  0.68823485  0.48974422  0.30405483  1
  Ti  Ti190  1  0.90296266  0.70402294  0.09844476  1
  Ti  Ti191  1  0.80668359  0.79615793  -0.00293615  1
  Ti  Ti192  1  0.39789447  0.00346236  0.39487125  1
  Ti  Ti193  1  0.49827296  0.69684102  0.70277765  1
  Ti  Ti194  1  0.30065265  0.89342880  0.89795509  1
  Ti  Ti195  1  0.50614995  0.49108380  0.89736727  1
  Ti  Ti196  1  0.90439672  0.89809851  0.30319619  1
  Ti  Ti197  1  0.00181105  0.60041097  0.60278522  1
  Ti  Ti198  1  0.19480431  0.80475349  -0.00569829  1
  Ti  Ti199  1  0.19706265  0.41212779  0.61456449  1
  Mo  Mo200  1  0.70041242  0.30014783  0.10141254  1
  Mo  Mo201  1  0.38355645  0.39822438  0.39228794  1
  Mo  Mo202  1  -0.00281820  0.79848262  0.79285181  1
  Mo  Mo203  1  0.49819468  0.70123578  0.50487460  1
  Mo  Mo204  1  0.60132879  0.19853272  0.80002225  1
  Mo  Mo205  1  0.29738491  0.30598684  0.89863791  1
  Mo  Mo206  1  0.89776420  0.30961054  0.70177617  1
  Mo  Mo207  1  0.89479096  0.09790431  0.29413851  1
  Mo  Mo208  1  0.50214650  0.30323476  0.09247706  1
  Mo  Mo209  1  0.09494220  0.89941447  0.90349698  1
  Mo  Mo210  1  -0.00324383  0.80392498  0.19231476  1
  Mo  Mo211  1  0.48803755  0.10115493  0.29387967  1
  Mo  Mo212  1  0.70361779  0.29555855  0.70322157  1
  Mo  Mo213  1  0.30178525  0.31721872  0.70538389  1
  Mo  Mo214  1  0.18845339  0.19650037  0.19880464  1
  Mo  Mo215  1  0.49948323  0.29636334  0.50890925  1
  Mo  Mo216  1  0.62237549  0.39834908  0.40953564  1
  Mo  Mo217  1  0.50659735  0.29724686  0.70619188  1
  Mo  Mo218  1  0.70122877  0.69983216  0.50267697  1
  Mo  Mo219  1  0.09698141  0.50669905  0.70280689  1
  Mo  Mo220  1  0.90276108  0.69715752  0.89881403  1
  Mo  Mo221  1  0.60547823  0.00561567  -0.00887581  1
  Mo  Mo222  1  0.80523615  0.80636361  0.39737034  1
  Mo  Mo223  1  -0.00217157  0.00067088  0.39827571  1
  Mo  Mo224  1  0.80063163  -0.00029744  0.59098241  1
  Mo  Mo225  1  0.49036961  0.90362034  0.49671810  1
  Mo  Mo226  1  0.00204509  0.80134283  0.40402045  1
  Mo  Mo227  1  0.59775117  0.40358982  0.00912865  1
  Mo  Mo228  1  0.10096131  0.69246522  0.89786924  1
  Mo  Mo229  1  0.79744623  0.79315594  0.79566607  1
  Mo  Mo230  1  0.69368646  0.09938202  0.90495190  1
  Mo  Mo231  1  0.39961056  0.59991925  0.60676642  1
  Mo  Mo232  1  0.20229904  0.40776524  0.80050123  1
  Mo  Mo233  1  0.39106902  0.80743587  0.19545424  1
  Mo  Mo234  1  0.80121623  0.59841536  0.60446878  1
  Mo  Mo235  1  0.20735921  0.21356976  0.80775452  1
  Mo  Mo236  1  0.40253431  0.40147413  0.80202616  1
  Mo  Mo237  1  0.90026301  0.49971482  0.90316894  1
  Mo  Mo238  1  0.79779232  0.00361042  0.80200977  1
  Mo  Mo239  1  0.60097380  0.19608904  0.60177447  1
  Mo  Mo240  1  0.79387467  0.20027027  0.00372165  1
  Mo  Mo241  1  0.40430323  0.19814918  0.20487184  1
  Mo  Mo242  1  0.19867184  -0.01709490  0.59955508  1
  Mo  Mo243  1  0.09691691  0.69671009  0.50353452  1
  Mo  Mo244  1  0.49782570  0.70301394  0.29452843  1
  Mo  Mo245  1  0.10238831  0.69639319  0.29823574  1
  Mo  Mo246  1  0.19820579  0.60179611  0.18899602  1
  Mo  Mo247  1  0.10490439  0.30840905  0.90145378  1
  Mo  Mo248  1  0.29909924  0.69346938  0.50657403  1
  Mo  Mo249  1  0.89393952  0.30168568  0.90669484  1
