# generated using pymatgen
data_HfZrTaTiMo
_symmetry_space_group_name_H-M   'P 1'
_cell_length_a   16.88636810
_cell_length_b   16.88271002
_cell_length_c   16.88625069
_cell_angle_alpha   89.99389959
_cell_angle_beta   89.98381647
_cell_angle_gamma   89.96727389
_symmetry_Int_Tables_number   1
_chemical_formula_structural   HfZrTaTiMo
_chemical_formula_sum   'Hf50 Zr50 Ta50 Ti50 Mo50'
_cell_volume   4814.06062142
_cell_formula_units_Z   50
loop_
 _symmetry_equiv_pos_site_id
 _symmetry_equiv_pos_as_xyz
  1  'x, y, z'
loop_
 _atom_site_type_symbol
 _atom_site_label
 _atom_site_symmetry_multiplicity
 _atom_site_fract_x
 _atom_site_fract_y
 _atom_site_fract_z
 _atom_site_occupancy
  Hf  Hf0  1  0.30794491  0.30820159  0.51536175  1
  Hf  Hf1  1  0.69919933  0.90324734  0.30045891  1
  Hf  Hf2  1  0.69979987  0.49870161  0.09594206  1
  Hf  Hf3  1  0.41055643  0.79567512  0.38411009  1
  Hf  Hf4  1  0.50675291  0.09821876  0.10578866  1
  Hf  Hf5  1  0.59928097  0.39761663  -0.00580626  1
  Hf  Hf6  1  0.40459928  0.19760471  0.40292671  1
  Hf  Hf7  1  0.81138035  0.79841274  0.80141087  1
  Hf  Hf8  1  0.80315650  0.60408803  -0.01470451  1
  Hf  Hf9  1  0.89620763  0.29505917  0.08459627  1
  Hf  Hf10  1  0.80356787  0.59957940  0.79620522  1
  Hf  Hf11  1  0.00463026  0.61024744  0.40883805  1
  Hf  Hf12  1  0.79928950  0.19820350  0.60212417  1
  Hf  Hf13  1  0.29258153  0.09511971  0.30558387  1
  Hf  Hf14  1  0.10165854  0.30781536  0.70456869  1
  Hf  Hf15  1  0.79594100  0.39415363  0.20105213  1
  Hf  Hf16  1  0.31069288  0.50224990  0.10068443  1
  Hf  Hf17  1  -0.00669524  0.60909972  0.60429697  1
  Hf  Hf18  1  0.59644423  0.79742613  -0.00138721  1
  Hf  Hf19  1  -0.00760012  0.40351839  0.41055745  1
  Hf  Hf20  1  0.50254989  0.69421074  0.49730367  1
  Hf  Hf21  1  0.19125470  0.19440658  0.19822812  1
  Hf  Hf22  1  0.70578385  0.09570113  0.30862423  1
  Hf  Hf23  1  0.40625137  0.60686093  0.00291376  1
  Hf  Hf24  1  0.09780909  0.29963842  0.30587384  1
  Hf  Hf25  1  0.69809874  0.90113616  0.10536421  1
  Hf  Hf26  1  0.30239138  0.30365700  0.30193040  1
  Hf  Hf27  1  0.80005627  0.19733647  0.20395631  1
  Hf  Hf28  1  0.10561459  0.70909227  0.88259697  1
  Hf  Hf29  1  0.09608175  0.70665455  0.09033117  1
  Hf  Hf30  1  0.59834876  0.19340151  0.79584823  1
  Hf  Hf31  1  0.60022026  0.00098729  0.60699033  1
  Hf  Hf32  1  0.90608915  0.89864252  0.49731851  1
  Hf  Hf33  1  -0.01274344  0.61276913  0.79469318  1
  Hf  Hf34  1  -0.00298737  0.19387625  0.60323780  1
  Hf  Hf35  1  0.20340167  0.40124355  -0.00420270  1
  Hf  Hf36  1  0.70307684  0.89861467  0.49890072  1
  Hf  Hf37  1  0.30277351  0.08493084  0.50533622  1
  Hf  Hf38  1  0.50372404  0.30203766  0.29943382  1
  Hf  Hf39  1  0.90071783  0.69991262  0.09616655  1
  Hf  Hf40  1  0.59330132  0.78410381  0.20216461  1
  Hf  Hf41  1  0.00466200  0.60141216  0.20228836  1
  Hf  Hf42  1  0.90242423  0.49960050  0.08770298  1
  Hf  Hf43  1  0.28966054  0.89811519  0.30322772  1
  Hf  Hf44  1  0.08869558  0.30864415  0.89252384  1
  Hf  Hf45  1  0.20182913  0.60331602  -0.00227491  1
  Hf  Hf46  1  0.50217091  0.90396454  0.10198794  1
  Hf  Hf47  1  0.50413224  0.89327486  0.50523817  1
  Hf  Hf48  1  0.40339966  0.60477105  0.79081632  1
  Hf  Hf49  1  0.08740844  0.29827929  0.09218872  1
  Zr  Zr50  1  0.00339957  0.00309464  -0.00151734  1
  Zr  Zr51  1  -0.00661219  0.39534293  0.20051087  1
  Zr  Zr52  1  0.60480321  0.20866996  0.41317757  1
  Zr  Zr53  1  0.70182682  0.30190351  0.70220533  1
  Zr  Zr54  1  0.10185500  0.08669887  0.71313448  1
  Zr  Zr55  1  0.10432226  0.89149849  0.70579677  1
  Zr  Zr56  1  0.60356292  0.19381185  -0.00612800  1
  Zr  Zr57  1  0.59705848  0.39916414  0.59965462  1
  Zr  Zr58  1  0.08972290  0.90612208  0.30797699  1
  Zr  Zr59  1  0.39191254  -0.00284459  -0.01276542  1
  Zr  Zr60  1  0.40088514  0.19584570  -0.00338974  1
  Zr  Zr61  1  -0.01388828  0.80802344  -0.01516442  1
  Zr  Zr62  1  0.68305876  0.50411257  0.29853162  1
  Zr  Zr63  1  0.10122027  0.50209796  0.70429345  1
  Zr  Zr64  1  0.09421175  0.50576906  0.89740542  1
  Zr  Zr65  1  0.10298940  0.31302466  0.51458417  1
  Zr  Zr66  1  0.30599905  0.50395673  0.50893146  1
  Zr  Zr67  1  0.69807379  0.70586036  0.50604631  1
  Zr  Zr68  1  0.40065813  0.41189796  0.78778329  1
  Zr  Zr69  1  0.88884342  0.49748559  0.30824149  1
  Zr  Zr70  1  0.69802001  0.50083347  0.49440848  1
  Zr  Zr71  1  0.59659630  0.59845016  0.61352951  1
  Zr  Zr72  1  0.70227922  0.90206398  0.89495132  1
  Zr  Zr73  1  0.80743708  -0.00873427  0.00025847  1
  Zr  Zr74  1  0.19893650  0.40446428  0.19574562  1
  Zr  Zr75  1  0.49993202  0.70304803  0.89398904  1
  Zr  Zr76  1  0.59879846  0.00118802  0.79895877  1
  Zr  Zr77  1  0.39852389  -0.00246276  0.20252978  1
  Zr  Zr78  1  0.19590738  0.19247176  -0.00470320  1
  Zr  Zr79  1  0.10283495  0.49642050  0.30727909  1
  Zr  Zr80  1  0.78993953  0.61470954  0.39415973  1
  Zr  Zr81  1  0.18433277  0.00567632  0.19498355  1
  Zr  Zr82  1  0.90321818  0.70841113  0.29578806  1
  Zr  Zr83  1  0.41018343  -0.00595523  0.39978199  1
  Zr  Zr84  1  0.30050545  0.89013716  0.50756722  1
  Zr  Zr85  1  0.89635891  0.31648208  0.71145492  1
  Zr  Zr86  1  0.19996519  0.18813631  0.60699774  1
  Zr  Zr87  1  0.19355635  0.19146345  0.41028901  1
  Zr  Zr88  1  0.19828340  0.60312464  0.19893880  1
  Zr  Zr89  1  0.00463859  0.18936040  0.40693437  1
  Zr  Zr90  1  0.89764802  0.10241622  0.09733721  1
  Zr  Zr91  1  0.10384936  0.90392386  0.88749565  1
  Zr  Zr92  1  0.31077854  0.30123592  0.10053382  1
  Zr  Zr93  1  0.11060614  0.49888146  0.51517413  1
  Zr  Zr94  1  0.30643998  0.69941297  0.50457181  1
  Zr  Zr95  1  0.19772838  0.60983717  0.39955915  1
  Zr  Zr96  1  0.48979650  0.29489782  0.69305709  1
  Zr  Zr97  1  0.89518568  0.08978931  0.49742485  1
  Zr  Zr98  1  0.49357491  0.29917803  0.89180162  1
  Zr  Zr99  1  -0.00936082  0.19344787  0.80171332  1
  Ta  Ta100  1  0.51362846  0.09936271  0.29821699  1
  Ta  Ta101  1  0.50239803  0.09637608  0.50723185  1
  Ta  Ta102  1  0.50400103  0.50422588  0.89922800  1
  Ta  Ta103  1  0.88625959  0.50618081  0.50601046  1
  Ta  Ta104  1  0.00102375  0.18692586  0.20641997  1
  Ta  Ta105  1  0.41127370  0.60540825  0.20141994  1
  Ta  Ta106  1  0.70033080  0.69788392  0.09839026  1
  Ta  Ta107  1  0.70290637  0.70294032  0.70136023  1
  Ta  Ta108  1  0.18938113  0.79361081  0.40276231  1
  Ta  Ta109  1  0.20372618  -0.00637195  0.60769742  1
  Ta  Ta110  1  0.30057170  0.70158293  0.29399592  1
  Ta  Ta111  1  0.70263125  0.29426894  0.09020350  1
  Ta  Ta112  1  0.29323124  0.70793336  0.70269398  1
  Ta  Ta113  1  0.88717409  0.30421886  0.49943134  1
  Ta  Ta114  1  0.19438874  0.79858847  0.20115909  1
  Ta  Ta115  1  0.22985862  0.00205625  0.80654524  1
  Ta  Ta116  1  0.09850306  0.89994346  0.50650257  1
  Ta  Ta117  1  0.49124322  0.90197520  0.70270361  1
  Ta  Ta118  1  0.20744207  0.40432348  0.79933753  1
  Ta  Ta119  1  0.79281646  0.60528465  0.19732645  1
  Ta  Ta120  1  0.70468711  0.09529656  0.50115866  1
  Ta  Ta121  1  0.59744462  0.79952433  0.79157731  1
  Ta  Ta122  1  0.70923986  0.30019865  0.89481646  1
  Ta  Ta123  1  0.29909804  0.29774634  0.88785730  1
  Ta  Ta124  1  0.50767319  0.50052297  0.10393190  1
  Ta  Ta125  1  0.60089060  0.60182724  -0.00008911  1
  Ta  Ta126  1  0.89353568  0.29023453  0.31326361  1
  Ta  Ta127  1  0.60834027  0.20459569  0.20063989  1
  Ta  Ta128  1  0.80286166  0.80464729  0.39255183  1
  Ta  Ta129  1  0.30194324  0.50616817  0.89465071  1
  Ta  Ta130  1  0.59996458  0.00335035  -0.00480140  1
  Ta  Ta131  1  0.20167939  0.00106744  -0.00203126  1
  Ta  Ta132  1  0.09828097  0.89824560  0.09777018  1
  Ta  Ta133  1  0.60172352  0.40820311  0.79740449  1
  Ta  Ta134  1  0.70560744  0.09741666  0.70065301  1
  Ta  Ta135  1  0.89355392  0.70636165  0.50520422  1
  Ta  Ta136  1  0.29768142  0.70486023  0.89525178  1
  Ta  Ta137  1  0.80233050  -0.00643238  0.60875904  1
  Ta  Ta138  1  0.29345482  0.89589715  0.09987996  1
  Ta  Ta139  1  0.80279671  0.19454241  0.80232658  1
  Ta  Ta140  1  0.30107682  0.70760300  0.10055590  1
  Ta  Ta141  1  0.29922506  0.29549713  0.70137221  1
  Ta  Ta142  1  0.50350578  0.30313786  0.10520136  1
  Ta  Ta143  1  0.40484949  0.19639062  0.20328754  1
  Ta  Ta144  1  0.40206645  0.79521461  0.19733809  1
  Ta  Ta145  1  0.29963564  0.09697817  0.09954271  1
  Ta  Ta146  1  0.39821541  0.80138881  0.00220688  1
  Ta  Ta147  1  0.49732313  0.50233391  0.49642701  1
  Ta  Ta148  1  0.81134907  -0.00689539  0.20546379  1
  Ta  Ta149  1  0.80213898  0.79952407  -0.00279863  1
  Ti  Ti150  1  0.59995265  0.00174179  0.40559463  1
  Ti  Ti151  1  0.49244417  0.09316114  0.89148611  1
  Ti  Ti152  1  0.80668022  0.80279536  0.60792199  1
  Ti  Ti153  1  0.80092943  0.39729494  -0.01348688  1
  Ti  Ti154  1  0.89463274  0.09597192  0.89709912  1
  Ti  Ti155  1  0.69715727  0.70200657  0.89540464  1
  Ti  Ti156  1  0.40407487  0.40315162  -0.00545915  1
  Ti  Ti157  1  0.60274118  0.39419532  0.19862627  1
  Ti  Ti158  1  0.20530109  0.80800664  -0.00522698  1
  Ti  Ti159  1  0.69833950  0.49778133  0.89454025  1
  Ti  Ti160  1  0.40639206  0.79289140  0.61166417  1
  Ti  Ti161  1  0.00191826  0.79601966  0.40252439  1
  Ti  Ti162  1  -0.01545784  0.41146305  0.60454446  1
  Ti  Ti163  1  0.51359723  0.90693684  0.29266861  1
  Ti  Ti164  1  -0.00429105  -0.00250013  0.61071208  1
  Ti  Ti165  1  0.70809636  0.49999750  0.70215849  1
  Ti  Ti166  1  0.40878763  0.59990473  0.61319442  1
  Ti  Ti167  1  0.38845092  0.17953543  0.79400522  1
  Ti  Ti168  1  0.28957691  0.50720778  0.69317798  1
  Ti  Ti169  1  0.70697452  0.30171186  0.31399521  1
  Ti  Ti170  1  0.41071966  0.40859560  0.20652349  1
  Ti  Ti171  1  0.10580267  0.09629602  0.89132272  1
  Ti  Ti172  1  0.40124505  0.18126208  0.60701004  1
  Ti  Ti173  1  0.39740421  0.80600619  0.80192062  1
  Ti  Ti174  1  0.08643398  0.50044156  0.08431774  1
  Ti  Ti175  1  0.70155902  0.09688958  0.10119102  1
  Ti  Ti176  1  0.60167627  0.19575365  0.59925530  1
  Ti  Ti177  1  0.79628114  0.40451741  0.59849829  1
  Ti  Ti178  1  0.00377265  0.79102380  0.60831582  1
  Ti  Ti179  1  0.59633504  0.39853096  0.40559977  1
  Ti  Ti180  1  0.40583205  0.40762963  0.39873070  1
  Ti  Ti181  1  0.40908513  0.59735588  0.38524840  1
  Ti  Ti182  1  -0.00246913  0.19358133  -0.00974111  1
  Ti  Ti183  1  0.90830815  0.48704915  0.89427968  1
  Ti  Ti184  1  0.70974939  0.09903471  0.89886606  1
  Ti  Ti185  1  0.80166450  0.80190488  0.19950174  1
  Ti  Ti186  1  0.81146645  -0.00130640  0.78995247  1
  Ti  Ti187  1  -0.00133473  0.80976110  0.19841417  1
  Ti  Ti188  1  0.49088315  0.30414994  0.50793293  1
  Ti  Ti189  1  0.49713859  0.90110483  0.89435881  1
  Ti  Ti190  1  0.59643242  0.79740025  0.61297704  1
  Ti  Ti191  1  0.89945908  0.08970088  0.31077945  1
  Ti  Ti192  1  0.30483899  0.50279891  0.29936599  1
  Ti  Ti193  1  0.60422734  0.78617248  0.38709676  1
  Ti  Ti194  1  0.60027630  0.60026964  0.79690772  1
  Ti  Ti195  1  0.30616744  0.89949671  0.69898440  1
  Ti  Ti196  1  0.70198486  0.89682008  0.70096215  1
  Ti  Ti197  1  -0.00517481  0.00175810  0.20114843  1
  Ti  Ti198  1  0.18641022  0.62458299  0.60576846  1
  Ti  Ti199  1  0.20716655  0.40244333  0.40523515  1
  Mo  Mo200  1  0.79962839  0.19851160  0.40256143  1
  Mo  Mo201  1  0.61009883  0.00824584  0.19811059  1
  Mo  Mo202  1  0.20909147  0.60380420  0.79698188  1
  Mo  Mo203  1  -0.00638914  0.40823337  0.79592993  1
  Mo  Mo204  1  0.10371472  0.70798923  0.70169796  1
  Mo  Mo205  1  0.40280456  -0.00264754  0.79682775  1
  Mo  Mo206  1  0.89977948  0.70156278  0.89961003  1
  Mo  Mo207  1  0.79428375  0.39442781  0.40526452  1
  Mo  Mo208  1  0.40198512  0.41704018  0.60090263  1
  Mo  Mo209  1  0.49891442  0.69727380  0.09870477  1
  Mo  Mo210  1  0.89964591  0.90012273  0.30162640  1
  Mo  Mo211  1  0.08834492  0.09639062  0.30508606  1
  Mo  Mo212  1  0.59845766  0.59857287  0.19278475  1
  Mo  Mo213  1  0.49905252  0.70781410  0.70194810  1
  Mo  Mo214  1  -0.00609220  0.39908814  -0.00888999  1
  Mo  Mo215  1  0.09951691  0.71131585  0.29882680  1
  Mo  Mo216  1  0.70435588  0.29910985  0.50100746  1
  Mo  Mo217  1  0.21830501  0.80648601  0.79844721  1
  Mo  Mo218  1  0.21343188  0.39730878  0.61355196  1
  Mo  Mo219  1  0.30472524  0.09466394  0.70052545  1
  Mo  Mo220  1  0.50609202  0.50453277  0.70247025  1
  Mo  Mo221  1  0.40362239  -0.00405413  0.60693648  1
  Mo  Mo222  1  0.09348474  0.71426360  0.50556840  1
  Mo  Mo223  1  0.69893803  0.70428602  0.29174166  1
  Mo  Mo224  1  0.90110599  0.90366480  0.88683495  1
  Mo  Mo225  1  -0.01630083  -0.00236221  0.80016424  1
  Mo  Mo226  1  0.90181408  0.89485864  0.11221518  1
  Mo  Mo227  1  0.89427947  0.30076701  0.90192310  1
  Mo  Mo228  1  0.30260322  0.89297419  0.90345683  1
  Mo  Mo229  1  0.49831094  0.09699953  0.69525323  1
  Mo  Mo230  1  0.89451451  0.70466216  0.69175788  1
  Mo  Mo231  1  0.50160687  0.68964342  0.29864657  1
  Mo  Mo232  1  0.20113488  0.80178315  0.60222910  1
  Mo  Mo233  1  0.79866349  0.60265946  0.60458123  1
  Mo  Mo234  1  0.79482932  0.40880344  0.80708995  1
  Mo  Mo235  1  -0.00162139  0.60091523  -0.00856044  1
  Mo  Mo236  1  0.20690777  0.20059412  0.80246106  1
  Mo  Mo237  1  0.90616489  0.89857169  0.69472612  1
  Mo  Mo238  1  0.89017867  0.50215229  0.69348987  1
  Mo  Mo239  1  0.58961451  0.60190179  0.39200440  1
  Mo  Mo240  1  0.89534321  0.09285439  0.70026154  1
  Mo  Mo241  1  -0.00149710  -0.00493842  0.40298927  1
  Mo  Mo242  1  0.18877576  -0.00611276  0.41315776  1
  Mo  Mo243  1  0.50047259  0.49535513  0.29966172  1
  Mo  Mo244  1  -0.01028224  0.80110969  0.78857106  1
  Mo  Mo245  1  0.09874145  0.07470503  0.50648641  1
  Mo  Mo246  1  0.80073538  -0.00515376  0.40191408  1
  Mo  Mo247  1  0.29815622  0.10475133  0.89836477  1
  Mo  Mo248  1  0.09315783  0.09735972  0.09662275  1
  Mo  Mo249  1  0.79621257  0.19599723  -0.00954028  1
