# generated using pymatgen
data_HfZrTaTiMo
_symmetry_space_group_name_H-M   'P 1'
_cell_length_a   16.90024366
_cell_length_b   16.88728817
_cell_length_c   16.87654848
_cell_angle_alpha   89.94633911
_cell_angle_beta   90.00311356
_cell_angle_gamma   90.02000196
_symmetry_Int_Tables_number   1
_chemical_formula_structural   HfZrTaTiMo
_chemical_formula_sum   'Hf50 Zr50 Ta50 Ti50 Mo50'
_cell_volume   4816.55245415
_cell_formula_units_Z   50
loop_
 _symmetry_equiv_pos_site_id
 _symmetry_equiv_pos_as_xyz
  1  'x, y, z'
loop_
 _atom_site_type_symbol
 _atom_site_label
 _atom_site_symmetry_multiplicity
 _atom_site_fract_x
 _atom_site_fract_y
 _atom_site_fract_z
 _atom_site_occupancy
  Hf  Hf0  1  0.89480990  0.69345750  0.50897993  1
  Hf  Hf1  1  0.08692979  0.49605987  0.09990056  1
  Hf  Hf2  1  0.60947221  0.80293456  0.80062747  1
  Hf  Hf3  1  0.29861174  0.28167587  0.71622792  1
  Hf  Hf4  1  0.89412624  0.70143362  0.29940727  1
  Hf  Hf5  1  0.80017447  0.39557619  0.79926398  1
  Hf  Hf6  1  0.39752251  0.79336065  0.20419567  1
  Hf  Hf7  1  0.40117714  0.80326558  0.00047429  1
  Hf  Hf8  1  0.29890726  0.29217285  0.09427020  1
  Hf  Hf9  1  0.50621013  0.50325290  0.49069839  1
  Hf  Hf10  1  0.80444917  0.40199444  0.39478972  1
  Hf  Hf11  1  0.39424861  0.60150377  0.59550603  1
  Hf  Hf12  1  0.79744035  0.59208427  0.39232588  1
  Hf  Hf13  1  0.07573627  0.30079642  0.49550099  1
  Hf  Hf14  1  0.80020639  0.39492221  -0.00783135  1
  Hf  Hf15  1  0.60661336  0.59836214  0.80341813  1
  Hf  Hf16  1  0.79835436  0.39936849  0.59975576  1
  Hf  Hf17  1  0.60927205  0.60407998  0.59837358  1
  Hf  Hf18  1  -0.00558326  0.79749629  0.19153146  1
  Hf  Hf19  1  0.09920256  0.90605437  0.29520942  1
  Hf  Hf20  1  0.80841572  0.20600182  0.39127956  1
  Hf  Hf21  1  0.51135143  0.70203633  0.09811237  1
  Hf  Hf22  1  0.29932969  0.90581092  0.10538553  1
  Hf  Hf23  1  0.70913830  0.09542590  0.90316786  1
  Hf  Hf24  1  0.40426408  0.19482704  0.40535292  1
  Hf  Hf25  1  0.70104499  0.89900076  0.49219685  1
  Hf  Hf26  1  0.51035936  0.90595425  0.10071549  1
  Hf  Hf27  1  0.60919862  0.80244238  0.59874390  1
  Hf  Hf28  1  0.20134415  0.59874512  0.19740643  1
  Hf  Hf29  1  0.50312144  0.90305342  0.69819288  1
  Hf  Hf30  1  0.39734682  0.40230333  0.19359640  1
  Hf  Hf31  1  0.90055178  0.89937480  0.70165576  1
  Hf  Hf32  1  0.29314826  0.49760480  0.49786139  1
  Hf  Hf33  1  0.28653113  0.69187602  0.70550543  1
  Hf  Hf34  1  0.71228332  0.70034778  0.90394351  1
  Hf  Hf35  1  0.09215002  0.28590175  0.69849781  1
  Hf  Hf36  1  0.50913564  0.69706243  0.31380729  1
  Hf  Hf37  1  0.09292546  0.48089651  0.30368037  1
  Hf  Hf38  1  0.40249442  0.00274938  0.80356644  1
  Hf  Hf39  1  0.39608855  0.59788145  0.19763899  1
  Hf  Hf40  1  0.50351870  0.70357277  0.70074144  1
  Hf  Hf41  1  0.19274584  0.40489434  0.79932971  1
  Hf  Hf42  1  0.90177638  0.09673790  0.70358568  1
  Hf  Hf43  1  0.70798803  0.90023116  0.90966087  1
  Hf  Hf44  1  -0.00665965  0.80480352  0.40692646  1
  Hf  Hf45  1  0.59494310  0.18921411  0.39501563  1
  Hf  Hf46  1  0.29567201  0.90307094  0.30115949  1
  Hf  Hf47  1  0.61534600  0.59443436  0.20741531  1
  Hf  Hf48  1  0.20038601  0.39885981  0.60831035  1
  Hf  Hf49  1  -0.00459224  0.60556796  0.19087783  1
  Zr  Zr50  1  0.29328217  0.11263069  0.89422103  1
  Zr  Zr51  1  0.09689419  0.29942741  0.10347223  1
  Zr  Zr52  1  0.82026203  -0.00211840  0.01265229  1
  Zr  Zr53  1  0.09255807  0.49529646  0.50262722  1
  Zr  Zr54  1  0.29279726  0.50788868  0.89565961  1
  Zr  Zr55  1  0.90473001  0.10709428  0.49836493  1
  Zr  Zr56  1  0.40742837  0.59592209  0.80415562  1
  Zr  Zr57  1  0.08885678  0.51846903  0.70094309  1
  Zr  Zr58  1  0.90757725  0.29688495  0.68820019  1
  Zr  Zr59  1  0.70576544  0.09831376  0.49562712  1
  Zr  Zr60  1  0.61468227  0.80482829  0.20123142  1
  Zr  Zr61  1  0.29494893  0.49678725  0.30820020  1
  Zr  Zr62  1  -0.00481846  0.79439968  -0.00071148  1
  Zr  Zr63  1  0.09637473  0.90915253  0.10395363  1
  Zr  Zr64  1  0.18921496  0.60842093  0.00614590  1
  Zr  Zr65  1  0.61005287  0.39609619  0.61006012  1
  Zr  Zr66  1  0.18831953  0.80547833  0.80339441  1
  Zr  Zr67  1  0.09702230  0.09842681  0.09807350  1
  Zr  Zr68  1  0.50455602  0.29799981  0.90049210  1
  Zr  Zr69  1  -0.00539536  0.39823935  0.80394872  1
  Zr  Zr70  1  0.39146873  0.79507065  0.59359864  1
  Zr  Zr71  1  0.40649282  0.19774887  0.59647136  1
  Zr  Zr72  1  0.29656717  0.70096057  0.90040545  1
  Zr  Zr73  1  0.19366273  0.19431258  0.59633022  1
  Zr  Zr74  1  0.29438500  0.29971282  0.30168096  1
  Zr  Zr75  1  0.29533213  0.09730498  0.29757882  1
  Zr  Zr76  1  -0.00654670  0.39322688  -0.01134038  1
  Zr  Zr77  1  0.09775071  0.69977858  0.30325421  1
  Zr  Zr78  1  0.59381212  0.19460222  0.60606640  1
  Zr  Zr79  1  0.39915611  0.80738289  0.80138270  1
  Zr  Zr80  1  0.39786977  0.39191025  0.60147900  1
  Zr  Zr81  1  0.29932863  0.29085578  0.90355141  1
  Zr  Zr82  1  0.29312929  0.90740935  0.50298339  1
  Zr  Zr83  1  0.50270710  0.89896813  0.30160264  1
  Zr  Zr84  1  -0.00541321  0.20288263  0.20520675  1
  Zr  Zr85  1  0.20006019  -0.00621276  -0.00991524  1
  Zr  Zr86  1  0.50627900  0.49744586  0.69733094  1
  Zr  Zr87  1  0.70409213  0.09790379  0.70878602  1
  Zr  Zr88  1  0.69882458  0.29572735  0.28666035  1
  Zr  Zr89  1  0.09296534  0.09936623  0.89722726  1
  Zr  Zr90  1  0.50678212  0.30724382  0.29519188  1
  Zr  Zr91  1  0.50716663  0.49617100  0.10047747  1
  Zr  Zr92  1  0.29316999  0.10159117  0.10122613  1
  Zr  Zr93  1  0.09666248  0.90635180  0.50451292  1
  Zr  Zr94  1  0.19824388  0.40580271  -0.00167527  1
  Zr  Zr95  1  0.69418177  0.30221342  0.49256316  1
  Zr  Zr96  1  0.40307736  0.40392398  0.79992557  1
  Zr  Zr97  1  0.40569250  0.01158934  0.59969522  1
  Zr  Zr98  1  0.42174886  0.18629606  0.00727949  1
  Zr  Zr99  1  0.09028099  0.08975390  0.29847371  1
  Ta  Ta100  1  0.60183350  0.00031125  0.59704037  1
  Ta  Ta101  1  0.60864495  0.19578360  0.00602874  1
  Ta  Ta102  1  0.70437869  0.70143323  0.49383161  1
  Ta  Ta103  1  0.80094253  0.80490300  0.19346186  1
  Ta  Ta104  1  0.89574593  0.90535482  0.29455945  1
  Ta  Ta105  1  0.70663032  0.09825948  0.10721159  1
  Ta  Ta106  1  0.20031091  0.79355460  0.40729876  1
  Ta  Ta107  1  0.79794116  0.20589152  0.60229564  1
  Ta  Ta108  1  0.90436822  0.49756134  0.50645136  1
  Ta  Ta109  1  0.18554815  0.20180917  0.39856830  1
  Ta  Ta110  1  0.89252534  0.30117205  0.10085533  1
  Ta  Ta111  1  0.80197275  0.80580041  0.39633773  1
  Ta  Ta112  1  0.39402591  0.79503672  0.40666908  1
  Ta  Ta113  1  0.89931824  0.51315045  0.69624729  1
  Ta  Ta114  1  0.19133232  0.79840554  0.00244717  1
  Ta  Ta115  1  0.80202392  -0.00407130  0.59822428  1
  Ta  Ta116  1  0.80499744  0.20308689  0.80675161  1
  Ta  Ta117  1  0.89637707  0.51743432  0.89629604  1
  Ta  Ta118  1  0.61293539  0.39940458  0.80585769  1
  Ta  Ta119  1  0.19070642  0.79752879  0.60279632  1
  Ta  Ta120  1  -0.01734883  0.19463648  -0.00280110  1
  Ta  Ta121  1  0.09256077  0.10016068  0.50007775  1
  Ta  Ta122  1  0.79942057  0.60186610  0.19527888  1
  Ta  Ta123  1  -0.00446365  0.59565326  0.40173571  1
  Ta  Ta124  1  0.60535336  0.59593636  -0.00208259  1
  Ta  Ta125  1  0.89537976  0.09248608  0.29682590  1
  Ta  Ta126  1  0.59952289  0.00061963  0.39688357  1
  Ta  Ta127  1  0.70719864  0.70407278  0.09072396  1
  Ta  Ta128  1  0.19134524  -0.00143259  0.79403466  1
  Ta  Ta129  1  0.41363726  0.19632059  0.19857081  1
  Ta  Ta130  1  0.51260211  0.90260528  0.90878973  1
  Ta  Ta131  1  0.50488430  0.89624538  0.49340436  1
  Ta  Ta132  1  0.60846390  0.40012373  -0.00389523  1
  Ta  Ta133  1  0.40594682  0.59472165  0.00073530  1
  Ta  Ta134  1  0.08560134  0.52137165  0.89649163  1
  Ta  Ta135  1  0.51079028  0.70474038  0.90829321  1
  Ta  Ta136  1  0.09211749  0.90528531  0.69890512  1
  Ta  Ta137  1  0.70838577  0.50441466  0.90073458  1
  Ta  Ta138  1  0.40647358  0.00401731  0.40488511  1
  Ta  Ta139  1  0.80202415  0.40574747  0.19730677  1
  Ta  Ta140  1  0.90050981  0.69647356  0.70158224  1
  Ta  Ta141  1  0.19357180  0.60317878  0.40543009  1
  Ta  Ta142  1  0.89669029  0.50301003  0.09193922  1
  Ta  Ta143  1  0.19947292  0.79244625  0.19630736  1
  Ta  Ta144  1  0.70256137  0.29539315  0.09849982  1
  Ta  Ta145  1  0.28797842  0.09699629  0.70250869  1
  Ta  Ta146  1  0.72058103  0.70204913  0.69721974  1
  Ta  Ta147  1  0.09312793  0.69592616  0.50656518  1
  Ta  Ta148  1  -0.00207187  0.79659016  0.80352582  1
  Ta  Ta149  1  0.40108148  0.39824108  0.40206878  1
  Ti  Ti150  1  0.10471475  0.28533057  0.90011790  1
  Ti  Ti151  1  0.40518109  0.00824805  0.19694198  1
  Ti  Ti152  1  0.59621431  0.18793100  0.19143385  1
  Ti  Ti153  1  0.08738138  0.90266451  0.90161611  1
  Ti  Ti154  1  0.29630731  0.69986355  0.30742173  1
  Ti  Ti155  1  0.60229993  -0.00169378  0.79726033  1
  Ti  Ti156  1  0.60919849  0.00321614  0.01228154  1
  Ti  Ti157  1  0.51219842  0.70333578  0.49088437  1
  Ti  Ti158  1  0.90588263  0.49686442  0.29177695  1
  Ti  Ti159  1  0.81141184  0.80424375  0.80708042  1
  Ti  Ti160  1  -0.03186059  0.00207145  0.17606276  1
  Ti  Ti161  1  -0.00864015  0.19701312  0.80792447  1
  Ti  Ti162  1  0.50739590  0.30916711  0.49261587  1
  Ti  Ti163  1  0.51232635  0.29446155  0.71263609  1
  Ti  Ti164  1  0.71143289  0.90462676  0.70443265  1
  Ti  Ti165  1  0.20350005  0.40056646  0.19612970  1
  Ti  Ti166  1  0.39280535  0.60646218  0.40607218  1
  Ti  Ti167  1  0.70873739  0.50141749  0.09335323  1
  Ti  Ti168  1  0.29052206  0.30162049  0.49139388  1
  Ti  Ti169  1  0.50387901  0.09105347  0.29227453  1
  Ti  Ti170  1  0.19237652  0.20253293  0.20700730  1
  Ti  Ti171  1  0.51033051  0.30195528  0.09992474  1
  Ti  Ti172  1  0.70485125  0.90806080  0.29728659  1
  Ti  Ti173  1  -0.00254962  0.00111239  0.59943898  1
  Ti  Ti174  1  0.19503884  0.60512237  0.60005737  1
  Ti  Ti175  1  0.69921893  0.28898924  0.90129769  1
  Ti  Ti176  1  0.80532620  -0.00460804  0.39914240  1
  Ti  Ti177  1  0.52037239  0.09494757  0.89913369  1
  Ti  Ti178  1  0.70174178  0.50527584  0.49762039  1
  Ti  Ti179  1  0.80435759  0.80730956  0.59545836  1
  Ti  Ti180  1  -0.00954773  -0.00502400  0.80987934  1
  Ti  Ti181  1  0.50205384  0.50529044  0.30634839  1
  Ti  Ti182  1  0.80644639  0.19722661  0.19763819  1
  Ti  Ti183  1  0.19652704  0.00484527  0.40357161  1
  Ti  Ti184  1  -0.01040572  -0.00460220  0.40302049  1
  Ti  Ti185  1  0.71409852  0.51150590  0.70443020  1
  Ti  Ti186  1  0.42170601  0.18232525  0.79257651  1
  Ti  Ti187  1  0.29997291  0.70035165  0.09620576  1
  Ti  Ti188  1  0.61067772  0.40673735  0.19603608  1
  Ti  Ti189  1  0.40810662  0.00413215  -0.00284613  1
  Ti  Ti190  1  0.30124263  0.90208044  0.90078169  1
  Ti  Ti191  1  0.28985222  0.90774882  0.69464323  1
  Ti  Ti192  1  0.70086390  0.70531533  0.30789290  1
  Ti  Ti193  1  0.28999081  0.09806586  0.50084086  1
  Ti  Ti194  1  0.60928322  0.41452067  0.38733801  1
  Ti  Ti195  1  0.40394958  0.40935317  -0.00077986  1
  Ti  Ti196  1  0.70563310  0.09082216  0.29120019  1
  Ti  Ti197  1  -0.00012349  0.79794273  0.60475157  1
  Ti  Ti198  1  0.89750039  0.69392541  0.90262655  1
  Ti  Ti199  1  0.91480293  0.30912638  0.30170270  1
  Mo  Mo200  1  0.89363732  0.11182976  0.10093526  1
  Mo  Mo201  1  0.80394080  -0.00522790  0.80041573  1
  Mo  Mo202  1  -0.00471648  0.60551635  0.60072245  1
  Mo  Mo203  1  0.51015595  0.09539950  0.70717410  1
  Mo  Mo204  1  0.60713118  0.20134059  0.80888440  1
  Mo  Mo205  1  0.09243291  0.70249892  0.89544511  1
  Mo  Mo206  1  -0.00715850  0.61555015  0.80112108  1
  Mo  Mo207  1  0.18555941  0.60607910  0.79912767  1
  Mo  Mo208  1  0.10075401  0.30341553  0.30332114  1
  Mo  Mo209  1  0.09023874  0.09085550  0.70076150  1
  Mo  Mo210  1  0.18374785  0.19291460  0.79768045  1
  Mo  Mo211  1  0.18423796  0.20273837  0.00120126  1
  Mo  Mo212  1  0.79720126  -0.00153645  0.20342007  1
  Mo  Mo213  1  0.89639897  0.88982821  0.09955827  1
  Mo  Mo214  1  0.51364333  0.49932252  0.90724076  1
  Mo  Mo215  1  0.10277020  0.70242588  0.09998397  1
  Mo  Mo216  1  -0.00985266  0.40068969  0.39873847  1
  Mo  Mo217  1  -0.00722016  0.40699420  0.60039825  1
  Mo  Mo218  1  0.30429708  0.50009074  0.09562646  1
  Mo  Mo219  1  0.19706805  0.39074498  0.40420143  1
  Mo  Mo220  1  0.28641736  0.69747569  0.49901453  1
  Mo  Mo221  1  -0.00705647  -0.00070161  -0.00632468  1
  Mo  Mo222  1  0.79981868  0.59892197  0.00191410  1
  Mo  Mo223  1  0.60856370  0.80262953  0.40105407  1
  Mo  Mo224  1  0.19307427  0.00211192  0.60707702  1
  Mo  Mo225  1  0.50612062  0.08920007  0.49496790  1
  Mo  Mo226  1  0.89930841  0.30353131  0.49725667  1
  Mo  Mo227  1  0.90175613  0.89824307  0.89713102  1
  Mo  Mo228  1  0.09220978  0.70945216  0.69540938  1
  Mo  Mo229  1  0.70286151  0.29394364  0.71133883  1
  Mo  Mo230  1  0.70497251  0.90071271  0.10101132  1
  Mo  Mo231  1  -0.01502761  0.40114112  0.19770836  1
  Mo  Mo232  1  -0.00302217  0.18821106  0.59824450  1
  Mo  Mo233  1  0.51262915  0.09330931  0.10443137  1
  Mo  Mo234  1  0.79782179  0.20022917  0.00408124  1
  Mo  Mo235  1  0.80199803  0.60311189  0.79822559  1
  Mo  Mo236  1  0.28675233  0.50876504  0.69633953  1
  Mo  Mo237  1  0.79885547  0.59825451  0.59818264  1
  Mo  Mo238  1  0.60569025  0.80155784  -0.00055798  1
  Mo  Mo239  1  0.89619362  0.90152715  0.50258000  1
  Mo  Mo240  1  -0.00278928  0.20028637  0.39533293  1
  Mo  Mo241  1  0.61123707  0.00384622  0.20399536  1
  Mo  Mo242  1  0.80537908  0.79783354  0.00357300  1
  Mo  Mo243  1  0.89864467  0.09843202  0.89864774  1
  Mo  Mo244  1  0.60898389  0.60108925  0.40148983  1
  Mo  Mo245  1  0.20895955  -0.00397910  0.20544357  1
  Mo  Mo246  1  0.88875681  0.69581068  0.09529901  1
  Mo  Mo247  1  -0.00743807  0.60485812  -0.00163818  1
  Mo  Mo248  1  0.70551330  0.49780694  0.29258604  1
  Mo  Mo249  1  0.89473841  0.29089157  0.90183757  1
