# generated using pymatgen
data_HfZrTaTiMo
_symmetry_space_group_name_H-M   'P 1'
_cell_length_a   16.87961127
_cell_length_b   16.88759212
_cell_length_c   16.87386067
_cell_angle_alpha   89.97259231
_cell_angle_beta   90.00509585
_cell_angle_gamma   89.97108561
_symmetry_Int_Tables_number   1
_chemical_formula_structural   HfZrTaTiMo
_chemical_formula_sum   'Hf50 Zr50 Ta50 Ti50 Mo50'
_cell_volume   4809.99387932
_cell_formula_units_Z   50
loop_
 _symmetry_equiv_pos_site_id
 _symmetry_equiv_pos_as_xyz
  1  'x, y, z'
loop_
 _atom_site_type_symbol
 _atom_site_label
 _atom_site_symmetry_multiplicity
 _atom_site_fract_x
 _atom_site_fract_y
 _atom_site_fract_z
 _atom_site_occupancy
  Hf  Hf0  1  0.20222052  0.00185555  0.19404571  1
  Hf  Hf1  1  0.29804421  0.69227889  0.50893681  1
  Hf  Hf2  1  0.10790498  0.09963435  0.50667525  1
  Hf  Hf3  1  0.40296081  0.39008713  0.20249680  1
  Hf  Hf4  1  0.60001844  0.39666909  0.19510940  1
  Hf  Hf5  1  0.59416077  0.59842902  -0.00605835  1
  Hf  Hf6  1  0.89626223  0.49991571  0.29680605  1
  Hf  Hf7  1  0.10225144  0.29931673  0.50222029  1
  Hf  Hf8  1  0.49636820  0.90118594  0.91338117  1
  Hf  Hf9  1  0.20142611  0.59486980  0.40199889  1
  Hf  Hf10  1  0.00391278  0.20165605  0.19239772  1
  Hf  Hf11  1  0.28630368  0.30130136  0.09873621  1
  Hf  Hf12  1  0.21029099  0.60464775  0.19619271  1
  Hf  Hf13  1  0.90869467  0.90414990  0.09203546  1
  Hf  Hf14  1  0.30441333  0.50965098  0.69092485  1
  Hf  Hf15  1  0.18682598  0.19181319  -0.00041343  1
  Hf  Hf16  1  0.39083473  0.01792224  0.01650525  1
  Hf  Hf17  1  0.79914028  -0.00522967  0.20456524  1
  Hf  Hf18  1  0.70577164  0.69151080  0.88718268  1
  Hf  Hf19  1  0.20235135  0.80423754  0.60612085  1
  Hf  Hf20  1  0.39640492  0.80256500  0.60151091  1
  Hf  Hf21  1  0.19097852  0.00300456  0.80950692  1
  Hf  Hf22  1  0.90053848  0.49651514  0.70230419  1
  Hf  Hf23  1  0.80904535  -0.00470555  0.60313276  1
  Hf  Hf24  1  0.60304839  0.59522827  0.19129929  1
  Hf  Hf25  1  0.49805549  0.69348981  0.50310565  1
  Hf  Hf26  1  -0.00477431  0.39071033  -0.00089483  1
  Hf  Hf27  1  0.79801036  0.20375451  0.60535881  1
  Hf  Hf28  1  0.81288111  0.21572108  -0.00277386  1
  Hf  Hf29  1  0.00997231  -0.00226524  0.40052721  1
  Hf  Hf30  1  0.01042091  0.58993964  0.00167957  1
  Hf  Hf31  1  0.09317049  0.32075326  0.69211987  1
  Hf  Hf32  1  0.00342198  0.80390618  0.61004133  1
  Hf  Hf33  1  0.11004532  0.69434299  0.89669619  1
  Hf  Hf34  1  0.60100569  0.60123471  0.40005199  1
  Hf  Hf35  1  0.70275689  0.49816719  0.89275022  1
  Hf  Hf36  1  0.68797693  0.10113818  0.68863738  1
  Hf  Hf37  1  0.90182187  0.10066477  0.09771627  1
  Hf  Hf38  1  0.90253376  0.69023686  0.89500451  1
  Hf  Hf39  1  0.91053173  0.09399243  0.90110807  1
  Hf  Hf40  1  0.49617101  0.50341021  0.29541800  1
  Hf  Hf41  1  0.20312144  0.79934229  0.79636477  1
  Hf  Hf42  1  0.79756700  0.79737424  -0.00374866  1
  Hf  Hf43  1  0.39193226  0.79584701  0.19743846  1
  Hf  Hf44  1  -0.00517366  0.39250296  0.39793281  1
  Hf  Hf45  1  0.59570645  0.21230843  0.79128520  1
  Hf  Hf46  1  0.59010458  0.20658278  0.20056141  1
  Hf  Hf47  1  0.01357240  -0.00249883  0.19933301  1
  Hf  Hf48  1  0.69999807  0.90193177  0.49251656  1
  Hf  Hf49  1  0.89416761  0.49661025  0.50694823  1
  Zr  Zr50  1  0.20090898  0.20804156  0.80184565  1
  Zr  Zr51  1  0.10327861  0.49318327  0.51967115  1
  Zr  Zr52  1  0.59962085  0.00718695  0.81528286  1
  Zr  Zr53  1  0.79990458  -0.00355702  0.80148524  1
  Zr  Zr54  1  0.79486318  0.79800143  0.39798741  1
  Zr  Zr55  1  0.10345051  0.49354720  0.28834345  1
  Zr  Zr56  1  0.68457377  0.90322280  0.10249195  1
  Zr  Zr57  1  0.29466751  0.09749066  0.69369434  1
  Zr  Zr58  1  0.78877396  0.00105139  -0.00652548  1
  Zr  Zr59  1  -0.00369678  0.19893292  0.60128098  1
  Zr  Zr60  1  0.39734554  -0.00452337  0.39768447  1
  Zr  Zr61  1  0.69707804  0.09878547  0.49629240  1
  Zr  Zr62  1  0.69789922  0.31103207  0.89752206  1
  Zr  Zr63  1  0.69221867  0.89847772  0.70127626  1
  Zr  Zr64  1  0.79931420  0.79584533  0.60915156  1
  Zr  Zr65  1  0.89789948  0.69935041  0.50113820  1
  Zr  Zr66  1  0.39314910  0.78895473  0.80291971  1
  Zr  Zr67  1  0.20498913  0.59643347  0.00395276  1
  Zr  Zr68  1  0.59995017  0.39627636  0.39119325  1
  Zr  Zr69  1  0.19929327  0.40557235  0.79917509  1
  Zr  Zr70  1  0.79538723  0.39297909  0.19625200  1
  Zr  Zr71  1  0.39424249  0.59557328  0.39878844  1
  Zr  Zr72  1  0.39693089  0.40176840  -0.00480375  1
  Zr  Zr73  1  0.21062641  0.39871880  0.40133008  1
  Zr  Zr74  1  0.30064842  0.10185628  0.50193515  1
  Zr  Zr75  1  0.40086593  0.21396223  0.61008420  1
  Zr  Zr76  1  0.90566566  0.69989759  0.29383555  1
  Zr  Zr77  1  0.69647354  0.70097810  0.29504064  1
  Zr  Zr78  1  0.49756578  0.31250873  0.89363459  1
  Zr  Zr79  1  0.29979809  0.50004563  0.89524109  1
  Zr  Zr80  1  0.39494073  0.00869453  0.80797007  1
  Zr  Zr81  1  0.49494885  0.90306845  0.10626408  1
  Zr  Zr82  1  0.49585918  0.90231788  0.70155819  1
  Zr  Zr83  1  0.50201114  0.10750029  0.50032417  1
  Zr  Zr84  1  0.49795075  0.10032172  0.69526724  1
  Zr  Zr85  1  0.11046788  0.30015230  0.28985821  1
  Zr  Zr86  1  0.29744040  0.90057211  0.91279208  1
  Zr  Zr87  1  0.00549038  0.60044764  0.39998815  1
  Zr  Zr88  1  0.89489397  0.10053388  0.30398495  1
  Zr  Zr89  1  0.00432334  0.60438631  0.60831221  1
  Zr  Zr90  1  0.00697035  0.20552725  0.81049248  1
  Zr  Zr91  1  0.80215678  0.20301030  0.79685344  1
  Zr  Zr92  1  0.80196314  0.80036628  0.19408028  1
  Zr  Zr93  1  0.59524520  0.78991019  0.80214393  1
  Zr  Zr94  1  0.69875673  0.10952811  0.10831379  1
  Zr  Zr95  1  0.69421786  0.09397786  0.30545657  1
  Zr  Zr96  1  0.00704032  0.79718922  0.00087655  1
  Zr  Zr97  1  0.01138341  0.60192627  0.19125030  1
  Zr  Zr98  1  0.69690725  0.50175566  0.50875690  1
  Zr  Zr99  1  0.89380904  0.49437532  0.09833122  1
  Ta  Ta100  1  0.49536613  0.49746047  0.51344708  1
  Ta  Ta101  1  0.11189430  0.71356749  0.10669017  1
  Ta  Ta102  1  0.10699110  0.10223410  0.30261748  1
  Ta  Ta103  1  0.00665248  -0.00934330  0.79669500  1
  Ta  Ta104  1  0.49371598  0.10174844  0.29757456  1
  Ta  Ta105  1  0.10105268  0.09510268  0.69658303  1
  Ta  Ta106  1  0.49611126  0.70310686  0.29637765  1
  Ta  Ta107  1  0.49654804  0.69658970  0.10055409  1
  Ta  Ta108  1  0.90383048  0.90177103  0.49573699  1
  Ta  Ta109  1  0.00468325  0.79902639  0.79271473  1
  Ta  Ta110  1  0.30215383  0.49421416  0.29245911  1
  Ta  Ta111  1  0.20436022  -0.00285023  0.39688242  1
  Ta  Ta112  1  0.40151383  0.39759285  0.40115412  1
  Ta  Ta113  1  0.90038705  0.09620604  0.49795927  1
  Ta  Ta114  1  0.79452742  0.39352063  0.60470784  1
  Ta  Ta115  1  0.90853464  0.89796600  0.89743318  1
  Ta  Ta116  1  0.79517728  0.59669935  0.40057897  1
  Ta  Ta117  1  0.29653625  0.89750050  0.29782851  1
  Ta  Ta118  1  0.59875309  0.40822071  0.00592380  1
  Ta  Ta119  1  0.90442597  0.89948291  0.30622742  1
  Ta  Ta120  1  0.60132755  0.39872373  0.60838823  1
  Ta  Ta121  1  0.58935082  0.01844545  0.00801282  1
  Ta  Ta122  1  0.58954471  0.80208645  0.40101102  1
  Ta  Ta123  1  0.59438077  0.78869316  -0.00078637  1
  Ta  Ta124  1  0.38984807  0.21411327  0.80273640  1
  Ta  Ta125  1  0.01215395  0.58923393  0.80031571  1
  Ta  Ta126  1  0.89662196  0.49495529  0.89513422  1
  Ta  Ta127  1  0.20897324  0.19565553  0.39542072  1
  Ta  Ta128  1  0.59895266  0.79231336  0.59735202  1
  Ta  Ta129  1  0.80722230  0.80115201  0.79754923  1
  Ta  Ta130  1  0.70091536  0.50674618  0.70356935  1
  Ta  Ta131  1  0.49379123  0.11504366  0.90573825  1
  Ta  Ta132  1  0.59244895  0.20697496  0.00488998  1
  Ta  Ta133  1  0.49185281  0.50326415  0.09672085  1
  Ta  Ta134  1  0.00334263  -0.00834722  0.60530571  1
  Ta  Ta135  1  0.49846036  0.68735870  0.69384042  1
  Ta  Ta136  1  0.50035418  0.30475314  0.50129640  1
  Ta  Ta137  1  0.11257295  0.71194824  0.30040624  1
  Ta  Ta138  1  0.79623823  0.39351664  0.40055930  1
  Ta  Ta139  1  0.00185530  0.19934736  0.39931483  1
  Ta  Ta140  1  0.79684074  0.59560695  0.00415270  1
  Ta  Ta141  1  0.10770764  0.70455621  0.50055322  1
  Ta  Ta142  1  0.69549322  0.29762272  0.50202750  1
  Ta  Ta143  1  0.01216853  0.80523360  0.40021182  1
  Ta  Ta144  1  0.90856581  0.09435482  0.70144181  1
  Ta  Ta145  1  0.40360029  0.60173843  0.80476643  1
  Ta  Ta146  1  0.30845837  0.29984652  0.50045916  1
  Ta  Ta147  1  0.89483026  0.29766123  0.49968934  1
  Ta  Ta148  1  0.59234492  0.20690976  0.39604766  1
  Ta  Ta149  1  0.01476220  0.81119849  0.20319094  1
  Ti  Ti150  1  0.39411403  0.60515914  0.19304167  1
  Ti  Ti151  1  0.02510701  0.00572068  -0.00013104  1
  Ti  Ti152  1  0.29814626  0.70536745  0.30242887  1
  Ti  Ti153  1  0.49797013  0.90127762  0.29387232  1
  Ti  Ti154  1  0.59018076  0.59627702  0.79874577  1
  Ti  Ti155  1  0.90628251  0.30739733  0.70206926  1
  Ti  Ti156  1  0.69122190  0.90424028  0.30156075  1
  Ti  Ti157  1  0.70530072  0.50006337  0.29847525  1
  Ti  Ti158  1  0.89365387  0.29251666  0.29735648  1
  Ti  Ti159  1  0.40051425  0.60611366  -0.00569245  1
  Ti  Ti160  1  0.39580569  -0.01288071  0.58612996  1
  Ti  Ti161  1  0.29446868  0.91299106  0.69772169  1
  Ti  Ti162  1  0.10804271  0.90177786  0.50488237  1
  Ti  Ti163  1  0.58562112  -0.00636083  0.39829439  1
  Ti  Ti164  1  0.20824563  0.79487126  0.00435702  1
  Ti  Ti165  1  0.58719967  -0.01574444  0.58757959  1
  Ti  Ti166  1  0.79366527  0.59939438  0.19156535  1
  Ti  Ti167  1  0.21783636  0.40019376  0.59937568  1
  Ti  Ti168  1  0.69311423  0.11350331  0.90480089  1
  Ti  Ti169  1  0.69850083  0.69237386  0.51096155  1
  Ti  Ti170  1  0.20201558  0.18991346  0.19733478  1
  Ti  Ti171  1  0.30487615  0.29124442  0.30107990  1
  Ti  Ti172  1  0.49793751  0.49906116  0.70060624  1
  Ti  Ti173  1  0.29638253  0.10597621  0.90548561  1
  Ti  Ti174  1  0.70662010  0.28857971  0.29923746  1
  Ti  Ti175  1  0.49363008  0.29984843  0.09454543  1
  Ti  Ti176  1  0.39588373  0.78385792  0.00112747  1
  Ti  Ti177  1  0.59378277  0.79820911  0.20091910  1
  Ti  Ti178  1  0.69323135  0.89575805  0.90337044  1
  Ti  Ti179  1  0.10287065  0.89667769  0.90659032  1
  Ti  Ti180  1  0.89217544  0.68936803  0.70803728  1
  Ti  Ti181  1  0.20373396  0.80784143  0.40216530  1
  Ti  Ti182  1  0.69658217  0.70026493  0.09594247  1
  Ti  Ti183  1  0.11670983  0.47337481  0.10025683  1
  Ti  Ti184  1  0.39597780  0.19364125  0.19740255  1
  Ti  Ti185  1  0.40032329  0.80556184  0.40197517  1
  Ti  Ti186  1  0.49483723  0.31794574  0.70111323  1
  Ti  Ti187  1  0.39205903  0.01092047  0.20096301  1
  Ti  Ti188  1  0.10396127  0.31383749  0.90429219  1
  Ti  Ti189  1  0.80128049  0.39434324  0.79603465  1
  Ti  Ti190  1  -0.00277899  0.38656368  0.19061232  1
  Ti  Ti191  1  0.29342115  0.89564764  0.10017548  1
  Ti  Ti192  1  0.11624308  0.68678890  0.69980919  1
  Ti  Ti193  1  0.90516699  0.69868046  0.09991768  1
  Ti  Ti194  1  0.39277274  0.20346678  0.00159695  1
  Ti  Ti195  1  0.70462269  0.30228922  0.09442604  1
  Ti  Ti196  1  0.20483286  0.21224204  0.60675651  1
  Ti  Ti197  1  0.00617939  0.20597930  0.00217529  1
  Ti  Ti198  1  0.80041915  0.20201372  0.40362127  1
  Ti  Ti199  1  0.30107348  0.49320197  0.10152129  1
  Mo  Mo200  1  -0.01379345  0.39531380  0.60083537  1
  Mo  Mo201  1  0.10112065  0.10021831  0.09954505  1
  Mo  Mo202  1  0.80049717  0.20525650  0.19887440  1
  Mo  Mo203  1  0.59906987  0.59752526  0.60782302  1
  Mo  Mo204  1  0.40021849  0.40331008  0.79228730  1
  Mo  Mo205  1  0.69697977  0.31051351  0.69770821  1
  Mo  Mo206  1  0.19586130  -0.00794857  0.59737755  1
  Mo  Mo207  1  0.48993604  0.29392685  0.30306390  1
  Mo  Mo208  1  0.89972150  0.29651786  0.09982609  1
  Mo  Mo209  1  0.30107503  0.69028759  0.70196395  1
  Mo  Mo210  1  0.40437386  0.40421865  0.59709426  1
  Mo  Mo211  1  0.20244506  0.60192566  0.60005167  1
  Mo  Mo212  1  0.69651830  0.49901506  0.09260002  1
  Mo  Mo213  1  0.11182274  0.89910557  0.09219073  1
  Mo  Mo214  1  0.10757671  0.89973429  0.30631768  1
  Mo  Mo215  1  0.10411142  0.50314575  0.70221071  1
  Mo  Mo216  1  0.50043484  0.89079880  0.49674873  1
  Mo  Mo217  1  0.09681883  0.09549937  0.89902743  1
  Mo  Mo218  1  0.10027541  0.29880555  0.09958923  1
  Mo  Mo219  1  0.90400344  0.30905154  0.89458354  1
  Mo  Mo220  1  0.80727590  -0.00543893  0.40166665  1
  Mo  Mo221  1  0.19734038  0.39689341  -0.00119544  1
  Mo  Mo222  1  0.49354612  0.11083505  0.10315942  1
  Mo  Mo223  1  0.20554099  0.80313346  0.20145886  1
  Mo  Mo224  1  0.29740261  0.89515732  0.49292345  1
  Mo  Mo225  1  0.50025204  0.50256665  0.89485073  1
  Mo  Mo226  1  0.30224897  0.69712696  0.90132683  1
  Mo  Mo227  1  0.40276248  0.59852215  0.60349974  1
  Mo  Mo228  1  0.30683028  0.49414430  0.50076025  1
  Mo  Mo229  1  0.30467574  0.70074209  0.09647409  1
  Mo  Mo230  1  0.59402341  0.41220100  0.79272601  1
  Mo  Mo231  1  0.79806212  0.40226768  -0.00462902  1
  Mo  Mo232  1  0.21173999  0.39780429  0.19876897  1
  Mo  Mo233  1  0.58756850  0.00287281  0.20744966  1
  Mo  Mo234  1  0.90581107  0.89791131  0.70570871  1
  Mo  Mo235  1  0.20348167  0.60196332  0.79607569  1
  Mo  Mo236  1  0.79324146  0.59954510  0.60626874  1
  Mo  Mo237  1  0.29818663  0.10989386  0.10423755  1
  Mo  Mo238  1  0.30316059  0.31259323  0.69836803  1
  Mo  Mo239  1  0.29786845  0.29794757  0.89967864  1
  Mo  Mo240  1  0.59819396  0.21982528  0.59814583  1
  Mo  Mo241  1  0.80737705  0.59808065  0.79948761  1
  Mo  Mo242  1  0.69523125  0.68787334  0.69750035  1
  Mo  Mo243  1  0.30028380  0.10057771  0.29714241  1
  Mo  Mo244  1  0.19675752  0.00131780  0.00524859  1
  Mo  Mo245  1  0.49675595  0.69432688  0.90236160  1
  Mo  Mo246  1  0.10240170  0.90166035  0.70237555  1
  Mo  Mo247  1  0.09725236  0.49804981  0.89948377  1
  Mo  Mo248  1  0.40023811  0.20645902  0.39431243  1
  Mo  Mo249  1  -0.00022214  0.40418681  0.80582926  1
