# generated using pymatgen
data_HfZrTaTiMo
_symmetry_space_group_name_H-M   'P 1'
_cell_length_a   16.88149879
_cell_length_b   16.88124241
_cell_length_c   16.88924902
_cell_angle_alpha   90.00693190
_cell_angle_beta   90.05930763
_cell_angle_gamma   89.97671959
_symmetry_Int_Tables_number   1
_chemical_formula_structural   HfZrTaTiMo
_chemical_formula_sum   'Hf50 Zr50 Ta50 Ti50 Mo50'
_cell_volume   4813.10654573
_cell_formula_units_Z   50
loop_
 _symmetry_equiv_pos_site_id
 _symmetry_equiv_pos_as_xyz
  1  'x, y, z'
loop_
 _atom_site_type_symbol
 _atom_site_label
 _atom_site_symmetry_multiplicity
 _atom_site_fract_x
 _atom_site_fract_y
 _atom_site_fract_z
 _atom_site_occupancy
  Hf  Hf0  1  0.21459897  0.19659168  -0.00535669  1
  Hf  Hf1  1  0.39925727  0.00190178  0.40374011  1
  Hf  Hf2  1  0.10215353  0.48966553  0.90272875  1
  Hf  Hf3  1  0.90738574  0.71130433  0.49618506  1
  Hf  Hf4  1  0.88853978  0.09079754  0.29761051  1
  Hf  Hf5  1  0.90003996  0.91007757  0.49104152  1
  Hf  Hf6  1  0.70417173  0.09980464  0.48782280  1
  Hf  Hf7  1  0.60068721  0.00246089  0.00142815  1
  Hf  Hf8  1  0.70555173  0.90212603  0.49534948  1
  Hf  Hf9  1  0.79251896  0.79280904  0.60266014  1
  Hf  Hf10  1  0.78415268  0.18982743  0.80284050  1
  Hf  Hf11  1  0.29823173  0.90178770  0.09534361  1
  Hf  Hf12  1  0.59201094  0.39782374  0.60285799  1
  Hf  Hf13  1  -0.00724617  0.39946297  0.60015630  1
  Hf  Hf14  1  -0.00604404  0.58727090  0.59609693  1
  Hf  Hf15  1  0.20340346  0.59828967  0.00526968  1
  Hf  Hf16  1  0.69434010  0.71365793  0.47439852  1
  Hf  Hf17  1  0.09218031  0.09428638  0.30395971  1
  Hf  Hf18  1  0.58956552  0.00811471  0.59888571  1
  Hf  Hf19  1  0.39783439  0.00512079  0.80104951  1
  Hf  Hf20  1  0.19926805  0.39499261  0.60199893  1
  Hf  Hf21  1  0.20276229  0.19965849  0.40502365  1
  Hf  Hf22  1  -0.00059269  0.20147863  0.59734912  1
  Hf  Hf23  1  0.40717383  0.39260252  -0.01093572  1
  Hf  Hf24  1  -0.00191921  0.40935249  0.19195316  1
  Hf  Hf25  1  0.80155154  0.59992003  0.39376406  1
  Hf  Hf26  1  0.69673708  0.89991405  0.90000578  1
  Hf  Hf27  1  0.59374440  -0.01240021  0.20943384  1
  Hf  Hf28  1  -0.00283451  0.19658264  0.79739100  1
  Hf  Hf29  1  0.40167752  0.20226169  0.59219202  1
  Hf  Hf30  1  0.09586944  0.70346555  0.69702572  1
  Hf  Hf31  1  0.50356952  0.69421479  0.29731836  1
  Hf  Hf32  1  0.10313312  0.29764864  0.70749187  1
  Hf  Hf33  1  0.40258348  0.19537815  0.40246385  1
  Hf  Hf34  1  -0.00727309  0.81043467  0.81246372  1
  Hf  Hf35  1  0.61651237  0.60059148  0.00437504  1
  Hf  Hf36  1  0.00369973  0.01048203  0.60878912  1
  Hf  Hf37  1  0.21638044  0.39650577  0.80471466  1
  Hf  Hf38  1  0.40266356  0.79670348  0.40346997  1
  Hf  Hf39  1  0.09973439  0.10073632  0.89941377  1
  Hf  Hf40  1  0.10470549  0.90408381  0.09885721  1
  Hf  Hf41  1  0.69336092  0.29930011  0.48491316  1
  Hf  Hf42  1  0.60304516  0.79216303  0.00442589  1
  Hf  Hf43  1  0.19397461  0.59628317  0.20569985  1
  Hf  Hf44  1  0.09748147  0.09718047  0.49583433  1
  Hf  Hf45  1  0.61124765  0.20500795  0.00010450  1
  Hf  Hf46  1  0.10433922  0.49460439  0.49424408  1
  Hf  Hf47  1  0.70527077  0.89788000  0.10661446  1
  Hf  Hf48  1  0.09821769  0.69348168  0.90169501  1
  Hf  Hf49  1  0.49601089  0.68984163  0.70056332  1
  Zr  Zr50  1  0.10095095  0.91243365  0.91089018  1
  Zr  Zr51  1  0.40482044  0.80499581  0.20154230  1
  Zr  Zr52  1  0.20933533  0.00351692  0.60082750  1
  Zr  Zr53  1  0.90612011  0.89933979  0.69298418  1
  Zr  Zr54  1  0.70740469  0.09853112  0.11687883  1
  Zr  Zr55  1  0.69617363  0.90030459  0.69968870  1
  Zr  Zr56  1  0.20326511  0.00824841  0.19618011  1
  Zr  Zr57  1  0.30168881  0.90089598  0.90583268  1
  Zr  Zr58  1  0.79715195  0.59549670  0.59863660  1
  Zr  Zr59  1  0.69346930  0.30022566  0.70331964  1
  Zr  Zr60  1  0.69014692  0.49844525  0.49652194  1
  Zr  Zr61  1  0.90253231  0.69901925  0.69920092  1
  Zr  Zr62  1  0.30283626  0.30770836  0.09871306  1
  Zr  Zr63  1  0.20416812  0.41055865  0.20503486  1
  Zr  Zr64  1  0.50867772  0.30307658  0.10927832  1
  Zr  Zr65  1  0.49564284  0.50984406  0.50168970  1
  Zr  Zr66  1  0.59284277  0.19964217  0.59677163  1
  Zr  Zr67  1  0.49634093  0.69612869  0.89910561  1
  Zr  Zr68  1  0.89619777  0.30161284  0.29589169  1
  Zr  Zr69  1  0.58934317  -0.00114233  0.40003294  1
  Zr  Zr70  1  0.80572315  0.00187227  0.80347210  1
  Zr  Zr71  1  -0.00648163  0.79842307  0.00305867  1
  Zr  Zr72  1  0.80056828  0.78924060  -0.00057229  1
  Zr  Zr73  1  0.19931646  0.00892959  0.79293477  1
  Zr  Zr74  1  0.50401329  0.50217018  0.89889596  1
  Zr  Zr75  1  0.61366374  0.02727291  0.79927790  1
  Zr  Zr76  1  0.59273729  0.79205929  0.59545145  1
  Zr  Zr77  1  0.89623475  0.90594167  0.11026497  1
  Zr  Zr78  1  0.09790416  0.89720715  0.49797897  1
  Zr  Zr79  1  0.30246527  0.50640940  0.49782753  1
  Zr  Zr80  1  0.20040403  0.59749081  0.60627880  1
  Zr  Zr81  1  0.80103865  0.40366545  0.39674859  1
  Zr  Zr82  1  0.20157225  0.19852781  0.19529116  1
  Zr  Zr83  1  0.70910930  0.88783042  0.31364564  1
  Zr  Zr84  1  0.49765898  0.10900614  0.90034291  1
  Zr  Zr85  1  0.20324567  0.79707461  0.80182337  1
  Zr  Zr86  1  0.09670131  0.30387243  0.30354383  1
  Zr  Zr87  1  0.29328948  0.89670452  0.29858073  1
  Zr  Zr88  1  0.79752930  0.78988724  0.80679638  1
  Zr  Zr89  1  -0.00931199  0.58555015  0.00994720  1
  Zr  Zr90  1  -0.00402882  0.19616292  0.18850273  1
  Zr  Zr91  1  -0.01192522  0.58749024  0.80124502  1
  Zr  Zr92  1  0.49284005  0.68578250  0.10153048  1
  Zr  Zr93  1  0.51415228  0.30425343  0.29935488  1
  Zr  Zr94  1  0.49891692  0.10422810  0.10680278  1
  Zr  Zr95  1  0.10173330  0.30208057  0.90391974  1
  Zr  Zr96  1  0.80057684  0.40379237  0.00265543  1
  Zr  Zr97  1  0.29830052  0.30875989  0.49556599  1
  Zr  Zr98  1  0.49914994  0.89777224  0.70974787  1
  Zr  Zr99  1  0.00552408  0.59522270  0.39127758  1
  Ta  Ta100  1  0.49888461  0.50296274  0.70389451  1
  Ta  Ta101  1  0.30519135  0.49929234  0.90396960  1
  Ta  Ta102  1  0.80228843  0.00860673  0.00020774  1
  Ta  Ta103  1  0.89130955  0.29745824  0.70052172  1
  Ta  Ta104  1  0.59860001  0.60141388  0.39209391  1
  Ta  Ta105  1  0.20533522  0.79872192  0.59904874  1
  Ta  Ta106  1  0.69715448  0.49716953  0.89243043  1
  Ta  Ta107  1  0.39843051  0.79449679  0.59499258  1
  Ta  Ta108  1  0.69264620  0.49339935  0.29265641  1
  Ta  Ta109  1  0.30481304  0.69882783  0.69770409  1
  Ta  Ta110  1  0.00448749  0.79548540  0.20454458  1
  Ta  Ta111  1  0.79947229  0.78912010  0.20450794  1
  Ta  Ta112  1  0.50399886  0.49854931  0.10735227  1
  Ta  Ta113  1  0.19867710  0.19822794  0.60172244  1
  Ta  Ta114  1  -0.01690030  0.40009047  0.80036335  1
  Ta  Ta115  1  0.50680078  0.10899431  0.29801894  1
  Ta  Ta116  1  0.50062551  0.89681631  0.90182729  1
  Ta  Ta117  1  0.90212242  0.10210666  0.90258302  1
  Ta  Ta118  1  0.89709400  0.50143827  0.29019232  1
  Ta  Ta119  1  0.40116542  0.40852518  0.39013284  1
  Ta  Ta120  1  0.49398046  0.11510570  0.70558041  1
  Ta  Ta121  1  0.10091024  0.30692199  0.08716709  1
  Ta  Ta122  1  0.50654689  0.50098570  0.29191505  1
  Ta  Ta123  1  0.20689493  0.59555865  0.80035199  1
  Ta  Ta124  1  0.10002996  0.49367122  0.70868376  1
  Ta  Ta125  1  0.89989191  0.69284263  0.10974545  1
  Ta  Ta126  1  0.40530122  0.39690781  0.60660604  1
  Ta  Ta127  1  0.00788593  0.79865946  0.38883497  1
  Ta  Ta128  1  0.30679822  0.29659008  0.70387799  1
  Ta  Ta129  1  0.69074197  0.50109732  0.70647604  1
  Ta  Ta130  1  -0.00789953  0.19941902  0.40750459  1
  Ta  Ta131  1  0.80156786  0.19832691  0.59674898  1
  Ta  Ta132  1  0.30072673  0.69877662  0.10141173  1
  Ta  Ta133  1  0.80332239  0.20224262  0.00477882  1
  Ta  Ta134  1  0.10362108  0.70256228  0.49800380  1
  Ta  Ta135  1  -0.00949591  0.20267149  0.00321825  1
  Ta  Ta136  1  0.89507040  0.29956965  0.50009576  1
  Ta  Ta137  1  0.39598984  0.19818869  0.20362200  1
  Ta  Ta138  1  0.80038897  0.40398002  0.79863420  1
  Ta  Ta139  1  0.90119579  0.69962040  0.29543743  1
  Ta  Ta140  1  0.79352198  0.59799529  0.19678780  1
  Ta  Ta141  1  0.30697720  0.89475627  0.69494692  1
  Ta  Ta142  1  0.39290826  0.59622840  0.80093248  1
  Ta  Ta143  1  0.69797712  0.30518682  0.89835999  1
  Ta  Ta144  1  0.30475146  0.11407825  0.70448465  1
  Ta  Ta145  1  0.90211892  0.90138598  0.30194586  1
  Ta  Ta146  1  0.60584696  0.79054625  0.20139893  1
  Ta  Ta147  1  0.20744041  0.00226685  0.40254499  1
  Ta  Ta148  1  0.80119535  0.40203860  0.60167365  1
  Ta  Ta149  1  0.29973914  0.69647911  0.50064858  1
  Ti  Ti150  1  -0.01227505  0.00781038  0.00238414  1
  Ti  Ti151  1  0.69799478  0.49209650  0.10974295  1
  Ti  Ti152  1  0.89323591  0.29683195  0.89664476  1
  Ti  Ti153  1  0.39710002  0.79644346  0.80188635  1
  Ti  Ti154  1  0.09959123  0.09775602  0.08845661  1
  Ti  Ti155  1  0.39921295  0.60089198  0.39461081  1
  Ti  Ti156  1  0.39267539  0.01072177  -0.00038308  1
  Ti  Ti157  1  0.30882640  0.49865554  0.69995864  1
  Ti  Ti158  1  0.80223533  0.20082837  0.39702410  1
  Ti  Ti159  1  0.19107397  0.79143691  0.20527326  1
  Ti  Ti160  1  0.89775845  0.10206305  0.70249794  1
  Ti  Ti161  1  0.30302784  0.09991750  0.29803737  1
  Ti  Ti162  1  0.80027242  0.01347440  0.60077912  1
  Ti  Ti163  1  0.60515757  0.39781511  0.00342081  1
  Ti  Ti164  1  0.58870996  0.39135645  0.80190432  1
  Ti  Ti165  1  0.09721149  0.90537423  0.30187914  1
  Ti  Ti166  1  -0.00383639  0.40037196  0.40312419  1
  Ti  Ti167  1  0.49663004  0.89898485  0.09534955  1
  Ti  Ti168  1  0.60257354  0.60740861  0.59857879  1
  Ti  Ti169  1  0.40416549  0.00168186  0.20386897  1
  Ti  Ti170  1  0.40071672  0.00765393  0.59655163  1
  Ti  Ti171  1  -0.01510791  0.39986768  -0.00171166  1
  Ti  Ti172  1  0.79199952  0.21286302  0.19829243  1
  Ti  Ti173  1  -0.00164186  0.00243176  0.19581845  1
  Ti  Ti174  1  0.79337873  0.59539346  0.80043309  1
  Ti  Ti175  1  0.89476021  0.30392924  0.10216326  1
  Ti  Ti176  1  0.30025443  0.89561558  0.50374693  1
  Ti  Ti177  1  0.31030351  0.50092285  0.09288576  1
  Ti  Ti178  1  0.10543257  0.48875171  0.09128534  1
  Ti  Ti179  1  0.09770630  0.69994137  0.10250530  1
  Ti  Ti180  1  0.00580460  0.59709964  0.20108061  1
  Ti  Ti181  1  0.69932062  0.10421519  0.30105925  1
  Ti  Ti182  1  0.49773543  0.89541053  0.50155843  1
  Ti  Ti183  1  0.09862713  0.89779287  0.70054684  1
  Ti  Ti184  1  0.39915185  0.40642275  0.20562726  1
  Ti  Ti185  1  0.30436739  0.30361045  0.29985425  1
  Ti  Ti186  1  0.50382848  0.30689872  0.48508718  1
  Ti  Ti187  1  0.40056443  0.79627007  -0.00004367  1
  Ti  Ti188  1  0.39959868  0.20382343  -0.00266788  1
  Ti  Ti189  1  0.19802639  0.79429778  0.39698438  1
  Ti  Ti190  1  0.19848388  0.60074181  0.38844482  1
  Ti  Ti191  1  0.60913302  0.78054386  0.80376300  1
  Ti  Ti192  1  0.20116406  0.79122962  0.00299905  1
  Ti  Ti193  1  0.40173844  0.21742488  0.81145072  1
  Ti  Ti194  1  0.89533408  0.68396071  0.90480831  1
  Ti  Ti195  1  0.20137494  0.40665910  0.38928665  1
  Ti  Ti196  1  0.79818965  0.59373482  0.00527056  1
  Ti  Ti197  1  0.30535802  0.69306583  0.90559107  1
  Ti  Ti198  1  0.38964539  0.59115811  0.20393848  1
  Ti  Ti199  1  0.29775639  0.69788607  0.29922873  1
  Mo  Mo200  1  0.29857356  0.09727994  0.50588271  1
  Mo  Mo201  1  0.10232962  0.70278105  0.29923562  1
  Mo  Mo202  1  0.89958156  0.49105984  0.49584017  1
  Mo  Mo203  1  0.58110030  0.79857410  0.39448248  1
  Mo  Mo204  1  0.70544788  0.30488275  0.10216457  1
  Mo  Mo205  1  0.09400343  0.29963027  0.49596275  1
  Mo  Mo206  1  0.70017839  0.29647383  0.29428257  1
  Mo  Mo207  1  0.21168908  0.20187040  0.79954508  1
  Mo  Mo208  1  0.30652952  0.50544743  0.30296381  1
  Mo  Mo209  1  0.59532018  0.40738416  0.39357153  1
  Mo  Mo210  1  0.69237983  0.68691605  0.70760268  1
  Mo  Mo211  1  0.88769047  0.49668665  0.90054193  1
  Mo  Mo212  1  0.60251414  0.59656271  0.79984431  1
  Mo  Mo213  1  0.01212426  0.80385943  0.59299890  1
  Mo  Mo214  1  0.69921587  0.69385278  0.29438356  1
  Mo  Mo215  1  0.31186731  0.09874955  0.09829048  1
  Mo  Mo216  1  0.70450785  0.68780951  0.90050533  1
  Mo  Mo217  1  0.50743482  0.30174946  0.89944779  1
  Mo  Mo218  1  0.89681967  0.10372306  0.49579779  1
  Mo  Mo219  1  0.39820551  0.60075423  0.60639959  1
  Mo  Mo220  1  0.90079209  0.91854827  0.90425750  1
  Mo  Mo221  1  0.30837452  0.30206483  0.89775486  1
  Mo  Mo222  1  0.79763070  -0.00790364  0.20581900  1
  Mo  Mo223  1  0.60186006  0.19908408  0.39574023  1
  Mo  Mo224  1  0.30514273  0.10869870  0.89684914  1
  Mo  Mo225  1  0.09517667  0.49965253  0.30282126  1
  Mo  Mo226  1  0.20945141  0.40245426  0.00054042  1
  Mo  Mo227  1  0.39445513  0.59438409  0.00251267  1
  Mo  Mo228  1  0.40408311  0.40277068  0.79540884  1
  Mo  Mo229  1  0.88904209  0.49278033  0.70080084  1
  Mo  Mo230  1  0.89819210  0.10377981  0.10091582  1
  Mo  Mo231  1  0.00139616  -0.00072198  0.39276187  1
  Mo  Mo232  1  0.80220938  0.00488133  0.39861202  1
  Mo  Mo233  1  0.49561297  0.10040423  0.49783061  1
  Mo  Mo234  1  0.60696813  0.59546644  0.19890215  1
  Mo  Mo235  1  0.61114851  0.20264906  0.20555611  1
  Mo  Mo236  1  0.10559261  0.10648134  0.70137893  1
  Mo  Mo237  1  0.70608773  0.10737746  0.91460788  1
  Mo  Mo238  1  0.49557862  0.69393330  0.49739550  1
  Mo  Mo239  1  0.49954219  0.89504431  0.29850470  1
  Mo  Mo240  1  0.89372316  0.50298429  0.10619859  1
  Mo  Mo241  1  0.21290899  0.01484701  0.00300601  1
  Mo  Mo242  1  0.79786437  0.40243802  0.19689995  1
  Mo  Mo243  1  0.81855459  0.79731089  0.39396330  1
  Mo  Mo244  1  0.60758492  0.40067790  0.19610397  1
  Mo  Mo245  1  0.49305995  0.30382916  0.70908102  1
  Mo  Mo246  1  0.59541128  0.21045808  0.80289469  1
  Mo  Mo247  1  -0.00109964  0.00438208  0.80000615  1
  Mo  Mo248  1  0.70651210  0.69663001  0.10394948  1
  Mo  Mo249  1  0.69998074  0.10357080  0.68318809  1
