# generated using pymatgen
data_HfZrTaTiMo
_symmetry_space_group_name_H-M   'P 1'
_cell_length_a   16.88399147
_cell_length_b   16.88883349
_cell_length_c   16.88938547
_cell_angle_alpha   89.97265648
_cell_angle_beta   89.94770178
_cell_angle_gamma   90.01738617
_symmetry_Int_Tables_number   1
_chemical_formula_structural   HfZrTaTiMo
_chemical_formula_sum   'Hf50 Zr50 Ta50 Ti50 Mo50'
_cell_volume   4816.02103871
_cell_formula_units_Z   50
loop_
 _symmetry_equiv_pos_site_id
 _symmetry_equiv_pos_as_xyz
  1  'x, y, z'
loop_
 _atom_site_type_symbol
 _atom_site_label
 _atom_site_symmetry_multiplicity
 _atom_site_fract_x
 _atom_site_fract_y
 _atom_site_fract_z
 _atom_site_occupancy
  Hf  Hf0  1  -0.01173675  0.00614657  0.00342867  1
  Hf  Hf1  1  0.08866416  0.30965510  0.90573864  1
  Hf  Hf2  1  0.50185442  0.89645716  0.29855901  1
  Hf  Hf3  1  0.30816826  0.11207317  0.09715000  1
  Hf  Hf4  1  0.69021098  0.09721963  0.90493062  1
  Hf  Hf5  1  0.78665848  -0.00576562  0.79928366  1
  Hf  Hf6  1  0.89782845  0.68930347  0.70964502  1
  Hf  Hf7  1  0.39762847  0.00469639  0.39835555  1
  Hf  Hf8  1  0.69980861  0.30338092  0.50009161  1
  Hf  Hf9  1  0.10265142  0.10930124  0.89493366  1
  Hf  Hf10  1  0.00417286  0.79253972  0.59702384  1
  Hf  Hf11  1  0.40028118  -0.00541615  0.79951752  1
  Hf  Hf12  1  0.69798458  0.50814500  0.69751201  1
  Hf  Hf13  1  0.69616136  0.50000810  0.28910699  1
  Hf  Hf14  1  0.20372916  0.00315693  -0.00747982  1
  Hf  Hf15  1  0.49675169  0.89482788  0.50585812  1
  Hf  Hf16  1  0.59442643  0.59778089  0.00114800  1
  Hf  Hf17  1  0.39519106  0.40587750  0.60627874  1
  Hf  Hf18  1  0.09519260  0.90162795  0.10668973  1
  Hf  Hf19  1  0.19239688  0.78386074  0.00019212  1
  Hf  Hf20  1  0.89835851  0.49745477  0.50137294  1
  Hf  Hf21  1  -0.00005782  0.19612754  0.40161108  1
  Hf  Hf22  1  0.30309285  0.30582007  0.49567632  1
  Hf  Hf23  1  0.11480187  0.09829808  0.69368046  1
  Hf  Hf24  1  0.59978060  0.20241269  0.19709631  1
  Hf  Hf25  1  -0.00440134  -0.00682622  0.59464899  1
  Hf  Hf26  1  0.22186482  0.00111630  0.79238572  1
  Hf  Hf27  1  0.80685979  0.39812393  0.78827122  1
  Hf  Hf28  1  -0.00848802  0.79251138  0.01726763  1
  Hf  Hf29  1  0.59547262  0.19773207  0.39716059  1
  Hf  Hf30  1  0.59183492  0.60111238  0.39814413  1
  Hf  Hf31  1  0.30491692  0.49578368  0.10358990  1
  Hf  Hf32  1  0.20889046  0.79266444  0.80051447  1
  Hf  Hf33  1  0.80092758  0.61010852  -0.00025765  1
  Hf  Hf34  1  0.10450483  0.09981258  0.10397215  1
  Hf  Hf35  1  0.19816481  0.78931241  0.19949194  1
  Hf  Hf36  1  0.10730127  0.49979809  0.08744000  1
  Hf  Hf37  1  0.51608018  0.89824357  0.10096358  1
  Hf  Hf38  1  0.89644432  0.70081774  0.49818778  1
  Hf  Hf39  1  0.49718936  0.70289159  0.89720761  1
  Hf  Hf40  1  0.10425337  0.30284816  0.29937845  1
  Hf  Hf41  1  0.10365566  0.69335669  0.70563010  1
  Hf  Hf42  1  0.00734248  0.59351769  0.59646771  1
  Hf  Hf43  1  0.29825575  0.10148359  0.50903527  1
  Hf  Hf44  1  0.49013447  0.69997423  0.29934012  1
  Hf  Hf45  1  0.38636814  -0.01114927  0.61340313  1
  Hf  Hf46  1  0.40083651  0.20104469  0.79889530  1
  Hf  Hf47  1  0.00560975  0.60769622  0.19165196  1
  Hf  Hf48  1  0.09986349  0.30761845  0.49995204  1
  Hf  Hf49  1  0.39299300  0.79238746  0.19735236  1
  Zr  Zr50  1  0.90497975  0.70126597  0.29434398  1
  Zr  Zr51  1  0.50063890  0.51085311  0.50978362  1
  Zr  Zr52  1  0.89963289  0.29970295  0.90030150  1
  Zr  Zr53  1  0.86960383  0.09493694  0.67949259  1
  Zr  Zr54  1  0.91721691  0.50384746  0.89078170  1
  Zr  Zr55  1  0.30069507  0.90102792  0.10024203  1
  Zr  Zr56  1  0.09619288  0.30639752  0.70595465  1
  Zr  Zr57  1  0.89797539  0.09313011  0.29579293  1
  Zr  Zr58  1  0.59340574  0.39488215  0.80799631  1
  Zr  Zr59  1  0.09737034  0.90045195  0.89926199  1
  Zr  Zr60  1  0.89954110  0.70000526  0.89539026  1
  Zr  Zr61  1  0.60772467  0.61317108  0.80235545  1
  Zr  Zr62  1  0.20803986  -0.00096566  0.40135476  1
  Zr  Zr63  1  0.80130549  -0.01105955  0.39250264  1
  Zr  Zr64  1  0.49981490  0.30256436  0.49955990  1
  Zr  Zr65  1  0.00585169  0.40664963  0.19569580  1
  Zr  Zr66  1  0.59895667  0.20994766  0.00796165  1
  Zr  Zr67  1  0.40939050  0.19876384  0.20260758  1
  Zr  Zr68  1  0.69182587  0.89181050  0.27811896  1
  Zr  Zr69  1  0.40273239  0.00398424  -0.00331008  1
  Zr  Zr70  1  0.80653801  0.40446820  0.19728146  1
  Zr  Zr71  1  0.69441995  0.70004690  0.50802071  1
  Zr  Zr72  1  0.50644933  0.09131920  0.70019551  1
  Zr  Zr73  1  -0.00775374  0.00275264  0.79904967  1
  Zr  Zr74  1  0.21690800  0.00632164  0.21095861  1
  Zr  Zr75  1  0.29760773  0.51066816  0.49343596  1
  Zr  Zr76  1  0.89460732  0.88586344  0.70692894  1
  Zr  Zr77  1  -0.01655944  0.19965864  0.78968165  1
  Zr  Zr78  1  0.69513710  0.08972196  0.29167354  1
  Zr  Zr79  1  0.80040232  0.59684425  0.39499609  1
  Zr  Zr80  1  0.69557165  0.89260578  0.50104980  1
  Zr  Zr81  1  0.11101353  0.89888421  0.69397430  1
  Zr  Zr82  1  0.79852170  0.40162491  0.00175933  1
  Zr  Zr83  1  0.30527578  0.30835643  0.29274567  1
  Zr  Zr84  1  0.09678356  0.89849576  0.30085888  1
  Zr  Zr85  1  0.10502378  0.09326420  0.50171426  1
  Zr  Zr86  1  0.70447150  0.08927862  0.51990591  1
  Zr  Zr87  1  0.39968575  0.79358444  0.00194385  1
  Zr  Zr88  1  0.60553011  0.20173958  0.61271116  1
  Zr  Zr89  1  0.00162617  0.19899958  0.19225730  1
  Zr  Zr90  1  0.90093681  0.30318724  0.30259728  1
  Zr  Zr91  1  0.69696513  0.71335601  0.10156395  1
  Zr  Zr92  1  0.70610413  0.50330520  0.89751216  1
  Zr  Zr93  1  0.20578820  0.40370796  0.80750020  1
  Zr  Zr94  1  0.88127189  0.10571850  0.90674526  1
  Zr  Zr95  1  0.70111594  0.70425189  0.28867934  1
  Zr  Zr96  1  0.69552855  0.50052602  0.50521671  1
  Zr  Zr97  1  -0.00590397  0.20113829  0.59897654  1
  Zr  Zr98  1  0.79791734  0.20250203  0.18975764  1
  Zr  Zr99  1  0.49739640  0.50851353  0.70392395  1
  Ta  Ta100  1  0.29598703  0.69399489  0.31412700  1
  Ta  Ta101  1  0.59056467  0.40773152  0.00208996  1
  Ta  Ta102  1  0.40582400  0.40341751  -0.00310758  1
  Ta  Ta103  1  0.80311850  0.39712974  0.60440521  1
  Ta  Ta104  1  0.20302378  0.59945878  0.60382497  1
  Ta  Ta105  1  0.20664067  0.19942403  0.39488454  1
  Ta  Ta106  1  0.59576270  0.40500770  0.39133703  1
  Ta  Ta107  1  0.39762633  0.20158304  0.60461459  1
  Ta  Ta108  1  0.40389162  0.19619358  0.39701436  1
  Ta  Ta109  1  0.50598638  0.89831101  0.89999072  1
  Ta  Ta110  1  0.00309991  0.41066608  0.40285398  1
  Ta  Ta111  1  0.20205192  0.21132373  0.00253185  1
  Ta  Ta112  1  0.19754140  0.41067160  0.60163906  1
  Ta  Ta113  1  0.10417720  0.69819922  0.30527111  1
  Ta  Ta114  1  0.88634722  0.89194191  0.90674198  1
  Ta  Ta115  1  0.50459576  0.10141330  0.90300059  1
  Ta  Ta116  1  0.79580552  0.20174638  0.40203061  1
  Ta  Ta117  1  0.00977548  0.59771883  0.40252484  1
  Ta  Ta118  1  0.09560991  0.50025489  0.71030478  1
  Ta  Ta119  1  0.40715449  0.40990644  0.39044493  1
  Ta  Ta120  1  0.49672077  0.69927214  0.69643078  1
  Ta  Ta121  1  0.91338167  0.30525914  0.08839768  1
  Ta  Ta122  1  0.89674123  0.30132827  0.49962380  1
  Ta  Ta123  1  0.30701939  0.88319451  0.31176699  1
  Ta  Ta124  1  0.30046866  0.50425332  0.90803510  1
  Ta  Ta125  1  0.82662855  0.80606360  0.18163127  1
  Ta  Ta126  1  0.88852215  0.09573510  0.49759758  1
  Ta  Ta127  1  0.59910736  0.80125768  0.79670835  1
  Ta  Ta128  1  0.20671430  0.21248447  0.60257988  1
  Ta  Ta129  1  0.30609803  0.50825994  0.29451043  1
  Ta  Ta130  1  0.20062821  0.40788207  0.39903191  1
  Ta  Ta131  1  0.30125112  0.68936168  0.90115655  1
  Ta  Ta132  1  0.10959399  0.50579357  0.30386314  1
  Ta  Ta133  1  0.70165232  0.08135239  0.09626921  1
  Ta  Ta134  1  0.80029869  0.40001303  0.39804789  1
  Ta  Ta135  1  0.40567560  0.59428058  0.00268608  1
  Ta  Ta136  1  0.00339703  0.79886553  0.40025365  1
  Ta  Ta137  1  0.69568001  0.50745213  0.10588951  1
  Ta  Ta138  1  0.10810625  0.89051917  0.49937655  1
  Ta  Ta139  1  0.20082362  0.60185435  0.19933691  1
  Ta  Ta140  1  0.70367885  0.90114014  0.09222658  1
  Ta  Ta141  1  0.89968895  0.89384088  0.49646533  1
  Ta  Ta142  1  0.10218182  0.09947208  0.29881579  1
  Ta  Ta143  1  0.77984451  0.20746373  0.78062992  1
  Ta  Ta144  1  0.30657390  0.88895038  0.89916835  1
  Ta  Ta145  1  0.69373728  0.89317267  0.90947735  1
  Ta  Ta146  1  0.30151765  0.30665704  0.70290460  1
  Ta  Ta147  1  0.69084607  0.89954739  0.69355881  1
  Ta  Ta148  1  0.58852483  0.59837222  0.19889498  1
  Ta  Ta149  1  0.11587780  0.69736468  0.49280702  1
  Ti  Ti150  1  0.69579408  0.30671888  0.29966444  1
  Ti  Ti151  1  -0.00258525  -0.00618754  0.40040167  1
  Ti  Ti152  1  0.39995337  0.00191537  0.20531527  1
  Ti  Ti153  1  0.38967481  0.61446768  0.60185078  1
  Ti  Ti154  1  0.50390557  0.09131436  0.29582389  1
  Ti  Ti155  1  0.00819604  0.79378306  0.80857114  1
  Ti  Ti156  1  0.40120637  0.60632258  0.40497740  1
  Ti  Ti157  1  0.49387719  0.31144245  0.10345721  1
  Ti  Ti158  1  0.19981362  0.40059806  0.19704860  1
  Ti  Ti159  1  0.29667439  0.88616456  0.50013423  1
  Ti  Ti160  1  0.39957823  0.79878473  0.79042184  1
  Ti  Ti161  1  0.49555684  0.49455616  0.11464088  1
  Ti  Ti162  1  0.40085371  0.40504596  0.80884579  1
  Ti  Ti163  1  0.79660479  0.79682350  0.60576421  1
  Ti  Ti164  1  0.49653218  0.30320804  0.70276560  1
  Ti  Ti165  1  0.80593601  0.80340205  0.38857033  1
  Ti  Ti166  1  0.30018796  0.68311257  0.09779705  1
  Ti  Ti167  1  -0.01764062  -0.00559594  0.19602279  1
  Ti  Ti168  1  0.80071390  0.59881073  0.60860363  1
  Ti  Ti169  1  0.20343383  0.20513530  0.19899096  1
  Ti  Ti170  1  0.39411824  0.79251140  0.60478965  1
  Ti  Ti171  1  0.59114912  0.79491284  0.60920283  1
  Ti  Ti172  1  0.59053668  0.79167579  0.40303220  1
  Ti  Ti173  1  0.30753067  0.30393247  0.09776432  1
  Ti  Ti174  1  0.29608744  0.50682028  0.70721897  1
  Ti  Ti175  1  0.90498659  0.50613475  0.09073003  1
  Ti  Ti176  1  0.69862100  0.30050634  0.90200931  1
  Ti  Ti177  1  0.39635158  0.60060530  0.80241099  1
  Ti  Ti178  1  0.49453052  0.29607970  0.90679198  1
  Ti  Ti179  1  0.77943771  0.78853945  0.80245658  1
  Ti  Ti180  1  0.50150267  0.70028152  0.10232207  1
  Ti  Ti181  1  0.79375397  0.20495451  0.01199090  1
  Ti  Ti182  1  0.21008610  0.20459446  0.79995141  1
  Ti  Ti183  1  0.59631461  -0.00018091  0.40391281  1
  Ti  Ti184  1  0.49972784  0.09544848  0.50787753  1
  Ti  Ti185  1  0.30812047  0.29958607  0.90733844  1
  Ti  Ti186  1  -0.00604253  0.40414625  0.60687853  1
  Ti  Ti187  1  0.90347087  0.50601037  0.29697868  1
  Ti  Ti188  1  0.50860248  0.09138197  0.09526780  1
  Ti  Ti189  1  0.01658013  0.60935007  -0.00654063  1
  Ti  Ti190  1  0.19561303  0.59834660  0.81189305  1
  Ti  Ti191  1  0.68997470  0.32028917  0.10657120  1
  Ti  Ti192  1  0.60209011  0.20420612  0.79806397  1
  Ti  Ti193  1  0.50276620  0.31505820  0.29168302  1
  Ti  Ti194  1  0.20322451  0.39564647  -0.00115934  1
  Ti  Ti195  1  0.00216794  0.19773769  0.00670528  1
  Ti  Ti196  1  0.30637322  0.11251729  0.90517592  1
  Ti  Ti197  1  0.59724104  -0.00947548  0.79720478  1
  Ti  Ti198  1  0.21517184  0.78862792  0.60199073  1
  Ti  Ti199  1  0.59918615  0.39837116  0.60612031  1
  Mo  Mo200  1  0.01067152  0.59875962  0.80067415  1
  Mo  Mo201  1  0.79903815  0.80301192  -0.00137348  1
  Mo  Mo202  1  0.59672320  0.00134371  0.19265057  1
  Mo  Mo203  1  0.79976050  0.60103164  0.79487697  1
  Mo  Mo204  1  0.89449152  0.30179697  0.69139523  1
  Mo  Mo205  1  0.49039721  0.50200790  0.90272787  1
  Mo  Mo206  1  0.69798240  0.70835052  0.90130402  1
  Mo  Mo207  1  0.79697067  -0.02494692  0.59710732  1
  Mo  Mo208  1  0.00474892  0.40432909  0.00029060  1
  Mo  Mo209  1  0.30338483  0.10873489  0.30091882  1
  Mo  Mo210  1  0.20637394  -0.01615649  0.59980346  1
  Mo  Mo211  1  0.30330327  0.68758288  0.70566897  1
  Mo  Mo212  1  0.80191100  -0.00825098  0.18880268  1
  Mo  Mo213  1  0.90674963  0.89549226  0.29754603  1
  Mo  Mo214  1  0.90250895  0.69109442  0.09777325  1
  Mo  Mo215  1  0.20770679  0.59811368  -0.00095841  1
  Mo  Mo216  1  0.90452665  0.49977989  0.69651442  1
  Mo  Mo217  1  0.20166889  0.79602757  0.40266625  1
  Mo  Mo218  1  0.40274480  0.20926622  -0.00174125  1
  Mo  Mo219  1  0.69448845  0.30938679  0.69851095  1
  Mo  Mo220  1  0.49410134  0.50458258  0.29780488  1
  Mo  Mo221  1  0.10845574  0.30105952  0.09593294  1
  Mo  Mo222  1  0.30115108  0.70133118  0.50456963  1
  Mo  Mo223  1  0.59342806  -0.00964759  0.60406518  1
  Mo  Mo224  1  0.10255322  0.69449190  0.10340229  1
  Mo  Mo225  1  0.10174296  0.49895452  0.50394513  1
  Mo  Mo226  1  0.69959227  0.70539781  0.69850611  1
  Mo  Mo227  1  0.00147178  0.80060338  0.20293175  1
  Mo  Mo228  1  0.58778262  0.79335620  0.19529745  1
  Mo  Mo229  1  0.30028187  0.11677394  0.69913561  1
  Mo  Mo230  1  0.79596305  -0.00475797  -0.00267757  1
  Mo  Mo231  1  0.50025574  0.88843383  0.70293374  1
  Mo  Mo232  1  0.69278399  0.09029588  0.70643163  1
  Mo  Mo233  1  0.59971378  0.79623809  -0.00617112  1
  Mo  Mo234  1  0.80822554  0.59879497  0.18758154  1
  Mo  Mo235  1  -0.00006864  0.40648048  0.79494388  1
  Mo  Mo236  1  0.40240737  0.40336272  0.19782907  1
  Mo  Mo237  1  0.59716520  0.61485521  0.60428540  1
  Mo  Mo238  1  0.59846855  -0.00072014  -0.00525465  1
  Mo  Mo239  1  0.59482761  0.40332564  0.19805266  1
  Mo  Mo240  1  0.39622337  0.60119648  0.19665890  1
  Mo  Mo241  1  0.49280731  0.70560824  0.50498631  1
  Mo  Mo242  1  0.79761850  0.21426574  0.59575440  1
  Mo  Mo243  1  0.39716540  0.79430375  0.40968912  1
  Mo  Mo244  1  0.10694777  0.50216527  0.90170163  1
  Mo  Mo245  1  0.30579201  0.88050559  0.70019490  1
  Mo  Mo246  1  0.89683127  0.90990423  0.09672986  1
  Mo  Mo247  1  0.10220752  0.69279105  0.90053716  1
  Mo  Mo248  1  0.20173919  0.59937151  0.39877074  1
  Mo  Mo249  1  0.89095533  0.10588068  0.09800635  1
