# generated using pymatgen
data_HfZrTaTiMo
_symmetry_space_group_name_H-M   'P 1'
_cell_length_a   16.88311417
_cell_length_b   16.89583665
_cell_length_c   16.87176952
_cell_angle_alpha   90.01634011
_cell_angle_beta   89.99484184
_cell_angle_gamma   89.99318056
_symmetry_Int_Tables_number   1
_chemical_formula_structural   HfZrTaTiMo
_chemical_formula_sum   'Hf50 Zr50 Ta50 Ti50 Mo50'
_cell_volume   4812.74521660
_cell_formula_units_Z   50
loop_
 _symmetry_equiv_pos_site_id
 _symmetry_equiv_pos_as_xyz
  1  'x, y, z'
loop_
 _atom_site_type_symbol
 _atom_site_label
 _atom_site_symmetry_multiplicity
 _atom_site_fract_x
 _atom_site_fract_y
 _atom_site_fract_z
 _atom_site_occupancy
  Hf  Hf0  1  0.31872361  0.10006361  0.51762737  1
  Hf  Hf1  1  0.20199493  0.00331578  0.40707001  1
  Hf  Hf2  1  0.60100342  0.19571357  0.79864824  1
  Hf  Hf3  1  0.39615613  0.39279554  -0.00168241  1
  Hf  Hf4  1  0.00295926  0.19965752  0.79288904  1
  Hf  Hf5  1  0.59956987  0.20059119  0.00066811  1
  Hf  Hf6  1  0.19771696  0.00149893  0.20184223  1
  Hf  Hf7  1  0.09578139  0.89411564  0.10345703  1
  Hf  Hf8  1  0.80410689  -0.01372553  0.21108229  1
  Hf  Hf9  1  0.71662044  0.29639655  0.29176860  1
  Hf  Hf10  1  0.39520285  0.61308632  0.20532977  1
  Hf  Hf11  1  0.19380259  0.00081321  0.60719039  1
  Hf  Hf12  1  0.70047348  0.49825919  0.50656744  1
  Hf  Hf13  1  0.50061593  0.51763903  0.08899931  1
  Hf  Hf14  1  0.11078846  0.27733414  0.09725131  1
  Hf  Hf15  1  0.10271715  0.49474994  0.50674149  1
  Hf  Hf16  1  0.79670871  0.20519915  0.00167288  1
  Hf  Hf17  1  0.79785870  0.60347482  0.79943840  1
  Hf  Hf18  1  0.69882156  0.09943909  0.69216636  1
  Hf  Hf19  1  0.00521536  0.40214463  0.80258680  1
  Hf  Hf20  1  0.50355521  0.50169518  0.29945007  1
  Hf  Hf21  1  0.19896363  0.18475658  0.79073075  1
  Hf  Hf22  1  0.10591780  0.31782549  0.68834524  1
  Hf  Hf23  1  0.30594210  0.89742575  0.09652277  1
  Hf  Hf24  1  0.10829582  0.50014607  0.31370731  1
  Hf  Hf25  1  0.79877902  0.80197534  0.39478916  1
  Hf  Hf26  1  0.21750996  0.79039721  0.59938241  1
  Hf  Hf27  1  0.69144867  0.49953674  0.90359512  1
  Hf  Hf28  1  0.59351321  0.61213991  0.78986932  1
  Hf  Hf29  1  -0.00258778  0.59659045  0.79951274  1
  Hf  Hf30  1  0.91097562  0.09705744  0.11081402  1
  Hf  Hf31  1  0.49241937  0.51021442  0.89601376  1
  Hf  Hf32  1  0.39712836  0.79457189  0.40695814  1
  Hf  Hf33  1  0.49161205  0.49530387  0.70216812  1
  Hf  Hf34  1  0.69504572  0.89589716  0.89263584  1
  Hf  Hf35  1  0.10068638  0.70146662  0.70151414  1
  Hf  Hf36  1  0.69776192  0.49662090  0.29680427  1
  Hf  Hf37  1  0.30340110  0.10068471  0.09657651  1
  Hf  Hf38  1  0.00655791  0.40204508  0.00040760  1
  Hf  Hf39  1  0.39560094  0.60720089  0.40221904  1
  Hf  Hf40  1  0.88878775  0.10080380  0.49288827  1
  Hf  Hf41  1  0.68957601  0.70747491  0.09443856  1
  Hf  Hf42  1  0.19801712  -0.00246901  -0.00500156  1
  Hf  Hf43  1  0.90328151  0.71729653  0.70247675  1
  Hf  Hf44  1  0.89828183  0.48865051  0.69117725  1
  Hf  Hf45  1  0.09653421  0.88904651  0.50149015  1
  Hf  Hf46  1  0.60675444  0.20685536  0.41003275  1
  Hf  Hf47  1  0.29156055  0.49808799  0.70565494  1
  Hf  Hf48  1  0.60326156  -0.00826452  0.59795474  1
  Hf  Hf49  1  0.08293212  0.09736680  0.30074756  1
  Zr  Zr50  1  0.09762335  0.89144498  0.30329848  1
  Zr  Zr51  1  0.39157070  0.61522650  0.60073600  1
  Zr  Zr52  1  0.10221372  0.70196965  0.89906464  1
  Zr  Zr53  1  0.69022979  0.49470591  0.69399947  1
  Zr  Zr54  1  0.20274303  0.18788972  0.40210280  1
  Zr  Zr55  1  0.21174781  0.80357591  0.80643741  1
  Zr  Zr56  1  0.10142536  0.29969198  0.30748611  1
  Zr  Zr57  1  0.20134694  -0.00221119  0.79931984  1
  Zr  Zr58  1  0.70621818  0.09961433  0.10827443  1
  Zr  Zr59  1  0.90064206  0.29951805  0.49972910  1
  Zr  Zr60  1  0.70410270  0.09558402  0.31033345  1
  Zr  Zr61  1  0.40234866  0.80356471  0.20102194  1
  Zr  Zr62  1  0.90308913  0.89512848  0.89355838  1
  Zr  Zr63  1  0.31714132  0.89204048  0.70096924  1
  Zr  Zr64  1  0.79937550  -0.00335779  0.00228869  1
  Zr  Zr65  1  0.01022645  0.60016963  0.19788986  1
  Zr  Zr66  1  0.60297749  0.61127296  0.40146928  1
  Zr  Zr67  1  0.60165116  0.39629010  0.18971674  1
  Zr  Zr68  1  0.89792820  0.30085644  0.69084145  1
  Zr  Zr69  1  0.30566049  0.30023117  0.70508892  1
  Zr  Zr70  1  0.39553654  0.19939833  0.39581576  1
  Zr  Zr71  1  0.30224528  0.50820899  0.88960631  1
  Zr  Zr72  1  0.90062164  0.09703217  0.90071417  1
  Zr  Zr73  1  0.59758843  0.38872468  0.00444366  1
  Zr  Zr74  1  0.48680131  0.29624012  0.88420208  1
  Zr  Zr75  1  0.79678017  0.60737179  0.20173896  1
  Zr  Zr76  1  0.80101962  0.60261570  -0.00358243  1
  Zr  Zr77  1  0.10103155  0.30669771  0.49672372  1
  Zr  Zr78  1  0.20237221  0.40431293  0.19489584  1
  Zr  Zr79  1  0.79627060  0.60722900  0.60499719  1
  Zr  Zr80  1  0.50844518  0.50701424  0.50939391  1
  Zr  Zr81  1  0.19527380  0.18635690  0.60239616  1
  Zr  Zr82  1  0.50203348  0.09791427  0.29999442  1
  Zr  Zr83  1  0.59325149  -0.00581259  0.00474859  1
  Zr  Zr84  1  -0.01626988  -0.01065367  0.39895086  1
  Zr  Zr85  1  0.68949643  0.71149439  0.90033632  1
  Zr  Zr86  1  0.89638075  0.49139106  0.29430789  1
  Zr  Zr87  1  0.90206219  0.70376432  0.10262815  1
  Zr  Zr88  1  0.00968844  0.40176813  0.19285116  1
  Zr  Zr89  1  0.40183191  -0.00295016  0.40230389  1
  Zr  Zr90  1  0.70254203  0.30195279  0.69479601  1
  Zr  Zr91  1  0.40085147  0.40052056  0.40385459  1
  Zr  Zr92  1  0.00592208  0.00591466  0.79519182  1
  Zr  Zr93  1  0.60222806  0.20169362  0.19447209  1
  Zr  Zr94  1  0.39666165  0.39953865  0.19894340  1
  Zr  Zr95  1  0.09863206  0.70237628  0.49990677  1
  Zr  Zr96  1  0.30218281  0.51407188  0.09087271  1
  Zr  Zr97  1  0.80285486  0.60927385  0.39738734  1
  Zr  Zr98  1  -0.00189412  0.20604801  -0.00397856  1
  Zr  Zr99  1  0.19944482  0.39795157  -0.00129929  1
  Ta  Ta100  1  0.08808676  0.88715698  0.69721549  1
  Ta  Ta101  1  0.20829187  0.60842396  0.40263844  1
  Ta  Ta102  1  0.29750631  0.89690477  0.30376090  1
  Ta  Ta103  1  0.89176304  0.30359145  0.11257432  1
  Ta  Ta104  1  0.10455226  0.70288564  0.30776710  1
  Ta  Ta105  1  0.90844978  0.89721991  0.10476275  1
  Ta  Ta106  1  0.90122839  0.70190277  0.50631466  1
  Ta  Ta107  1  0.89197407  0.10079526  0.68973583  1
  Ta  Ta108  1  0.49872203  0.71126649  0.08747510  1
  Ta  Ta109  1  0.49540799  0.09728511  0.89907718  1
  Ta  Ta110  1  0.30109285  0.70554126  0.08840870  1
  Ta  Ta111  1  0.60169549  0.38979927  0.40356650  1
  Ta  Ta112  1  0.40552336  -0.00342031  0.80429063  1
  Ta  Ta113  1  0.70132459  0.89458866  0.70509435  1
  Ta  Ta114  1  0.11069529  0.50498919  0.89085258  1
  Ta  Ta115  1  0.50497042  0.89992914  0.30472007  1
  Ta  Ta116  1  0.90118730  0.49758110  0.50243987  1
  Ta  Ta117  1  0.79862266  0.39468108  0.40134720  1
  Ta  Ta118  1  -0.00282155  0.60288857  0.40187969  1
  Ta  Ta119  1  0.59581744  0.61067601  0.19722159  1
  Ta  Ta120  1  -0.00047966  0.79626299  0.00058663  1
  Ta  Ta121  1  0.79816355  0.00198235  0.79138042  1
  Ta  Ta122  1  -0.00456059  -0.00197251  0.59835371  1
  Ta  Ta123  1  0.50802488  0.10160726  0.50840374  1
  Ta  Ta124  1  0.89710868  0.49624925  0.09503873  1
  Ta  Ta125  1  0.89764384  0.49565120  0.90306330  1
  Ta  Ta126  1  0.49895137  0.29838130  0.29868230  1
  Ta  Ta127  1  0.29477519  0.30522766  0.50678689  1
  Ta  Ta128  1  0.48944104  0.09659432  0.10140735  1
  Ta  Ta129  1  0.50630308  0.71001977  0.30008216  1
  Ta  Ta130  1  0.29981986  0.28358194  0.09916617  1
  Ta  Ta131  1  0.20500706  0.18799774  0.20691253  1
  Ta  Ta132  1  0.49610198  0.29247300  0.69455316  1
  Ta  Ta133  1  0.70328793  0.30248432  0.89547832  1
  Ta  Ta134  1  0.00529181  0.18705771  0.59468380  1
  Ta  Ta135  1  0.00293652  0.59709978  -0.00173961  1
  Ta  Ta136  1  0.89318099  0.11032419  0.30342314  1
  Ta  Ta137  1  0.40001880  0.39713765  0.59851436  1
  Ta  Ta138  1  0.20205831  0.60924264  0.20276291  1
  Ta  Ta139  1  0.49396237  0.10366306  0.69681274  1
  Ta  Ta140  1  0.00034834  0.59873433  0.60137426  1
  Ta  Ta141  1  0.20499228  0.79217794  0.20316472  1
  Ta  Ta142  1  0.80021258  0.19731658  0.80162195  1
  Ta  Ta143  1  0.60644459  0.81058740  0.40429964  1
  Ta  Ta144  1  0.69623551  0.70913132  0.51036860  1
  Ta  Ta145  1  0.30738523  0.09934668  0.89868255  1
  Ta  Ta146  1  0.49707262  0.70629927  0.90356454  1
  Ta  Ta147  1  0.80359405  0.80477680  0.00237014  1
  Ta  Ta148  1  0.59533229  0.38022074  0.59047514  1
  Ta  Ta149  1  0.59843882  -0.01007149  0.20071048  1
  Ti  Ti150  1  0.79561414  0.39853456  0.00407401  1
  Ti  Ti151  1  0.79805429  -0.00889935  0.59762880  1
  Ti  Ti152  1  0.69990407  0.09466801  0.49770418  1
  Ti  Ti153  1  0.59560619  0.80866899  0.19866412  1
  Ti  Ti154  1  0.10538499  0.10792008  0.91148994  1
  Ti  Ti155  1  0.41121826  -0.00729502  0.60664765  1
  Ti  Ti156  1  -0.00881837  0.40027390  0.39794502  1
  Ti  Ti157  1  0.20188581  0.60194448  0.60358785  1
  Ti  Ti158  1  0.29886439  0.29962851  0.29880784  1
  Ti  Ti159  1  0.90022333  0.70696324  0.89634634  1
  Ti  Ti160  1  0.29609949  0.50022437  0.30469163  1
  Ti  Ti161  1  0.50351717  0.89851687  0.50085448  1
  Ti  Ti162  1  0.48158801  0.28366424  0.10744568  1
  Ti  Ti163  1  0.89848631  0.89055039  0.50817544  1
  Ti  Ti164  1  0.69099114  0.70998405  0.29492703  1
  Ti  Ti165  1  0.29317609  0.49673750  0.50314469  1
  Ti  Ti166  1  0.89323544  0.30650552  0.89904801  1
  Ti  Ti167  1  0.59515868  0.00024194  0.79834775  1
  Ti  Ti168  1  0.78965169  0.20306029  0.58918630  1
  Ti  Ti169  1  0.29586738  0.29358952  0.89187153  1
  Ti  Ti170  1  0.09202893  0.89289635  0.89850528  1
  Ti  Ti171  1  0.00858744  0.00085236  0.00593300  1
  Ti  Ti172  1  0.40129021  -0.00243177  0.20430365  1
  Ti  Ti173  1  0.59852303  0.80425804  0.60243005  1
  Ti  Ti174  1  -0.00299220  0.79578102  0.20811510  1
  Ti  Ti175  1  0.39831628  0.19646472  -0.00768993  1
  Ti  Ti176  1  0.79565275  0.80719192  0.59898268  1
  Ti  Ti177  1  0.19806888  0.60652180  -0.00150776  1
  Ti  Ti178  1  -0.00169903  0.20458620  0.20584218  1
  Ti  Ti179  1  0.69618235  0.71646464  0.70216053  1
  Ti  Ti180  1  0.31264147  0.70048948  0.89729103  1
  Ti  Ti181  1  0.69803595  0.09605436  0.89643272  1
  Ti  Ti182  1  -0.01381802  0.79360987  0.39654487  1
  Ti  Ti183  1  0.50451914  0.89302124  0.70741769  1
  Ti  Ti184  1  0.79780695  0.40052537  0.80407213  1
  Ti  Ti185  1  0.49769276  0.88820051  0.89925458  1
  Ti  Ti186  1  0.69929364  0.89167067  0.10045339  1
  Ti  Ti187  1  0.10585772  0.70365537  0.09927094  1
  Ti  Ti188  1  0.11384452  0.29867607  0.89339280  1
  Ti  Ti189  1  0.30446519  0.89710696  0.50398048  1
  Ti  Ti190  1  0.48798434  0.71702831  0.70508825  1
  Ti  Ti191  1  0.20527734  0.80361074  -0.00432690  1
  Ti  Ti192  1  0.59515957  0.39541971  0.79694720  1
  Ti  Ti193  1  0.89800474  0.89800584  0.70125462  1
  Ti  Ti194  1  0.49117016  0.28899883  0.50556217  1
  Ti  Ti195  1  0.79064161  -0.02021313  0.40132735  1
  Ti  Ti196  1  0.40413987  -0.00862523  -0.00548827  1
  Ti  Ti197  1  0.50620287  0.70823821  0.50813676  1
  Ti  Ti198  1  0.69911748  0.50415156  0.09804963  1
  Ti  Ti199  1  0.80359399  0.80259181  0.20784795  1
  Mo  Mo200  1  -0.00689235  0.19995509  0.40019460  1
  Mo  Mo201  1  0.39855472  0.39431580  0.79614735  1
  Mo  Mo202  1  0.81002114  0.20130777  0.20221215  1
  Mo  Mo203  1  0.08437602  0.09105046  0.49818559  1
  Mo  Mo204  1  0.49939873  0.90490383  0.10433370  1
  Mo  Mo205  1  0.70388091  0.30073208  0.49766583  1
  Mo  Mo206  1  -0.00859991  0.80328593  0.59882719  1
  Mo  Mo207  1  0.30310657  0.09124107  0.29447258  1
  Mo  Mo208  1  0.79958953  0.40281001  0.19218574  1
  Mo  Mo209  1  0.20671472  0.40789406  0.59897234  1
  Mo  Mo210  1  0.59592992  0.80708355  0.00262898  1
  Mo  Mo211  1  0.10390600  0.51853333  0.08793447  1
  Mo  Mo212  1  0.00049997  0.40840343  0.59723333  1
  Mo  Mo213  1  0.59642814  0.62555756  0.60623372  1
  Mo  Mo214  1  0.20986861  0.79981557  0.39981270  1
  Mo  Mo215  1  0.41011745  0.80479997  0.59687203  1
  Mo  Mo216  1  0.19825967  0.39899970  0.80240371  1
  Mo  Mo217  1  0.29589227  0.70388477  0.30158643  1
  Mo  Mo218  1  0.69422039  0.89500564  0.29867618  1
  Mo  Mo219  1  0.31233802  0.90369913  0.90484052  1
  Mo  Mo220  1  0.29864274  0.69942922  0.50115908  1
  Mo  Mo221  1  0.79913542  0.20188479  0.40149623  1
  Mo  Mo222  1  0.70383929  0.89685112  0.50726713  1
  Mo  Mo223  1  0.39725824  0.18928372  0.79688616  1
  Mo  Mo224  1  0.40555753  0.80146273  0.80512848  1
  Mo  Mo225  1  0.60199473  -0.00554631  0.40594955  1
  Mo  Mo226  1  0.30330294  0.69502111  0.70855624  1
  Mo  Mo227  1  0.00015162  0.80351841  0.80311157  1
  Mo  Mo228  1  0.39858892  0.61421209  -0.00449958  1
  Mo  Mo229  1  0.90241533  0.29575561  0.30252571  1
  Mo  Mo230  1  0.20173855  0.60544507  0.79887867  1
  Mo  Mo231  1  0.08739846  0.08998525  0.69381133  1
  Mo  Mo232  1  0.40038818  0.80624099  -0.00413620  1
  Mo  Mo233  1  0.20735972  0.19395871  -0.00973024  1
  Mo  Mo234  1  0.10236725  0.50648801  0.69868048  1
  Mo  Mo235  1  0.39902228  0.61389545  0.79698696  1
  Mo  Mo236  1  0.71469729  0.30375865  0.09537785  1
  Mo  Mo237  1  0.89801762  0.89305705  0.29640578  1
  Mo  Mo238  1  0.59895524  0.19503365  0.59645865  1
  Mo  Mo239  1  0.59412729  0.80485573  0.79567976  1
  Mo  Mo240  1  0.79895504  0.80535982  0.79819022  1
  Mo  Mo241  1  -0.00287886  -0.00305047  0.19967548  1
  Mo  Mo242  1  0.79413175  0.39895931  0.58891453  1
  Mo  Mo243  1  0.21375809  0.40778216  0.40200859  1
  Mo  Mo244  1  0.39375839  0.19708617  0.20240401  1
  Mo  Mo245  1  0.40379803  0.20290594  0.60073894  1
  Mo  Mo246  1  0.09939783  0.09808315  0.10326366  1
  Mo  Mo247  1  0.59650611  0.60502143  0.00096598  1
  Mo  Mo248  1  0.31796017  0.09137734  0.70436556  1
  Mo  Mo249  1  0.90906149  0.70242084  0.30333000  1
