# generated using pymatgen
data_HfZrTaTiMo
_symmetry_space_group_name_H-M   'P 1'
_cell_length_a   16.88724220
_cell_length_b   16.88426821
_cell_length_c   16.88070611
_cell_angle_alpha   89.99002333
_cell_angle_beta   90.03098647
_cell_angle_gamma   89.99185145
_symmetry_Int_Tables_number   1
_chemical_formula_structural   HfZrTaTiMo
_chemical_formula_sum   'Hf50 Zr50 Ta50 Ti50 Mo50'
_cell_volume   4813.17341225
_cell_formula_units_Z   50
loop_
 _symmetry_equiv_pos_site_id
 _symmetry_equiv_pos_as_xyz
  1  'x, y, z'
loop_
 _atom_site_type_symbol
 _atom_site_label
 _atom_site_symmetry_multiplicity
 _atom_site_fract_x
 _atom_site_fract_y
 _atom_site_fract_z
 _atom_site_occupancy
  Hf  Hf0  1  0.79234857  0.59806028  0.59887256  1
  Hf  Hf1  1  0.79594731  0.39985143  0.60984245  1
  Hf  Hf2  1  0.90005107  0.89390869  0.51293363  1
  Hf  Hf3  1  0.30460602  0.69575269  0.70151008  1
  Hf  Hf4  1  -0.00908639  0.79404105  0.00596928  1
  Hf  Hf5  1  0.90562305  0.10081101  0.91036533  1
  Hf  Hf6  1  0.39666410  0.80477417  0.01234490  1
  Hf  Hf7  1  0.39217875  0.19178147  0.39092537  1
  Hf  Hf8  1  0.60428106  0.00288404  0.60526136  1
  Hf  Hf9  1  0.11157929  0.50840371  0.29485296  1
  Hf  Hf10  1  0.89883459  0.70988978  0.69467079  1
  Hf  Hf11  1  0.60893580  0.20980797  0.61259076  1
  Hf  Hf12  1  0.20354802  0.59993580  0.00046101  1
  Hf  Hf13  1  0.10696088  0.29158734  0.30101005  1
  Hf  Hf14  1  0.29400303  0.49915732  0.29649172  1
  Hf  Hf15  1  0.29329253  0.70599310  0.29427564  1
  Hf  Hf16  1  0.20480818  0.80241607  0.00597050  1
  Hf  Hf17  1  0.60227025  0.80156631  -0.00236100  1
  Hf  Hf18  1  0.59265457  0.59904435  0.20183808  1
  Hf  Hf19  1  0.29191489  0.30520621  0.71635382  1
  Hf  Hf20  1  0.70959225  0.11327780  0.89221378  1
  Hf  Hf21  1  0.70222599  0.90631119  0.09861230  1
  Hf  Hf22  1  0.70037479  0.49972696  0.89439153  1
  Hf  Hf23  1  0.50235483  0.09173810  0.28822510  1
  Hf  Hf24  1  0.50255096  0.30468495  0.10677793  1
  Hf  Hf25  1  0.49616988  0.09586041  0.50047868  1
  Hf  Hf26  1  0.19552777  0.59495202  0.80040442  1
  Hf  Hf27  1  0.60439906  0.59634749  0.39992088  1
  Hf  Hf28  1  0.29498367  0.29721382  0.29216957  1
  Hf  Hf29  1  0.50316562  0.10662439  0.70688488  1
  Hf  Hf30  1  0.89999345  0.49934146  0.50432408  1
  Hf  Hf31  1  0.90277969  0.51172012  0.71338556  1
  Hf  Hf32  1  0.60804532  0.00676689  0.80183078  1
  Hf  Hf33  1  0.71374919  0.89090935  0.69543960  1
  Hf  Hf34  1  0.39811333  0.00364972  0.80509167  1
  Hf  Hf35  1  -0.00681340  0.18479835  0.40584107  1
  Hf  Hf36  1  0.70631479  0.10066627  0.50170032  1
  Hf  Hf37  1  0.70525141  0.89612271  0.50199121  1
  Hf  Hf38  1  0.39906175  0.60337134  0.19048051  1
  Hf  Hf39  1  0.49866101  0.89895154  0.70266316  1
  Hf  Hf40  1  0.00265249  0.19133874  0.19650216  1
  Hf  Hf41  1  0.09418616  0.29242708  0.50260572  1
  Hf  Hf42  1  0.40449836  0.39147418  0.60887531  1
  Hf  Hf43  1  0.60290059  0.20585693  -0.00513936  1
  Hf  Hf44  1  0.49931318  0.69763204  0.89436097  1
  Hf  Hf45  1  0.89787956  0.49350859  0.08989416  1
  Hf  Hf46  1  0.00026030  0.40267720  0.20091332  1
  Hf  Hf47  1  0.39990527  0.20296777  -0.00374287  1
  Hf  Hf48  1  0.59724431  0.79523433  0.59945096  1
  Hf  Hf49  1  0.30215040  0.69931557  0.89765942  1
  Zr  Zr50  1  0.30089471  0.69214346  0.49684479  1
  Zr  Zr51  1  0.08226156  0.89664339  0.70545389  1
  Zr  Zr52  1  -0.00522010  0.40488773  0.39778632  1
  Zr  Zr53  1  0.30367414  0.50549076  0.50633859  1
  Zr  Zr54  1  0.70598106  0.09067908  0.09839502  1
  Zr  Zr55  1  0.20008695  0.81024688  0.40474451  1
  Zr  Zr56  1  0.70680747  0.90182841  0.28845931  1
  Zr  Zr57  1  0.90546351  0.69138015  0.88118527  1
  Zr  Zr58  1  0.69838495  0.70442054  0.29649625  1
  Zr  Zr59  1  0.08671892  0.70544506  0.70763234  1
  Zr  Zr60  1  0.50457541  0.30202662  0.49293085  1
  Zr  Zr61  1  0.40230091  0.20284806  0.80707337  1
  Zr  Zr62  1  0.90035391  0.30044651  0.90194926  1
  Zr  Zr63  1  0.19814021  -0.00149762  0.80512092  1
  Zr  Zr64  1  -0.00411946  0.60607372  0.40174550  1
  Zr  Zr65  1  0.40886623  0.59663243  0.38695870  1
  Zr  Zr66  1  0.49722417  0.90022161  0.90135614  1
  Zr  Zr67  1  0.19731072  0.80531971  0.59921761  1
  Zr  Zr68  1  0.00463598  -0.00095135  0.20249829  1
  Zr  Zr69  1  -0.00572684  0.59856181  0.19156605  1
  Zr  Zr70  1  0.39367747  0.80790636  0.59710628  1
  Zr  Zr71  1  0.79758653  0.19998532  0.39889640  1
  Zr  Zr72  1  0.10479388  0.29928401  0.09733194  1
  Zr  Zr73  1  0.89858315  0.29791307  0.30177440  1
  Zr  Zr74  1  0.70308234  0.70524186  0.10710871  1
  Zr  Zr75  1  0.90080210  0.49334051  0.89900548  1
  Zr  Zr76  1  0.39806268  0.20116142  0.60247734  1
  Zr  Zr77  1  0.29513604  0.48684201  0.10055081  1
  Zr  Zr78  1  0.49932757  0.09289047  0.09901197  1
  Zr  Zr79  1  0.20149431  0.00071358  0.00125399  1
  Zr  Zr80  1  0.89609209  0.69674311  0.29244926  1
  Zr  Zr81  1  0.60141135  0.19737984  0.39539689  1
  Zr  Zr82  1  0.19928879  0.40161701  0.40461603  1
  Zr  Zr83  1  0.10215270  0.70765361  0.10798672  1
  Zr  Zr84  1  0.89595804  0.91500863  0.09238602  1
  Zr  Zr85  1  0.60135108  0.59721471  0.60452533  1
  Zr  Zr86  1  0.79625058  0.39650112  0.19661284  1
  Zr  Zr87  1  0.81065481  0.79785897  0.40130540  1
  Zr  Zr88  1  0.79911647  0.20310968  0.19302748  1
  Zr  Zr89  1  0.20143515  0.19476975  0.59912086  1
  Zr  Zr90  1  0.59488600  -0.01103847  0.39451146  1
  Zr  Zr91  1  0.80428199  0.61270864  0.00248801  1
  Zr  Zr92  1  0.09358725  0.29827288  0.70458729  1
  Zr  Zr93  1  0.49874414  0.49895150  0.71165457  1
  Zr  Zr94  1  0.69465517  0.50169054  0.09921786  1
  Zr  Zr95  1  0.80679814  0.00700023  0.78954106  1
  Zr  Zr96  1  0.49850068  0.49993954  0.50427751  1
  Zr  Zr97  1  0.09635449  0.10009097  0.70432554  1
  Zr  Zr98  1  -0.00780772  0.01156341  0.59745036  1
  Zr  Zr99  1  0.19649616  0.40374629  0.60524463  1
  Ta  Ta100  1  0.38900424  -0.00080055  0.60049966  1
  Ta  Ta101  1  0.09762252  0.70370904  0.89626396  1
  Ta  Ta102  1  0.58225792  0.81215461  0.19595774  1
  Ta  Ta103  1  0.40336918  0.59365113  -0.00148577  1
  Ta  Ta104  1  0.50740970  0.30325659  0.89323059  1
  Ta  Ta105  1  0.10598294  0.70360505  0.30050961  1
  Ta  Ta106  1  0.09741698  0.50747569  0.50496408  1
  Ta  Ta107  1  0.10397467  0.09350194  0.49429383  1
  Ta  Ta108  1  0.70176830  0.70283695  0.50018430  1
  Ta  Ta109  1  0.30131571  0.50138152  0.70621892  1
  Ta  Ta110  1  0.40363240  0.39845048  -0.00831246  1
  Ta  Ta111  1  0.91041456  0.29854292  0.08569616  1
  Ta  Ta112  1  0.29602527  0.09917500  0.70513582  1
  Ta  Ta113  1  0.20585518  -0.00534382  0.59896432  1
  Ta  Ta114  1  0.79418144  0.40605670  0.40228521  1
  Ta  Ta115  1  0.20312053  0.19767935  -0.00261328  1
  Ta  Ta116  1  0.49908951  0.70145491  0.09818003  1
  Ta  Ta117  1  0.29979060  0.49211630  0.89425841  1
  Ta  Ta118  1  0.20376700  0.18386912  0.19720562  1
  Ta  Ta119  1  0.00680974  0.59918844  -0.00207880  1
  Ta  Ta120  1  0.68869865  0.30751277  0.29713005  1
  Ta  Ta121  1  0.89607745  0.09029358  0.29515054  1
  Ta  Ta122  1  0.59866775  0.39868365  -0.00478682  1
  Ta  Ta123  1  0.70177885  0.09023271  0.28945601  1
  Ta  Ta124  1  0.40082678  0.39512000  0.39424032  1
  Ta  Ta125  1  0.70409377  0.70137522  0.70702627  1
  Ta  Ta126  1  0.90367699  0.90976591  0.89927521  1
  Ta  Ta127  1  0.10914417  0.09420516  0.30812910  1
  Ta  Ta128  1  0.08653542  0.90323025  0.90363221  1
  Ta  Ta129  1  0.50124527  0.30247319  0.29352279  1
  Ta  Ta130  1  0.20606983  -0.00406503  0.20177572  1
  Ta  Ta131  1  0.81074344  -0.00056663  0.39892700  1
  Ta  Ta132  1  0.09842390  0.49305994  0.89992034  1
  Ta  Ta133  1  0.00054454  0.19943032  0.80663853  1
  Ta  Ta134  1  0.20536893  0.39115584  -0.00938719  1
  Ta  Ta135  1  0.10168619  0.90081762  0.10273957  1
  Ta  Ta136  1  0.30486145  0.09359309  0.09931162  1
  Ta  Ta137  1  0.49675115  0.71062220  0.29750625  1
  Ta  Ta138  1  0.59590423  0.00233146  -0.00767242  1
  Ta  Ta139  1  0.89822264  0.29557716  0.51133025  1
  Ta  Ta140  1  0.70394424  0.30548634  0.50053518  1
  Ta  Ta141  1  0.19264046  0.60115688  0.60349429  1
  Ta  Ta142  1  0.49665259  0.70117726  0.49677691  1
  Ta  Ta143  1  0.39017023  -0.00708768  0.39478360  1
  Ta  Ta144  1  0.39560929  -0.01361938  0.19952965  1
  Ta  Ta145  1  0.19741406  0.19915602  0.81821716  1
  Ta  Ta146  1  0.29762366  0.29613329  0.49249781  1
  Ta  Ta147  1  0.00427596  0.79994925  0.40166960  1
  Ta  Ta148  1  0.61110780  0.39962590  0.61051023  1
  Ta  Ta149  1  0.40059210  0.81090695  0.39542493  1
  Ti  Ti150  1  0.00078723  0.39631590  0.80020297  1
  Ti  Ti151  1  0.49555446  0.90080423  0.49931887  1
  Ti  Ti152  1  -0.00599507  0.39775738  0.60703724  1
  Ti  Ti153  1  0.50391076  0.48550475  0.29334805  1
  Ti  Ti154  1  0.09662943  0.30150416  0.90403737  1
  Ti  Ti155  1  0.79589722  0.59313988  0.40159647  1
  Ti  Ti156  1  0.29318320  0.09780181  0.49556513  1
  Ti  Ti157  1  0.59259597  0.80061239  0.39801790  1
  Ti  Ti158  1  0.60596950  0.80083156  0.80208892  1
  Ti  Ti159  1  -0.00615320  -0.00573731  0.39830283  1
  Ti  Ti160  1  0.20429463  0.60684202  0.18838243  1
  Ti  Ti161  1  0.00308160  0.60736481  0.59687334  1
  Ti  Ti162  1  0.60773681  0.39169869  0.79651748  1
  Ti  Ti163  1  0.39386039  0.80722721  0.19606942  1
  Ti  Ti164  1  0.50010775  0.49552309  0.09562147  1
  Ti  Ti165  1  0.79387957  0.39028418  0.79313992  1
  Ti  Ti166  1  0.10388289  0.49113258  0.09352450  1
  Ti  Ti167  1  0.09888404  0.09664255  0.09112172  1
  Ti  Ti168  1  0.09437161  0.49908499  0.70377939  1
  Ti  Ti169  1  0.39173788  0.80765014  0.79813093  1
  Ti  Ti170  1  0.49468130  0.69811201  0.70308887  1
  Ti  Ti171  1  -0.00317474  0.80492434  0.20497196  1
  Ti  Ti172  1  0.20072734  0.80886004  0.80353591  1
  Ti  Ti173  1  0.79467085  0.20993118  0.00346620  1
  Ti  Ti174  1  0.59235701  0.59711657  -0.00476468  1
  Ti  Ti175  1  0.60277037  0.59804644  0.79905021  1
  Ti  Ti176  1  0.90495888  0.89070238  0.70187914  1
  Ti  Ti177  1  0.70052212  0.69788407  0.89327008  1
  Ti  Ti178  1  0.29792726  0.29715453  0.10212760  1
  Ti  Ti179  1  0.30292546  0.09877261  0.90672354  1
  Ti  Ti180  1  0.80578627  0.01159739  0.60328854  1
  Ti  Ti181  1  0.39359576  0.19300750  0.19950474  1
  Ti  Ti182  1  0.78267419  0.38663011  0.00005295  1
  Ti  Ti183  1  0.60546617  0.40583794  0.40140729  1
  Ti  Ti184  1  0.10339616  0.89799029  0.29767044  1
  Ti  Ti185  1  0.09531423  0.90627464  0.50111229  1
  Ti  Ti186  1  0.30175411  0.90317033  0.90464589  1
  Ti  Ti187  1  0.60774698  0.20349327  0.19665162  1
  Ti  Ti188  1  0.71100242  0.90634560  0.90508427  1
  Ti  Ti189  1  0.39985660  0.39847985  0.19986382  1
  Ti  Ti190  1  0.40173463  0.59195857  0.80662860  1
  Ti  Ti191  1  0.40350505  0.39798176  0.80847224  1
  Ti  Ti192  1  0.80348521  0.79905257  -0.00464365  1
  Ti  Ti193  1  0.90348527  0.11649435  0.70305815  1
  Ti  Ti194  1  0.81664744  0.80543397  0.19430080  1
  Ti  Ti195  1  0.20874266  -0.00309351  0.39711386  1
  Ti  Ti196  1  0.80179774  0.80199695  0.80786079  1
  Ti  Ti197  1  0.89948655  0.09913049  0.09098455  1
  Ti  Ti198  1  0.70186581  0.49799357  0.29635396  1
  Ti  Ti199  1  0.80305188  0.20296732  0.61040067  1
  Mo  Mo200  1  0.19809167  0.80936385  0.20234081  1
  Mo  Mo201  1  0.19994520  0.18812744  0.40012504  1
  Mo  Mo202  1  0.01136579  0.40165362  -0.00015900  1
  Mo  Mo203  1  0.09852764  0.69662491  0.49732898  1
  Mo  Mo204  1  0.29811921  0.90214190  0.10561168  1
  Mo  Mo205  1  0.49853167  0.90240211  0.09922726  1
  Mo  Mo206  1  0.29754789  0.90020274  0.29743781  1
  Mo  Mo207  1  0.79955698  0.59149198  0.20385454  1
  Mo  Mo208  1  0.50182514  0.49675934  0.90244003  1
  Mo  Mo209  1  0.90027611  0.70424208  0.10019746  1
  Mo  Mo210  1  0.30522922  0.69989226  0.10121682  1
  Mo  Mo211  1  0.59402226  -0.00559179  0.19357371  1
  Mo  Mo212  1  0.29831113  0.90446408  0.70476853  1
  Mo  Mo213  1  0.88174232  0.50416438  0.29720951  1
  Mo  Mo214  1  0.70125083  0.30431575  0.89677343  1
  Mo  Mo215  1  0.00570951  0.00245534  0.00162987  1
  Mo  Mo216  1  0.69969632  0.50012274  0.71026413  1
  Mo  Mo217  1  0.59625269  0.40226183  0.20071017  1
  Mo  Mo218  1  0.69433924  0.30157114  0.09789087  1
  Mo  Mo219  1  0.19464690  0.40070594  0.80627005  1
  Mo  Mo220  1  0.90235232  0.29889293  0.70347450  1
  Mo  Mo221  1  0.78517095  0.60177620  0.79626459  1
  Mo  Mo222  1  0.00031068  0.78939809  0.57828740  1
  Mo  Mo223  1  0.49300697  0.89625848  0.29781301  1
  Mo  Mo224  1  0.71041507  0.10819611  0.69873842  1
  Mo  Mo225  1  0.89874773  0.69699623  0.50101909  1
  Mo  Mo226  1  0.50660072  0.10366555  0.90178109  1
  Mo  Mo227  1  0.30100577  0.30236050  0.90379062  1
  Mo  Mo228  1  0.79999281  0.79158122  0.60180923  1
  Mo  Mo229  1  0.79646251  0.00330043  -0.00786297  1
  Mo  Mo230  1  0.29981598  0.90969069  0.49695761  1
  Mo  Mo231  1  0.89710878  0.09844948  0.49956462  1
  Mo  Mo232  1  0.00873031  0.19767516  0.00070157  1
  Mo  Mo233  1  0.60724141  0.21084948  0.80007881  1
  Mo  Mo234  1  0.20049380  0.39199147  0.19241802  1
  Mo  Mo235  1  0.01159548  0.59377310  0.80125547  1
  Mo  Mo236  1  0.50905125  0.30485364  0.71247416  1
  Mo  Mo237  1  0.80620171  0.00114335  0.20254987  1
  Mo  Mo238  1  0.09563178  0.10488734  0.90507222  1
  Mo  Mo239  1  0.70064573  0.49673421  0.49636775  1
  Mo  Mo240  1  0.40000314  0.60385135  0.61436403  1
  Mo  Mo241  1  0.29942186  0.09369328  0.29305235  1
  Mo  Mo242  1  -0.00553726  0.00365450  0.80132950  1
  Mo  Mo243  1  -0.00613776  0.80730972  0.81368301  1
  Mo  Mo244  1  0.90943017  0.89971628  0.30349783  1
  Mo  Mo245  1  0.19025680  0.60666265  0.40669071  1
  Mo  Mo246  1  0.70549817  0.29976856  0.70515174  1
  Mo  Mo247  1  -0.00852361  0.20075465  0.60010638  1
  Mo  Mo248  1  0.39822005  0.00176423  0.00032171  1
  Mo  Mo249  1  0.80638573  0.20780507  0.79065480  1
