# generated using pymatgen
data_HfZrTaTiMo
_symmetry_space_group_name_H-M   'P 1'
_cell_length_a   16.87847837
_cell_length_b   16.88836179
_cell_length_c   16.88482311
_cell_angle_alpha   90.03649773
_cell_angle_beta   89.98906245
_cell_angle_gamma   90.05886349
_symmetry_Int_Tables_number   1
_chemical_formula_structural   HfZrTaTiMo
_chemical_formula_sum   'Hf50 Zr50 Ta50 Ti50 Mo50'
_cell_volume   4813.01267747
_cell_formula_units_Z   50
loop_
 _symmetry_equiv_pos_site_id
 _symmetry_equiv_pos_as_xyz
  1  'x, y, z'
loop_
 _atom_site_type_symbol
 _atom_site_label
 _atom_site_symmetry_multiplicity
 _atom_site_fract_x
 _atom_site_fract_y
 _atom_site_fract_z
 _atom_site_occupancy
  Hf  Hf0  1  0.59131911  0.00913288  0.60393124  1
  Hf  Hf1  1  0.50449040  0.30191327  0.49367756  1
  Hf  Hf2  1  0.50246966  0.70470229  0.09960235  1
  Hf  Hf3  1  0.79084392  0.39808039  0.00262346  1
  Hf  Hf4  1  0.30595135  0.89001516  0.29425171  1
  Hf  Hf5  1  0.79490474  0.60010935  0.20106261  1
  Hf  Hf6  1  0.40338822  0.18427170  0.59793074  1
  Hf  Hf7  1  0.79479164  0.00342163  0.60674623  1
  Hf  Hf8  1  -0.00545031  0.20892943  0.40358076  1
  Hf  Hf9  1  0.69170368  0.91298120  0.29814137  1
  Hf  Hf10  1  0.70397113  0.70322545  0.09071970  1
  Hf  Hf11  1  0.30369452  0.90175777  0.49884194  1
  Hf  Hf12  1  0.68869095  0.08699606  0.10034378  1
  Hf  Hf13  1  0.60411395  0.60256700  0.80547611  1
  Hf  Hf14  1  0.00078639  0.60136592  0.19625512  1
  Hf  Hf15  1  0.40399249  0.79384048  0.39909282  1
  Hf  Hf16  1  0.81615194  0.39844843  0.40690242  1
  Hf  Hf17  1  0.29208842  0.50483859  0.89571925  1
  Hf  Hf18  1  0.89743809  0.29959062  0.09986262  1
  Hf  Hf19  1  -0.00607773  0.79745384  0.19613530  1
  Hf  Hf20  1  0.49910766  0.50361870  0.09957017  1
  Hf  Hf21  1  0.39429890  0.60247824  0.19951868  1
  Hf  Hf22  1  0.49389463  0.51126871  0.70074344  1
  Hf  Hf23  1  0.29983798  0.29966377  0.70533467  1
  Hf  Hf24  1  0.10663556  0.69935579  0.30577781  1
  Hf  Hf25  1  0.10272588  0.49892088  0.30196194  1
  Hf  Hf26  1  0.79421344  0.18699770  -0.00487046  1
  Hf  Hf27  1  0.79375707  0.19527314  0.79799979  1
  Hf  Hf28  1  0.90335370  0.69709211  0.08365659  1
  Hf  Hf29  1  0.79470074  0.19089805  0.19985399  1
  Hf  Hf30  1  0.10393747  0.50196267  0.89987052  1
  Hf  Hf31  1  -0.00320228  0.80173184  0.40511001  1
  Hf  Hf32  1  0.89044005  0.69644663  0.50564103  1
  Hf  Hf33  1  0.00753127  0.60237780  0.60389540  1
  Hf  Hf34  1  -0.00417062  0.39970215  0.59035193  1
  Hf  Hf35  1  0.90249963  0.50688542  0.90356255  1
  Hf  Hf36  1  0.09845843  0.89749748  0.90157972  1
  Hf  Hf37  1  0.70123178  0.70355712  0.69988771  1
  Hf  Hf38  1  0.49832441  0.89988790  0.69971674  1
  Hf  Hf39  1  0.20166669  0.00106682  0.00024523  1
  Hf  Hf40  1  0.71030746  0.50467853  0.89929732  1
  Hf  Hf41  1  0.79134963  0.79552531  0.39296082  1
  Hf  Hf42  1  0.80747495  0.80787155  0.80521625  1
  Hf  Hf43  1  0.39832925  0.18690861  0.39324988  1
  Hf  Hf44  1  0.69193039  0.30100006  0.30445673  1
  Hf  Hf45  1  0.50316013  0.29938035  0.29355255  1
  Hf  Hf46  1  0.00039884  -0.00360233  0.40386805  1
  Hf  Hf47  1  0.09086642  0.09769889  0.69537972  1
  Hf  Hf48  1  0.10210094  0.29876389  0.10573732  1
  Hf  Hf49  1  0.89810799  0.09673082  0.30029518  1
  Zr  Zr50  1  0.80344252  0.20162245  0.40372448  1
  Zr  Zr51  1  -0.00678643  0.19715314  -0.00316617  1
  Zr  Zr52  1  0.60932573  0.79565665  0.20907480  1
  Zr  Zr53  1  0.40122254  0.00355266  0.19891620  1
  Zr  Zr54  1  0.40415614  0.80900158  -0.00350357  1
  Zr  Zr55  1  0.59870900  0.60036690  0.59687196  1
  Zr  Zr56  1  0.39775112  0.80654684  0.80215004  1
  Zr  Zr57  1  0.60736893  0.81323585  0.82475207  1
  Zr  Zr58  1  0.20572889  0.00509856  0.60083198  1
  Zr  Zr59  1  0.39776172  0.79801042  0.59495047  1
  Zr  Zr60  1  0.30719047  0.29177362  0.90239419  1
  Zr  Zr61  1  0.11232251  0.50058660  0.71301980  1
  Zr  Zr62  1  0.09751743  0.49850088  0.09417370  1
  Zr  Zr63  1  0.29666769  0.50116170  0.29787251  1
  Zr  Zr64  1  0.60198900  0.40671605  0.19156332  1
  Zr  Zr65  1  0.70288232  0.50149419  0.50096825  1
  Zr  Zr66  1  0.50354593  0.69494264  0.29745882  1
  Zr  Zr67  1  0.20427152  0.00595394  0.19910023  1
  Zr  Zr68  1  0.00823084  0.62034366  0.80502987  1
  Zr  Zr69  1  0.40645983  0.40032752  0.81100278  1
  Zr  Zr70  1  0.39986444  0.59943672  0.40977500  1
  Zr  Zr71  1  0.21194872  0.01163756  0.40007970  1
  Zr  Zr72  1  0.90742222  0.89981419  0.68995771  1
  Zr  Zr73  1  0.29520125  0.69833292  0.70056741  1
  Zr  Zr74  1  0.49964033  0.30030288  0.70290235  1
  Zr  Zr75  1  0.19760066  0.20059916  -0.00125210  1
  Zr  Zr76  1  0.00029999  -0.00841506  0.79714542  1
  Zr  Zr77  1  0.79591142  0.40466236  0.19835908  1
  Zr  Zr78  1  -0.00361429  0.59582911  0.40441302  1
  Zr  Zr79  1  0.10569883  0.89285987  0.30266884  1
  Zr  Zr80  1  0.21024326  0.19275120  0.59709408  1
  Zr  Zr81  1  0.67454041  0.28303855  0.09413930  1
  Zr  Zr82  1  0.69113130  0.89792395  0.49775130  1
  Zr  Zr83  1  0.60535116  0.39637499  0.80320238  1
  Zr  Zr84  1  0.20588320  0.39730084  0.40105836  1
  Zr  Zr85  1  0.29309673  0.49304435  0.09440954  1
  Zr  Zr86  1  -0.00757010  -0.00001388  0.19179313  1
  Zr  Zr87  1  0.69986401  0.09774650  0.49515288  1
  Zr  Zr88  1  0.29835316  0.51113519  0.70917106  1
  Zr  Zr89  1  0.60748678  0.00880857  0.79938748  1
  Zr  Zr90  1  0.49929442  0.69757127  0.90279960  1
  Zr  Zr91  1  0.10030471  0.29996699  0.70392460  1
  Zr  Zr92  1  0.89785868  0.50230321  0.71028572  1
  Zr  Zr93  1  0.60336203  0.19309067  0.61273607  1
  Zr  Zr94  1  0.40028244  0.41150444  0.58836142  1
  Zr  Zr95  1  0.20149349  0.40273149  0.59367202  1
  Zr  Zr96  1  0.59599747  -0.01173354  -0.01497520  1
  Zr  Zr97  1  0.69442054  0.30598952  0.50146075  1
  Zr  Zr98  1  0.10336585  0.11261008  0.29637539  1
  Zr  Zr99  1  0.09593389  0.89383145  0.09240884  1
  Ta  Ta100  1  0.19665422  0.18984267  0.80371914  1
  Ta  Ta101  1  0.19318756  0.61436653  0.00200418  1
  Ta  Ta102  1  -0.00146760  0.39562280  -0.00313364  1
  Ta  Ta103  1  0.30359608  0.89521386  0.09906853  1
  Ta  Ta104  1  0.79515918  0.80095380  0.59861732  1
  Ta  Ta105  1  0.60398340  0.19288543  0.80409219  1
  Ta  Ta106  1  0.09470225  0.10439104  0.50134285  1
  Ta  Ta107  1  0.40579131  0.39462895  0.00535086  1
  Ta  Ta108  1  0.69712149  0.50262621  0.31188851  1
  Ta  Ta109  1  0.29335762  0.90311293  0.89621516  1
  Ta  Ta110  1  0.71145699  0.50294402  0.70146003  1
  Ta  Ta111  1  0.50076003  0.90772234  0.49042813  1
  Ta  Ta112  1  0.09576027  0.10261675  0.09802049  1
  Ta  Ta113  1  0.50534551  0.28688699  0.91517949  1
  Ta  Ta114  1  -0.00454304  0.20004333  0.19711841  1
  Ta  Ta115  1  -0.00522142  0.19692917  0.80567203  1
  Ta  Ta116  1  0.30420592  0.29393614  0.49328020  1
  Ta  Ta117  1  0.89912579  0.50429303  0.09012446  1
  Ta  Ta118  1  0.50589522  0.89859612  0.10589695  1
  Ta  Ta119  1  0.89270110  0.89835157  0.29852492  1
  Ta  Ta120  1  0.19796045  0.60915080  0.19209862  1
  Ta  Ta121  1  0.59716468  0.18832049  0.39489371  1
  Ta  Ta122  1  0.90482743  0.09717347  0.51118193  1
  Ta  Ta123  1  0.39978781  0.40184750  0.39834422  1
  Ta  Ta124  1  0.30107955  0.70644163  0.09781252  1
  Ta  Ta125  1  0.80270876  0.39285900  0.60778739  1
  Ta  Ta126  1  0.89534441  0.08186012  0.90029649  1
  Ta  Ta127  1  0.39964897  0.00140070  0.00034863  1
  Ta  Ta128  1  0.30392449  0.09715793  0.90034584  1
  Ta  Ta129  1  0.39343192  0.59944833  -0.00025880  1
  Ta  Ta130  1  0.29374568  0.90274346  0.70207312  1
  Ta  Ta131  1  0.49581799  0.69820620  0.70265050  1
  Ta  Ta132  1  0.90101482  0.10014009  0.69998568  1
  Ta  Ta133  1  0.50498349  0.49710833  0.30414062  1
  Ta  Ta134  1  0.39918215  0.00889311  0.60058121  1
  Ta  Ta135  1  0.79956728  -0.00388210  0.19413059  1
  Ta  Ta136  1  0.60670912  0.59915481  -0.00040309  1
  Ta  Ta137  1  0.51008571  0.09137781  0.29218740  1
  Ta  Ta138  1  0.10032382  0.30123633  0.29694909  1
  Ta  Ta139  1  0.89908197  0.70439737  0.69557491  1
  Ta  Ta140  1  0.30279018  0.10704937  0.09800331  1
  Ta  Ta141  1  0.80120389  0.80196868  -0.01281264  1
  Ta  Ta142  1  0.80335270  0.20590721  0.60731530  1
  Ta  Ta143  1  0.40302186  0.19981692  0.19556091  1
  Ta  Ta144  1  0.29418607  0.69996732  0.89896796  1
  Ta  Ta145  1  0.80126555  0.00053047  0.39793779  1
  Ta  Ta146  1  -0.00408156  0.40110975  0.20089279  1
  Ta  Ta147  1  0.10243732  0.29488094  0.49468476  1
  Ta  Ta148  1  0.70155415  0.89629953  0.09324150  1
  Ta  Ta149  1  0.09495034  0.09535954  0.90048042  1
  Ti  Ti150  1  0.80200564  0.80104201  0.19889578  1
  Ti  Ti151  1  0.29501043  0.70217872  0.29848709  1
  Ti  Ti152  1  0.39961442  0.39538822  0.19694830  1
  Ti  Ti153  1  0.70026389  0.90074825  0.70293923  1
  Ti  Ti154  1  0.18956994  0.79487625  0.79710522  1
  Ti  Ti155  1  0.59954366  0.79171192  0.40171015  1
  Ti  Ti156  1  0.80389861  0.61880060  0.80911193  1
  Ti  Ti157  1  0.29616040  0.51490819  0.50316059  1
  Ti  Ti158  1  -0.00062974  0.79806306  0.80431866  1
  Ti  Ti159  1  0.69025251  0.29270023  0.90363769  1
  Ti  Ti160  1  0.20143765  0.39516706  0.20046461  1
  Ti  Ti161  1  0.89646194  0.90224706  0.50214464  1
  Ti  Ti162  1  0.79512753  0.38678500  0.79720925  1
  Ti  Ti163  1  0.20230426  0.00396877  0.79722921  1
  Ti  Ti164  1  0.88873768  0.51043583  0.50959293  1
  Ti  Ti165  1  0.30385066  0.29442950  0.10120378  1
  Ti  Ti166  1  0.10503055  0.89299641  0.69128505  1
  Ti  Ti167  1  0.59987525  0.60074487  0.40277707  1
  Ti  Ti168  1  0.19851778  0.79548274  -0.00135692  1
  Ti  Ti169  1  0.19613416  0.61251687  0.59814679  1
  Ti  Ti170  1  -0.00482432  0.20503528  0.59896957  1
  Ti  Ti171  1  0.19734295  0.39038348  -0.00823132  1
  Ti  Ti172  1  0.39907767  0.00367295  0.79899103  1
  Ti  Ti173  1  0.50218345  0.90310041  0.30113046  1
  Ti  Ti174  1  0.40315873  0.18981007  0.79795622  1
  Ti  Ti175  1  0.20667365  0.79284563  0.41258588  1
  Ti  Ti176  1  0.59671662  0.40585525  -0.00027581  1
  Ti  Ti177  1  0.00322415  0.38861008  0.81079560  1
  Ti  Ti178  1  0.89646554  0.90123577  0.08477989  1
  Ti  Ti179  1  0.89655961  0.29920141  0.89929246  1
  Ti  Ti180  1  0.60908854  0.59671443  0.19916122  1
  Ti  Ti181  1  -0.00186931  0.39800782  0.40350674  1
  Ti  Ti182  1  0.90272430  0.29833127  0.70427873  1
  Ti  Ti183  1  0.49360072  0.10358173  0.90352965  1
  Ti  Ti184  1  0.89846429  0.50140512  0.30042957  1
  Ti  Ti185  1  0.00617787  0.79762512  0.59682222  1
  Ti  Ti186  1  0.10817293  0.50491294  0.49429578  1
  Ti  Ti187  1  0.10893659  0.70303146  0.50196866  1
  Ti  Ti188  1  0.49634490  0.50502085  0.90490954  1
  Ti  Ti189  1  0.10376078  0.90093618  0.50791658  1
  Ti  Ti190  1  0.70446615  0.69266805  0.49966851  1
  Ti  Ti191  1  0.29775833  0.29319012  0.29273352  1
  Ti  Ti192  1  0.89450201  0.69759669  0.30234491  1
  Ti  Ti193  1  0.59859600  0.79931983  0.59805210  1
  Ti  Ti194  1  0.90413630  0.30266617  0.29347485  1
  Ti  Ti195  1  0.60285822  0.40560323  0.60599113  1
  Ti  Ti196  1  0.20683388  0.19796934  0.39804565  1
  Ti  Ti197  1  0.49987639  0.69663595  0.50680223  1
  Ti  Ti198  1  0.19941560  0.79327096  0.19014169  1
  Ti  Ti199  1  0.50462830  0.10765228  0.09754894  1
  Mo  Mo200  1  -0.00509150  0.79816123  -0.00958694  1
  Mo  Mo201  1  0.72118898  0.91002978  0.90291766  1
  Mo  Mo202  1  0.49278978  0.29822664  0.09636471  1
  Mo  Mo203  1  0.70594730  0.70110402  0.90338007  1
  Mo  Mo204  1  0.80114455  -0.00022682  0.80047597  1
  Mo  Mo205  1  0.19526271  0.38130923  0.81252539  1
  Mo  Mo206  1  0.20188538  0.60770498  0.40537640  1
  Mo  Mo207  1  0.48403819  0.91140094  0.89986227  1
  Mo  Mo208  1  0.49962872  0.09001149  0.48702157  1
  Mo  Mo209  1  0.49415110  0.09777800  0.71345175  1
  Mo  Mo210  1  0.20671717  0.20647955  0.19921612  1
  Mo  Mo211  1  0.69845853  0.09608260  0.29573368  1
  Mo  Mo212  1  0.59733273  0.00147932  0.39556739  1
  Mo  Mo213  1  0.29178607  0.69882502  0.50124924  1
  Mo  Mo214  1  0.90737900  0.89926718  0.90665231  1
  Mo  Mo215  1  0.30466322  0.09874394  0.49013282  1
  Mo  Mo216  1  0.70081338  0.68969829  0.30753871  1
  Mo  Mo217  1  0.80076965  0.60252357  0.60824417  1
  Mo  Mo218  1  0.70616041  0.10400307  0.70193215  1
  Mo  Mo219  1  0.70599231  0.09732550  0.89907054  1
  Mo  Mo220  1  0.09798104  0.71534360  0.69495372  1
  Mo  Mo221  1  0.60570496  0.80388837  0.00136738  1
  Mo  Mo222  1  0.40103900  0.60497254  0.80846112  1
  Mo  Mo223  1  0.40037822  0.60579013  0.59883415  1
  Mo  Mo224  1  -0.00282264  -0.00114499  -0.00105725  1
  Mo  Mo225  1  0.80367434  -0.00528077  0.00264496  1
  Mo  Mo226  1  0.19590756  0.62122032  0.80866543  1
  Mo  Mo227  1  0.40784390  -0.00159956  0.39695872  1
  Mo  Mo228  1  0.69824568  0.50858874  0.09377344  1
  Mo  Mo229  1  0.59753467  -0.00359641  0.19441759  1
  Mo  Mo230  1  0.30533745  0.10884919  0.29045510  1
  Mo  Mo231  1  0.79944994  0.60281979  -0.00541943  1
  Mo  Mo232  1  0.19488834  0.80612900  0.59915213  1
  Mo  Mo233  1  0.40249598  0.19400708  0.00578859  1
  Mo  Mo234  1  0.90418834  0.70367019  0.89914774  1
  Mo  Mo235  1  0.10052350  0.70887180  0.90615414  1
  Mo  Mo236  1  0.70270951  0.30606092  0.70232802  1
  Mo  Mo237  1  0.39793734  0.80271342  0.19915786  1
  Mo  Mo238  1  0.10181173  0.70293819  0.09753428  1
  Mo  Mo239  1  0.90462668  0.29846231  0.51202877  1
  Mo  Mo240  1  0.89779288  0.09326283  0.09820387  1
  Mo  Mo241  1  0.59495636  0.18462642  -0.00859056  1
  Mo  Mo242  1  0.00224725  0.60051764  -0.00076127  1
  Mo  Mo243  1  0.59416372  0.19164248  0.20226031  1
  Mo  Mo244  1  0.00293538  -0.00173965  0.59338752  1
  Mo  Mo245  1  0.50262277  0.49845299  0.49565852  1
  Mo  Mo246  1  0.09586512  0.29768010  0.89709229  1
  Mo  Mo247  1  0.30189140  0.09491753  0.71604856  1
  Mo  Mo248  1  0.79877553  0.59829263  0.39591811  1
  Mo  Mo249  1  0.59245969  0.40638406  0.39949081  1
