# generated using pymatgen
data_HfZrTaTiMo
_symmetry_space_group_name_H-M   'P 1'
_cell_length_a   16.88051307
_cell_length_b   16.88744914
_cell_length_c   16.88254789
_cell_angle_alpha   89.94760692
_cell_angle_beta   89.99175455
_cell_angle_gamma   89.96800824
_symmetry_Int_Tables_number   1
_chemical_formula_structural   HfZrTaTiMo
_chemical_formula_sum   'Hf50 Zr50 Ta50 Ti50 Mo50'
_cell_volume   4812.68495508
_cell_formula_units_Z   50
loop_
 _symmetry_equiv_pos_site_id
 _symmetry_equiv_pos_as_xyz
  1  'x, y, z'
loop_
 _atom_site_type_symbol
 _atom_site_label
 _atom_site_symmetry_multiplicity
 _atom_site_fract_x
 _atom_site_fract_y
 _atom_site_fract_z
 _atom_site_occupancy
  Hf  Hf0  1  0.80720995  -0.00032009  0.59683069  1
  Hf  Hf1  1  0.09400018  0.31693288  0.69505545  1
  Hf  Hf2  1  0.10145118  0.68990768  0.10487443  1
  Hf  Hf3  1  0.20762900  0.79200789  0.80869417  1
  Hf  Hf4  1  0.39827008  0.79605805  0.80236578  1
  Hf  Hf5  1  0.00094581  0.80429945  0.00672987  1
  Hf  Hf6  1  0.50012438  0.10016808  0.90111504  1
  Hf  Hf7  1  0.40202880  0.20897998  0.39829237  1
  Hf  Hf8  1  0.60912302  0.01163902  0.18611429  1
  Hf  Hf9  1  0.70668974  0.68399414  0.90237641  1
  Hf  Hf10  1  0.09437349  0.68359158  0.30415372  1
  Hf  Hf11  1  0.60310196  0.18535083  0.02550315  1
  Hf  Hf12  1  0.59780659  0.40353892  0.60064985  1
  Hf  Hf13  1  0.19935831  0.21032382  0.19955167  1
  Hf  Hf14  1  0.49611937  0.69740304  0.29857489  1
  Hf  Hf15  1  0.60947482  0.00052217  0.00623996  1
  Hf  Hf16  1  0.51514479  0.10826829  0.50100516  1
  Hf  Hf17  1  0.59772220  -0.00215836  0.79148877  1
  Hf  Hf18  1  0.89476174  0.31312494  0.69300607  1
  Hf  Hf19  1  0.49570304  0.69087168  0.10433738  1
  Hf  Hf20  1  0.79917675  0.20337698  0.59849676  1
  Hf  Hf21  1  0.00857130  0.19782536  0.60090145  1
  Hf  Hf22  1  0.39335838  0.80522506  0.19379730  1
  Hf  Hf23  1  0.79945262  0.19809003  0.00638408  1
  Hf  Hf24  1  0.60383600  0.79532585  0.40426011  1
  Hf  Hf25  1  0.09663991  0.10335581  0.10097478  1
  Hf  Hf26  1  0.19612730  0.00748045  0.59121803  1
  Hf  Hf27  1  0.69304398  0.10332865  0.49372559  1
  Hf  Hf28  1  0.50090728  0.68464210  0.69573831  1
  Hf  Hf29  1  0.70648947  0.89341207  0.69339809  1
  Hf  Hf30  1  0.90305873  0.10149650  0.70191365  1
  Hf  Hf31  1  0.50855817  0.68385817  0.49739647  1
  Hf  Hf32  1  0.49391894  0.50249351  0.50592304  1
  Hf  Hf33  1  0.40044620  0.39974065  0.79497868  1
  Hf  Hf34  1  0.71045090  0.89386402  0.49354081  1
  Hf  Hf35  1  0.00270433  0.80145353  0.20699640  1
  Hf  Hf36  1  0.40260624  0.40738826  0.00771465  1
  Hf  Hf37  1  0.40361127  0.00083811  0.41544864  1
  Hf  Hf38  1  0.90682557  0.10697340  0.49302659  1
  Hf  Hf39  1  0.90706406  0.89051545  0.69539984  1
  Hf  Hf40  1  0.50340640  0.90454773  0.30569100  1
  Hf  Hf41  1  0.20241755  0.20172260  0.59583999  1
  Hf  Hf42  1  0.89759165  0.89262251  0.31325236  1
  Hf  Hf43  1  0.30504273  0.50329615  0.68903388  1
  Hf  Hf44  1  0.29794200  0.89238290  0.68842906  1
  Hf  Hf45  1  0.20556159  0.59479362  -0.00221547  1
  Hf  Hf46  1  0.90054302  0.69266971  0.90238764  1
  Hf  Hf47  1  0.80906142  0.00877642  0.39636163  1
  Hf  Hf48  1  0.00058226  0.40527065  0.20175320  1
  Hf  Hf49  1  0.90003419  0.10117671  0.89880412  1
  Zr  Zr50  1  0.19039032  0.81267150  0.19502951  1
  Zr  Zr51  1  0.70343228  0.69145180  0.10127948  1
  Zr  Zr52  1  0.50140145  0.69267865  0.90328580  1
  Zr  Zr53  1  0.70227214  0.30473482  0.50214410  1
  Zr  Zr54  1  0.30471952  0.10094995  0.69600936  1
  Zr  Zr55  1  0.50787782  0.10187449  0.29889789  1
  Zr  Zr56  1  -0.00637659  -0.00468710  0.00351991  1
  Zr  Zr57  1  0.20035324  -0.01622260  0.00174709  1
  Zr  Zr58  1  0.79484031  0.00225629  0.00794005  1
  Zr  Zr59  1  0.70780180  0.49409878  0.09698098  1
  Zr  Zr60  1  0.00468865  -0.01009713  0.20682401  1
  Zr  Zr61  1  0.59711323  0.58423432  -0.00230895  1
  Zr  Zr62  1  0.60634439  0.80640144  0.19634914  1
  Zr  Zr63  1  0.38684640  0.80465716  -0.00271359  1
  Zr  Zr64  1  0.69278223  0.51831711  0.49960485  1
  Zr  Zr65  1  0.50396026  0.30052639  0.90157376  1
  Zr  Zr66  1  0.79870081  0.81096034  0.00349021  1
  Zr  Zr67  1  0.41168250  0.79948326  0.58837475  1
  Zr  Zr68  1  0.39602064  0.40098755  0.20594948  1
  Zr  Zr69  1  0.00266313  0.20979923  0.80629629  1
  Zr  Zr70  1  0.08809578  0.50608596  0.49665183  1
  Zr  Zr71  1  0.29381919  0.09885239  0.30350404  1
  Zr  Zr72  1  0.08976655  0.50353555  0.69171374  1
  Zr  Zr73  1  0.10027825  0.30736056  0.48966935  1
  Zr  Zr74  1  0.09973094  0.48979629  0.89662471  1
  Zr  Zr75  1  -0.01284465  0.20885940  0.37809078  1
  Zr  Zr76  1  0.80252232  0.79024124  0.79442280  1
  Zr  Zr77  1  0.79610288  0.40516272  0.39376251  1
  Zr  Zr78  1  0.40150450  0.20480503  0.01060691  1
  Zr  Zr79  1  0.39888998  0.20765710  0.59384164  1
  Zr  Zr80  1  0.19626955  0.20723271  0.79479064  1
  Zr  Zr81  1  0.19463841  0.20751467  -0.00539967  1
  Zr  Zr82  1  0.10182783  0.10067487  0.30010385  1
  Zr  Zr83  1  0.38967875  0.59625900  0.39680578  1
  Zr  Zr84  1  0.60006233  0.79767344  0.79447971  1
  Zr  Zr85  1  0.60462329  0.80988683  0.00428136  1
  Zr  Zr86  1  0.29945371  0.90116008  0.30738588  1
  Zr  Zr87  1  0.89712410  0.68888418  0.10627368  1
  Zr  Zr88  1  0.40296911  0.20780908  0.20066302  1
  Zr  Zr89  1  0.29902499  0.31606751  0.49253340  1
  Zr  Zr90  1  0.70373688  0.11491913  0.30223305  1
  Zr  Zr91  1  0.69743476  0.30207412  0.90698174  1
  Zr  Zr92  1  0.29091269  0.69672871  0.29795531  1
  Zr  Zr93  1  0.19702941  -0.00169441  0.79950018  1
  Zr  Zr94  1  0.10021026  0.88519655  0.69733739  1
  Zr  Zr95  1  0.68960896  0.10235544  0.68849959  1
  Zr  Zr96  1  0.20018760  0.60249528  0.79791368  1
  Zr  Zr97  1  0.30378289  0.10128684  0.90159725  1
  Zr  Zr98  1  0.40589554  -0.00801980  0.79260475  1
  Zr  Zr99  1  0.00387562  0.58488796  0.00499386  1
  Ta  Ta100  1  0.70522652  0.29839007  0.11442521  1
  Ta  Ta101  1  0.70559231  0.49798781  0.69772117  1
  Ta  Ta102  1  0.80306118  0.40293557  0.20587304  1
  Ta  Ta103  1  0.09478478  0.30634595  0.09859806  1
  Ta  Ta104  1  -0.00122824  0.20981214  0.00028353  1
  Ta  Ta105  1  0.60836320  0.78888587  0.59762718  1
  Ta  Ta106  1  -0.00592647  0.40550619  0.39519705  1
  Ta  Ta107  1  0.00755395  0.78318391  0.59569137  1
  Ta  Ta108  1  0.79903141  0.59622061  0.21007948  1
  Ta  Ta109  1  -0.00539066  0.59957324  0.79716458  1
  Ta  Ta110  1  0.09334609  0.89149933  0.89440696  1
  Ta  Ta111  1  0.19582481  0.61051098  0.59187646  1
  Ta  Ta112  1  0.50136639  0.30375056  0.69300981  1
  Ta  Ta113  1  0.29673471  0.09486482  0.10434950  1
  Ta  Ta114  1  0.29863592  0.89237873  0.49877282  1
  Ta  Ta115  1  0.79382586  0.20424233  0.79937154  1
  Ta  Ta116  1  0.59788159  0.40625936  0.39214962  1
  Ta  Ta117  1  0.89956951  0.31025554  0.49979482  1
  Ta  Ta118  1  0.60103041  0.39874020  0.00618289  1
  Ta  Ta119  1  0.40030856  0.20985693  0.79290256  1
  Ta  Ta120  1  0.58802089  -0.02126718  0.59344941  1
  Ta  Ta121  1  0.89904374  0.30407025  0.10299466  1
  Ta  Ta122  1  -0.01130621  0.40401083  0.80728011  1
  Ta  Ta123  1  0.89690089  0.50034249  0.69491887  1
  Ta  Ta124  1  0.50009008  0.90409070  0.90272433  1
  Ta  Ta125  1  0.80150446  0.00134670  0.79927486  1
  Ta  Ta126  1  0.90347192  0.51061671  0.30274268  1
  Ta  Ta127  1  0.00601868  0.79332707  0.40542480  1
  Ta  Ta128  1  0.88621797  0.49720822  0.90584858  1
  Ta  Ta129  1  0.69716553  0.30591038  0.70093441  1
  Ta  Ta130  1  0.79594215  0.40134786  0.80283985  1
  Ta  Ta131  1  0.90742733  0.88854775  0.50237576  1
  Ta  Ta132  1  0.09320987  0.09683010  0.89948557  1
  Ta  Ta133  1  0.70291116  0.90445402  0.30576786  1
  Ta  Ta134  1  0.09327496  0.70158603  0.89742640  1
  Ta  Ta135  1  0.39175739  0.60058247  0.80609014  1
  Ta  Ta136  1  0.38931925  0.58753996  0.19575424  1
  Ta  Ta137  1  0.59738780  0.22666352  0.39271520  1
  Ta  Ta138  1  0.00955442  0.00168146  0.59665060  1
  Ta  Ta139  1  0.00215908  -0.00290743  0.79535602  1
  Ta  Ta140  1  0.90634022  0.11317737  0.11748014  1
  Ta  Ta141  1  0.79762572  0.79746595  0.21102449  1
  Ta  Ta142  1  0.19498894  0.79322253  0.40963988  1
  Ta  Ta143  1  0.59652949  0.20306118  0.79128282  1
  Ta  Ta144  1  0.20289112  0.40617390  0.59652212  1
  Ta  Ta145  1  0.29760579  0.30806469  0.89803688  1
  Ta  Ta146  1  0.90124080  0.69313646  0.49637399  1
  Ta  Ta147  1  0.29726491  0.69359472  0.10106036  1
  Ta  Ta148  1  0.40803063  -0.00505102  0.59498823  1
  Ta  Ta149  1  0.30108244  0.69749974  0.68710930  1
  Ti  Ti150  1  0.49988388  0.49829331  0.89526660  1
  Ti  Ti151  1  0.19797340  0.40235200  0.00405451  1
  Ti  Ti152  1  0.89400899  0.89914994  0.11211741  1
  Ti  Ti153  1  0.89542080  0.49704649  0.09973873  1
  Ti  Ti154  1  0.19981930  0.60071526  0.41000714  1
  Ti  Ti155  1  0.49484394  0.90725292  0.09798598  1
  Ti  Ti156  1  0.60199776  0.40487567  0.80096265  1
  Ti  Ti157  1  0.60718372  0.58811751  0.79592385  1
  Ti  Ti158  1  0.10559778  0.30817108  0.30211540  1
  Ti  Ti159  1  0.89292401  0.30679125  0.90598782  1
  Ti  Ti160  1  0.79644410  0.60598751  0.60400011  1
  Ti  Ti161  1  0.80091730  0.78269995  0.59399890  1
  Ti  Ti162  1  0.80038766  0.59175182  0.79587596  1
  Ti  Ti163  1  0.20291917  0.79863913  -0.00133713  1
  Ti  Ti164  1  0.39335251  0.59273212  0.00193940  1
  Ti  Ti165  1  0.60757150  0.59422617  0.20974866  1
  Ti  Ti166  1  0.49667174  0.50435783  0.69588057  1
  Ti  Ti167  1  0.81603373  0.21039263  0.21967165  1
  Ti  Ti168  1  0.39721627  0.00052175  0.19250493  1
  Ti  Ti169  1  0.69805573  0.10272204  0.89134079  1
  Ti  Ti170  1  0.70256580  0.69795130  0.30896788  1
  Ti  Ti171  1  0.41072718  0.39847426  0.39432003  1
  Ti  Ti172  1  0.80349987  0.00426159  0.20435248  1
  Ti  Ti173  1  0.30119703  0.49424826  0.89894261  1
  Ti  Ti174  1  0.28540885  0.30929444  0.31016852  1
  Ti  Ti175  1  0.09737651  0.50490834  0.30315766  1
  Ti  Ti176  1  0.90430058  0.89652908  0.88788782  1
  Ti  Ti177  1  0.90242920  0.69450498  0.30654696  1
  Ti  Ti178  1  0.10038436  0.89223899  0.50228034  1
  Ti  Ti179  1  0.29324254  0.30775550  0.09816704  1
  Ti  Ti180  1  0.00609393  -0.00536113  0.40304548  1
  Ti  Ti181  1  0.19535983  -0.01125908  0.19547866  1
  Ti  Ti182  1  0.89841617  0.50342772  0.50687375  1
  Ti  Ti183  1  0.28757484  0.49196507  0.30741173  1
  Ti  Ti184  1  0.50452438  0.49808890  0.11222678  1
  Ti  Ti185  1  0.39395734  -0.00531999  0.00342277  1
  Ti  Ti186  1  0.79702939  0.60559206  0.39963786  1
  Ti  Ti187  1  0.90719532  0.69309127  0.69603996  1
  Ti  Ti188  1  0.20321365  0.39664901  0.79571459  1
  Ti  Ti189  1  0.51310404  0.30462196  0.11227544  1
  Ti  Ti190  1  0.30041782  0.49974024  0.50106986  1
  Ti  Ti191  1  0.10402398  0.10959451  0.48449446  1
  Ti  Ti192  1  0.50319168  0.10730055  0.69021908  1
  Ti  Ti193  1  0.19757541  -0.00340323  0.40651715  1
  Ti  Ti194  1  -0.00172437  0.39623385  -0.00113243  1
  Ti  Ti195  1  0.60812990  0.39626359  0.21273929  1
  Ti  Ti196  1  0.70217638  0.90260393  0.89111266  1
  Ti  Ti197  1  0.20058368  0.58077437  0.19154513  1
  Ti  Ti198  1  0.50484937  0.50445159  0.29966606  1
  Ti  Ti199  1  0.19575438  0.40683502  0.19569488  1
  Mo  Mo200  1  0.70746359  0.69771664  0.50202158  1
  Mo  Mo201  1  -0.00900992  0.60368257  0.60149459  1
  Mo  Mo202  1  0.72503163  0.10998523  0.11647730  1
  Mo  Mo203  1  0.50446694  0.88932083  0.69487397  1
  Mo  Mo204  1  0.10275934  0.49017076  0.10184299  1
  Mo  Mo205  1  -0.00917233  0.40638653  0.59042936  1
  Mo  Mo206  1  0.29731699  0.90320536  0.10111185  1
  Mo  Mo207  1  0.09503105  0.09393879  0.70250909  1
  Mo  Mo208  1  0.70270776  0.30732779  0.29775080  1
  Mo  Mo209  1  0.60235321  0.59904742  0.38438872  1
  Mo  Mo210  1  0.19911015  0.79322663  0.59175789  1
  Mo  Mo211  1  0.29561705  0.70108437  0.49949689  1
  Mo  Mo212  1  0.60480080  0.59820906  0.61383833  1
  Mo  Mo213  1  0.60524493  -0.00947996  0.40219104  1
  Mo  Mo214  1  -0.00507775  0.59277249  0.20319206  1
  Mo  Mo215  1  0.09880970  0.89381733  0.09080614  1
  Mo  Mo216  1  0.00189517  0.21339978  0.19561548  1
  Mo  Mo217  1  0.29703952  0.49670467  0.10096813  1
  Mo  Mo218  1  0.09762149  0.69608237  0.49972179  1
  Mo  Mo219  1  0.48181681  0.09062791  0.10002605  1
  Mo  Mo220  1  0.00141891  0.79125275  0.79856200  1
  Mo  Mo221  1  0.50537688  0.31112081  0.29770881  1
  Mo  Mo222  1  0.50009430  0.31100817  0.49563562  1
  Mo  Mo223  1  0.29874165  0.69255369  0.90654942  1
  Mo  Mo224  1  0.09859727  0.30913334  0.90329431  1
  Mo  Mo225  1  0.80501504  0.78925084  0.39965573  1
  Mo  Mo226  1  0.59723202  0.21319998  0.59942151  1
  Mo  Mo227  1  0.70134974  0.50668414  0.29822094  1
  Mo  Mo228  1  0.39999560  0.40409990  0.60148473  1
  Mo  Mo229  1  0.09841093  0.69583676  0.69924723  1
  Mo  Mo230  1  0.79854700  0.40840673  0.60211264  1
  Mo  Mo231  1  0.30093758  0.89499658  0.90056828  1
  Mo  Mo232  1  0.39545998  0.80002190  0.39967658  1
  Mo  Mo233  1  0.71505870  0.90637480  0.11780969  1
  Mo  Mo234  1  0.80208085  0.58810219  0.00083984  1
  Mo  Mo235  1  0.80149350  0.39404192  0.00500012  1
  Mo  Mo236  1  0.80051457  0.20808667  0.39768875  1
  Mo  Mo237  1  0.30012535  0.31023428  0.69946370  1
  Mo  Mo238  1  0.89787788  0.31378983  0.29813072  1
  Mo  Mo239  1  0.90323409  0.09822958  0.29772721  1
  Mo  Mo240  1  0.09985426  0.89903491  0.32283765  1
  Mo  Mo241  1  -0.00958990  0.59945264  0.40174188  1
  Mo  Mo242  1  0.69999153  0.49255687  0.89215525  1
  Mo  Mo243  1  0.50414606  0.89169966  0.49595202  1
  Mo  Mo244  1  0.70361846  0.68705500  0.69650252  1
  Mo  Mo245  1  0.19304418  0.41211143  0.39441283  1
  Mo  Mo246  1  0.20196335  0.20387358  0.39657726  1
  Mo  Mo247  1  0.39220518  0.60011456  0.59897370  1
  Mo  Mo248  1  0.60118631  0.20860746  0.20062537  1
  Mo  Mo249  1  0.29733142  0.09218993  0.49700433  1
