# generated using pymatgen
data_HfZrTaTiMo
_symmetry_space_group_name_H-M   'P 1'
_cell_length_a   16.88670906
_cell_length_b   16.88892011
_cell_length_c   16.88327977
_cell_angle_alpha   90.01405124
_cell_angle_beta   89.96913261
_cell_angle_gamma   89.99073200
_symmetry_Int_Tables_number   1
_chemical_formula_structural   HfZrTaTiMo
_chemical_formula_sum   'Hf50 Zr50 Ta50 Ti50 Mo50'
_cell_volume   4815.08144604
_cell_formula_units_Z   50
loop_
 _symmetry_equiv_pos_site_id
 _symmetry_equiv_pos_as_xyz
  1  'x, y, z'
loop_
 _atom_site_type_symbol
 _atom_site_label
 _atom_site_symmetry_multiplicity
 _atom_site_fract_x
 _atom_site_fract_y
 _atom_site_fract_z
 _atom_site_occupancy
  Hf  Hf0  1  0.70008410  0.29534277  0.29012860  1
  Hf  Hf1  1  0.31420877  0.50183949  0.88470978  1
  Hf  Hf2  1  0.20232156  0.20042668  0.60274038  1
  Hf  Hf3  1  -0.00021148  0.40079713  0.20015668  1
  Hf  Hf4  1  0.30135270  0.09383277  0.30572322  1
  Hf  Hf5  1  0.30573292  0.69318560  0.90152628  1
  Hf  Hf6  1  0.69923041  0.90755111  0.89669488  1
  Hf  Hf7  1  0.89896606  0.09523551  0.30323905  1
  Hf  Hf8  1  0.09271813  0.70549350  0.69679607  1
  Hf  Hf9  1  0.20827863  0.40348679  -0.00240787  1
  Hf  Hf10  1  0.09786035  0.30294728  0.50317431  1
  Hf  Hf11  1  0.19943960  0.19587500  0.80826689  1
  Hf  Hf12  1  0.51368965  0.08889914  0.69903813  1
  Hf  Hf13  1  0.09212742  0.90224791  0.50172051  1
  Hf  Hf14  1  0.70401046  0.09082934  0.50887118  1
  Hf  Hf15  1  0.09681044  0.90186675  0.10208356  1
  Hf  Hf16  1  0.10519139  0.08873509  0.70489419  1
  Hf  Hf17  1  0.79214238  0.60861968  0.40713630  1
  Hf  Hf18  1  -0.01070411  0.00300376  0.79782659  1
  Hf  Hf19  1  0.20025818  0.40556235  0.79397865  1
  Hf  Hf20  1  0.50862426  0.90004071  0.69914089  1
  Hf  Hf21  1  0.00383206  0.39759711  0.38967672  1
  Hf  Hf22  1  -0.00184113  0.19856884  0.01021594  1
  Hf  Hf23  1  0.30661093  0.69363950  0.30011661  1
  Hf  Hf24  1  0.79638000  0.39754881  0.40034541  1
  Hf  Hf25  1  -0.00511207  0.59875219  0.00423611  1
  Hf  Hf26  1  0.09689618  0.09033488  0.49375180  1
  Hf  Hf27  1  0.30123352  0.68938269  0.71210095  1
  Hf  Hf28  1  0.00118555  0.40992721  0.79839510  1
  Hf  Hf29  1  0.50529231  0.69669951  0.49529675  1
  Hf  Hf30  1  0.50216689  0.29388540  0.29038655  1
  Hf  Hf31  1  0.10518627  0.50211683  0.49525889  1
  Hf  Hf32  1  0.20742712  0.59686219  0.19087192  1
  Hf  Hf33  1  0.89649557  0.70480811  0.69142295  1
  Hf  Hf34  1  0.29929836  0.50308848  0.48829036  1
  Hf  Hf35  1  0.10791310  0.30432051  0.10482372  1
  Hf  Hf36  1  0.09786131  0.90214623  0.30929772  1
  Hf  Hf37  1  0.60643661  -0.00467542  0.39976414  1
  Hf  Hf38  1  0.89557388  0.29834429  0.89783851  1
  Hf  Hf39  1  0.40201858  0.38993036  0.39832199  1
  Hf  Hf40  1  0.60285790  0.19958156  0.59859148  1
  Hf  Hf41  1  0.61781235  0.80323124  0.39972874  1
  Hf  Hf42  1  0.50325011  0.09678798  0.29369490  1
  Hf  Hf43  1  0.70490688  0.90838994  0.10489289  1
  Hf  Hf44  1  -0.00790477  0.79784582  -0.00655589  1
  Hf  Hf45  1  0.10860956  0.70000615  0.29893999  1
  Hf  Hf46  1  0.59793948  0.58699783  0.18775013  1
  Hf  Hf47  1  0.09663737  0.91752658  0.89995699  1
  Hf  Hf48  1  0.49815880  0.69166207  0.90028701  1
  Hf  Hf49  1  0.50689136  0.90656243  0.09985697  1
  Zr  Zr50  1  0.69917113  0.70492310  0.69793471  1
  Zr  Zr51  1  0.30426170  0.30462513  0.70584212  1
  Zr  Zr52  1  0.29232198  0.91090519  0.69661337  1
  Zr  Zr53  1  0.39120500  0.79872543  0.59360825  1
  Zr  Zr54  1  0.89519110  0.30357138  0.70373842  1
  Zr  Zr55  1  0.20544808  0.01190874  0.00902338  1
  Zr  Zr56  1  0.19887523  0.21059346  0.39158550  1
  Zr  Zr57  1  0.51044453  0.10215880  0.89629594  1
  Zr  Zr58  1  0.39539861  0.00480827  0.18626946  1
  Zr  Zr59  1  0.59863273  0.20373781  0.41235783  1
  Zr  Zr60  1  -0.00352087  0.40782894  0.00385489  1
  Zr  Zr61  1  0.20378922  0.60388440  0.59762110  1
  Zr  Zr62  1  0.89170934  0.70093512  0.10615122  1
  Zr  Zr63  1  0.00023247  0.80084574  0.20023860  1
  Zr  Zr64  1  0.20358322  0.80043797  0.00935894  1
  Zr  Zr65  1  0.59396551  0.39686145  0.59767711  1
  Zr  Zr66  1  0.30262872  0.90580963  0.90149317  1
  Zr  Zr67  1  0.50010786  0.70065199  0.69992586  1
  Zr  Zr68  1  0.80826159  0.20440412  0.17737359  1
  Zr  Zr69  1  0.29839694  0.90315020  0.30421816  1
  Zr  Zr70  1  0.69985227  0.69868758  0.09968761  1
  Zr  Zr71  1  -0.00495147  0.19220287  0.61025875  1
  Zr  Zr72  1  0.79538357  0.60569075  -0.00458012  1
  Zr  Zr73  1  0.40338515  0.19995685  0.59129607  1
  Zr  Zr74  1  0.90438532  0.10419514  0.90111894  1
  Zr  Zr75  1  0.79464171  0.60600971  0.80558482  1
  Zr  Zr76  1  0.40519264  0.58218095  0.01115482  1
  Zr  Zr77  1  0.79045431  0.80738207  0.22038264  1
  Zr  Zr78  1  0.60621389  0.79743984  -0.00551076  1
  Zr  Zr79  1  0.20926756  0.79619431  0.41116572  1
  Zr  Zr80  1  -0.00196994  0.59222058  0.39342175  1
  Zr  Zr81  1  0.09614725  0.29538130  0.89911527  1
  Zr  Zr82  1  -0.01081970  0.60182057  0.80741840  1
  Zr  Zr83  1  0.49767676  0.70199697  0.09924951  1
  Zr  Zr84  1  0.50097112  0.69203248  0.30371384  1
  Zr  Zr85  1  0.40328208  0.19948520  0.80522499  1
  Zr  Zr86  1  0.20347347  0.19440554  0.19333421  1
  Zr  Zr87  1  0.50252775  0.30056454  0.70872050  1
  Zr  Zr88  1  0.89654844  0.29679184  0.29477123  1
  Zr  Zr89  1  0.49751040  0.50919381  0.49353153  1
  Zr  Zr90  1  0.08271941  0.70624550  0.49776391  1
  Zr  Zr91  1  0.90036349  0.70225479  0.30713468  1
  Zr  Zr92  1  0.60037756  0.39383286  0.40317092  1
  Zr  Zr93  1  0.89319298  0.49877602  0.50852449  1
  Zr  Zr94  1  0.19700940  0.80383997  0.80043725  1
  Zr  Zr95  1  0.70336267  0.09702947  0.28721130  1
  Zr  Zr96  1  0.89956674  0.29933164  0.50948560  1
  Zr  Zr97  1  0.10661044  0.69171021  0.89887260  1
  Zr  Zr98  1  0.29528230  0.08584687  0.49697390  1
  Zr  Zr99  1  0.69222351  0.49443954  0.91079456  1
  Ta  Ta100  1  0.79431145  0.19226211  0.79770285  1
  Ta  Ta101  1  0.20094230  0.40406127  0.60406944  1
  Ta  Ta102  1  0.89931698  0.89740307  0.49583347  1
  Ta  Ta103  1  0.59665982  0.39840652  0.80839993  1
  Ta  Ta104  1  0.40186315  0.00047910  0.80147968  1
  Ta  Ta105  1  0.40080286  0.19949668  0.18912134  1
  Ta  Ta106  1  0.60011801  0.40027106  0.19069465  1
  Ta  Ta107  1  0.69840104  0.49702979  0.69749855  1
  Ta  Ta108  1  0.50242812  0.90399232  0.50111361  1
  Ta  Ta109  1  0.60012700  0.59446527  0.80458091  1
  Ta  Ta110  1  -0.01237783  -0.00228807  0.60326306  1
  Ta  Ta111  1  0.88440307  0.50244843  0.28981849  1
  Ta  Ta112  1  0.30620030  0.49695289  0.29603122  1
  Ta  Ta113  1  0.40424544  0.80479982  0.80446328  1
  Ta  Ta114  1  0.40389044  0.00844280  0.00073417  1
  Ta  Ta115  1  0.49485795  0.50072891  0.71051409  1
  Ta  Ta116  1  0.30334080  0.10097504  0.90088231  1
  Ta  Ta117  1  0.79731256  0.00873561  -0.00260087  1
  Ta  Ta118  1  0.69883011  0.49987631  0.29739829  1
  Ta  Ta119  1  0.79203256  0.80518581  0.58984825  1
  Ta  Ta120  1  -0.00187958  0.00149526  0.19993273  1
  Ta  Ta121  1  0.50386105  0.90656917  0.89708794  1
  Ta  Ta122  1  0.09529914  0.09409687  0.30149910  1
  Ta  Ta123  1  0.60309447  0.01071790  0.00000491  1
  Ta  Ta124  1  0.79734816  0.19687619  0.40938263  1
  Ta  Ta125  1  0.40012052  0.80665068  0.20038830  1
  Ta  Ta126  1  0.20146391  0.80099484  0.59690943  1
  Ta  Ta127  1  0.89587473  0.09066770  0.49703329  1
  Ta  Ta128  1  0.89974284  0.90559157  0.30715151  1
  Ta  Ta129  1  0.09401301  0.90033979  0.69372262  1
  Ta  Ta130  1  0.59986525  0.80756703  0.20948860  1
  Ta  Ta131  1  0.00903311  0.41019485  0.61211994  1
  Ta  Ta132  1  0.88497681  0.50031995  0.69527306  1
  Ta  Ta133  1  0.89206276  0.89610408  0.69816943  1
  Ta  Ta134  1  0.40007763  0.20212799  0.39858660  1
  Ta  Ta135  1  0.60309741  0.59898383  0.60238890  1
  Ta  Ta136  1  0.89366071  0.90683206  0.09801487  1
  Ta  Ta137  1  0.19909463  0.00057526  0.19690234  1
  Ta  Ta138  1  0.79743020  0.39256473  0.00926224  1
  Ta  Ta139  1  0.69658454  0.29749139  0.90299480  1
  Ta  Ta140  1  0.79366711  0.00846288  0.79439977  1
  Ta  Ta141  1  0.88266228  0.50015281  0.11009954  1
  Ta  Ta142  1  0.40611673  0.80639667  0.40069538  1
  Ta  Ta143  1  0.39590034  0.40472479  0.60188515  1
  Ta  Ta144  1  0.70017750  0.50516361  0.50587136  1
  Ta  Ta145  1  0.70361248  0.30186427  0.70499698  1
  Ta  Ta146  1  0.40774680  0.20272605  0.00561676  1
  Ta  Ta147  1  0.50090346  0.90529070  0.30037561  1
  Ta  Ta148  1  -0.00998649  0.80625126  0.80320796  1
  Ta  Ta149  1  0.19994747  0.39623835  0.38726079  1
  Ti  Ti150  1  0.60887495  0.80463233  0.58949734  1
  Ti  Ti151  1  0.80013824  0.80174897  0.80748239  1
  Ti  Ti152  1  0.30575122  0.48292748  0.10653972  1
  Ti  Ti153  1  0.40363824  0.59114523  0.19625865  1
  Ti  Ti154  1  0.59226839  0.19821207  0.17719495  1
  Ti  Ti155  1  0.10326182  0.69999360  0.10372412  1
  Ti  Ti156  1  0.20714567  0.59595225  0.00769957  1
  Ti  Ti157  1  0.89033567  0.49492618  0.90294168  1
  Ti  Ti158  1  0.69828439  0.09588062  0.10004487  1
  Ti  Ti159  1  0.29958183  0.91260448  0.49573655  1
  Ti  Ti160  1  0.30653065  0.30258129  0.09722081  1
  Ti  Ti161  1  0.49794043  0.08918272  0.49748812  1
  Ti  Ti162  1  0.31352965  0.30444469  0.90385371  1
  Ti  Ti163  1  0.00191502  0.20040728  0.19928618  1
  Ti  Ti164  1  0.79369943  0.19948104  -0.00047607  1
  Ti  Ti165  1  0.58602412  0.39882546  0.00525105  1
  Ti  Ti166  1  0.60254816  0.79693294  0.80467842  1
  Ti  Ti167  1  0.61343134  0.19824488  0.80089796  1
  Ti  Ti168  1  0.80017907  0.18733454  0.61186935  1
  Ti  Ti169  1  0.40249535  -0.00172111  0.59985935  1
  Ti  Ti170  1  0.11412927  0.49893044  0.29380967  1
  Ti  Ti171  1  0.09288945  0.09545241  0.10054208  1
  Ti  Ti172  1  -0.00505477  0.59554506  0.60128979  1
  Ti  Ti173  1  0.79395441  -0.01084232  0.39900718  1
  Ti  Ti174  1  -0.00279335  0.20060689  0.39738756  1
  Ti  Ti175  1  0.50125640  0.49894295  0.29982351  1
  Ti  Ti176  1  0.39994718  0.81063712  0.00400173  1
  Ti  Ti177  1  0.90097562  0.08865465  0.09928249  1
  Ti  Ti178  1  0.69483695  0.90664047  0.69919316  1
  Ti  Ti179  1  0.29732893  0.30439317  0.50054886  1
  Ti  Ti180  1  0.09583999  0.29616328  0.70379021  1
  Ti  Ti181  1  0.71492498  0.30214214  0.51568588  1
  Ti  Ti182  1  0.39942474  0.59301937  0.60639332  1
  Ti  Ti183  1  0.30499975  0.70879402  0.10592851  1
  Ti  Ti184  1  0.69410328  0.68842756  0.30019858  1
  Ti  Ti185  1  0.29731301  0.09036855  0.70213271  1
  Ti  Ti186  1  0.41372592  0.39731127  0.18765752  1
  Ti  Ti187  1  0.69533306  0.30424928  0.09528017  1
  Ti  Ti188  1  0.31096179  0.68608774  0.48884270  1
  Ti  Ti189  1  0.89653320  0.70911042  0.50297134  1
  Ti  Ti190  1  0.60066253  0.20214985  0.00002725  1
  Ti  Ti191  1  0.30019663  0.30731359  0.28361655  1
  Ti  Ti192  1  0.79910692  -0.00355828  0.60704139  1
  Ti  Ti193  1  0.10602546  0.51465165  0.70296017  1
  Ti  Ti194  1  0.10964204  0.50972555  0.89864491  1
  Ti  Ti195  1  0.10570948  0.49854356  0.10283813  1
  Ti  Ti196  1  0.00112972  0.59361883  0.19780450  1
  Ti  Ti197  1  0.79104349  0.40059631  0.80371562  1
  Ti  Ti198  1  0.20635575  0.19800359  -0.00090881  1
  Ti  Ti199  1  0.89190729  0.90574600  0.90545737  1
  Mo  Mo200  1  0.30421452  0.10871101  0.09301102  1
  Mo  Mo201  1  0.89369835  0.09390216  0.69760073  1
  Mo  Mo202  1  0.50344204  0.49416522  0.90138040  1
  Mo  Mo203  1  0.69463727  0.70554000  0.89519988  1
  Mo  Mo204  1  -0.00724464  0.00179750  0.00563579  1
  Mo  Mo205  1  0.41128385  -0.00198736  0.40438744  1
  Mo  Mo206  1  -0.00880524  0.00045200  0.39997217  1
  Mo  Mo207  1  0.40454261  0.59590782  0.38960900  1
  Mo  Mo208  1  0.40941858  0.40263041  0.80454599  1
  Mo  Mo209  1  0.60577029  -0.00317262  0.79929688  1
  Mo  Mo210  1  0.10296971  0.10312221  0.90239134  1
  Mo  Mo211  1  0.40433509  0.38878970  -0.00147799  1
  Mo  Mo212  1  0.79017821  0.59760637  0.20538651  1
  Mo  Mo213  1  0.50571602  0.10315911  0.09416831  1
  Mo  Mo214  1  0.60575376  0.59477231  0.39793785  1
  Mo  Mo215  1  0.20691466  0.40031752  0.19958943  1
  Mo  Mo216  1  0.69806230  0.69880790  0.50366776  1
  Mo  Mo217  1  0.59818140  0.58967316  -0.00344868  1
  Mo  Mo218  1  0.20731694  0.59257654  0.39044782  1
  Mo  Mo219  1  0.70472083  0.90157001  0.50401406  1
  Mo  Mo220  1  0.30609376  0.49947981  0.69486681  1
  Mo  Mo221  1  0.19452780  -0.00623812  0.59884606  1
  Mo  Mo222  1  0.79341042  0.60504251  0.59868496  1
  Mo  Mo223  1  0.40859056  0.59946972  0.79884356  1
  Mo  Mo224  1  0.80670019  0.00310197  0.19423104  1
  Mo  Mo225  1  0.00009333  0.19734533  0.80300135  1
  Mo  Mo226  1  0.09920876  0.29378673  0.29675303  1
  Mo  Mo227  1  0.30182823  0.89761792  0.10377868  1
  Mo  Mo228  1  -0.00848320  0.80163812  0.40369844  1
  Mo  Mo229  1  -0.01123799  0.80689285  0.60361798  1
  Mo  Mo230  1  0.49935783  0.48987839  0.09827940  1
  Mo  Mo231  1  0.50262919  0.29781241  0.09671673  1
  Mo  Mo232  1  0.70084149  0.90802778  0.30084672  1
  Mo  Mo233  1  0.69656652  0.49259265  0.09941441  1
  Mo  Mo234  1  0.79271044  0.40327660  0.60581045  1
  Mo  Mo235  1  0.80218742  0.80932849  -0.01063523  1
  Mo  Mo236  1  0.50968710  0.29995313  0.90583751  1
  Mo  Mo237  1  0.60314742  0.00091879  0.19659987  1
  Mo  Mo238  1  0.19101581  -0.00058481  0.39635165  1
  Mo  Mo239  1  0.60376809  -0.00590593  0.59735779  1
  Mo  Mo240  1  0.89170878  0.71595911  0.89925016  1
  Mo  Mo241  1  0.20267940  0.00707464  0.80296357  1
  Mo  Mo242  1  0.70274834  0.10601121  0.90338494  1
  Mo  Mo243  1  0.48435883  0.29762794  0.50092283  1
  Mo  Mo244  1  0.70107739  0.09863421  0.70098716  1
  Mo  Mo245  1  0.90075444  0.30411211  0.09604093  1
  Mo  Mo246  1  0.20114532  0.59563547  0.79747027  1
  Mo  Mo247  1  0.79042573  0.40192212  0.19378237  1
  Mo  Mo248  1  0.20864999  0.79967284  0.19402758  1
  Mo  Mo249  1  0.79931320  0.80306134  0.40776699  1
