# generated using pymatgen
data_HfZrTaTiMo
_symmetry_space_group_name_H-M   'P 1'
_cell_length_a   16.88431996
_cell_length_b   16.89226544
_cell_length_c   16.89172736
_cell_angle_alpha   89.98190755
_cell_angle_beta   89.98815226
_cell_angle_gamma   89.95474894
_symmetry_Int_Tables_number   1
_chemical_formula_structural   HfZrTaTiMo
_chemical_formula_sum   'Hf50 Zr50 Ta50 Ti50 Mo50'
_cell_volume   4817.76228526
_cell_formula_units_Z   50
loop_
 _symmetry_equiv_pos_site_id
 _symmetry_equiv_pos_as_xyz
  1  'x, y, z'
loop_
 _atom_site_type_symbol
 _atom_site_label
 _atom_site_symmetry_multiplicity
 _atom_site_fract_x
 _atom_site_fract_y
 _atom_site_fract_z
 _atom_site_occupancy
  Hf  Hf0  1  0.89586209  0.10571500  0.90655361  1
  Hf  Hf1  1  -0.00280334  0.81324718  0.60217300  1
  Hf  Hf2  1  0.90845151  0.49950312  0.10837039  1
  Hf  Hf3  1  0.50619546  0.69552990  0.29831178  1
  Hf  Hf4  1  0.50649759  0.69878651  0.08932194  1
  Hf  Hf5  1  0.30475665  0.09718294  0.29588604  1
  Hf  Hf6  1  0.20790675  0.60513259  0.38813957  1
  Hf  Hf7  1  0.09492663  0.50072604  0.28513324  1
  Hf  Hf8  1  0.20204424  0.40484515  0.39394392  1
  Hf  Hf9  1  0.19617948  0.80403857  0.79722161  1
  Hf  Hf10  1  0.09928439  0.50410696  0.49580200  1
  Hf  Hf11  1  0.89726818  0.29880165  0.09937374  1
  Hf  Hf12  1  0.40169891  0.40202701  0.39366475  1
  Hf  Hf13  1  0.19245964  0.20129221  0.39642649  1
  Hf  Hf14  1  0.00169073  -0.00885406  -0.00391906  1
  Hf  Hf15  1  0.19981864  0.40414333  0.60241425  1
  Hf  Hf16  1  0.90182422  0.89463161  0.10538702  1
  Hf  Hf17  1  0.40744209  0.20077026  0.19911354  1
  Hf  Hf18  1  0.60030984  0.39246250  0.39954814  1
  Hf  Hf19  1  0.90002745  0.49723623  0.29618796  1
  Hf  Hf20  1  0.20639314  0.00309957  0.00352332  1
  Hf  Hf21  1  0.40464094  0.19435576  0.80322558  1
  Hf  Hf22  1  0.40451991  0.00385714  0.61192436  1
  Hf  Hf23  1  0.69990773  0.29049791  0.09555445  1
  Hf  Hf24  1  0.61002019  -0.00333898  -0.00045178  1
  Hf  Hf25  1  0.29429168  0.68878292  0.70633701  1
  Hf  Hf26  1  0.60325487  -0.00025947  0.20083117  1
  Hf  Hf27  1  0.29648267  0.29566614  0.69803349  1
  Hf  Hf28  1  0.79521214  0.61048877  0.60271948  1
  Hf  Hf29  1  0.30914168  0.90696363  0.30085616  1
  Hf  Hf30  1  0.10814516  0.49543958  0.10173064  1
  Hf  Hf31  1  0.20054725  0.19995974  0.80720750  1
  Hf  Hf32  1  0.39534205  0.80832338  0.60809733  1
  Hf  Hf33  1  0.49402614  0.89640495  0.09375458  1
  Hf  Hf34  1  0.10485703  0.10031604  0.69143104  1
  Hf  Hf35  1  0.00143984  0.20513274  0.60388196  1
  Hf  Hf36  1  0.19118370  0.80591485  0.60670953  1
  Hf  Hf37  1  0.80340852  0.59564868  0.00244683  1
  Hf  Hf38  1  0.79076133  0.38821850  0.39631496  1
  Hf  Hf39  1  0.21017373  0.79671619  0.20682903  1
  Hf  Hf40  1  0.20347406  -0.00993960  0.79916132  1
  Hf  Hf41  1  0.19823843  0.20534861  0.00113513  1
  Hf  Hf42  1  0.01265314  0.80671138  0.79829335  1
  Hf  Hf43  1  0.39090575  0.19064818  -0.00473755  1
  Hf  Hf44  1  0.90203303  0.49829440  0.70601503  1
  Hf  Hf45  1  0.09996320  0.10946854  0.10953624  1
  Hf  Hf46  1  0.10159880  0.89114808  0.10879717  1
  Hf  Hf47  1  -0.00538915  0.60608129  0.40185496  1
  Hf  Hf48  1  0.50311730  0.49971602  0.69810916  1
  Hf  Hf49  1  0.79606181  0.79875539  0.20485604  1
  Zr  Zr50  1  0.68850980  0.70124475  0.91112367  1
  Zr  Zr51  1  0.89791203  0.10624355  0.10265509  1
  Zr  Zr52  1  0.30175178  0.29245064  0.50366316  1
  Zr  Zr53  1  0.30323653  0.90721574  0.49400258  1
  Zr  Zr54  1  0.70701560  0.11128773  0.10019850  1
  Zr  Zr55  1  0.69147983  0.30358732  0.71361963  1
  Zr  Zr56  1  0.60469965  0.38984950  0.59387393  1
  Zr  Zr57  1  -0.00244458  -0.00245081  0.21044129  1
  Zr  Zr58  1  0.30114728  0.69357824  0.50821361  1
  Zr  Zr59  1  0.49713312  0.28709397  0.50282991  1
  Zr  Zr60  1  0.49819314  0.09468741  0.10019904  1
  Zr  Zr61  1  0.69744951  0.89301809  0.89637565  1
  Zr  Zr62  1  0.50120022  0.50957604  0.50350073  1
  Zr  Zr63  1  0.50339313  0.50195605  0.90275288  1
  Zr  Zr64  1  0.49988954  0.90188709  0.49696622  1
  Zr  Zr65  1  0.50037374  0.89123732  0.90165963  1
  Zr  Zr66  1  0.09894143  0.69060868  0.10365425  1
  Zr  Zr67  1  0.29453901  0.31560806  0.10452425  1
  Zr  Zr68  1  0.29876373  0.31474359  0.90279476  1
  Zr  Zr69  1  0.89649307  0.29647322  0.49326526  1
  Zr  Zr70  1  0.00431155  0.40503815  0.60211652  1
  Zr  Zr71  1  0.69841038  0.90194676  0.69576498  1
  Zr  Zr72  1  0.79773752  0.59985924  0.80437883  1
  Zr  Zr73  1  0.60004071  0.39211543  0.20385521  1
  Zr  Zr74  1  0.59834594  0.00546126  0.39666084  1
  Zr  Zr75  1  0.50314919  0.30026416  0.09019878  1
  Zr  Zr76  1  0.60346233  0.79061163  0.60576874  1
  Zr  Zr77  1  0.30243444  0.10553869  0.50373753  1
  Zr  Zr78  1  0.30102162  0.30162734  0.29198732  1
  Zr  Zr79  1  0.79266348  0.19948052  0.60537143  1
  Zr  Zr80  1  0.09646562  0.09844729  0.89875359  1
  Zr  Zr81  1  0.69549108  0.29750097  0.90291753  1
  Zr  Zr82  1  0.80240825  0.00098289  0.79822133  1
  Zr  Zr83  1  0.70539366  0.89932453  0.50374239  1
  Zr  Zr84  1  0.31536666  0.89892546  0.90670141  1
  Zr  Zr85  1  0.69795918  0.51264678  0.30225165  1
  Zr  Zr86  1  0.50115899  0.69021852  0.50046673  1
  Zr  Zr87  1  0.89261996  0.50206645  0.49927768  1
  Zr  Zr88  1  0.39294518  0.59781686  0.19851038  1
  Zr  Zr89  1  0.89301969  0.30922181  0.70632107  1
  Zr  Zr90  1  0.18776766  0.00014518  0.39835576  1
  Zr  Zr91  1  -0.00094316  -0.01182520  0.79094272  1
  Zr  Zr92  1  0.00434612  0.40028535  -0.00939106  1
  Zr  Zr93  1  0.90648555  0.10108127  0.49395345  1
  Zr  Zr94  1  0.89442336  0.30401211  0.89659178  1
  Zr  Zr95  1  0.89932818  0.70678504  0.69992143  1
  Zr  Zr96  1  0.90057964  0.70466424  0.90011005  1
  Zr  Zr97  1  0.08962036  0.70447478  0.29303538  1
  Zr  Zr98  1  0.48810759  0.68340183  0.69576462  1
  Zr  Zr99  1  0.70133444  0.09852016  0.50098925  1
  Ta  Ta100  1  0.49567803  0.90254840  0.29716271  1
  Ta  Ta101  1  0.69514806  0.51334611  0.49799695  1
  Ta  Ta102  1  0.89785998  0.10689961  0.30424790  1
  Ta  Ta103  1  0.30360157  0.69888110  0.89974947  1
  Ta  Ta104  1  0.30843436  0.90127066  0.10129821  1
  Ta  Ta105  1  0.00461394  0.79638401  -0.00316040  1
  Ta  Ta106  1  0.10208760  0.29845656  0.50106916  1
  Ta  Ta107  1  0.00498351  0.61026231  0.60332516  1
  Ta  Ta108  1  0.10527909  0.50153796  0.89640422  1
  Ta  Ta109  1  0.30302276  0.70371749  0.09316005  1
  Ta  Ta110  1  0.60256893  0.60360442  0.79724294  1
  Ta  Ta111  1  0.80057576  0.79984639  0.39828661  1
  Ta  Ta112  1  0.19869009  0.79937544  0.40042617  1
  Ta  Ta113  1  0.49835034  0.49821649  0.10106041  1
  Ta  Ta114  1  0.79597176  0.39537244  0.20050381  1
  Ta  Ta115  1  0.50098716  0.50135579  0.29638041  1
  Ta  Ta116  1  0.20220102  0.00210664  0.19897777  1
  Ta  Ta117  1  0.29859668  0.09971778  0.70179271  1
  Ta  Ta118  1  0.39343987  0.59611928  0.39047074  1
  Ta  Ta119  1  0.39811777  0.79207751  0.39227441  1
  Ta  Ta120  1  0.69528651  0.50024158  0.70065375  1
  Ta  Ta121  1  0.39758055  0.40065337  0.60665899  1
  Ta  Ta122  1  0.79736975  0.80338370  0.00907050  1
  Ta  Ta123  1  0.09429775  0.10680901  0.29692611  1
  Ta  Ta124  1  0.10781085  0.69231349  0.89850015  1
  Ta  Ta125  1  0.59370567  0.78935771  0.79407071  1
  Ta  Ta126  1  0.20026497  0.79720921  -0.00267329  1
  Ta  Ta127  1  0.80721326  -0.00471628  0.39464623  1
  Ta  Ta128  1  0.79281357  0.18886926  0.80048140  1
  Ta  Ta129  1  0.79761496  0.40904338  0.00169505  1
  Ta  Ta130  1  0.79680375  -0.00514573  0.00147180  1
  Ta  Ta131  1  0.40021132  0.40219852  0.79794945  1
  Ta  Ta132  1  0.69242850  0.50001327  0.90137815  1
  Ta  Ta133  1  0.70175621  0.90105127  0.30121209  1
  Ta  Ta134  1  0.00313305  0.39059971  0.39114550  1
  Ta  Ta135  1  0.60288567  0.79960473  0.39298894  1
  Ta  Ta136  1  0.90489742  0.70076861  0.10428968  1
  Ta  Ta137  1  0.60385918  0.80491032  0.19878270  1
  Ta  Ta138  1  0.82403075  -0.01045719  0.60029080  1
  Ta  Ta139  1  0.00248752  0.20889965  0.80022847  1
  Ta  Ta140  1  0.70683772  0.10237322  0.29874657  1
  Ta  Ta141  1  0.39482520  0.59603656  -0.00013072  1
  Ta  Ta142  1  0.20958126  0.59455008  -0.00442536  1
  Ta  Ta143  1  0.00187990  0.59806976  -0.00611837  1
  Ta  Ta144  1  0.49450747  0.69941981  0.90255394  1
  Ta  Ta145  1  0.40176164  0.79686016  0.20081509  1
  Ta  Ta146  1  0.00709931  0.21014842  -0.00409368  1
  Ta  Ta147  1  0.89850710  0.71222409  0.49894667  1
  Ta  Ta148  1  0.69723183  0.69989587  0.10089043  1
  Ta  Ta149  1  0.50406219  0.30767809  0.89614169  1
  Ti  Ti150  1  0.78830351  0.39834286  0.59244992  1
  Ti  Ti151  1  0.80074245  0.61140504  0.39804577  1
  Ti  Ti152  1  0.50390555  0.30095697  0.70967807  1
  Ti  Ti153  1  0.59623705  0.18533272  0.80363163  1
  Ti  Ti154  1  0.10452295  0.30782805  0.10909582  1
  Ti  Ti155  1  0.19996655  -0.00562992  0.60086258  1
  Ti  Ti156  1  0.90490273  0.89184934  0.30711194  1
  Ti  Ti157  1  0.59608664  0.18502415  -0.01990887  1
  Ti  Ti158  1  0.79526893  0.80025373  0.79112001  1
  Ti  Ti159  1  0.00446664  0.59865802  0.80362983  1
  Ti  Ti160  1  0.48622715  0.07851004  0.89855239  1
  Ti  Ti161  1  0.50004696  0.09829043  0.50217283  1
  Ti  Ti162  1  0.69570695  0.69908082  0.30107544  1
  Ti  Ti163  1  0.40975509  0.19529857  0.61399681  1
  Ti  Ti164  1  0.41403808  0.19418513  0.38886818  1
  Ti  Ti165  1  0.09216427  0.90335091  0.49692073  1
  Ti  Ti166  1  0.09455865  0.89421700  0.30230271  1
  Ti  Ti167  1  0.69896452  0.70014570  0.49502501  1
  Ti  Ti168  1  0.90652164  0.09973379  0.69972907  1
  Ti  Ti169  1  0.19796679  0.40632459  0.80333594  1
  Ti  Ti170  1  0.59776947  0.19931172  0.39288723  1
  Ti  Ti171  1  0.80460560  0.20772019  0.21235839  1
  Ti  Ti172  1  0.00181358  0.20843348  0.39166481  1
  Ti  Ti173  1  0.69781598  0.28642236  0.29885944  1
  Ti  Ti174  1  -0.00199628  0.21144307  0.20650444  1
  Ti  Ti175  1  0.10306507  0.30403586  0.28664459  1
  Ti  Ti176  1  0.18941221  0.60095232  0.60545283  1
  Ti  Ti177  1  0.39903008  0.80283027  0.79278378  1
  Ti  Ti178  1  0.79975809  0.60445551  0.19873691  1
  Ti  Ti179  1  0.79950294  -0.00440332  0.20353114  1
  Ti  Ti180  1  0.29722143  0.50188896  0.70434185  1
  Ti  Ti181  1  0.39372248  0.41294654  -0.00019247  1
  Ti  Ti182  1  0.30117739  0.50319824  0.50381188  1
  Ti  Ti183  1  0.09689313  0.10263994  0.50232662  1
  Ti  Ti184  1  0.89522826  0.89316505  0.90006443  1
  Ti  Ti185  1  0.60335228  0.40453287  0.00157219  1
  Ti  Ti186  1  0.60179052  0.59973764  0.19496681  1
  Ti  Ti187  1  0.59861191  0.00824741  0.80107761  1
  Ti  Ti188  1  0.21590454  0.59634347  0.19940421  1
  Ti  Ti189  1  0.90465515  0.70503296  0.29661074  1
  Ti  Ti190  1  0.39217674  0.58955029  0.80945583  1
  Ti  Ti191  1  0.10032066  0.50769509  0.70994570  1
  Ti  Ti192  1  -0.00209945  -0.00334459  0.40087235  1
  Ti  Ti193  1  0.50431427  0.91044614  0.70989073  1
  Ti  Ti194  1  0.69365229  0.09023517  0.69497904  1
  Ti  Ti195  1  0.09631777  0.70562509  0.49765378  1
  Ti  Ti196  1  0.69638028  0.50347315  0.09944829  1
  Ti  Ti197  1  0.79552721  0.41149260  0.81114019  1
  Ti  Ti198  1  0.10241508  0.30409534  0.70488968  1
  Ti  Ti199  1  0.59607522  0.19301372  0.60659902  1
  Mo  Mo200  1  0.59160473  0.00932502  0.60711697  1
  Mo  Mo201  1  -0.00114087  0.80436729  0.40285440  1
  Mo  Mo202  1  0.30444271  0.09463806  0.89864105  1
  Mo  Mo203  1  0.38095315  0.58458756  0.60342879  1
  Mo  Mo204  1  0.19309786  0.20071476  0.60155449  1
  Mo  Mo205  1  0.19904530  0.59723897  0.80334474  1
  Mo  Mo206  1  0.59773921  0.19699221  0.21712714  1
  Mo  Mo207  1  0.39410174  0.00313624  0.00201842  1
  Mo  Mo208  1  0.10395091  0.89058405  0.91395161  1
  Mo  Mo209  1  0.69790944  0.70035886  0.70443709  1
  Mo  Mo210  1  0.19753510  0.40733186  -0.00034623  1
  Mo  Mo211  1  -0.00584112  0.79851177  0.20383372  1
  Mo  Mo212  1  0.29907838  0.50183009  0.89679461  1
  Mo  Mo213  1  0.41148558  0.00829049  0.39566660  1
  Mo  Mo214  1  0.50345989  0.29704068  0.29970465  1
  Mo  Mo215  1  0.40494735  0.40686238  0.19922580  1
  Mo  Mo216  1  0.59657618  0.40656839  0.80281167  1
  Mo  Mo217  1  0.00000130  0.39048046  0.20263209  1
  Mo  Mo218  1  0.90231478  0.89971035  0.48977137  1
  Mo  Mo219  1  0.30242008  0.49771673  0.29207475  1
  Mo  Mo220  1  0.59970010  0.59444613  0.00550029  1
  Mo  Mo221  1  0.29734354  0.09478650  0.10428553  1
  Mo  Mo222  1  0.10129946  0.90947764  0.68478631  1
  Mo  Mo223  1  0.09977036  0.30791566  0.89164236  1
  Mo  Mo224  1  0.79566651  0.19560306  0.39227122  1
  Mo  Mo225  1  0.70487104  0.89636239  0.10573631  1
  Mo  Mo226  1  0.30156179  0.50280998  0.09516321  1
  Mo  Mo227  1  0.39864678  0.00160620  0.79671616  1
  Mo  Mo228  1  0.01261211  0.40427067  0.79958085  1
  Mo  Mo229  1  0.09923321  0.69086640  0.70163228  1
  Mo  Mo230  1  0.61573381  0.60069767  0.60274239  1
  Mo  Mo231  1  0.90340442  0.50126006  0.90054651  1
  Mo  Mo232  1  0.20196710  0.40437318  0.19914575  1
  Mo  Mo233  1  0.69612317  0.28845083  0.49344772  1
  Mo  Mo234  1  0.19523314  0.19869865  0.20043810  1
  Mo  Mo235  1  0.89897082  0.89782057  0.69863359  1
  Mo  Mo236  1  0.60104306  0.60537695  0.39786607  1
  Mo  Mo237  1  0.60215492  0.79730224  0.00494739  1
  Mo  Mo238  1  0.39880516  -0.00237752  0.19744733  1
  Mo  Mo239  1  0.00198814  0.00209134  0.59329779  1
  Mo  Mo240  1  0.30020566  0.90513561  0.70242262  1
  Mo  Mo241  1  0.69904588  0.09837805  0.89791309  1
  Mo  Mo242  1  0.39648487  0.79074225  0.00212269  1
  Mo  Mo243  1  0.50564701  0.10150199  0.70548337  1
  Mo  Mo244  1  0.50244052  0.09900568  0.29962867  1
  Mo  Mo245  1  0.80250839  0.20065419  -0.00623413  1
  Mo  Mo246  1  -0.01180192  0.60284202  0.19634628  1
  Mo  Mo247  1  0.90081602  0.29942629  0.29519936  1
  Mo  Mo248  1  0.80135161  0.80086390  0.59132695  1
  Mo  Mo249  1  0.30239158  0.70470995  0.29895670  1
