# generated using pymatgen
data_HfZrTaTiMo
_symmetry_space_group_name_H-M   'P 1'
_cell_length_a   16.88755532
_cell_length_b   16.89468247
_cell_length_c   16.88632146
_cell_angle_alpha   89.99489691
_cell_angle_beta   90.00613413
_cell_angle_gamma   89.97716278
_symmetry_Int_Tables_number   1
_chemical_formula_structural   HfZrTaTiMo
_chemical_formula_sum   'Hf50 Zr50 Ta50 Ti50 Mo50'
_cell_volume   4817.83400372
_cell_formula_units_Z   50
loop_
 _symmetry_equiv_pos_site_id
 _symmetry_equiv_pos_as_xyz
  1  'x, y, z'
loop_
 _atom_site_type_symbol
 _atom_site_label
 _atom_site_symmetry_multiplicity
 _atom_site_fract_x
 _atom_site_fract_y
 _atom_site_fract_z
 _atom_site_occupancy
  Hf  Hf0  1  0.59637363  0.00830798  0.38988441  1
  Hf  Hf1  1  0.00626611  -0.00697209  -0.00117132  1
  Hf  Hf2  1  0.29356308  0.49813312  0.90705189  1
  Hf  Hf3  1  0.90145338  0.89318800  0.90028058  1
  Hf  Hf4  1  0.89883211  0.88256962  0.09135411  1
  Hf  Hf5  1  0.20011419  0.79969408  0.58771271  1
  Hf  Hf6  1  0.10275031  0.50623655  0.50653061  1
  Hf  Hf7  1  0.30508012  0.69982412  0.29793227  1
  Hf  Hf8  1  0.40970716  0.00346093  0.20787712  1
  Hf  Hf9  1  0.27688259  0.51037927  0.69445379  1
  Hf  Hf10  1  0.79821912  0.38740496  0.20317686  1
  Hf  Hf11  1  0.29581552  0.09578135  0.70233920  1
  Hf  Hf12  1  0.69874327  0.70678964  0.50038775  1
  Hf  Hf13  1  0.30320739  0.50448295  0.49068801  1
  Hf  Hf14  1  0.19857217  0.60238759  0.39395766  1
  Hf  Hf15  1  0.40226755  0.40110108  0.19868694  1
  Hf  Hf16  1  0.29376399  0.09537237  0.49957843  1
  Hf  Hf17  1  0.69714445  0.88825985  0.30350314  1
  Hf  Hf18  1  0.80671508  0.40040013  0.80042403  1
  Hf  Hf19  1  0.79523974  0.78480798  0.19229249  1
  Hf  Hf20  1  0.90327432  0.70278097  0.91268129  1
  Hf  Hf21  1  0.19122627  0.80836207  0.39953911  1
  Hf  Hf22  1  -0.00354120  0.40200856  0.39993952  1
  Hf  Hf23  1  0.19078436  0.00036576  0.20659301  1
  Hf  Hf24  1  0.40374744  0.59766884  0.59894016  1
  Hf  Hf25  1  0.50684798  0.70999329  0.68725387  1
  Hf  Hf26  1  0.80653970  0.59529795  0.19789998  1
  Hf  Hf27  1  0.60194252  0.21083358  0.00125453  1
  Hf  Hf28  1  0.09960742  0.70122703  0.29378797  1
  Hf  Hf29  1  0.29619661  0.10341642  0.30103933  1
  Hf  Hf30  1  0.00452552  -0.00578110  0.40249949  1
  Hf  Hf31  1  0.40715320  0.19839100  0.39032973  1
  Hf  Hf32  1  0.70008850  0.70193639  0.69535032  1
  Hf  Hf33  1  0.30014641  0.90369896  0.68903450  1
  Hf  Hf34  1  0.50814567  0.11086416  0.50144344  1
  Hf  Hf35  1  0.40193070  0.40394832  0.60403239  1
  Hf  Hf36  1  0.19844734  0.20593158  0.80255766  1
  Hf  Hf37  1  0.60174337  0.39128557  0.18994416  1
  Hf  Hf38  1  0.02328942  0.39409546  0.20577547  1
  Hf  Hf39  1  0.40410778  0.80559258  0.80031308  1
  Hf  Hf40  1  0.31352615  0.10979392  0.90228579  1
  Hf  Hf41  1  0.70166271  0.49931252  0.89920497  1
  Hf  Hf42  1  0.70120587  0.49515502  0.30275514  1
  Hf  Hf43  1  0.70772490  0.10654950  0.10440889  1
  Hf  Hf44  1  0.00464014  0.80675495  0.59295018  1
  Hf  Hf45  1  0.39585590  0.20149485  0.60551196  1
  Hf  Hf46  1  0.70124717  0.49006037  0.08985637  1
  Hf  Hf47  1  0.40366608  0.80549335  0.00414848  1
  Hf  Hf48  1  0.50513046  0.29768397  0.70346735  1
  Hf  Hf49  1  0.01127097  0.79742931  0.80144071  1
  Zr  Zr50  1  0.39787116  0.40289493  0.80024421  1
  Zr  Zr51  1  0.89434002  0.70601969  0.49326423  1
  Zr  Zr52  1  0.70366259  0.11723752  0.49637770  1
  Zr  Zr53  1  0.90245856  0.69764181  0.30550857  1
  Zr  Zr54  1  0.41072563  -0.00592868  0.80154489  1
  Zr  Zr55  1  0.50043159  0.70334647  0.49370660  1
  Zr  Zr56  1  0.89573962  0.10531370  0.30325824  1
  Zr  Zr57  1  0.29705114  0.29697079  0.49399126  1
  Zr  Zr58  1  0.59682762  0.00180993  0.59763210  1
  Zr  Zr59  1  0.70290392  0.89652502  0.90290388  1
  Zr  Zr60  1  -0.00099858  -0.00489455  0.20388986  1
  Zr  Zr61  1  0.30618429  0.69473797  0.90558871  1
  Zr  Zr62  1  0.20179402  0.20942774  -0.00014215  1
  Zr  Zr63  1  0.69891927  0.10182115  0.90091474  1
  Zr  Zr64  1  -0.01609842  0.59381119  0.59137812  1
  Zr  Zr65  1  0.19866894  0.80031337  0.80082065  1
  Zr  Zr66  1  0.69675579  0.11107143  0.69635580  1
  Zr  Zr67  1  0.18755217  0.39876300  0.38456478  1
  Zr  Zr68  1  0.79919147  -0.00388913  0.20292325  1
  Zr  Zr69  1  0.08673027  0.49237236  0.70497971  1
  Zr  Zr70  1  0.18720915  0.59666199  0.00949535  1
  Zr  Zr71  1  0.29965209  0.89623678  0.29653691  1
  Zr  Zr72  1  0.39530683  0.39949060  0.00177634  1
  Zr  Zr73  1  0.70392075  0.89287884  0.69046216  1
  Zr  Zr74  1  0.90531071  0.28539410  0.30305168  1
  Zr  Zr75  1  0.88246146  0.89747047  0.49868773  1
  Zr  Zr76  1  0.18739096  0.21237442  0.20119549  1
  Zr  Zr77  1  0.59606758  0.59972853  0.00683931  1
  Zr  Zr78  1  0.90716449  0.29316925  0.10042979  1
  Zr  Zr79  1  0.10199980  0.68568134  0.68600400  1
  Zr  Zr80  1  0.18122570  0.60470962  0.81625257  1
  Zr  Zr81  1  0.51338163  0.29950064  0.49953801  1
  Zr  Zr82  1  0.19204622  0.79990825  -0.00661911  1
  Zr  Zr83  1  0.80174253  0.00132622  -0.00023730  1
  Zr  Zr84  1  0.50347847  0.70061115  0.90039197  1
  Zr  Zr85  1  -0.00215136  0.00337400  0.79371853  1
  Zr  Zr86  1  0.60334999  0.60589221  0.19614645  1
  Zr  Zr87  1  0.50137802  0.10123820  0.09829149  1
  Zr  Zr88  1  0.40485318  0.59708260  0.19752810  1
  Zr  Zr89  1  0.60500806  0.20845159  0.20578605  1
  Zr  Zr90  1  0.20172329  -0.00188901  0.00022985  1
  Zr  Zr91  1  0.50316165  0.50066536  0.30755525  1
  Zr  Zr92  1  0.80470102  0.20757142  0.80126470  1
  Zr  Zr93  1  0.19359832  0.38908856  0.59878890  1
  Zr  Zr94  1  0.59777184  0.59140732  0.79395579  1
  Zr  Zr95  1  0.40439263  0.59188082  0.79297836  1
  Zr  Zr96  1  -0.00327017  0.00500455  0.59967240  1
  Zr  Zr97  1  0.09568985  0.10537757  0.89670038  1
  Zr  Zr98  1  0.59364472  -0.00450499  0.79986787  1
  Zr  Zr99  1  0.91303362  0.49292650  0.09056367  1
  Ta  Ta100  1  0.30508696  0.90597969  0.49891436  1
  Ta  Ta101  1  0.29308068  0.70366584  0.11091370  1
  Ta  Ta102  1  0.09008197  0.30684371  0.89876627  1
  Ta  Ta103  1  0.19002470  -0.00169428  0.39915716  1
  Ta  Ta104  1  -0.00068100  0.79517649  0.19830658  1
  Ta  Ta105  1  0.69695916  0.89302143  0.49586804  1
  Ta  Ta106  1  0.60819373  0.40257016  0.59940807  1
  Ta  Ta107  1  0.49673081  0.10744592  0.90468452  1
  Ta  Ta108  1  0.70418373  0.70133782  0.90072746  1
  Ta  Ta109  1  0.90333490  0.10856803  0.09968331  1
  Ta  Ta110  1  0.90379502  0.11045189  0.90119424  1
  Ta  Ta111  1  0.40370770  -0.00475475  0.00495216  1
  Ta  Ta112  1  0.10016548  0.10284646  0.50202129  1
  Ta  Ta113  1  0.19364460  0.39674271  0.80978853  1
  Ta  Ta114  1  0.80620543  0.39390048  -0.00953460  1
  Ta  Ta115  1  0.69710579  0.69944084  0.30759340  1
  Ta  Ta116  1  0.60484020  0.59817703  0.40408580  1
  Ta  Ta117  1  0.80394388  0.39747172  0.40556184  1
  Ta  Ta118  1  0.40277632  0.59438702  0.01584233  1
  Ta  Ta119  1  0.40295898  0.20564535  0.19997206  1
  Ta  Ta120  1  0.08842618  0.29767882  0.70617239  1
  Ta  Ta121  1  0.80404756  0.60235504  0.00241985  1
  Ta  Ta122  1  0.29847258  0.30162043  0.10217400  1
  Ta  Ta123  1  0.60204035  0.79787564  0.00679129  1
  Ta  Ta124  1  0.09388688  0.10446737  0.10177276  1
  Ta  Ta125  1  0.50433754  0.49788968  0.49430037  1
  Ta  Ta126  1  0.89730465  0.88547150  0.30822679  1
  Ta  Ta127  1  0.00579506  0.59227468  0.19764634  1
  Ta  Ta128  1  0.50761282  0.89839338  0.10845910  1
  Ta  Ta129  1  0.79853232  0.59238943  0.59941073  1
  Ta  Ta130  1  0.19213084  0.20016459  0.60486014  1
  Ta  Ta131  1  0.29985371  0.89824193  0.10678388  1
  Ta  Ta132  1  0.89536665  0.70216131  0.69834698  1
  Ta  Ta133  1  0.80605859  0.60008830  0.79990055  1
  Ta  Ta134  1  0.39984396  0.39936807  0.39477939  1
  Ta  Ta135  1  0.29895858  0.30369137  0.29472989  1
  Ta  Ta136  1  0.90872503  0.30193359  0.69800473  1
  Ta  Ta137  1  0.80287943  0.58749597  0.40421161  1
  Ta  Ta138  1  0.30344876  0.10408782  0.10274884  1
  Ta  Ta139  1  0.89685006  0.10931548  0.49778898  1
  Ta  Ta140  1  0.40616955  0.00145280  0.59508529  1
  Ta  Ta141  1  0.69166791  0.89398870  0.10439418  1
  Ta  Ta142  1  0.80223196  0.79567251  0.80063566  1
  Ta  Ta143  1  0.81013175  0.00393695  0.79314132  1
  Ta  Ta144  1  0.89564789  0.89278727  0.69731352  1
  Ta  Ta145  1  0.40848739  -0.00071151  0.39920058  1
  Ta  Ta146  1  0.10230779  0.89072478  0.10622112  1
  Ta  Ta147  1  0.29634928  0.29932011  0.70897436  1
  Ta  Ta148  1  0.70564385  0.49681418  0.69795090  1
  Ta  Ta149  1  0.10793175  0.90922254  0.69343493  1
  Ti  Ti150  1  0.50441309  0.49192130  0.91074320  1
  Ti  Ti151  1  0.80275478  0.39953258  0.59562694  1
  Ti  Ti152  1  0.50191348  0.70815642  0.10580489  1
  Ti  Ti153  1  0.70254177  0.49659151  0.50106568  1
  Ti  Ti154  1  0.59951923  0.20460222  0.80524772  1
  Ti  Ti155  1  0.60142049  0.58839685  0.59665790  1
  Ti  Ti156  1  0.49483151  0.30065147  0.09147413  1
  Ti  Ti157  1  0.50209644  0.89402885  0.49841302  1
  Ti  Ti158  1  0.80146471  0.21027238  -0.00374090  1
  Ti  Ti159  1  0.29632345  0.50129519  0.29492877  1
  Ti  Ti160  1  0.28650529  0.49925357  0.10998710  1
  Ti  Ti161  1  -0.00791817  0.39737339  0.59469398  1
  Ti  Ti162  1  0.89843354  0.29312794  0.50228144  1
  Ti  Ti163  1  0.80269262  0.20933262  0.60310816  1
  Ti  Ti164  1  0.50882902  0.88879482  0.29835331  1
  Ti  Ti165  1  0.91623580  0.30413957  0.89626583  1
  Ti  Ti166  1  0.60194954  0.00501861  0.20691285  1
  Ti  Ti167  1  0.08930154  0.28945046  0.50089584  1
  Ti  Ti168  1  0.49950146  0.11097664  0.70582658  1
  Ti  Ti169  1  0.00513659  0.20463287  0.00111885  1
  Ti  Ti170  1  -0.00370521  0.19504700  0.60634045  1
  Ti  Ti171  1  0.40478723  0.80166529  0.19884226  1
  Ti  Ti172  1  0.07635683  0.49432796  0.91254490  1
  Ti  Ti173  1  0.79473637  0.00241910  0.39885493  1
  Ti  Ti174  1  0.59509557  -0.00449191  0.00045104  1
  Ti  Ti175  1  0.59715070  0.80704319  0.80575246  1
  Ti  Ti176  1  0.61223761  0.39312831  0.40359039  1
  Ti  Ti177  1  0.89881815  0.49666250  0.70175867  1
  Ti  Ti178  1  0.18778905  0.39785208  0.00788705  1
  Ti  Ti179  1  0.48702988  0.29134362  0.89783750  1
  Ti  Ti180  1  0.50473529  0.70448546  0.30657117  1
  Ti  Ti181  1  0.19200010  0.20184398  0.40008165  1
  Ti  Ti182  1  0.08977833  0.69703407  0.48925611  1
  Ti  Ti183  1  -0.01064099  0.59684719  0.80924764  1
  Ti  Ti184  1  0.09386570  0.69853290  0.10286455  1
  Ti  Ti185  1  0.40233445  0.80652369  0.39990755  1
  Ti  Ti186  1  0.30973224  0.70071977  0.49416554  1
  Ti  Ti187  1  0.19529112  -0.00500714  0.80641333  1
  Ti  Ti188  1  0.59628777  0.40328860  0.79724524  1
  Ti  Ti189  1  0.30095705  0.70161321  0.69064062  1
  Ti  Ti190  1  0.49969679  0.88971859  0.68117443  1
  Ti  Ti191  1  0.80360126  0.00842027  0.60451829  1
  Ti  Ti192  1  0.30241889  0.90412383  0.90192832  1
  Ti  Ti193  1  0.69827585  0.30403522  0.69644597  1
  Ti  Ti194  1  0.50629695  0.30174085  0.30588283  1
  Ti  Ti195  1  0.70795737  0.11799924  0.30425485  1
  Ti  Ti196  1  -0.00616655  0.58290874  0.39206998  1
  Ti  Ti197  1  0.08637722  0.11515045  0.30567205  1
  Ti  Ti198  1  0.69242769  0.31043759  0.90114126  1
  Ti  Ti199  1  0.10270347  0.10051683  0.69776111  1
  Mo  Mo200  1  0.50313678  0.49178558  0.09480523  1
  Mo  Mo201  1  0.59559029  0.39318648  -0.00846151  1
  Mo  Mo202  1  0.59641255  0.79516710  0.19979764  1
  Mo  Mo203  1  0.59891894  0.80580767  0.59252797  1
  Mo  Mo204  1  0.08453924  0.69596560  0.90948589  1
  Mo  Mo205  1  0.20409495  0.40155411  0.19626818  1
  Mo  Mo206  1  0.10165640  0.89872707  0.89361513  1
  Mo  Mo207  1  0.29324413  0.30633856  0.90256339  1
  Mo  Mo208  1  0.80089447  0.20948328  0.40700803  1
  Mo  Mo209  1  0.09268977  0.89358002  0.29903887  1
  Mo  Mo210  1  0.40040051  0.20307108  0.80364661  1
  Mo  Mo211  1  0.70348479  0.69898143  0.09463115  1
  Mo  Mo212  1  0.51534998  0.49563514  0.68882491  1
  Mo  Mo213  1  0.19700241  0.59754895  0.19903233  1
  Mo  Mo214  1  0.19933952  0.00389085  0.59435032  1
  Mo  Mo215  1  0.70942307  0.30048541  0.08325636  1
  Mo  Mo216  1  0.60455333  0.20985286  0.61004727  1
  Mo  Mo217  1  0.78965018  0.79114647  0.00145634  1
  Mo  Mo218  1  0.19638228  0.79796371  0.19585949  1
  Mo  Mo219  1  0.40339686  0.59727054  0.39679164  1
  Mo  Mo220  1  0.50505655  0.90283200  0.91674652  1
  Mo  Mo221  1  0.10436877  0.49649256  0.10282607  1
  Mo  Mo222  1  0.70931798  0.30694100  0.50799248  1
  Mo  Mo223  1  0.89923696  0.50526827  0.89921210  1
  Mo  Mo224  1  0.90144553  0.49659604  0.30219943  1
  Mo  Mo225  1  0.59535808  0.79971507  0.39637138  1
  Mo  Mo226  1  0.09885438  0.29056417  0.31102230  1
  Mo  Mo227  1  0.89353311  0.49237380  0.50057646  1
  Mo  Mo228  1  0.60625307  0.20772040  0.39548651  1
  Mo  Mo229  1  0.79279411  0.79544780  0.39647311  1
  Mo  Mo230  1  0.89517330  0.10763378  0.69497927  1
  Mo  Mo231  1  0.70329415  0.29771525  0.31723839  1
  Mo  Mo232  1  -0.00094640  0.60035263  0.00627180  1
  Mo  Mo233  1  0.01025381  0.79604212  0.00475976  1
  Mo  Mo234  1  0.00411455  0.80791529  0.39612349  1
  Mo  Mo235  1  0.79827366  0.19948850  0.19861324  1
  Mo  Mo236  1  0.20654844  0.61423005  0.58300873  1
  Mo  Mo237  1  0.39997653  0.20307391  0.00532239  1
  Mo  Mo238  1  0.90790943  0.69285416  0.09962028  1
  Mo  Mo239  1  -0.00420220  0.40113045  0.80269385  1
  Mo  Mo240  1  -0.00060760  0.20260261  0.79620235  1
  Mo  Mo241  1  0.79882985  0.79571586  0.60355000  1
  Mo  Mo242  1  0.00068575  0.19765631  0.41622686  1
  Mo  Mo243  1  0.39657446  0.80551331  0.59196050  1
  Mo  Mo244  1  0.10021844  0.30190531  0.09036464  1
  Mo  Mo245  1  0.50223800  0.10387304  0.30026157  1
  Mo  Mo246  1  0.10764924  0.90903318  0.50101233  1
  Mo  Mo247  1  0.00085489  0.39756772  -0.00160422  1
  Mo  Mo248  1  0.09993345  0.50969459  0.29624545  1
  Mo  Mo249  1  0.00459842  0.19640354  0.19340594  1
