# generated using pymatgen
data_HfZrTaTiMo
_symmetry_space_group_name_H-M   'P 1'
_cell_length_a   16.88803838
_cell_length_b   16.88950104
_cell_length_c   16.87845513
_cell_angle_alpha   89.98242075
_cell_angle_beta   89.99755986
_cell_angle_gamma   89.97570694
_symmetry_Int_Tables_number   1
_chemical_formula_structural   HfZrTaTiMo
_chemical_formula_sum   'Hf50 Zr50 Ta50 Ti50 Mo50'
_cell_volume   4814.25023694
_cell_formula_units_Z   50
loop_
 _symmetry_equiv_pos_site_id
 _symmetry_equiv_pos_as_xyz
  1  'x, y, z'
loop_
 _atom_site_type_symbol
 _atom_site_label
 _atom_site_symmetry_multiplicity
 _atom_site_fract_x
 _atom_site_fract_y
 _atom_site_fract_z
 _atom_site_occupancy
  Hf  Hf0  1  0.00526585  0.20130793  0.40342562  1
  Hf  Hf1  1  0.70740636  0.70449358  0.49669441  1
  Hf  Hf2  1  0.89297481  0.10352873  0.30137418  1
  Hf  Hf3  1  0.30704070  0.88891616  0.10356085  1
  Hf  Hf4  1  0.40238809  0.00400813  0.59904865  1
  Hf  Hf5  1  0.89787488  0.50856603  0.09134677  1
  Hf  Hf6  1  0.60759093  0.39297394  -0.00134001  1
  Hf  Hf7  1  0.50402974  0.10621372  0.49921155  1
  Hf  Hf8  1  0.79866624  0.80518849  0.20021244  1
  Hf  Hf9  1  0.30119623  0.30537319  0.70392156  1
  Hf  Hf10  1  0.89060198  0.10413476  0.69198341  1
  Hf  Hf11  1  0.40611623  -0.00515500  0.39729373  1
  Hf  Hf12  1  0.80437197  0.80134909  0.59908106  1
  Hf  Hf13  1  0.50491054  0.30424894  0.30020659  1
  Hf  Hf14  1  0.09918424  0.90421629  0.69348020  1
  Hf  Hf15  1  0.00041082  0.00172489  0.79898874  1
  Hf  Hf16  1  0.80200315  0.39987692  0.39714908  1
  Hf  Hf17  1  0.50543714  0.30607532  0.50961275  1
  Hf  Hf18  1  0.89116046  0.70257518  0.30195229  1
  Hf  Hf19  1  0.81000519  0.80285260  0.00896186  1
  Hf  Hf20  1  0.11807061  0.29822548  0.28102230  1
  Hf  Hf21  1  0.20406042  0.60755686  0.19191021  1
  Hf  Hf22  1  0.69825864  0.69361895  0.09738294  1
  Hf  Hf23  1  0.80367649  0.40767815  0.19958216  1
  Hf  Hf24  1  -0.00073084  0.40101916  -0.00479318  1
  Hf  Hf25  1  0.50646538  0.10020451  0.90332714  1
  Hf  Hf26  1  0.79906452  -0.00622460  0.20142594  1
  Hf  Hf27  1  0.10085330  0.51494646  0.09427677  1
  Hf  Hf28  1  0.40040070  0.19972413  0.79843835  1
  Hf  Hf29  1  0.60222256  0.19839841  0.19960909  1
  Hf  Hf30  1  0.20109985  -0.00361980  -0.00209165  1
  Hf  Hf31  1  0.09621825  0.89579638  0.29089294  1
  Hf  Hf32  1  -0.01438502  0.80665599  0.39781952  1
  Hf  Hf33  1  0.70361811  0.30448016  0.69131980  1
  Hf  Hf34  1  0.50394220  0.50065034  0.30002454  1
  Hf  Hf35  1  0.80050756  0.40474283  0.80968516  1
  Hf  Hf36  1  0.30264090  0.69594761  0.49391581  1
  Hf  Hf37  1  0.89252569  0.29618727  0.50781023  1
  Hf  Hf38  1  0.40542302  0.20370287  0.01108110  1
  Hf  Hf39  1  0.71322333  0.09984306  0.49677744  1
  Hf  Hf40  1  0.50715235  0.51043052  0.09196621  1
  Hf  Hf41  1  0.39712460  0.00872498  0.80067600  1
  Hf  Hf42  1  0.49487518  0.49703168  0.90040213  1
  Hf  Hf43  1  0.39796242  0.20429932  0.39721954  1
  Hf  Hf44  1  0.90058529  0.90122673  0.89818249  1
  Hf  Hf45  1  0.18850140  0.40159624  0.80589022  1
  Hf  Hf46  1  0.70321785  0.49856894  0.69797669  1
  Hf  Hf47  1  0.49634267  0.89225966  0.69909738  1
  Hf  Hf48  1  0.19626668  0.79275653  0.60499336  1
  Hf  Hf49  1  0.09142301  0.70366578  0.49713496  1
  Zr  Zr50  1  0.29961730  0.09526999  0.10641629  1
  Zr  Zr51  1  0.39366409  0.40018539  0.20029989  1
  Zr  Zr52  1  0.10784574  0.09257351  0.69687578  1
  Zr  Zr53  1  0.30213906  0.89517257  0.90303993  1
  Zr  Zr54  1  0.50023146  0.90045196  0.90462157  1
  Zr  Zr55  1  0.19331650  0.40482662  0.00710025  1
  Zr  Zr56  1  0.89797204  0.29019403  0.89700769  1
  Zr  Zr57  1  0.39596205  0.39491463  0.01641414  1
  Zr  Zr58  1  0.70775738  0.10077762  0.70031579  1
  Zr  Zr59  1  0.00461840  0.40576334  0.19688093  1
  Zr  Zr60  1  0.09978236  0.70678969  0.28955183  1
  Zr  Zr61  1  0.09470120  0.50122606  0.70275821  1
  Zr  Zr62  1  0.29377843  0.90690592  0.70329750  1
  Zr  Zr63  1  0.70312014  0.69739697  0.69669310  1
  Zr  Zr64  1  0.29863223  0.51044531  0.90759631  1
  Zr  Zr65  1  0.89577366  0.28880765  0.29109782  1
  Zr  Zr66  1  0.09417814  0.28566669  0.90385877  1
  Zr  Zr67  1  -0.00218205  0.60331791  0.60037379  1
  Zr  Zr68  1  0.10498357  0.09489897  0.50312202  1
  Zr  Zr69  1  0.29952855  0.29879296  0.90012846  1
  Zr  Zr70  1  0.48488568  0.72195055  0.50382387  1
  Zr  Zr71  1  0.89875682  0.30009523  0.69743930  1
  Zr  Zr72  1  0.00082418  0.40417573  0.39082228  1
  Zr  Zr73  1  0.59956852  -0.00487246  0.59526209  1
  Zr  Zr74  1  0.20254737  0.80278786  0.39522987  1
  Zr  Zr75  1  0.89477172  0.10166703  0.89377972  1
  Zr  Zr76  1  0.20296140  0.60060501  0.60578716  1
  Zr  Zr77  1  0.10143965  0.89103502  0.10132335  1
  Zr  Zr78  1  0.32125757  0.88341764  0.50468811  1
  Zr  Zr79  1  0.59567647  0.60892840  0.39798676  1
  Zr  Zr80  1  0.60902584  0.39695108  0.40074407  1
  Zr  Zr81  1  0.80742850  0.59076627  0.40211737  1
  Zr  Zr82  1  0.40290084  0.20010219  0.20380779  1
  Zr  Zr83  1  0.68222326  0.90527050  0.09727715  1
  Zr  Zr84  1  0.70294351  0.49157653  0.51475569  1
  Zr  Zr85  1  0.69843477  0.09444752  0.09710930  1
  Zr  Zr86  1  0.59045787  0.60310577  0.59805168  1
  Zr  Zr87  1  0.09731368  0.09917995  0.10195010  1
  Zr  Zr88  1  0.71128419  0.29908217  0.10433751  1
  Zr  Zr89  1  0.40468625  0.60298050  0.19571561  1
  Zr  Zr90  1  0.59732485  0.60199426  0.80679578  1
  Zr  Zr91  1  0.19842805  0.78650079  0.80226189  1
  Zr  Zr92  1  0.20974824  -0.00828311  0.39970196  1
  Zr  Zr93  1  0.29635350  0.30267172  0.50445294  1
  Zr  Zr94  1  0.09992001  0.09514548  0.29988259  1
  Zr  Zr95  1  0.00629646  0.78998112  0.79649927  1
  Zr  Zr96  1  0.70017146  0.69805976  0.90539193  1
  Zr  Zr97  1  0.26541069  0.29637788  0.12805423  1
  Zr  Zr98  1  0.79887163  0.80020905  0.80490014  1
  Zr  Zr99  1  0.10242812  0.49500749  0.49923656  1
  Ta  Ta100  1  0.50068488  0.30324899  0.89536014  1
  Ta  Ta101  1  0.30334707  0.49915066  0.70946243  1
  Ta  Ta102  1  0.30552736  0.70382209  0.29511175  1
  Ta  Ta103  1  0.50401817  0.89856694  0.29325858  1
  Ta  Ta104  1  0.50988997  0.10833297  0.70181153  1
  Ta  Ta105  1  -0.02174162  0.80008560  0.18386221  1
  Ta  Ta106  1  0.90277352  0.69702660  0.69811471  1
  Ta  Ta107  1  0.19758318  0.20545869  0.60276756  1
  Ta  Ta108  1  0.59678561  0.80633192  0.39816598  1
  Ta  Ta109  1  0.20230259  0.40281271  0.39155553  1
  Ta  Ta110  1  0.89763108  0.90487478  0.69489163  1
  Ta  Ta111  1  0.50324593  0.30524321  0.70244228  1
  Ta  Ta112  1  0.60600255  0.20478114  0.80449355  1
  Ta  Ta113  1  0.09198441  0.90105083  0.50627170  1
  Ta  Ta114  1  -0.00223760  0.40948406  0.80497990  1
  Ta  Ta115  1  0.39285609  0.40499962  0.40119845  1
  Ta  Ta116  1  0.40264361  0.00149591  0.00418350  1
  Ta  Ta117  1  0.39995868  0.60255926  0.80106268  1
  Ta  Ta118  1  0.09780667  0.89813268  0.90343085  1
  Ta  Ta119  1  -0.00391342  0.59254949  0.39172792  1
  Ta  Ta120  1  0.09834372  0.09784673  0.90254896  1
  Ta  Ta121  1  0.40019603  0.78690180  0.80790346  1
  Ta  Ta122  1  -0.01375007  -0.00780643  0.19904642  1
  Ta  Ta123  1  0.51106229  0.08695328  0.10016239  1
  Ta  Ta124  1  0.81340140  0.59612819  0.80464351  1
  Ta  Ta125  1  0.70412470  0.90043811  0.49576345  1
  Ta  Ta126  1  0.60634224  -0.00346766  0.80136335  1
  Ta  Ta127  1  0.60227056  0.20332214  -0.00399942  1
  Ta  Ta128  1  0.70610458  0.90491480  0.70074802  1
  Ta  Ta129  1  0.49666617  0.49343713  0.70317932  1
  Ta  Ta130  1  0.59990884  0.80234340  0.80497905  1
  Ta  Ta131  1  -0.01032189  -0.00486649  0.40042308  1
  Ta  Ta132  1  -0.00640872  0.60451181  0.20033911  1
  Ta  Ta133  1  0.49721000  0.70144498  0.70356848  1
  Ta  Ta134  1  -0.00526777  -0.00363723  0.00389360  1
  Ta  Ta135  1  0.31008321  0.69974827  0.08536353  1
  Ta  Ta136  1  0.60028599  0.60905829  0.20109935  1
  Ta  Ta137  1  0.49302857  0.49757560  0.50337838  1
  Ta  Ta138  1  0.60965702  0.20187557  0.39943607  1
  Ta  Ta139  1  0.39827717  0.59652491  0.60491962  1
  Ta  Ta140  1  0.39683833  0.40594632  0.60270559  1
  Ta  Ta141  1  0.59341960  0.79699368  0.00046126  1
  Ta  Ta142  1  0.19802999  0.78735619  -0.00473849  1
  Ta  Ta143  1  0.40003215  0.59967725  0.39723936  1
  Ta  Ta144  1  0.79233646  0.19781561  -0.00586598  1
  Ta  Ta145  1  0.29612867  0.50425184  0.29998419  1
  Ta  Ta146  1  0.89470760  0.10234280  0.09645822  1
  Ta  Ta147  1  0.69999895  0.50644328  0.28971633  1
  Ta  Ta148  1  0.90122000  0.28765577  0.09443184  1
  Ta  Ta149  1  0.29686029  0.10340852  0.50545003  1
  Ti  Ti150  1  0.70084032  0.70306696  0.30327168  1
  Ti  Ti151  1  0.00865647  0.20012102  0.78934725  1
  Ti  Ti152  1  0.60391180  0.39674335  0.80474498  1
  Ti  Ti153  1  0.19373966  0.19881587  0.00783563  1
  Ti  Ti154  1  0.80154642  0.60198651  0.19991816  1
  Ti  Ti155  1  0.89507453  0.90192626  0.50249422  1
  Ti  Ti156  1  0.80622177  0.60131933  -0.00686457  1
  Ti  Ti157  1  0.60036323  -0.00303633  0.39880318  1
  Ti  Ti158  1  0.89771285  0.70090426  0.50209896  1
  Ti  Ti159  1  0.90828218  0.69902855  0.90237312  1
  Ti  Ti160  1  0.00323423  0.60607624  -0.01124061  1
  Ti  Ti161  1  0.90179527  0.48958167  0.51553548  1
  Ti  Ti162  1  0.19819386  0.39890182  0.60475307  1
  Ti  Ti163  1  0.70126755  0.09343675  0.89603724  1
  Ti  Ti164  1  0.19625364  0.59642491  0.39242490  1
  Ti  Ti165  1  0.69447722  0.89841785  0.30408138  1
  Ti  Ti166  1  0.70386811  0.10030103  0.30330935  1
  Ti  Ti167  1  0.80592096  -0.01155540  0.39622166  1
  Ti  Ti168  1  0.60695147  0.20369776  0.59796139  1
  Ti  Ti169  1  0.39857609  0.19999837  0.60612596  1
  Ti  Ti170  1  0.60486776  0.40129418  0.19460810  1
  Ti  Ti171  1  0.20548974  -0.00615286  0.20437572  1
  Ti  Ti172  1  0.29009281  0.09800972  0.69523203  1
  Ti  Ti173  1  0.79591084  -0.00381633  -0.00568076  1
  Ti  Ti174  1  0.80042144  0.39976484  -0.00547553  1
  Ti  Ti175  1  0.29758753  0.10165841  0.30133664  1
  Ti  Ti176  1  0.18919951  0.60715187  0.81035947  1
  Ti  Ti177  1  0.09945128  0.30727420  0.50623073  1
  Ti  Ti178  1  0.89840366  0.50012752  0.69625877  1
  Ti  Ti179  1  0.19617870  0.19786511  0.79481169  1
  Ti  Ti180  1  0.00234044  0.19860947  0.19264550  1
  Ti  Ti181  1  0.40673348  0.00029269  0.20327926  1
  Ti  Ti182  1  0.41364508  0.79098241  0.19435188  1
  Ti  Ti183  1  0.49285368  0.69478351  0.91462587  1
  Ti  Ti184  1  0.69967161  0.50592067  0.90778783  1
  Ti  Ti185  1  0.30481234  0.69364754  0.70460110  1
  Ti  Ti186  1  0.20386134  0.20601517  0.40004072  1
  Ti  Ti187  1  0.29921411  0.50149797  0.49903290  1
  Ti  Ti188  1  0.60098358  0.80490536  0.59877086  1
  Ti  Ti189  1  0.69989450  0.50826968  0.09577349  1
  Ti  Ti190  1  0.50159963  0.90304277  0.10147311  1
  Ti  Ti191  1  0.00941934  0.20502387  0.60193694  1
  Ti  Ti192  1  0.09377353  0.70505207  0.09272577  1
  Ti  Ti193  1  0.29225287  0.10293995  0.90128866  1
  Ti  Ti194  1  0.30974459  0.88737570  0.28868727  1
  Ti  Ti195  1  0.70847554  0.29234346  0.29946715  1
  Ti  Ti196  1  -0.00891409  0.00052552  0.59196048  1
  Ti  Ti197  1  0.50923700  0.09458634  0.29915145  1
  Ti  Ti198  1  0.89277359  0.10430587  0.49984268  1
  Ti  Ti199  1  0.59502645  0.79334522  0.20279595  1
  Mo  Mo200  1  0.09256124  0.51081495  0.89936764  1
  Mo  Mo201  1  0.29652498  0.50924191  0.10256066  1
  Mo  Mo202  1  0.69994163  0.29779202  0.89702649  1
  Mo  Mo203  1  0.80443883  0.40246656  0.60242397  1
  Mo  Mo204  1  0.89691044  0.90173127  0.30091354  1
  Mo  Mo205  1  0.60057967  0.60026477  0.00255115  1
  Mo  Mo206  1  0.09476203  0.69697508  0.70239889  1
  Mo  Mo207  1  0.59079723  0.39989726  0.60545157  1
  Mo  Mo208  1  0.29689460  0.30681802  0.30770522  1
  Mo  Mo209  1  0.59760058  0.00120803  0.21433351  1
  Mo  Mo210  1  0.79645802  -0.00314747  0.79817259  1
  Mo  Mo211  1  0.50110798  0.70623227  0.29708826  1
  Mo  Mo212  1  0.10363189  0.50900162  0.29706367  1
  Mo  Mo213  1  0.20539579  -0.00113936  0.59041708  1
  Mo  Mo214  1  0.78634202  0.19961367  0.80288566  1
  Mo  Mo215  1  0.79675691  0.20102383  0.59339092  1
  Mo  Mo216  1  0.50904402  0.89964077  0.49455487  1
  Mo  Mo217  1  0.40621010  0.79867983  0.37690456  1
  Mo  Mo218  1  -0.00631416  0.80359394  0.59719303  1
  Mo  Mo219  1  0.21407824  0.79333418  0.19080605  1
  Mo  Mo220  1  0.00232359  0.79642047  -0.00153566  1
  Mo  Mo221  1  0.69776212  0.90302343  0.89900395  1
  Mo  Mo222  1  0.89715124  0.50824654  0.29049622  1
  Mo  Mo223  1  0.59924461  -0.00124503  -0.00715390  1
  Mo  Mo224  1  0.80574810  -0.00548892  0.59336617  1
  Mo  Mo225  1  0.50430830  0.70584878  0.09686287  1
  Mo  Mo226  1  0.79343411  0.80642224  0.40162932  1
  Mo  Mo227  1  0.89981274  0.50536579  0.90142451  1
  Mo  Mo228  1  -0.00393349  0.19138021  0.00605749  1
  Mo  Mo229  1  0.30240767  0.69575107  0.90160346  1
  Mo  Mo230  1  0.89707266  0.90875015  0.09276354  1
  Mo  Mo231  1  0.90082170  0.69160734  0.09676678  1
  Mo  Mo232  1  0.19805829  0.61017723  -0.00296321  1
  Mo  Mo233  1  0.19908856  0.17884344  0.21081616  1
  Mo  Mo234  1  0.09848918  0.30006119  0.69802722  1
  Mo  Mo235  1  0.19796041  0.00943558  0.81269257  1
  Mo  Mo236  1  0.39468967  0.79116874  0.62046235  1
  Mo  Mo237  1  0.51597138  0.29536906  0.09961339  1
  Mo  Mo238  1  0.79884775  0.19322738  0.19522970  1
  Mo  Mo239  1  0.81131870  0.59921905  0.60496912  1
  Mo  Mo240  1  0.09832289  0.69630788  0.90558791  1
  Mo  Mo241  1  0.40749356  0.79772733  0.00237957  1
  Mo  Mo242  1  0.79410678  0.20036568  0.39844897  1
  Mo  Mo243  1  0.09120666  0.29313491  0.10179096  1
  Mo  Mo244  1  -0.00598042  0.59783477  0.80482443  1
  Mo  Mo245  1  0.40234974  0.40187534  0.79646556  1
  Mo  Mo246  1  0.39908057  0.60438197  -0.00209299  1
  Mo  Mo247  1  0.19684661  0.42452305  0.20395234  1
  Mo  Mo248  1  0.00054631  0.39714207  0.60627798  1
  Mo  Mo249  1  0.70289960  0.29327661  0.50298324  1
