# generated using pymatgen
data_HfZrTaTiMo
_symmetry_space_group_name_H-M   'P 1'
_cell_length_a   16.88292102
_cell_length_b   16.88166454
_cell_length_c   16.88529718
_cell_angle_alpha   89.98475198
_cell_angle_beta   90.02462110
_cell_angle_gamma   89.97795425
_symmetry_Int_Tables_number   1
_chemical_formula_structural   HfZrTaTiMo
_chemical_formula_sum   'Hf50 Zr50 Ta50 Ti50 Mo50'
_cell_volume   4812.50812516
_cell_formula_units_Z   50
loop_
 _symmetry_equiv_pos_site_id
 _symmetry_equiv_pos_as_xyz
  1  'x, y, z'
loop_
 _atom_site_type_symbol
 _atom_site_label
 _atom_site_symmetry_multiplicity
 _atom_site_fract_x
 _atom_site_fract_y
 _atom_site_fract_z
 _atom_site_occupancy
  Hf  Hf0  1  0.89853201  0.09893880  0.29078541  1
  Hf  Hf1  1  0.50580575  0.70397597  0.91417887  1
  Hf  Hf2  1  -0.01312796  -0.00641692  0.40237481  1
  Hf  Hf3  1  0.69980124  0.10773503  0.69361624  1
  Hf  Hf4  1  0.09434236  0.89815192  0.90112085  1
  Hf  Hf5  1  0.60273585  0.00199108  -0.00317944  1
  Hf  Hf6  1  0.30115158  0.49517190  0.29382702  1
  Hf  Hf7  1  0.09895720  0.10772156  0.49355040  1
  Hf  Hf8  1  0.40383386  0.79853048  0.79955038  1
  Hf  Hf9  1  0.40336531  -0.00073686  0.79746699  1
  Hf  Hf10  1  0.29381511  0.90511065  0.48899106  1
  Hf  Hf11  1  0.90603112  0.11132474  0.49633101  1
  Hf  Hf12  1  0.09898815  0.11597267  0.72328688  1
  Hf  Hf13  1  0.69127857  0.30635159  0.30310627  1
  Hf  Hf14  1  0.60818122  0.79353442  0.80313456  1
  Hf  Hf15  1  0.38999636  0.19975760  0.01165768  1
  Hf  Hf16  1  0.89775496  0.11039769  0.90194106  1
  Hf  Hf17  1  0.29527679  0.49597764  0.90171702  1
  Hf  Hf18  1  0.40155189  0.80092618  0.39516260  1
  Hf  Hf19  1  0.29966707  0.10489604  0.50083797  1
  Hf  Hf20  1  0.19893826  0.20890865  0.60487113  1
  Hf  Hf21  1  0.00327405  0.00957592  0.00185689  1
  Hf  Hf22  1  0.89178441  0.89198980  0.29407245  1
  Hf  Hf23  1  0.09422401  0.69556241  0.70461448  1
  Hf  Hf24  1  0.19765514  0.79538090  0.80611005  1
  Hf  Hf25  1  0.40220922  0.59252767  0.40085452  1
  Hf  Hf26  1  0.49549316  0.28779899  0.68969401  1
  Hf  Hf27  1  0.59708201  0.00090645  0.80231849  1
  Hf  Hf28  1  0.90501452  0.30342335  0.49291506  1
  Hf  Hf29  1  0.79006206  0.19865854  0.40032661  1
  Hf  Hf30  1  0.70618245  0.29050557  0.90320894  1
  Hf  Hf31  1  0.89515037  0.29548320  0.09652276  1
  Hf  Hf32  1  0.50259409  0.68938943  0.50601647  1
  Hf  Hf33  1  0.39799693  0.80321443  0.20306294  1
  Hf  Hf34  1  0.70462748  0.29605572  0.09543397  1
  Hf  Hf35  1  0.40037789  0.40420211  0.79288139  1
  Hf  Hf36  1  0.90126290  0.29758070  0.29268744  1
  Hf  Hf37  1  0.48908056  0.10631957  0.90167370  1
  Hf  Hf38  1  0.50286767  0.30185084  0.09967286  1
  Hf  Hf39  1  0.09545591  0.49162245  0.49555038  1
  Hf  Hf40  1  0.59865499  0.19749317  0.20248575  1
  Hf  Hf41  1  0.80519595  0.00084046  0.59311703  1
  Hf  Hf42  1  0.69298630  0.51436234  0.69560120  1
  Hf  Hf43  1  0.70247917  0.89740034  0.69843574  1
  Hf  Hf44  1  0.61092203  0.79411971  0.19353477  1
  Hf  Hf45  1  0.40942727  0.20221645  0.40037196  1
  Hf  Hf46  1  0.00071594  0.59977127  0.39391447  1
  Hf  Hf47  1  0.29136491  0.11236093  0.89376559  1
  Hf  Hf48  1  0.40672668  0.80601034  0.60223069  1
  Hf  Hf49  1  0.18588501  0.60246303  -0.00074026  1
  Zr  Zr50  1  0.19410808  0.59776954  0.40118861  1
  Zr  Zr51  1  0.89960169  0.89792426  0.90183346  1
  Zr  Zr52  1  0.40319841  0.59526199  0.79764886  1
  Zr  Zr53  1  0.10142999  0.09909427  0.30121315  1
  Zr  Zr54  1  0.59689450  0.40491428  0.80006842  1
  Zr  Zr55  1  0.39900619  0.59851483  0.00359199  1
  Zr  Zr56  1  0.50714339  0.49245429  0.30298698  1
  Zr  Zr57  1  0.40390617  0.00578401  0.39431433  1
  Zr  Zr58  1  0.69456353  0.30347537  0.69135158  1
  Zr  Zr59  1  0.41004352  0.00681095  0.60422964  1
  Zr  Zr60  1  0.89967362  0.69590324  0.90281392  1
  Zr  Zr61  1  -0.00547504  0.80270071  0.59884008  1
  Zr  Zr62  1  0.19736681  0.58879031  0.60539013  1
  Zr  Zr63  1  0.89999465  0.49702847  0.09220092  1
  Zr  Zr64  1  0.79804254  0.60369084  0.19420023  1
  Zr  Zr65  1  0.19083760  0.79850379  0.59828380  1
  Zr  Zr66  1  0.10749354  0.90617022  0.29570561  1
  Zr  Zr67  1  0.88812584  0.69396658  0.49784448  1
  Zr  Zr68  1  0.00423822  0.59963007  0.19729889  1
  Zr  Zr69  1  0.78862209  0.41128290  0.20114083  1
  Zr  Zr70  1  0.60993686  0.59325600  0.19944503  1
  Zr  Zr71  1  0.20507411  0.40029284  0.60823882  1
  Zr  Zr72  1  0.00188422  0.40052958  0.60999237  1
  Zr  Zr73  1  0.29147102  0.30523576  0.10587271  1
  Zr  Zr74  1  0.11004172  0.90953591  0.49054670  1
  Zr  Zr75  1  0.29770957  0.49873805  0.10670384  1
  Zr  Zr76  1  0.29984435  0.69856691  0.10780461  1
  Zr  Zr77  1  0.71103161  0.70564532  0.31166101  1
  Zr  Zr78  1  0.60288975  0.00089491  0.19402397  1
  Zr  Zr79  1  0.69520973  0.49929757  0.50199437  1
  Zr  Zr80  1  0.10203912  0.28902619  0.89241753  1
  Zr  Zr81  1  0.10567161  0.30529328  0.28921459  1
  Zr  Zr82  1  0.80151412  0.40154057  0.80237743  1
  Zr  Zr83  1  0.80180604  0.00107310  0.79870406  1
  Zr  Zr84  1  0.59615700  0.19427309  0.80059972  1
  Zr  Zr85  1  0.60058695  0.00475021  0.59157316  1
  Zr  Zr86  1  0.19749833  0.00929600  0.00454083  1
  Zr  Zr87  1  0.89990624  0.89647385  0.09676114  1
  Zr  Zr88  1  0.30421232  0.89556251  0.90963294  1
  Zr  Zr89  1  0.49602628  0.89029856  0.08816743  1
  Zr  Zr90  1  0.29900184  0.69970819  0.49886636  1
  Zr  Zr91  1  0.70205817  0.69051441  0.50967294  1
  Zr  Zr92  1  0.50884082  0.90242891  0.29968001  1
  Zr  Zr93  1  -0.00352574  0.00297102  0.61167358  1
  Zr  Zr94  1  0.00343581  0.79560806  0.40523673  1
  Zr  Zr95  1  0.89675342  0.50760448  0.70081176  1
  Zr  Zr96  1  0.30459562  0.69269216  0.69743782  1
  Zr  Zr97  1  0.70552044  0.89685664  0.30289335  1
  Zr  Zr98  1  0.09651265  0.29391168  0.48628753  1
  Zr  Zr99  1  0.19871801  0.00482999  0.61430723  1
  Ta  Ta100  1  0.89337287  0.10094581  0.09968600  1
  Ta  Ta101  1  0.59697989  0.19536428  0.40724712  1
  Ta  Ta102  1  0.49700894  0.10001771  0.10168616  1
  Ta  Ta103  1  0.19184154  0.39734138  -0.00260845  1
  Ta  Ta104  1  0.40747707  0.39754784  0.20046943  1
  Ta  Ta105  1  0.19801934  0.00355905  0.80330241  1
  Ta  Ta106  1  0.79122039  0.79465421  -0.00557967  1
  Ta  Ta107  1  0.90314890  0.49611823  0.29572363  1
  Ta  Ta108  1  0.00017078  0.79570060  0.19865797  1
  Ta  Ta109  1  0.79470704  0.78970214  0.79894499  1
  Ta  Ta110  1  0.39414229  0.00448056  0.00821407  1
  Ta  Ta111  1  0.89341820  0.70706852  0.29613949  1
  Ta  Ta112  1  0.00025530  0.39574499  -0.00530260  1
  Ta  Ta113  1  0.30908297  0.11412187  0.70598547  1
  Ta  Ta114  1  0.10687258  0.70633971  0.29867616  1
  Ta  Ta115  1  0.50336349  0.69716669  0.10040829  1
  Ta  Ta116  1  0.50179290  0.69495330  0.29728761  1
  Ta  Ta117  1  0.51287195  0.68829508  0.69730850  1
  Ta  Ta118  1  0.00307914  0.60102124  0.59710466  1
  Ta  Ta119  1  0.69070348  0.30113424  0.50322707  1
  Ta  Ta120  1  0.80166159  0.39925862  0.59551035  1
  Ta  Ta121  1  0.29893465  0.30133624  0.89859391  1
  Ta  Ta122  1  0.29192484  0.90243646  0.10466314  1
  Ta  Ta123  1  0.40168932  0.40540710  0.60009065  1
  Ta  Ta124  1  0.70938183  0.10417919  0.09343772  1
  Ta  Ta125  1  0.60323645  0.79739057  0.60133419  1
  Ta  Ta126  1  0.19959477  0.40335675  0.79472439  1
  Ta  Ta127  1  0.39932189  0.19656175  0.20799394  1
  Ta  Ta128  1  0.09936930  0.90043689  0.10701268  1
  Ta  Ta129  1  0.38826244  0.00713859  0.19947435  1
  Ta  Ta130  1  0.00054134  0.19671146  0.19216734  1
  Ta  Ta131  1  0.79762449  -0.00047986  0.19407077  1
  Ta  Ta132  1  0.00325989  0.59659849  0.80412800  1
  Ta  Ta133  1  0.50953908  0.50493258  0.90266624  1
  Ta  Ta134  1  0.19398679  0.79612573  0.00532928  1
  Ta  Ta135  1  0.79321933  0.00008469  0.40752280  1
  Ta  Ta136  1  0.49236273  0.30170645  0.90332633  1
  Ta  Ta137  1  0.80272357  0.20553510  0.59860677  1
  Ta  Ta138  1  0.09559159  0.49479705  0.89813386  1
  Ta  Ta139  1  0.69953991  0.50571535  0.07417750  1
  Ta  Ta140  1  0.60240147  0.79924568  0.40959350  1
  Ta  Ta141  1  0.00380601  0.19921228  0.00143116  1
  Ta  Ta142  1  0.00571313  0.59848125  -0.00029753  1
  Ta  Ta143  1  0.30434494  0.30501232  0.29962671  1
  Ta  Ta144  1  -0.00870129  0.20569102  0.61695135  1
  Ta  Ta145  1  0.09830082  0.29986385  0.10178679  1
  Ta  Ta146  1  0.29913164  0.69578057  0.29570643  1
  Ta  Ta147  1  0.79706897  0.40285888  0.40019544  1
  Ta  Ta148  1  0.30787031  0.30205060  0.49911126  1
  Ta  Ta149  1  0.60060804  0.40170086  -0.00641891  1
  Ti  Ti150  1  0.09532560  0.90115040  0.71146248  1
  Ti  Ti151  1  0.69861681  0.69633749  0.08443354  1
  Ti  Ti152  1  0.19192305  0.19665852  0.00616008  1
  Ti  Ti153  1  0.20263996  0.80333810  0.20386151  1
  Ti  Ti154  1  0.20449142  0.40063806  0.39585759  1
  Ti  Ti155  1  0.70783905  0.89948746  0.09157988  1
  Ti  Ti156  1  0.09770067  0.48375212  0.10646118  1
  Ti  Ti157  1  0.29940176  0.70052135  0.90619061  1
  Ti  Ti158  1  0.50461311  0.09714475  0.29894349  1
  Ti  Ti159  1  0.50266030  0.50358332  0.09810313  1
  Ti  Ti160  1  0.09878556  0.09503990  0.11315498  1
  Ti  Ti161  1  0.70280608  0.09892229  0.29530753  1
  Ti  Ti162  1  0.60057771  0.59396612  0.40019274  1
  Ti  Ti163  1  0.18880845  0.59221011  0.20460522  1
  Ti  Ti164  1  0.40334375  0.40215417  0.00066029  1
  Ti  Ti165  1  -0.00641816  0.39798271  0.80431372  1
  Ti  Ti166  1  0.89507311  0.70257924  0.09621663  1
  Ti  Ti167  1  -0.00320792  0.00935136  0.80191868  1
  Ti  Ti168  1  0.29618014  0.90109191  0.70264271  1
  Ti  Ti169  1  0.50886432  0.89567356  0.70137145  1
  Ti  Ti170  1  0.30601592  0.29476458  0.70405304  1
  Ti  Ti171  1  0.80191494  0.58505188  0.39113798  1
  Ti  Ti172  1  0.80128286  0.40227074  -0.01223014  1
  Ti  Ti173  1  0.10128375  0.70530874  0.10753694  1
  Ti  Ti174  1  0.30554007  0.49457494  0.50227831  1
  Ti  Ti175  1  0.19465799  0.59377215  0.80196800  1
  Ti  Ti176  1  0.60370825  0.40645592  0.19187503  1
  Ti  Ti177  1  0.09576370  0.30163789  0.71097371  1
  Ti  Ti178  1  0.41042345  0.39640326  0.40857032  1
  Ti  Ti179  1  0.69470641  0.68281982  0.90547701  1
  Ti  Ti180  1  0.21180832  0.20149574  0.39092027  1
  Ti  Ti181  1  0.71074552  0.10377769  0.90708788  1
  Ti  Ti182  1  0.89959607  0.50498719  0.90235472  1
  Ti  Ti183  1  -0.00089883  0.40488746  0.38594793  1
  Ti  Ti184  1  0.79283022  0.60330939  0.80346030  1
  Ti  Ti185  1  0.89888712  0.49926255  0.49885185  1
  Ti  Ti186  1  0.00868676  0.78863783  0.00300600  1
  Ti  Ti187  1  0.50741544  0.90080160  0.49605653  1
  Ti  Ti188  1  0.58433132  0.40589517  0.59321363  1
  Ti  Ti189  1  0.81399544  0.20817564  0.79015665  1
  Ti  Ti190  1  0.20875845  0.19078439  0.19893252  1
  Ti  Ti191  1  0.60963127  0.00826468  0.40940092  1
  Ti  Ti192  1  0.70339092  0.89831509  0.90487721  1
  Ti  Ti193  1  -0.00431674  0.79189899  0.80167377  1
  Ti  Ti194  1  0.89255200  0.69391396  0.69805328  1
  Ti  Ti195  1  0.50424945  0.30499600  0.30176443  1
  Ti  Ti196  1  0.59728046  0.19822929  -0.00053342  1
  Ti  Ti197  1  0.89906282  0.89408322  0.70624526  1
  Ti  Ti198  1  0.79792371  0.80020279  0.60240776  1
  Ti  Ti199  1  0.49954199  0.89318030  0.91028149  1
  Mo  Mo200  1  0.49893654  0.49800365  0.50155837  1
  Mo  Mo201  1  0.70226385  0.10689359  0.49817460  1
  Mo  Mo202  1  0.09901526  0.49611004  0.29608882  1
  Mo  Mo203  1  0.50497827  0.10719376  0.49963322  1
  Mo  Mo204  1  0.41054129  0.59946788  0.20358609  1
  Mo  Mo205  1  0.20347588  0.00014943  0.19894809  1
  Mo  Mo206  1  0.49963279  0.50403434  0.69549306  1
  Mo  Mo207  1  -0.01236708  0.21169587  0.80244902  1
  Mo  Mo208  1  0.80256213  0.79643825  0.18009572  1
  Mo  Mo209  1  0.59898263  0.59822945  0.00081607  1
  Mo  Mo210  1  0.80208963  0.60191083  -0.00615896  1
  Mo  Mo211  1  0.60164840  0.60234776  0.80295330  1
  Mo  Mo212  1  0.70135312  0.49650244  0.31105234  1
  Mo  Mo213  1  0.59767189  0.59919350  0.60360083  1
  Mo  Mo214  1  0.09673162  0.10283666  0.89994503  1
  Mo  Mo215  1  0.00234381  0.39701975  0.19340092  1
  Mo  Mo216  1  0.89629719  0.30480092  0.69962001  1
  Mo  Mo217  1  0.39878533  0.20747519  0.80037132  1
  Mo  Mo218  1  0.80644003  0.59566635  0.60234151  1
  Mo  Mo219  1  0.09634649  0.69284247  0.49825211  1
  Mo  Mo220  1  0.38991204  0.80117595  0.00581926  1
  Mo  Mo221  1  0.89111595  0.89862845  0.50252251  1
  Mo  Mo222  1  0.50014925  0.30324259  0.50018151  1
  Mo  Mo223  1  0.80412800  0.19960857  -0.00057439  1
  Mo  Mo224  1  0.70117188  0.50483750  0.89926294  1
  Mo  Mo225  1  -0.00324414  0.20269747  0.38731044  1
  Mo  Mo226  1  0.49721093  0.10194250  0.69734885  1
  Mo  Mo227  1  0.70510547  0.70042724  0.70193049  1
  Mo  Mo228  1  0.20664295  0.79520879  0.38816938  1
  Mo  Mo229  1  -0.00214723  -0.00037708  0.19322862  1
  Mo  Mo230  1  0.09713332  0.69605876  0.90129717  1
  Mo  Mo231  1  0.20011318  0.39938720  0.19945404  1
  Mo  Mo232  1  0.90363023  0.30210940  0.90173269  1
  Mo  Mo233  1  0.89921137  0.10865875  0.70281006  1
  Mo  Mo234  1  0.20759777  0.21021410  0.79593152  1
  Mo  Mo235  1  0.21126529  0.00971769  0.38922952  1
  Mo  Mo236  1  0.59626448  0.19659860  0.58823247  1
  Mo  Mo237  1  0.29828058  0.49584486  0.70233554  1
  Mo  Mo238  1  0.61353757  0.79813144  -0.00187920  1
  Mo  Mo239  1  0.09577444  0.49945570  0.71356947  1
  Mo  Mo240  1  0.29700160  0.10195864  0.10615598  1
  Mo  Mo241  1  0.29425189  0.90329888  0.29569982  1
  Mo  Mo242  1  0.79629215  0.19189284  0.19942548  1
  Mo  Mo243  1  0.39862051  0.20501553  0.59612845  1
  Mo  Mo244  1  0.29959906  0.10655814  0.29960961  1
  Mo  Mo245  1  0.59671161  0.39240816  0.40863673  1
  Mo  Mo246  1  0.79503797  0.00040996  0.00048608  1
  Mo  Mo247  1  0.69862560  0.89549013  0.50132931  1
  Mo  Mo248  1  0.79927577  0.81306999  0.41984071  1
  Mo  Mo249  1  0.40650151  0.58368773  0.60028355  1
