# generated using pymatgen
data_HfZrTaTiMo
_symmetry_space_group_name_H-M   'P 1'
_cell_length_a   16.88794591
_cell_length_b   16.88828879
_cell_length_c   16.89683887
_cell_angle_alpha   89.99236622
_cell_angle_beta   90.01166032
_cell_angle_gamma   89.99213345
_symmetry_Int_Tables_number   1
_chemical_formula_structural   HfZrTaTiMo
_chemical_formula_sum   'Hf50 Zr50 Ta50 Ti50 Mo50'
_cell_volume   4819.12201076
_cell_formula_units_Z   50
loop_
 _symmetry_equiv_pos_site_id
 _symmetry_equiv_pos_as_xyz
  1  'x, y, z'
loop_
 _atom_site_type_symbol
 _atom_site_label
 _atom_site_symmetry_multiplicity
 _atom_site_fract_x
 _atom_site_fract_y
 _atom_site_fract_z
 _atom_site_occupancy
  Hf  Hf0  1  0.39844491  0.20400208  0.19443603  1
  Hf  Hf1  1  0.30445668  0.29913017  0.31115465  1
  Hf  Hf2  1  0.10254448  0.50667864  0.29988046  1
  Hf  Hf3  1  -0.00535134  0.79514033  0.00615473  1
  Hf  Hf4  1  0.50175491  0.50741378  0.89930239  1
  Hf  Hf5  1  0.79340733  -0.00762813  -0.00602073  1
  Hf  Hf6  1  0.19636785  0.40449291  0.60189266  1
  Hf  Hf7  1  0.00121125  0.19360238  0.00006896  1
  Hf  Hf8  1  -0.00980046  0.79388712  0.59181113  1
  Hf  Hf9  1  0.30081522  0.10038743  0.30320540  1
  Hf  Hf10  1  0.50849930  0.89733995  0.10551664  1
  Hf  Hf11  1  0.30021778  0.09675423  0.90599668  1
  Hf  Hf12  1  0.60588055  0.79789068  -0.00082747  1
  Hf  Hf13  1  0.89312528  0.10347188  0.70111700  1
  Hf  Hf14  1  0.50129723  0.29886157  0.30897530  1
  Hf  Hf15  1  0.49285676  0.49601344  0.29715711  1
  Hf  Hf16  1  0.59061191  0.58817106  0.40436073  1
  Hf  Hf17  1  0.00228427  0.40252466  0.19695984  1
  Hf  Hf18  1  0.89889201  0.28843507  0.29613773  1
  Hf  Hf19  1  0.19866569  0.19945931  0.19579348  1
  Hf  Hf20  1  0.50301109  0.30178759  0.49693782  1
  Hf  Hf21  1  0.09673594  0.89704248  0.69758994  1
  Hf  Hf22  1  0.09493806  0.69862485  0.69390171  1
  Hf  Hf23  1  0.20339633  0.79912123  0.79612266  1
  Hf  Hf24  1  0.59441719  0.39400821  0.19135733  1
  Hf  Hf25  1  0.29748149  0.10466765  0.70148508  1
  Hf  Hf26  1  0.20196012  0.40190288  0.00377722  1
  Hf  Hf27  1  0.91475066  0.49916717  0.68794118  1
  Hf  Hf28  1  0.70010659  0.29304249  0.88082927  1
  Hf  Hf29  1  0.09952198  0.89524195  0.49411338  1
  Hf  Hf30  1  0.19842867  0.40580231  0.40793274  1
  Hf  Hf31  1  0.19535720  0.40601234  0.80822557  1
  Hf  Hf32  1  0.30577429  0.52247453  0.11273914  1
  Hf  Hf33  1  0.60087552  0.00254438  0.21383204  1
  Hf  Hf34  1  0.71052990  0.50184886  0.10675250  1
  Hf  Hf35  1  0.89745301  0.09838273  0.89546114  1
  Hf  Hf36  1  0.70588928  0.30066666  0.30023234  1
  Hf  Hf37  1  0.19439368  0.19367027  0.41200280  1
  Hf  Hf38  1  0.49344025  0.70932624  0.49399775  1
  Hf  Hf39  1  0.69537755  0.70184020  0.29897475  1
  Hf  Hf40  1  0.09587266  0.30190642  0.69470562  1
  Hf  Hf41  1  0.50147001  0.70615143  0.29735784  1
  Hf  Hf42  1  0.19886230  0.00750180  0.59133113  1
  Hf  Hf43  1  0.69803770  0.69731952  0.70469951  1
  Hf  Hf44  1  0.30750614  0.49952982  0.70224366  1
  Hf  Hf45  1  0.69664899  0.70282430  0.49280063  1
  Hf  Hf46  1  0.50427991  0.10154902  0.09205758  1
  Hf  Hf47  1  0.80668213  0.59382608  0.79733467  1
  Hf  Hf48  1  0.20399993  0.39907785  0.19293552  1
  Hf  Hf49  1  0.49882184  0.89729836  0.89949116  1
  Zr  Zr50  1  0.60030635  0.59624378  0.59931321  1
  Zr  Zr51  1  0.80372294  0.20324005  -0.00286806  1
  Zr  Zr52  1  0.58380205  0.80495087  0.60443592  1
  Zr  Zr53  1  0.10119637  0.89837228  0.29074113  1
  Zr  Zr54  1  0.88738133  0.49388491  0.29533990  1
  Zr  Zr55  1  0.79987787  -0.01765503  0.80019318  1
  Zr  Zr56  1  0.40848350  0.38860468  0.79558339  1
  Zr  Zr57  1  0.69115260  0.10521772  0.89060166  1
  Zr  Zr58  1  0.79857182  0.40119387  0.59835231  1
  Zr  Zr59  1  0.70099193  0.10684641  0.69967577  1
  Zr  Zr60  1  0.40392289  -0.00265329  0.20350963  1
  Zr  Zr61  1  0.70565971  0.89348799  0.30273852  1
  Zr  Zr62  1  0.40398936  -0.01875408  0.60614714  1
  Zr  Zr63  1  0.60467985  0.39893703  0.00124198  1
  Zr  Zr64  1  0.81950946  0.78965505  0.39956835  1
  Zr  Zr65  1  0.79833112  0.80386328  -0.00645890  1
  Zr  Zr66  1  0.20333725  0.79784702  0.39424617  1
  Zr  Zr67  1  -0.00368244  0.00115534  0.59866345  1
  Zr  Zr68  1  0.89641720  0.90882486  0.49020494  1
  Zr  Zr69  1  0.39988036  -0.00253441  0.79316375  1
  Zr  Zr70  1  0.40113113  0.80503561  0.77221216  1
  Zr  Zr71  1  0.69706551  0.90093232  0.49560329  1
  Zr  Zr72  1  -0.00154405  0.40191288  0.80525658  1
  Zr  Zr73  1  0.49853590  0.29330777  0.90936474  1
  Zr  Zr74  1  -0.00266038  0.00722235  0.20322695  1
  Zr  Zr75  1  0.09395634  0.29516037  0.30303177  1
  Zr  Zr76  1  -0.00688882  0.60683843  0.19160632  1
  Zr  Zr77  1  0.41833378  0.20261760  0.62255215  1
  Zr  Zr78  1  0.19496516  0.19598885  0.00366586  1
  Zr  Zr79  1  0.00363271  0.40370079  -0.00080332  1
  Zr  Zr80  1  0.19751272  0.59902633  0.80198508  1
  Zr  Zr81  1  0.60201724  0.60618055  0.00074335  1
  Zr  Zr82  1  0.70105496  0.49362794  0.30097597  1
  Zr  Zr83  1  0.40428033  0.60865956  0.60285431  1
  Zr  Zr84  1  0.19490893  0.60636847  -0.00213370  1
  Zr  Zr85  1  0.80540930  0.80044940  0.60726381  1
  Zr  Zr86  1  0.70756166  0.09623850  0.10845648  1
  Zr  Zr87  1  0.80484960  0.61090147  -0.00177221  1
  Zr  Zr88  1  0.31166322  0.70440605  0.90039127  1
  Zr  Zr89  1  0.89392511  0.90338087  0.11033161  1
  Zr  Zr90  1  0.19162766  0.19540861  0.80442482  1
  Zr  Zr91  1  0.00377383  0.19124985  0.59334575  1
  Zr  Zr92  1  0.29947095  0.68588608  0.28464594  1
  Zr  Zr93  1  0.19802160  0.59881289  0.60070526  1
  Zr  Zr94  1  0.80415278  0.39832447  -0.01311722  1
  Zr  Zr95  1  0.39844957  -0.00667220  0.40827409  1
  Zr  Zr96  1  -0.01041917  0.60748518  0.40208735  1
  Zr  Zr97  1  0.31764499  0.50322157  0.90735511  1
  Zr  Zr98  1  0.49931214  0.10421204  0.90264168  1
  Zr  Zr99  1  0.50296505  0.10220619  0.50276614  1
  Ta  Ta100  1  -0.00356326  0.39862900  0.40790561  1
  Ta  Ta101  1  0.39647029  0.39689340  0.19533929  1
  Ta  Ta102  1  0.10263188  0.70564635  0.10437806  1
  Ta  Ta103  1  0.39606614  0.80660241  0.39485517  1
  Ta  Ta104  1  0.29532905  0.90092058  0.90556990  1
  Ta  Ta105  1  0.09634568  0.29907526  0.50328736  1
  Ta  Ta106  1  0.29526606  0.90257662  0.29242418  1
  Ta  Ta107  1  0.69977689  0.89606453  0.70329543  1
  Ta  Ta108  1  0.39857269  0.80116842  0.01016575  1
  Ta  Ta109  1  0.89993378  0.29430471  0.50083937  1
  Ta  Ta110  1  0.49934361  0.10960008  0.30925154  1
  Ta  Ta111  1  0.30558083  0.29087177  0.90325609  1
  Ta  Ta112  1  0.60038183  0.00295948  0.40041939  1
  Ta  Ta113  1  0.29061668  0.90364896  0.09952862  1
  Ta  Ta114  1  0.79612109  0.18937016  0.40168805  1
  Ta  Ta115  1  0.39534690  0.59711993  0.40233747  1
  Ta  Ta116  1  0.19874194  0.00335716  0.40198143  1
  Ta  Ta117  1  0.89712601  0.29585313  0.69599074  1
  Ta  Ta118  1  0.19472440  -0.00378088  0.80293186  1
  Ta  Ta119  1  0.10153876  0.69913163  0.29480489  1
  Ta  Ta120  1  0.00769401  0.59688332  0.80298015  1
  Ta  Ta121  1  0.50790891  0.50315808  0.70362012  1
  Ta  Ta122  1  -0.00003925  0.19992768  0.80453067  1
  Ta  Ta123  1  0.70643500  0.70702475  0.11575950  1
  Ta  Ta124  1  0.39855185  0.40527095  0.40778733  1
  Ta  Ta125  1  0.39721194  -0.00749903  0.00409195  1
  Ta  Ta126  1  0.60118515  0.40200510  0.59701602  1
  Ta  Ta127  1  0.70097640  0.70405155  0.88539835  1
  Ta  Ta128  1  -0.00234745  0.00979578  0.39460462  1
  Ta  Ta129  1  0.61165140  0.19441566  0.40232094  1
  Ta  Ta130  1  0.09921076  0.29738161  0.90309748  1
  Ta  Ta131  1  0.89483545  0.50304826  0.09980200  1
  Ta  Ta132  1  0.70164399  0.49309179  0.49377279  1
  Ta  Ta133  1  0.57303105  0.20507657  0.77636419  1
  Ta  Ta134  1  0.80400803  0.60054114  0.59278202  1
  Ta  Ta135  1  0.30259819  0.29688981  0.51035609  1
  Ta  Ta136  1  0.59801334  0.59926261  0.19648327  1
  Ta  Ta137  1  0.89920330  0.29775748  0.10850454  1
  Ta  Ta138  1  0.29717498  0.09108376  0.09836474  1
  Ta  Ta139  1  0.39653715  0.80225740  0.19725503  1
  Ta  Ta140  1  0.10608098  0.90067663  0.09697308  1
  Ta  Ta141  1  0.70360004  0.29782756  0.69716612  1
  Ta  Ta142  1  0.29831366  0.29689743  0.70031053  1
  Ta  Ta143  1  0.79480259  0.00122976  0.59971083  1
  Ta  Ta144  1  0.60471485  0.19835642  0.20518216  1
  Ta  Ta145  1  0.09979129  0.90060211  0.90534263  1
  Ta  Ta146  1  0.09954323  0.69982555  0.49708828  1
  Ta  Ta147  1  0.29825112  0.70348060  0.50120722  1
  Ta  Ta148  1  0.20007038  0.59876553  0.40495942  1
  Ta  Ta149  1  0.30391843  0.50167956  0.50144568  1
  Ti  Ti150  1  0.10100677  0.10044515  0.70055700  1
  Ti  Ti151  1  0.90332836  0.69475993  0.70152360  1
  Ti  Ti152  1  0.61308945  0.20706392  0.01084190  1
  Ti  Ti153  1  0.60100324  0.39976337  0.79214407  1
  Ti  Ti154  1  0.09260540  0.29420271  0.10224496  1
  Ti  Ti155  1  0.88816446  0.69963707  0.28066707  1
  Ti  Ti156  1  0.10544933  0.08640593  0.10056530  1
  Ti  Ti157  1  -0.00730987  0.80025977  0.20054172  1
  Ti  Ti158  1  0.59790264  0.80132814  0.79701828  1
  Ti  Ti159  1  0.60024512  -0.00191290  0.60039302  1
  Ti  Ti160  1  0.80743962  0.40016390  0.79971778  1
  Ti  Ti161  1  0.59833562  -0.00515278  0.79459584  1
  Ti  Ti162  1  0.29576908  0.88895305  0.50629446  1
  Ti  Ti163  1  0.60546707  0.20268040  0.59950598  1
  Ti  Ti164  1  0.70367158  0.29592243  0.50099280  1
  Ti  Ti165  1  -0.00644684  0.80178492  0.79688190  1
  Ti  Ti166  1  0.80220263  0.59980590  0.40365321  1
  Ti  Ti167  1  0.39413055  0.39203111  0.01386873  1
  Ti  Ti168  1  0.49544328  0.29232944  0.09508229  1
  Ti  Ti169  1  0.30110068  0.50341196  0.29804918  1
  Ti  Ti170  1  0.61051402  -0.01011803  -0.00436732  1
  Ti  Ti171  1  0.20212735  0.79842365  0.00142872  1
  Ti  Ti172  1  0.80607437  0.00741201  0.22399914  1
  Ti  Ti173  1  0.69995883  0.49825467  0.70149268  1
  Ti  Ti174  1  0.50420137  0.70493396  0.11084591  1
  Ti  Ti175  1  -0.00240168  0.19126455  0.40227508  1
  Ti  Ti176  1  0.89657065  0.10943883  0.11299431  1
  Ti  Ti177  1  0.88916452  0.10030651  0.49774581  1
  Ti  Ti178  1  0.90279766  0.70171189  0.89186409  1
  Ti  Ti179  1  0.49402335  0.50435297  0.10032212  1
  Ti  Ti180  1  0.00499738  0.00052957  0.80170767  1
  Ti  Ti181  1  0.00248590  0.00048419  -0.00167782  1
  Ti  Ti182  1  0.40657141  0.40456404  0.59918567  1
  Ti  Ti183  1  -0.00508633  0.79563699  0.39017914  1
  Ti  Ti184  1  0.08615924  0.50225569  0.51044281  1
  Ti  Ti185  1  0.20489986  0.79643746  0.19239363  1
  Ti  Ti186  1  0.71618320  0.29908786  0.11226787  1
  Ti  Ti187  1  0.09716706  0.51304972  0.09592129  1
  Ti  Ti188  1  0.09064533  0.70350979  0.90241776  1
  Ti  Ti189  1  0.91032465  0.51055068  0.90606646  1
  Ti  Ti190  1  0.50472116  0.70054279  0.89157913  1
  Ti  Ti191  1  0.80410149  0.39292846  0.40703327  1
  Ti  Ti192  1  0.70199825  0.89515593  0.11539719  1
  Ti  Ti193  1  0.90835692  0.89614113  0.89421515  1
  Ti  Ti194  1  0.40720541  0.61868051  0.01095948  1
  Ti  Ti195  1  0.69417864  0.50487342  0.88870373  1
  Ti  Ti196  1  0.90117093  0.49813923  0.50157780  1
  Ti  Ti197  1  0.09891328  0.10134840  0.29751774  1
  Ti  Ti198  1  0.30662679  0.11233066  0.50648083  1
  Ti  Ti199  1  0.40741413  0.61336531  0.78850379  1
  Mo  Mo200  1  0.90234557  0.69034756  0.50523786  1
  Mo  Mo201  1  0.30029522  0.70988499  0.09938844  1
  Mo  Mo202  1  0.69055883  0.89203005  0.88985739  1
  Mo  Mo203  1  0.89764980  0.10316193  0.30598246  1
  Mo  Mo204  1  0.80804426  0.79395647  0.79990031  1
  Mo  Mo205  1  0.19606409  -0.00648847  -0.00017385  1
  Mo  Mo206  1  0.09481674  0.50322518  0.90583087  1
  Mo  Mo207  1  0.39633174  0.20336679  0.40718691  1
  Mo  Mo208  1  0.50279693  0.69865313  0.70455732  1
  Mo  Mo209  1  0.51458903  0.90279739  0.70141791  1
  Mo  Mo210  1  0.49642406  0.49485070  0.50131296  1
  Mo  Mo211  1  0.50939019  0.31681303  0.69181271  1
  Mo  Mo212  1  -0.00092249  0.59916895  0.59803110  1
  Mo  Mo213  1  0.50891424  0.08753828  0.69900894  1
  Mo  Mo214  1  0.81162162  0.21262905  0.79511927  1
  Mo  Mo215  1  0.39158114  0.19478207  0.00544510  1
  Mo  Mo216  1  0.60308172  0.39434666  0.40945405  1
  Mo  Mo217  1  0.58347101  0.81496004  0.39636737  1
  Mo  Mo218  1  0.69980842  0.10012446  0.30665205  1
  Mo  Mo219  1  0.30323137  0.29752847  0.09740797  1
  Mo  Mo220  1  0.18890184  0.60295125  0.20103967  1
  Mo  Mo221  1  0.19756455  0.00265337  0.20007825  1
  Mo  Mo222  1  0.20105068  0.20298454  0.59966544  1
  Mo  Mo223  1  0.29886771  0.70562051  0.68858567  1
  Mo  Mo224  1  0.80223848  0.80148396  0.20139909  1
  Mo  Mo225  1  0.79901460  0.01119797  0.40053147  1
  Mo  Mo226  1  0.39834171  0.20205940  0.80138841  1
  Mo  Mo227  1  0.39081793  0.80166534  0.59448564  1
  Mo  Mo228  1  0.80183670  0.19627063  0.20382189  1
  Mo  Mo229  1  0.69951297  0.09807421  0.50388348  1
  Mo  Mo230  1  0.80542078  0.39578093  0.19432261  1
  Mo  Mo231  1  0.89710963  0.70298884  0.10366536  1
  Mo  Mo232  1  0.41285558  0.60032009  0.19770992  1
  Mo  Mo233  1  0.09141882  0.08849894  0.89827870  1
  Mo  Mo234  1  0.59926168  0.80092683  0.19908226  1
  Mo  Mo235  1  0.49904663  0.90147850  0.49549484  1
  Mo  Mo236  1  0.90123535  0.89965946  0.70687755  1
  Mo  Mo237  1  0.79661914  0.60326968  0.19807098  1
  Mo  Mo238  1  0.79808336  0.20157598  0.59339239  1
  Mo  Mo239  1  0.49678291  0.89841516  0.30241567  1
  Mo  Mo240  1  0.20023756  0.79872815  0.59835088  1
  Mo  Mo241  1  0.90360673  0.90299870  0.30176722  1
  Mo  Mo242  1  -0.00030900  0.39738189  0.59033526  1
  Mo  Mo243  1  0.09653063  0.50213635  0.70269561  1
  Mo  Mo244  1  0.90370798  0.29632881  0.89411455  1
  Mo  Mo245  1  0.00193887  0.19396813  0.19301934  1
  Mo  Mo246  1  0.09809925  0.09764561  0.49138569  1
  Mo  Mo247  1  0.60202587  0.59769742  0.80001451  1
  Mo  Mo248  1  -0.00074007  0.60781459  -0.00357984  1
  Mo  Mo249  1  0.27879897  0.90048646  0.69419893  1
