# generated using pymatgen
data_HfZrTaTiMo
_symmetry_space_group_name_H-M   'P 1'
_cell_length_a   16.88788512
_cell_length_b   16.89283204
_cell_length_c   16.89019655
_cell_angle_alpha   89.99704633
_cell_angle_beta   90.02303633
_cell_angle_gamma   90.00956720
_symmetry_Int_Tables_number   1
_chemical_formula_structural   HfZrTaTiMo
_chemical_formula_sum   'Hf50 Zr50 Ta50 Ti50 Mo50'
_cell_volume   4818.50586297
_cell_formula_units_Z   50
loop_
 _symmetry_equiv_pos_site_id
 _symmetry_equiv_pos_as_xyz
  1  'x, y, z'
loop_
 _atom_site_type_symbol
 _atom_site_label
 _atom_site_symmetry_multiplicity
 _atom_site_fract_x
 _atom_site_fract_y
 _atom_site_fract_z
 _atom_site_occupancy
  Hf  Hf0  1  0.69892527  0.70508667  0.29573305  1
  Hf  Hf1  1  0.50846818  0.49380449  0.30273911  1
  Hf  Hf2  1  0.49095495  0.89513555  0.49847685  1
  Hf  Hf3  1  0.39320395  -0.01843594  0.80420587  1
  Hf  Hf4  1  0.89268413  0.30655530  0.90134920  1
  Hf  Hf5  1  0.89918289  0.49508250  0.09216146  1
  Hf  Hf6  1  0.80350209  0.80096798  0.81402471  1
  Hf  Hf7  1  0.39060614  0.00390112  0.40748215  1
  Hf  Hf8  1  0.80731532  0.79640559  0.19284972  1
  Hf  Hf9  1  0.40181533  0.38927390  0.79830416  1
  Hf  Hf10  1  0.70303978  0.09313721  0.91187484  1
  Hf  Hf11  1  0.40161870  0.19776267  0.19841182  1
  Hf  Hf12  1  0.79871932  0.79166461  0.59383216  1
  Hf  Hf13  1  0.90123856  0.49406744  0.29952613  1
  Hf  Hf14  1  0.49886708  0.09238828  0.28773967  1
  Hf  Hf15  1  0.50645965  0.49642137  0.50636722  1
  Hf  Hf16  1  0.30409111  0.69760949  0.09541270  1
  Hf  Hf17  1  0.80020047  0.60245099  0.40832074  1
  Hf  Hf18  1  0.09673960  0.29961565  0.89391010  1
  Hf  Hf19  1  0.60809228  0.60377436  0.41173844  1
  Hf  Hf20  1  0.61068261  0.20394384  0.38651231  1
  Hf  Hf21  1  0.09588067  0.49139777  0.51242880  1
  Hf  Hf22  1  -0.01400151  0.78758692  0.59632986  1
  Hf  Hf23  1  -0.00647722  0.78746550  0.00359748  1
  Hf  Hf24  1  0.19459179  0.19953426  -0.00076822  1
  Hf  Hf25  1  0.59688687  0.60384580  0.80374515  1
  Hf  Hf26  1  0.79480226  0.60316394  0.00694237  1
  Hf  Hf27  1  0.30011158  0.90044904  0.29875078  1
  Hf  Hf28  1  0.40361490  0.80712290  0.18717384  1
  Hf  Hf29  1  0.00557580  0.39178942  0.18885045  1
  Hf  Hf30  1  0.40393989  0.40452065  0.19409686  1
  Hf  Hf31  1  0.30944367  0.70784953  0.49851995  1
  Hf  Hf32  1  0.00445115  0.00145025  0.79714653  1
  Hf  Hf33  1  0.79801324  0.19742624  0.60883363  1
  Hf  Hf34  1  0.90066761  0.89877663  0.70202953  1
  Hf  Hf35  1  0.69953593  0.49008644  0.30152224  1
  Hf  Hf36  1  0.59686767  0.00098991  0.60845544  1
  Hf  Hf37  1  0.29099180  0.09586204  0.30156804  1
  Hf  Hf38  1  0.30192495  0.49745147  0.50766818  1
  Hf  Hf39  1  0.21986452  0.80547821  0.79929674  1
  Hf  Hf40  1  0.60131267  0.79961349  0.40231780  1
  Hf  Hf41  1  0.80076125  0.60219896  0.19463655  1
  Hf  Hf42  1  0.80500518  0.19609746  0.39767919  1
  Hf  Hf43  1  -0.00493677  0.60596717  0.40762005  1
  Hf  Hf44  1  0.29662534  0.30282316  0.09530053  1
  Hf  Hf45  1  0.19672221  0.60144673  0.39595154  1
  Hf  Hf46  1  -0.00749881  -0.00234323  -0.00741834  1
  Hf  Hf47  1  0.89136760  0.09426906  0.70710014  1
  Hf  Hf48  1  0.30052990  0.50789665  0.89991836  1
  Hf  Hf49  1  0.59145876  0.80442439  0.80988305  1
  Zr  Zr50  1  0.40074060  0.19408519  -0.00015246  1
  Zr  Zr51  1  0.19460353  0.20547623  0.19414667  1
  Zr  Zr52  1  0.09755181  0.70587339  0.50219721  1
  Zr  Zr53  1  0.39223586  0.20570209  0.40466169  1
  Zr  Zr54  1  0.90126903  0.30558898  0.51243558  1
  Zr  Zr55  1  0.89524446  0.10842302  0.90670084  1
  Zr  Zr56  1  0.51440600  0.30358676  0.50424355  1
  Zr  Zr57  1  0.00332649  0.60944646  0.19241363  1
  Zr  Zr58  1  0.00513848  0.18819529  0.60206294  1
  Zr  Zr59  1  0.71422262  0.49615230  0.89120566  1
  Zr  Zr60  1  0.70583569  0.69317831  0.71171178  1
  Zr  Zr61  1  0.10151849  0.09696826  0.30187653  1
  Zr  Zr62  1  0.09831567  0.30905499  0.69326124  1
  Zr  Zr63  1  0.89454713  0.90197550  0.09390640  1
  Zr  Zr64  1  0.49435310  0.50696947  0.89596514  1
  Zr  Zr65  1  0.59601226  0.39482807  0.79511537  1
  Zr  Zr66  1  0.49422971  0.70358733  0.30064435  1
  Zr  Zr67  1  0.09991427  0.89171203  0.89764630  1
  Zr  Zr68  1  0.20347075  0.60735606  0.60521496  1
  Zr  Zr69  1  0.70601087  0.90911282  0.70362679  1
  Zr  Zr70  1  0.70410292  0.09657722  0.50226462  1
  Zr  Zr71  1  0.69847757  0.30879835  0.50757925  1
  Zr  Zr72  1  0.69577727  0.90772668  0.09162335  1
  Zr  Zr73  1  0.80875730  0.60606609  0.59438912  1
  Zr  Zr74  1  0.10184340  0.29645333  0.30744229  1
  Zr  Zr75  1  0.10362043  0.89857297  0.10123862  1
  Zr  Zr76  1  0.09833777  0.70402654  0.70391490  1
  Zr  Zr77  1  0.29887761  0.10192755  0.89668893  1
  Zr  Zr78  1  0.40544184  0.38633427  0.60970552  1
  Zr  Zr79  1  0.60178814  0.00055279  0.39544181  1
  Zr  Zr80  1  0.60242174  0.79752979  0.60151749  1
  Zr  Zr81  1  0.20058669  -0.00030758  0.79592965  1
  Zr  Zr82  1  0.09999283  0.49692361  0.30230549  1
  Zr  Zr83  1  0.20012455  0.00816396  0.60227564  1
  Zr  Zr84  1  0.50800059  0.29472213  0.09970351  1
  Zr  Zr85  1  0.90195776  0.10240328  0.29192326  1
  Zr  Zr86  1  0.60751431  0.40555425  0.00515359  1
  Zr  Zr87  1  0.09406353  0.50430922  0.89505203  1
  Zr  Zr88  1  0.19405662  0.79772904  0.38967518  1
  Zr  Zr89  1  0.60329811  0.59424373  0.18340027  1
  Zr  Zr90  1  0.09445776  0.09457828  0.09885664  1
  Zr  Zr91  1  0.30522714  0.50502237  0.70224764  1
  Zr  Zr92  1  0.29930532  0.50310371  0.29252827  1
  Zr  Zr93  1  0.39450320  0.39223098  0.40022787  1
  Zr  Zr94  1  0.50167213  0.10456703  0.50458054  1
  Zr  Zr95  1  -0.00492808  0.00811112  0.40672049  1
  Zr  Zr96  1  0.40029329  0.39958448  -0.00286276  1
  Zr  Zr97  1  0.50549647  0.09542895  0.90201664  1
  Zr  Zr98  1  0.30560988  0.69629756  0.29115544  1
  Zr  Zr99  1  0.89827507  0.89950909  0.48894819  1
  Ta  Ta100  1  0.60074008  0.60180913  0.00042969  1
  Ta  Ta101  1  0.60817304  0.19870196  0.80074427  1
  Ta  Ta102  1  0.51382799  0.30443984  0.29626559  1
  Ta  Ta103  1  0.39471467  0.19618911  0.60338379  1
  Ta  Ta104  1  0.61062591  0.19366517  0.19422685  1
  Ta  Ta105  1  0.80158414  0.39531320  0.39834766  1
  Ta  Ta106  1  0.79145725  0.20894400  0.80402240  1
  Ta  Ta107  1  0.79626734  0.00651566  0.19433944  1
  Ta  Ta108  1  0.69767790  0.70433543  0.90851401  1
  Ta  Ta109  1  0.20172982  0.60583266  0.80251315  1
  Ta  Ta110  1  0.29243065  0.89888513  0.50091146  1
  Ta  Ta111  1  0.29749363  0.50775810  0.09552403  1
  Ta  Ta112  1  0.70845208  0.49625360  0.69732912  1
  Ta  Ta113  1  0.40328633  -0.00689104  0.00443837  1
  Ta  Ta114  1  0.49023416  0.69908575  0.70352987  1
  Ta  Ta115  1  0.28954878  0.29242034  0.69997431  1
  Ta  Ta116  1  0.19357321  0.40469766  -0.00032418  1
  Ta  Ta117  1  0.00301701  0.39736945  0.00255898  1
  Ta  Ta118  1  0.89854900  0.50056872  0.70307170  1
  Ta  Ta119  1  0.70667205  0.90395055  0.49257161  1
  Ta  Ta120  1  0.49793307  0.90371835  0.29423592  1
  Ta  Ta121  1  -0.00324943  0.39348695  0.40596643  1
  Ta  Ta122  1  0.20661049  0.79370478  -0.00284528  1
  Ta  Ta123  1  0.00197162  0.79480906  0.20153887  1
  Ta  Ta124  1  0.19384581  0.40534468  0.18637122  1
  Ta  Ta125  1  0.09278604  0.50301692  0.69875796  1
  Ta  Ta126  1  -0.00533970  0.20176988  0.79521708  1
  Ta  Ta127  1  0.70238623  0.90425621  0.29423500  1
  Ta  Ta128  1  0.19605170  0.60443165  -0.00011761  1
  Ta  Ta129  1  0.10219770  0.89834599  0.49940593  1
  Ta  Ta130  1  -0.00653937  0.60491435  0.80042734  1
  Ta  Ta131  1  0.09277689  0.90027349  0.30162700  1
  Ta  Ta132  1  0.90126073  0.29914912  0.29809424  1
  Ta  Ta133  1  0.79422849  0.20525224  0.19049231  1
  Ta  Ta134  1  0.39477557  0.80601041  0.60737710  1
  Ta  Ta135  1  0.89904336  0.49886225  0.89835687  1
  Ta  Ta136  1  0.50412628  0.70760141  0.08893381  1
  Ta  Ta137  1  0.79809464  0.39008504  0.19480129  1
  Ta  Ta138  1  0.10225135  0.69978945  0.89814271  1
  Ta  Ta139  1  0.70390742  0.30997022  0.70099179  1
  Ta  Ta140  1  0.10061975  0.89181528  0.68982079  1
  Ta  Ta141  1  0.00396561  0.00121188  0.59934323  1
  Ta  Ta142  1  0.59999716  0.19984316  0.62142005  1
  Ta  Ta143  1  0.39328418  0.00293415  0.60622480  1
  Ta  Ta144  1  0.20098122  0.40348653  0.79887715  1
  Ta  Ta145  1  0.60461496  0.60238611  0.60150303  1
  Ta  Ta146  1  0.30207138  0.08601071  0.10377276  1
  Ta  Ta147  1  -0.00037638  0.20198001  0.41067707  1
  Ta  Ta148  1  0.49278590  0.69892911  0.50800594  1
  Ta  Ta149  1  0.50857903  0.28930622  0.89940491  1
  Ti  Ti150  1  0.80328729  -0.01075191  0.82119766  1
  Ti  Ti151  1  0.40964932  0.60514955  0.00018398  1
  Ti  Ti152  1  0.18696490  0.19415044  0.78928947  1
  Ti  Ti153  1  0.41339711  0.59618414  0.18680340  1
  Ti  Ti154  1  0.29987992  0.10636423  0.70004310  1
  Ti  Ti155  1  -0.00628103  -0.00442168  0.19795993  1
  Ti  Ti156  1  0.90434930  0.49216826  0.51115012  1
  Ti  Ti157  1  0.31043264  0.70174688  0.70057933  1
  Ti  Ti158  1  0.50599063  0.91277733  0.10175782  1
  Ti  Ti159  1  0.70355649  0.09310630  0.71278071  1
  Ti  Ti160  1  -0.00486576  0.40412626  0.79819582  1
  Ti  Ti161  1  0.69504885  0.71537507  0.09091230  1
  Ti  Ti162  1  0.59929990  -0.00959218  0.81074987  1
  Ti  Ti163  1  0.40354936  0.59747462  0.40265937  1
  Ti  Ti164  1  0.49330591  0.89532636  0.70360844  1
  Ti  Ti165  1  0.49771941  0.09679174  0.70877039  1
  Ti  Ti166  1  0.88768084  0.10427402  0.09340578  1
  Ti  Ti167  1  0.00382506  0.60233908  0.00295409  1
  Ti  Ti168  1  -0.00768489  0.79615380  0.80437984  1
  Ti  Ti169  1  -0.00571648  0.20714762  0.18824803  1
  Ti  Ti170  1  0.29458353  0.30335165  0.29519336  1
  Ti  Ti171  1  0.61236484  0.39315172  0.19171786  1
  Ti  Ti172  1  0.20684770  0.20412014  0.41558748  1
  Ti  Ti173  1  0.10610695  0.30463803  0.50927518  1
  Ti  Ti174  1  0.19864077  -0.00606717  0.20024630  1
  Ti  Ti175  1  0.11065157  0.09970514  0.49667890  1
  Ti  Ti176  1  0.20296441  0.39391552  0.40645908  1
  Ti  Ti177  1  0.89331841  0.31276625  0.70141166  1
  Ti  Ti178  1  0.80762167  0.00227425  0.59131704  1
  Ti  Ti179  1  -0.00334211  0.20981780  0.00747873  1
  Ti  Ti180  1  0.90524959  0.70931721  0.30625966  1
  Ti  Ti181  1  0.69834185  0.48656039  0.50916349  1
  Ti  Ti182  1  0.31278685  0.69869558  0.89683802  1
  Ti  Ti183  1  0.20423643  -0.00485566  -0.00754200  1
  Ti  Ti184  1  0.79283568  0.38712447  0.00860092  1
  Ti  Ti185  1  0.19038135  0.79109447  0.19558677  1
  Ti  Ti186  1  0.79744701  0.79712289  0.40012601  1
  Ti  Ti187  1  0.89497073  0.90179313  0.30036144  1
  Ti  Ti188  1  0.61277835  0.19894223  0.00659772  1
  Ti  Ti189  1  0.89544891  0.69075680  0.90334105  1
  Ti  Ti190  1  0.40543942  0.20324277  0.79385845  1
  Ti  Ti191  1  0.59645889  0.80667028  0.19712745  1
  Ti  Ti192  1  0.40469972  0.80922549  -0.01194653  1
  Ti  Ti193  1  0.49700279  0.51248437  0.69460351  1
  Ti  Ti194  1  0.59262624  0.81003690  -0.00848122  1
  Ti  Ti195  1  0.18687095  0.60272829  0.18901497  1
  Ti  Ti196  1  0.29343378  0.29622171  0.89157914  1
  Ti  Ti197  1  0.29684854  0.90202009  0.09689430  1
  Ti  Ti198  1  0.70361137  0.09335240  0.29202626  1
  Ti  Ti199  1  0.09492330  0.10508161  0.89826441  1
  Mo  Mo200  1  0.10239762  0.50278028  0.09226141  1
  Mo  Mo201  1  0.50066531  0.50786223  0.09689743  1
  Mo  Mo202  1  0.50737451  0.09148892  0.09959004  1
  Mo  Mo203  1  0.69788561  0.90124266  0.90703392  1
  Mo  Mo204  1  0.89968927  0.29470096  0.09685561  1
  Mo  Mo205  1  0.70413095  0.49182998  0.09990606  1
  Mo  Mo206  1  0.70105223  0.29426115  0.90087248  1
  Mo  Mo207  1  0.60179792  0.40722836  0.61329150  1
  Mo  Mo208  1  0.80434148  0.39911273  0.79648149  1
  Mo  Mo209  1  0.09758524  0.30235640  0.09015304  1
  Mo  Mo210  1  0.20245445  0.19883773  0.59788674  1
  Mo  Mo211  1  0.89737661  0.70329460  0.48415202  1
  Mo  Mo212  1  0.09722556  0.70459542  0.29178710  1
  Mo  Mo213  1  0.10624804  0.70040060  0.09500910  1
  Mo  Mo214  1  0.69581826  0.70593761  0.49854781  1
  Mo  Mo215  1  0.39739425  -0.00408423  0.19286937  1
  Mo  Mo216  1  0.40202763  0.80703490  0.40323950  1
  Mo  Mo217  1  0.28561947  0.29778850  0.51337066  1
  Mo  Mo218  1  0.39861219  0.61032458  0.80003002  1
  Mo  Mo219  1  0.79790639  0.79548557  -0.00366814  1
  Mo  Mo220  1  -0.00315773  0.40459694  0.60389643  1
  Mo  Mo221  1  0.60834070  0.40030845  0.39376904  1
  Mo  Mo222  1  0.70340489  0.29499280  0.09727787  1
  Mo  Mo223  1  0.30295146  0.89718868  0.91535706  1
  Mo  Mo224  1  0.70651959  0.29811253  0.29406953  1
  Mo  Mo225  1  0.79487230  0.20459017  0.00369443  1
  Mo  Mo226  1  0.80060477  0.40765367  0.60265619  1
  Mo  Mo227  1  0.09554613  0.10108735  0.70331227  1
  Mo  Mo228  1  0.59423372  0.00107707  0.00423984  1
  Mo  Mo229  1  0.90096330  0.69591944  0.71482653  1
  Mo  Mo230  1  0.40724954  0.60751697  0.60162111  1
  Mo  Mo231  1  -0.00725523  0.59646412  0.60815515  1
  Mo  Mo232  1  0.70044346  0.10034469  0.10077208  1
  Mo  Mo233  1  0.20080705  0.39822334  0.60625225  1
  Mo  Mo234  1  0.50058041  0.28342840  0.70550200  1
  Mo  Mo235  1  0.20562182  0.80657850  0.60265191  1
  Mo  Mo236  1  0.29919394  0.89870176  0.69032143  1
  Mo  Mo237  1  0.60050093  0.00148443  0.19754726  1
  Mo  Mo238  1  0.29646268  0.10235413  0.50557349  1
  Mo  Mo239  1  0.90000669  0.09913414  0.50381737  1
  Mo  Mo240  1  0.79744012  0.00100957  0.00103791  1
  Mo  Mo241  1  0.19456690  -0.00503678  0.40361271  1
  Mo  Mo242  1  0.40117343  0.79865667  0.80064271  1
  Mo  Mo243  1  0.89762569  0.89553569  0.90206507  1
  Mo  Mo244  1  0.90157003  0.69814426  0.09611112  1
  Mo  Mo245  1  0.79777211  -0.00269696  0.38688415  1
  Mo  Mo246  1  0.49873837  0.70476038  0.90597673  1
  Mo  Mo247  1  -0.00278995  0.80358207  0.39115628  1
  Mo  Mo248  1  0.80751391  0.59981432  0.80705156  1
  Mo  Mo249  1  0.49932074  0.90100841  0.90620407  1
