# generated using pymatgen
data_HfZrTaTiMo
_symmetry_space_group_name_H-M   'P 1'
_cell_length_a   16.88119928
_cell_length_b   16.89625223
_cell_length_c   16.88844260
_cell_angle_alpha   89.99354952
_cell_angle_beta   90.00977840
_cell_angle_gamma   89.97364090
_symmetry_Int_Tables_number   1
_chemical_formula_structural   HfZrTaTiMo
_chemical_formula_sum   'Hf50 Zr50 Ta50 Ti50 Mo50'
_cell_volume   4817.07300031
_cell_formula_units_Z   50
loop_
 _symmetry_equiv_pos_site_id
 _symmetry_equiv_pos_as_xyz
  1  'x, y, z'
loop_
 _atom_site_type_symbol
 _atom_site_label
 _atom_site_symmetry_multiplicity
 _atom_site_fract_x
 _atom_site_fract_y
 _atom_site_fract_z
 _atom_site_occupancy
  Hf  Hf0  1  0.11168133  0.69499983  0.30392767  1
  Hf  Hf1  1  0.80079635  0.80294629  0.39127645  1
  Hf  Hf2  1  -0.00079132  0.59989223  0.20221744  1
  Hf  Hf3  1  0.30181695  0.50039102  0.49697726  1
  Hf  Hf4  1  0.79285435  -0.01507140  0.79785749  1
  Hf  Hf5  1  0.20851216  0.41412366  -0.00601920  1
  Hf  Hf6  1  0.41374866  0.80997907  0.60044495  1
  Hf  Hf7  1  0.70370619  0.90166825  0.50310508  1
  Hf  Hf8  1  0.29863670  0.50414488  0.29970271  1
  Hf  Hf9  1  0.19310788  0.60842843  0.59697489  1
  Hf  Hf10  1  0.10112878  0.11329211  0.11032007  1
  Hf  Hf11  1  0.89650937  0.08553649  0.50080152  1
  Hf  Hf12  1  0.10474701  0.89178086  0.29690342  1
  Hf  Hf13  1  0.60299390  0.80236533  0.19320319  1
  Hf  Hf14  1  0.40273026  0.40201530  0.19941510  1
  Hf  Hf15  1  0.30135858  0.09734697  0.10265591  1
  Hf  Hf16  1  0.49002711  0.10733743  0.48989439  1
  Hf  Hf17  1  0.79553258  0.40196413  0.39451860  1
  Hf  Hf18  1  0.50704533  0.70221885  0.50253835  1
  Hf  Hf19  1  0.00712300  -0.00466670  0.00666697  1
  Hf  Hf20  1  0.50220809  0.30463931  0.70311203  1
  Hf  Hf21  1  0.00337771  0.20084441  0.60318159  1
  Hf  Hf22  1  0.50116317  0.30068274  0.30189990  1
  Hf  Hf23  1  0.40089051  0.60187662  0.80228791  1
  Hf  Hf24  1  0.09545675  0.29706863  0.28469850  1
  Hf  Hf25  1  0.79293050  0.19922998  0.20226965  1
  Hf  Hf26  1  0.59817449  0.19746393  0.59870337  1
  Hf  Hf27  1  0.19840906  0.39368604  0.59692519  1
  Hf  Hf28  1  0.50179583  0.71131410  0.91175772  1
  Hf  Hf29  1  0.29864630  0.69316520  0.29503892  1
  Hf  Hf30  1  0.79966583  0.19804172  0.60017582  1
  Hf  Hf31  1  0.39708821  0.20288670  0.80385322  1
  Hf  Hf32  1  0.69146888  0.09619065  0.09238753  1
  Hf  Hf33  1  0.69976988  0.30126878  0.49686309  1
  Hf  Hf34  1  0.17887324  -0.00243951  0.62169605  1
  Hf  Hf35  1  0.90676879  0.69470207  0.51033870  1
  Hf  Hf36  1  0.19838003  -0.00653234  0.00187664  1
  Hf  Hf37  1  0.09169862  0.88612544  0.88987119  1
  Hf  Hf38  1  0.19685248  0.20714295  0.40037657  1
  Hf  Hf39  1  0.19968979  0.80193534  0.00367875  1
  Hf  Hf40  1  0.00259283  0.40423892  0.39837944  1
  Hf  Hf41  1  0.19338606  0.79514458  0.60423369  1
  Hf  Hf42  1  0.79619161  0.19185826  0.39183822  1
  Hf  Hf43  1  0.60348127  0.60361174  0.80235189  1
  Hf  Hf44  1  0.90559299  0.89398868  0.89402733  1
  Hf  Hf45  1  0.60375664  0.60148488  0.60405434  1
  Hf  Hf46  1  0.59791581  -0.01424276  0.81235375  1
  Hf  Hf47  1  0.88850171  0.30160387  0.70881177  1
  Hf  Hf48  1  0.69848632  0.09814685  0.70386786  1
  Hf  Hf49  1  0.50265744  0.30585956  0.90474875  1
  Zr  Zr50  1  0.20579458  0.19991251  -0.01266471  1
  Zr  Zr51  1  0.29257580  0.90414569  0.49959184  1
  Zr  Zr52  1  0.09849544  0.09720183  0.50429132  1
  Zr  Zr53  1  0.60365788  0.40785155  0.00721305  1
  Zr  Zr54  1  0.90269669  0.69610964  0.90385172  1
  Zr  Zr55  1  0.41665811  -0.00966406  -0.00028134  1
  Zr  Zr56  1  0.79537770  0.60431948  0.80072518  1
  Zr  Zr57  1  0.29383713  0.10273710  0.70226896  1
  Zr  Zr58  1  -0.00108736  0.39855045  0.59462975  1
  Zr  Zr59  1  0.20083367  -0.01057213  0.80413508  1
  Zr  Zr60  1  0.09277600  0.30702978  0.89876108  1
  Zr  Zr61  1  0.09622021  0.10076458  0.88610673  1
  Zr  Zr62  1  -0.00372109  0.80049525  0.20182404  1
  Zr  Zr63  1  0.08952441  0.89651061  0.50198565  1
  Zr  Zr64  1  0.60202042  0.80397424  0.39213478  1
  Zr  Zr65  1  0.49149836  0.30324705  0.48773328  1
  Zr  Zr66  1  0.79967389  0.79814412  0.61985840  1
  Zr  Zr67  1  0.40868393  0.79808866  0.19341819  1
  Zr  Zr68  1  0.79852716  0.19884764  -0.00555090  1
  Zr  Zr69  1  0.90219374  0.90078334  0.50644965  1
  Zr  Zr70  1  0.58939735  -0.01728544  0.60436416  1
  Zr  Zr71  1  0.40459322  -0.00060385  0.19757218  1
  Zr  Zr72  1  0.60249775  0.59596395  0.00819643  1
  Zr  Zr73  1  0.40838058  0.19387886  0.00235803  1
  Zr  Zr74  1  -0.00454985  0.19978614  0.39831274  1
  Zr  Zr75  1  0.30335180  0.69797100  0.91045536  1
  Zr  Zr76  1  -0.00434565  0.40584150  0.79539903  1
  Zr  Zr77  1  0.40210975  -0.00424018  0.60029696  1
  Zr  Zr78  1  0.71109698  0.30906004  0.89517215  1
  Zr  Zr79  1  0.70506790  0.69834016  0.50055952  1
  Zr  Zr80  1  0.89801875  0.30636629  0.28646652  1
  Zr  Zr81  1  0.09313876  0.51043867  0.90415644  1
  Zr  Zr82  1  0.59768573  -0.00033323  0.39694714  1
  Zr  Zr83  1  0.09635416  0.30712636  0.09854723  1
  Zr  Zr84  1  0.09529414  0.69439406  0.89897218  1
  Zr  Zr85  1  0.59851800  0.40442001  0.59495211  1
  Zr  Zr86  1  0.50494512  0.68825063  0.29099149  1
  Zr  Zr87  1  0.11425529  0.69252130  0.10511885  1
  Zr  Zr88  1  0.30104229  0.30589584  0.09907649  1
  Zr  Zr89  1  0.49660477  0.10035186  0.70858481  1
  Zr  Zr90  1  0.89905103  0.31333997  0.09494650  1
  Zr  Zr91  1  0.79162158  -0.00198257  0.20443474  1
  Zr  Zr92  1  0.41593305  0.58947842  0.40530127  1
  Zr  Zr93  1  -0.00903210  0.20052444  -0.00751113  1
  Zr  Zr94  1  0.89571519  0.90032066  0.09699159  1
  Zr  Zr95  1  0.39333064  0.40662092  0.80155463  1
  Zr  Zr96  1  0.20559629  0.40661983  0.79637169  1
  Zr  Zr97  1  0.79432946  0.80319558  0.20217159  1
  Zr  Zr98  1  0.29342786  0.10366583  0.50163275  1
  Zr  Zr99  1  0.30442684  0.69674713  0.49639905  1
  Ta  Ta100  1  0.70430521  0.49628620  0.70088420  1
  Ta  Ta101  1  0.89325304  0.50424941  0.29518469  1
  Ta  Ta102  1  0.00215923  0.00080719  0.20096307  1
  Ta  Ta103  1  0.70115742  0.68462142  0.29335525  1
  Ta  Ta104  1  0.90071840  0.08697331  0.89287301  1
  Ta  Ta105  1  0.59232805  -0.00284668  0.19232896  1
  Ta  Ta106  1  0.88845425  0.69348279  0.09784958  1
  Ta  Ta107  1  0.10029528  0.50652438  0.49591259  1
  Ta  Ta108  1  0.09816804  0.50959628  0.69428698  1
  Ta  Ta109  1  0.00134512  0.41901479  0.19527670  1
  Ta  Ta110  1  0.79423526  0.79940962  -0.00188747  1
  Ta  Ta111  1  0.50590681  0.30074827  0.10469502  1
  Ta  Ta112  1  0.60325404  0.41070397  0.80274554  1
  Ta  Ta113  1  0.20426260  0.60157396  0.79468305  1
  Ta  Ta114  1  0.70248309  0.30496257  0.70601450  1
  Ta  Ta115  1  0.88625458  0.50516925  0.10219203  1
  Ta  Ta116  1  0.30081615  0.89316889  0.10218841  1
  Ta  Ta117  1  -0.00310325  0.79251667  0.39877861  1
  Ta  Ta118  1  0.30262666  0.89186162  0.70751574  1
  Ta  Ta119  1  0.60587201  0.40409738  0.20138568  1
  Ta  Ta120  1  0.79406119  0.79779825  0.79975559  1
  Ta  Ta121  1  0.70124418  0.69259807  0.10260061  1
  Ta  Ta122  1  0.19780407  -0.00630905  0.19769350  1
  Ta  Ta123  1  0.19752874  0.39579074  0.39714439  1
  Ta  Ta124  1  0.60706531  0.58700584  0.39853301  1
  Ta  Ta125  1  0.00007384  0.79656815  0.01117058  1
  Ta  Ta126  1  0.19740471  0.00062322  0.38760622  1
  Ta  Ta127  1  0.49849147  0.50341950  0.90313697  1
  Ta  Ta128  1  0.40421845  0.80900032  0.39646239  1
  Ta  Ta129  1  0.10010793  0.10213469  0.29296928  1
  Ta  Ta130  1  -0.00028756  0.60030452  0.40046014  1
  Ta  Ta131  1  0.30247406  0.50964480  0.68962321  1
  Ta  Ta132  1  0.89365020  0.49952023  0.90920788  1
  Ta  Ta133  1  -0.00023315  0.00083389  0.38720808  1
  Ta  Ta134  1  0.29988078  0.51317080  0.10411454  1
  Ta  Ta135  1  0.60194877  0.41002909  0.39332483  1
  Ta  Ta136  1  0.79476926  -0.00425278  -0.00925158  1
  Ta  Ta137  1  0.90316837  0.09305702  0.70276370  1
  Ta  Ta138  1  0.89844588  0.09743765  0.10061085  1
  Ta  Ta139  1  0.49903090  0.10544655  0.29756895  1
  Ta  Ta140  1  0.38859412  0.21448434  0.60382647  1
  Ta  Ta141  1  0.39922495  0.40519419  0.59673792  1
  Ta  Ta142  1  0.49711695  0.50410165  0.69745725  1
  Ta  Ta143  1  0.60537755  0.20342378  0.80753092  1
  Ta  Ta144  1  0.31029370  0.69975148  0.69682937  1
  Ta  Ta145  1  0.20131329  0.78978260  0.79305067  1
  Ta  Ta146  1  0.39610128  -0.00366739  0.39114164  1
  Ta  Ta147  1  0.80200605  0.40430784  0.59962954  1
  Ta  Ta148  1  0.40305552  0.20057969  0.20180936  1
  Ta  Ta149  1  0.70698288  0.50259488  0.50128894  1
  Ti  Ti150  1  0.50107046  0.90350991  0.29636316  1
  Ti  Ti151  1  0.20000793  0.40468095  0.20115737  1
  Ti  Ti152  1  0.89902011  0.50649295  0.50179906  1
  Ti  Ti153  1  0.50302696  0.70554005  0.70062596  1
  Ti  Ti154  1  0.10687448  0.50517360  0.09886093  1
  Ti  Ti155  1  0.70370620  0.09012575  0.50005158  1
  Ti  Ti156  1  0.40832477  -0.01234711  0.80656633  1
  Ti  Ti157  1  0.60014346  0.20073120  0.19969309  1
  Ti  Ti158  1  0.21708375  0.20517278  0.20983779  1
  Ti  Ti159  1  -0.00653045  0.20010898  0.79762480  1
  Ti  Ti160  1  0.80032966  0.60092971  0.60990340  1
  Ti  Ti161  1  0.69724709  0.09580232  0.90263526  1
  Ti  Ti162  1  0.40788291  0.59811014  0.01157911  1
  Ti  Ti163  1  0.30500991  0.30546551  0.90241133  1
  Ti  Ti164  1  0.89635938  0.30034818  0.49790985  1
  Ti  Ti165  1  0.70669584  0.50257571  0.28891163  1
  Ti  Ti166  1  0.10784031  0.50646411  0.30119068  1
  Ti  Ti167  1  0.80212858  -0.00834006  0.61536916  1
  Ti  Ti168  1  0.89642840  0.31568449  0.90111897  1
  Ti  Ti169  1  0.30096116  0.30463025  0.49555827  1
  Ti  Ti170  1  0.89879383  0.50449422  0.69637909  1
  Ti  Ti171  1  0.69075145  0.90094370  0.08450891  1
  Ti  Ti172  1  0.10505446  0.29473051  0.70029149  1
  Ti  Ti173  1  0.89774509  0.90910070  0.30501056  1
  Ti  Ti174  1  0.00887889  -0.00686377  0.77830980  1
  Ti  Ti175  1  0.80190233  0.19168506  0.80531280  1
  Ti  Ti176  1  0.80089222  0.59616981  0.39786758  1
  Ti  Ti177  1  -0.00625913  0.59625475  0.01197308  1
  Ti  Ti178  1  0.60713634  0.80216431  0.79739280  1
  Ti  Ti179  1  0.29469128  0.89240269  0.29467203  1
  Ti  Ti180  1  0.40441824  0.80281675  0.80288852  1
  Ti  Ti181  1  0.38396781  0.20489712  0.38694880  1
  Ti  Ti182  1  0.60824380  0.20060206  0.39312966  1
  Ti  Ti183  1  0.30463110  0.69593735  0.10449088  1
  Ti  Ti184  1  0.29832593  0.09562095  0.29729458  1
  Ti  Ti185  1  0.20041880  0.79698563  0.40570602  1
  Ti  Ti186  1  0.20632725  0.20873431  0.79425302  1
  Ti  Ti187  1  0.60168889  0.20360789  0.00126950  1
  Ti  Ti188  1  -0.00704226  0.60015951  0.79030206  1
  Ti  Ti189  1  0.50360223  0.49948104  0.29275764  1
  Ti  Ti190  1  0.78854848  0.41644455  0.00229646  1
  Ti  Ti191  1  0.89406563  0.69145846  0.29945682  1
  Ti  Ti192  1  0.40266927  0.41198610  0.00470637  1
  Ti  Ti193  1  0.69732663  0.70516911  0.90973594  1
  Ti  Ti194  1  0.08374738  0.69867807  0.69671069  1
  Ti  Ti195  1  0.30496510  0.09203173  0.89780684  1
  Ti  Ti196  1  0.70083768  0.30741527  0.10720552  1
  Ti  Ti197  1  0.69261545  0.09313211  0.29931293  1
  Ti  Ti198  1  0.51218353  0.09845256  0.90675783  1
  Ti  Ti199  1  0.30853454  0.88980507  0.90262339  1
  Mo  Mo200  1  0.79340952  0.40456905  0.19859814  1
  Mo  Mo201  1  -0.00049882  0.79290787  0.60336785  1
  Mo  Mo202  1  0.69768292  0.69895952  0.70432950  1
  Mo  Mo203  1  0.50290148  0.69491228  0.09870799  1
  Mo  Mo204  1  0.50368591  0.88800699  0.90491058  1
  Mo  Mo205  1  0.49753870  0.49812219  0.10494187  1
  Mo  Mo206  1  0.09437514  0.12037911  0.70606585  1
  Mo  Mo207  1  0.60247382  0.79942981  0.00445869  1
  Mo  Mo208  1  0.60153512  -0.00407514  -0.00130324  1
  Mo  Mo209  1  0.70112347  0.50265602  0.89678452  1
  Mo  Mo210  1  0.50581848  0.89321157  0.09284982  1
  Mo  Mo211  1  0.50679739  0.49825613  0.50214467  1
  Mo  Mo212  1  0.40758042  0.60099809  0.60556786  1
  Mo  Mo213  1  0.69999961  0.88723641  0.90430828  1
  Mo  Mo214  1  0.30575522  0.50986711  0.90852401  1
  Mo  Mo215  1  0.10224384  0.30633091  0.49640922  1
  Mo  Mo216  1  0.70324912  0.50294996  0.11157669  1
  Mo  Mo217  1  -0.00457080  -0.00124738  0.61339899  1
  Mo  Mo218  1  0.79980429  0.41186765  0.79808242  1
  Mo  Mo219  1  -0.00153644  0.59553726  0.59879119  1
  Mo  Mo220  1  0.69198518  0.89374139  0.70266580  1
  Mo  Mo221  1  0.09205464  0.69853366  0.49317811  1
  Mo  Mo222  1  0.20287473  0.59561361  0.19831028  1
  Mo  Mo223  1  0.69740082  0.90782053  0.29771679  1
  Mo  Mo224  1  -0.00706202  0.79113121  0.78903362  1
  Mo  Mo225  1  0.19957677  0.21146628  0.60152969  1
  Mo  Mo226  1  0.49681826  0.89995148  0.48375637  1
  Mo  Mo227  1  0.30046090  0.30546880  0.69523405  1
  Mo  Mo228  1  0.80018524  0.60092165  0.20165481  1
  Mo  Mo229  1  0.50999005  0.10873940  0.10538433  1
  Mo  Mo230  1  -0.01174598  0.18846786  0.19920482  1
  Mo  Mo231  1  0.40090998  0.39933535  0.39826900  1
  Mo  Mo232  1  0.90891460  0.89731826  0.70312782  1
  Mo  Mo233  1  0.90401489  0.09523103  0.29385385  1
  Mo  Mo234  1  -0.00774310  0.41561204  0.00794686  1
  Mo  Mo235  1  0.09499891  0.87667637  0.70223444  1
  Mo  Mo236  1  0.21165121  0.80084667  0.19887928  1
  Mo  Mo237  1  0.19318921  0.59316131  0.40033893  1
  Mo  Mo238  1  0.10384480  0.89698316  0.10580167  1
  Mo  Mo239  1  0.60368136  0.59175837  0.19973752  1
  Mo  Mo240  1  0.40333951  0.79959654  0.00655355  1
  Mo  Mo241  1  0.69051899  0.30024896  0.29931537  1
  Mo  Mo242  1  0.49592782  0.89138671  0.71849029  1
  Mo  Mo243  1  0.20969449  0.59984657  0.00051108  1
  Mo  Mo244  1  0.29934282  0.30612817  0.30144440  1
  Mo  Mo245  1  0.79484498  0.60207680  0.00173204  1
  Mo  Mo246  1  0.59996460  0.79852829  0.61500919  1
  Mo  Mo247  1  0.40772012  0.59657266  0.19083412  1
  Mo  Mo248  1  0.90270707  0.69593078  0.70242988  1
  Mo  Mo249  1  0.79836254  0.00054587  0.39322044  1
