# generated using pymatgen
data_HfZrTaTiMo
_symmetry_space_group_name_H-M   'P 1'
_cell_length_a   16.88480383
_cell_length_b   16.88897641
_cell_length_c   16.88908377
_cell_angle_alpha   89.94369261
_cell_angle_beta   90.01740595
_cell_angle_gamma   90.00633555
_symmetry_Int_Tables_number   1
_chemical_formula_structural   HfZrTaTiMo
_chemical_formula_sum   'Hf50 Zr50 Ta50 Ti50 Mo50'
_cell_volume   4816.20767977
_cell_formula_units_Z   50
loop_
 _symmetry_equiv_pos_site_id
 _symmetry_equiv_pos_as_xyz
  1  'x, y, z'
loop_
 _atom_site_type_symbol
 _atom_site_label
 _atom_site_symmetry_multiplicity
 _atom_site_fract_x
 _atom_site_fract_y
 _atom_site_fract_z
 _atom_site_occupancy
  Hf  Hf0  1  0.80672856  0.00663589  0.80904787  1
  Hf  Hf1  1  0.60647827  0.01584576  0.00546722  1
  Hf  Hf2  1  0.49576484  0.10689423  0.30812251  1
  Hf  Hf3  1  0.90157340  0.90253397  0.10535364  1
  Hf  Hf4  1  0.18668315  0.19183823  0.39932607  1
  Hf  Hf5  1  0.30634889  0.28896914  0.31197295  1
  Hf  Hf6  1  0.90333071  0.90364850  0.70046626  1
  Hf  Hf7  1  0.50468897  0.29339362  0.30460759  1
  Hf  Hf8  1  0.90276572  0.10593344  0.69800565  1
  Hf  Hf9  1  0.89365942  0.50240712  0.29807295  1
  Hf  Hf10  1  0.19546339  0.19460996  0.20476427  1
  Hf  Hf11  1  0.49688416  0.89587951  0.90376083  1
  Hf  Hf12  1  0.00839905  -0.00177891  0.59605347  1
  Hf  Hf13  1  0.60767589  0.40216631  -0.00354303  1
  Hf  Hf14  1  0.00327448  0.01383670  0.38746744  1
  Hf  Hf15  1  0.70647168  0.69425885  0.69780339  1
  Hf  Hf16  1  0.79794315  0.20560304  0.20264830  1
  Hf  Hf17  1  0.00108234  0.79750259  0.39608320  1
  Hf  Hf18  1  0.09573207  0.10081296  0.69985606  1
  Hf  Hf19  1  0.40641686  0.59678244  0.18917466  1
  Hf  Hf20  1  0.80586500  0.77876691  0.01246939  1
  Hf  Hf21  1  0.10745511  0.90566423  0.49341542  1
  Hf  Hf22  1  0.29678723  0.68871275  0.29791799  1
  Hf  Hf23  1  -0.00639331  0.20410010  0.80893007  1
  Hf  Hf24  1  0.39018570  0.19430269  0.19258417  1
  Hf  Hf25  1  0.69982468  0.69615155  0.30518967  1
  Hf  Hf26  1  0.79791630  0.39795371  0.40327358  1
  Hf  Hf27  1  0.10040757  0.49119541  0.69661664  1
  Hf  Hf28  1  0.59994358  0.40065634  0.60241555  1
  Hf  Hf29  1  0.01552397  0.79656860  0.78816019  1
  Hf  Hf30  1  0.29116215  0.09417302  0.89672716  1
  Hf  Hf31  1  0.59592014  0.79769193  0.20585466  1
  Hf  Hf32  1  0.00012295  0.60053076  0.40988153  1
  Hf  Hf33  1  0.89891541  0.30092482  0.09725712  1
  Hf  Hf34  1  0.19457076  0.81274236  0.61671467  1
  Hf  Hf35  1  -0.00398342  0.19741758  0.21389387  1
  Hf  Hf36  1  0.60664705  0.00065184  0.80662475  1
  Hf  Hf37  1  0.38951883  0.20277899  0.00313772  1
  Hf  Hf38  1  0.49249312  0.30717375  0.89621494  1
  Hf  Hf39  1  0.79337173  0.00274272  0.40047939  1
  Hf  Hf40  1  0.80630948  0.79397964  0.79940553  1
  Hf  Hf41  1  0.90704773  0.10921554  0.50206387  1
  Hf  Hf42  1  -0.00351137  0.59846218  0.19235172  1
  Hf  Hf43  1  0.90680427  0.68571179  0.90079226  1
  Hf  Hf44  1  0.60331959  0.79178395  0.79984625  1
  Hf  Hf45  1  0.19933660  0.20476901  0.79734198  1
  Hf  Hf46  1  0.70232979  0.88925766  0.90593039  1
  Hf  Hf47  1  0.79928274  0.40979259  -0.00024851  1
  Hf  Hf48  1  0.00159878  0.79837943  0.19866069  1
  Hf  Hf49  1  0.70874641  0.31292931  0.70253116  1
  Zr  Zr50  1  0.39414488  0.60294977  0.60497904  1
  Zr  Zr51  1  0.69587828  0.50667400  0.29670534  1
  Zr  Zr52  1  0.10929652  0.69208607  0.09513436  1
  Zr  Zr53  1  0.40108768  0.81000036  0.39600811  1
  Zr  Zr54  1  0.70056438  0.10632628  0.69877977  1
  Zr  Zr55  1  0.59406435  0.58283503  0.42194336  1
  Zr  Zr56  1  0.30782040  0.69576470  0.08493747  1
  Zr  Zr57  1  0.20224889  0.80203660  -0.00616599  1
  Zr  Zr58  1  0.49871401  0.10701148  0.69792394  1
  Zr  Zr59  1  0.50101146  0.89908067  0.70018469  1
  Zr  Zr60  1  0.30166937  0.29563312  0.51066349  1
  Zr  Zr61  1  0.49617905  0.89687292  0.09505242  1
  Zr  Zr62  1  0.10348281  0.91417553  0.09790368  1
  Zr  Zr63  1  0.79155610  0.00886291  0.20711417  1
  Zr  Zr64  1  0.59061489  0.59365634  0.61365323  1
  Zr  Zr65  1  0.50205951  0.68241237  0.31292068  1
  Zr  Zr66  1  0.90396212  0.48058379  0.70075941  1
  Zr  Zr67  1  0.10974765  0.69215677  0.29436975  1
  Zr  Zr68  1  0.19850541  0.39040871  0.19842970  1
  Zr  Zr69  1  0.19760658  0.40660297  0.01100148  1
  Zr  Zr70  1  0.10941190  0.68743816  0.89625362  1
  Zr  Zr71  1  0.60466985  0.00217366  0.59399565  1
  Zr  Zr72  1  0.40177632  0.80279291  0.20423796  1
  Zr  Zr73  1  0.20444984  0.80623436  0.39331938  1
  Zr  Zr74  1  0.49849355  0.49905440  0.08712822  1
  Zr  Zr75  1  0.10303943  0.50300475  0.29796643  1
  Zr  Zr76  1  0.39525574  0.39576513  0.19178454  1
  Zr  Zr77  1  0.09967672  0.90600393  0.89372824  1
  Zr  Zr78  1  0.29924053  0.50536993  0.90053418  1
  Zr  Zr79  1  0.40664431  0.40288084  0.40579436  1
  Zr  Zr80  1  0.39874243  0.00794423  0.00261277  1
  Zr  Zr81  1  0.60339204  0.39771786  0.41041078  1
  Zr  Zr82  1  0.19829735  0.60409905  0.60494973  1
  Zr  Zr83  1  0.69922893  0.88155330  0.50749907  1
  Zr  Zr84  1  0.79791737  0.01047882  -0.00116236  1
  Zr  Zr85  1  0.90632717  0.30446449  0.51374619  1
  Zr  Zr86  1  0.30226785  0.50317135  0.30663734  1
  Zr  Zr87  1  0.08428074  0.30590025  0.69485727  1
  Zr  Zr88  1  0.60660450  0.19930003  0.18693274  1
  Zr  Zr89  1  0.18815053  0.39496795  0.40773491  1
  Zr  Zr90  1  0.59982587  -0.00723108  0.39925224  1
  Zr  Zr91  1  0.69936474  0.89402068  0.10266088  1
  Zr  Zr92  1  0.80001038  0.20559855  0.39898923  1
  Zr  Zr93  1  0.69719044  0.70084155  0.50599676  1
  Zr  Zr94  1  0.59838134  0.20867195  0.80003632  1
  Zr  Zr95  1  -0.01144209  0.00851531  -0.01118867  1
  Zr  Zr96  1  0.79562500  0.60797208  0.17504006  1
  Zr  Zr97  1  0.40538401  0.59492410  0.79175006  1
  Zr  Zr98  1  0.89960970  0.89590161  0.49597928  1
  Zr  Zr99  1  0.20055801  -0.01368005  0.78058159  1
  Ta  Ta100  1  0.80711413  0.20978598  0.80230693  1
  Ta  Ta101  1  0.89438899  0.69992376  0.29971254  1
  Ta  Ta102  1  -0.00161643  0.20211388  -0.00217729  1
  Ta  Ta103  1  0.39665429  0.00101579  0.59648636  1
  Ta  Ta104  1  0.09294885  0.29602329  0.09953483  1
  Ta  Ta105  1  0.49516491  0.69796182  0.90564650  1
  Ta  Ta106  1  0.00003365  0.39472497  0.39436928  1
  Ta  Ta107  1  0.49680072  0.10745302  0.89824587  1
  Ta  Ta108  1  0.29661852  0.71214683  0.71015294  1
  Ta  Ta109  1  0.20835938  0.81193341  0.20123417  1
  Ta  Ta110  1  0.71066544  0.49981740  0.70503829  1
  Ta  Ta111  1  0.30351478  0.09952852  0.49679708  1
  Ta  Ta112  1  -0.00332025  0.39625502  0.20093978  1
  Ta  Ta113  1  0.29748281  0.90642891  0.09631033  1
  Ta  Ta114  1  0.29553163  0.30412426  0.89744724  1
  Ta  Ta115  1  0.00405942  0.60062657  0.59583417  1
  Ta  Ta116  1  0.39343276  0.00097057  0.20812989  1
  Ta  Ta117  1  0.39279830  0.80731747  0.60215719  1
  Ta  Ta118  1  0.20149962  0.59752289  0.41939009  1
  Ta  Ta119  1  0.00593280  0.79025891  0.60031288  1
  Ta  Ta120  1  0.50077004  0.29934565  0.09305395  1
  Ta  Ta121  1  0.30097377  0.10327566  0.69215530  1
  Ta  Ta122  1  0.50083826  0.28857411  0.50856466  1
  Ta  Ta123  1  0.80781857  0.60272874  0.41343910  1
  Ta  Ta124  1  0.89705180  0.90034500  0.29515891  1
  Ta  Ta125  1  0.79539059  0.20590192  0.59936366  1
  Ta  Ta126  1  0.30375079  0.89750453  0.89737431  1
  Ta  Ta127  1  0.60818314  0.39736480  0.18874075  1
  Ta  Ta128  1  0.09994124  0.30332451  0.90419357  1
  Ta  Ta129  1  0.90145067  0.10486253  0.10330164  1
  Ta  Ta130  1  0.79309691  0.39684504  0.19479743  1
  Ta  Ta131  1  0.29994855  0.90932555  0.49962643  1
  Ta  Ta132  1  0.70599204  0.30593026  0.89667747  1
  Ta  Ta133  1  0.09538725  0.09696348  0.10073705  1
  Ta  Ta134  1  0.59853985  0.59462676  0.80456814  1
  Ta  Ta135  1  -0.00191323  0.79464855  0.00032758  1
  Ta  Ta136  1  0.49895976  0.10830217  0.49922635  1
  Ta  Ta137  1  0.60576664  0.59787572  -0.00339351  1
  Ta  Ta138  1  0.48902886  0.30874348  0.69907831  1
  Ta  Ta139  1  0.70289707  0.68873680  0.90196875  1
  Ta  Ta140  1  0.59793622  -0.00024880  0.20584775  1
  Ta  Ta141  1  0.00043100  0.40429290  0.00089412  1
  Ta  Ta142  1  0.50039587  0.71339385  0.50917196  1
  Ta  Ta143  1  0.10030002  0.10016031  0.90117674  1
  Ta  Ta144  1  0.39125614  0.20270623  0.79792434  1
  Ta  Ta145  1  0.19526949  0.20159847  0.00361431  1
  Ta  Ta146  1  0.69056468  0.10804098  0.30673716  1
  Ta  Ta147  1  0.29297535  0.49023503  0.51396650  1
  Ta  Ta148  1  0.90730951  0.68898383  0.69890070  1
  Ta  Ta149  1  0.79637820  0.00710067  0.59376776  1
  Ti  Ti150  1  0.70618571  0.89441199  0.69440677  1
  Ti  Ti151  1  0.90442971  0.49437490  0.50484064  1
  Ti  Ti152  1  0.00310666  0.20393302  0.39113681  1
  Ti  Ti153  1  0.79813634  0.79435752  0.20137380  1
  Ti  Ti154  1  0.60423976  0.20489782  0.00125238  1
  Ti  Ti155  1  0.09320773  0.29753304  0.50927773  1
  Ti  Ti156  1  0.30077006  0.70892554  0.50479168  1
  Ti  Ti157  1  0.80703427  0.59153885  0.80263777  1
  Ti  Ti158  1  0.39900626  0.00347817  0.79441405  1
  Ti  Ti159  1  0.20330651  0.00835443  0.38740575  1
  Ti  Ti160  1  0.00393890  0.59174522  0.79379588  1
  Ti  Ti161  1  0.39049431  0.39696782  0.00297966  1
  Ti  Ti162  1  0.20274303  0.59926356  0.79238591  1
  Ti  Ti163  1  0.59959403  0.60232764  0.18222646  1
  Ti  Ti164  1  0.59484140  0.80800180  0.39270139  1
  Ti  Ti165  1  0.79867587  0.20227659  -0.00081992  1
  Ti  Ti166  1  0.39574778  0.80273544  0.79981412  1
  Ti  Ti167  1  0.70834637  0.50215463  0.89178622  1
  Ti  Ti168  1  0.80262374  0.79738164  0.39534459  1
  Ti  Ti169  1  0.49994945  0.10250604  0.10026082  1
  Ti  Ti170  1  0.48292472  0.49021786  0.52055708  1
  Ti  Ti171  1  0.19885003  0.39724346  0.80067809  1
  Ti  Ti172  1  0.70164077  0.11505742  0.90002804  1
  Ti  Ti173  1  0.89851678  0.31348159  0.89695698  1
  Ti  Ti174  1  0.39617868  0.59751498  0.41755883  1
  Ti  Ti175  1  0.69243900  0.30058549  0.30306660  1
  Ti  Ti176  1  0.10511966  0.70432628  0.50225089  1
  Ti  Ti177  1  0.29812571  0.30443516  0.69704279  1
  Ti  Ti178  1  0.59717097  0.41079859  0.79899320  1
  Ti  Ti179  1  0.39672173  -0.00011374  0.39724151  1
  Ti  Ti180  1  0.20340041  0.00414312  0.59630713  1
  Ti  Ti181  1  0.20651118  0.57754600  0.17404799  1
  Ti  Ti182  1  0.30337905  0.48208113  0.69683769  1
  Ti  Ti183  1  0.81479879  0.59937192  0.59712987  1
  Ti  Ti184  1  0.49212998  0.49793350  0.89770757  1
  Ti  Ti185  1  0.28339310  0.08923905  0.10036411  1
  Ti  Ti186  1  0.10205437  0.91381696  0.28690416  1
  Ti  Ti187  1  0.00243971  0.59044540  0.00410264  1
  Ti  Ti188  1  0.90473315  0.89330564  0.89741804  1
  Ti  Ti189  1  0.39873265  0.19777472  0.60321065  1
  Ti  Ti190  1  0.71520704  0.49640267  0.51749453  1
  Ti  Ti191  1  0.09873835  0.49851259  0.89777767  1
  Ti  Ti192  1  0.81619955  0.79100498  0.60082797  1
  Ti  Ti193  1  0.19285410  0.19369997  0.59586403  1
  Ti  Ti194  1  0.89939192  0.50101057  0.09423113  1
  Ti  Ti195  1  0.49656693  0.70676046  0.70047483  1
  Ti  Ti196  1  0.30402092  0.69972640  0.89689961  1
  Ti  Ti197  1  0.50532304  0.49637617  0.29532818  1
  Ti  Ti198  1  0.49658589  0.89807169  0.50334608  1
  Ti  Ti199  1  0.59907684  0.78447717  0.00538378  1
  Mo  Mo200  1  0.00240901  0.20007218  0.60016560  1
  Mo  Mo201  1  0.30459430  0.49829962  0.09158856  1
  Mo  Mo202  1  0.80419940  0.40161419  0.80662493  1
  Mo  Mo203  1  0.19957124  0.39599808  0.60223123  1
  Mo  Mo204  1  0.79891302  0.59383407  -0.00714417  1
  Mo  Mo205  1  0.60204734  0.20793757  0.59740698  1
  Mo  Mo206  1  0.89769546  0.31004024  0.29971862  1
  Mo  Mo207  1  -0.00219728  0.00242013  0.80079661  1
  Mo  Mo208  1  0.69618953  0.11163772  0.50087871  1
  Mo  Mo209  1  0.20335760  0.59352516  -0.00768121  1
  Mo  Mo210  1  0.09862685  0.49671091  0.50210127  1
  Mo  Mo211  1  0.89776848  0.30053846  0.70162225  1
  Mo  Mo212  1  -0.00484519  0.00583531  0.20236072  1
  Mo  Mo213  1  0.30047894  0.09544287  0.30468654  1
  Mo  Mo214  1  0.90174656  0.69955777  0.50315555  1
  Mo  Mo215  1  0.09293049  0.90392146  0.69392708  1
  Mo  Mo216  1  0.69729234  0.29886390  0.50905496  1
  Mo  Mo217  1  0.91065631  0.69867007  0.09793042  1
  Mo  Mo218  1  0.09089309  0.49374974  0.09773922  1
  Mo  Mo219  1  0.80175963  0.40208899  0.60149318  1
  Mo  Mo220  1  0.39298253  0.39523976  0.79933996  1
  Mo  Mo221  1  0.90820186  0.50207157  0.90040540  1
  Mo  Mo222  1  0.10575864  0.10205939  0.50010753  1
  Mo  Mo223  1  0.70138760  0.89322107  0.30060007  1
  Mo  Mo224  1  0.20158768  0.00266028  0.20179851  1
  Mo  Mo225  1  0.31009939  0.90537991  0.69752341  1
  Mo  Mo226  1  0.00117659  0.40127469  0.81882070  1
  Mo  Mo227  1  0.19966091  0.00595444  -0.00026470  1
  Mo  Mo228  1  0.09116716  0.29827431  0.29934572  1
  Mo  Mo229  1  0.70165855  0.10775556  0.09853065  1
  Mo  Mo230  1  0.10124547  0.69032615  0.70033313  1
  Mo  Mo231  1  0.40139655  0.19435738  0.40810806  1
  Mo  Mo232  1  0.89594272  0.11655447  0.90339223  1
  Mo  Mo233  1  0.50153015  0.49048053  0.70915547  1
  Mo  Mo234  1  0.20841887  0.79846594  0.80009073  1
  Mo  Mo235  1  0.89526009  0.10006645  0.30112885  1
  Mo  Mo236  1  0.40575427  0.60232525  -0.00874008  1
  Mo  Mo237  1  0.29590936  0.29469887  0.09274334  1
  Mo  Mo238  1  0.39780973  0.39399575  0.60667717  1
  Mo  Mo239  1  0.29894954  0.91008918  0.29783734  1
  Mo  Mo240  1  0.58836134  0.79875823  0.60834304  1
  Mo  Mo241  1  0.10007153  0.09652484  0.29431693  1
  Mo  Mo242  1  0.60453756  0.19988309  0.40926873  1
  Mo  Mo243  1  0.68978937  0.69701247  0.09747466  1
  Mo  Mo244  1  0.50200124  0.69693325  0.08650001  1
  Mo  Mo245  1  0.49998696  0.91154607  0.29920009  1
  Mo  Mo246  1  0.69856554  0.50041961  0.09604761  1
  Mo  Mo247  1  0.39840888  0.79994352  -0.01005730  1
  Mo  Mo248  1  0.00516667  0.40642886  0.58492922  1
  Mo  Mo249  1  0.70129737  0.30177079  0.09020997  1
