# generated using pymatgen
data_HfZrTaTiMo
_symmetry_space_group_name_H-M   'P 1'
_cell_length_a   16.89056624
_cell_length_b   16.88591242
_cell_length_c   16.89147676
_cell_angle_alpha   90.04536483
_cell_angle_beta   90.02168940
_cell_angle_gamma   90.01036556
_symmetry_Int_Tables_number   1
_chemical_formula_structural   HfZrTaTiMo
_chemical_formula_sum   'Hf50 Zr50 Ta50 Ti50 Mo50'
_cell_volume   4817.66044462
_cell_formula_units_Z   50
loop_
 _symmetry_equiv_pos_site_id
 _symmetry_equiv_pos_as_xyz
  1  'x, y, z'
loop_
 _atom_site_type_symbol
 _atom_site_label
 _atom_site_symmetry_multiplicity
 _atom_site_fract_x
 _atom_site_fract_y
 _atom_site_fract_z
 _atom_site_occupancy
  Hf  Hf0  1  0.59885782  -0.00214251  0.00594727  1
  Hf  Hf1  1  0.59607875  0.19115397  0.40163355  1
  Hf  Hf2  1  0.40410241  0.79700278  0.59674100  1
  Hf  Hf3  1  0.00295122  0.60547633  -0.00319397  1
  Hf  Hf4  1  0.30871270  0.08812206  0.29885869  1
  Hf  Hf5  1  0.90541430  0.89916295  0.89870083  1
  Hf  Hf6  1  0.90702522  0.29104671  0.10654940  1
  Hf  Hf7  1  0.40142853  0.19264725  0.41092740  1
  Hf  Hf8  1  0.00025330  0.40488630  0.40293829  1
  Hf  Hf9  1  0.69075158  0.89402611  0.89840613  1
  Hf  Hf10  1  0.10564070  0.08813075  0.50640528  1
  Hf  Hf11  1  0.69546451  0.50598590  0.69690744  1
  Hf  Hf12  1  0.20130468  0.40123395  0.40590510  1
  Hf  Hf13  1  0.60088544  0.18605131  0.01046055  1
  Hf  Hf14  1  0.80007812  -0.00184195  0.40139700  1
  Hf  Hf15  1  0.10590930  0.70386826  0.69493862  1
  Hf  Hf16  1  -0.00377618  0.61106973  0.80142229  1
  Hf  Hf17  1  0.40605376  0.60440307  0.58959028  1
  Hf  Hf18  1  0.20914852  0.19507375  0.00096616  1
  Hf  Hf19  1  0.79593591  0.19350729  0.40247636  1
  Hf  Hf20  1  0.21092555  0.41156948  0.00413529  1
  Hf  Hf21  1  0.49466234  0.09767137  0.89359689  1
  Hf  Hf22  1  0.59904406  0.41277783  0.41197463  1
  Hf  Hf23  1  0.02049800  0.00894234  0.19934987  1
  Hf  Hf24  1  0.89816389  0.50991963  0.10089385  1
  Hf  Hf25  1  0.69889874  0.90691834  0.28773347  1
  Hf  Hf26  1  0.10061747  0.89245653  0.30246154  1
  Hf  Hf27  1  0.69807255  0.51171084  0.31019206  1
  Hf  Hf28  1  0.79351585  0.18246223  -0.01000827  1
  Hf  Hf29  1  0.89855762  0.89885650  0.70171854  1
  Hf  Hf30  1  0.00536364  0.18738388  -0.00992654  1
  Hf  Hf31  1  0.59161253  -0.00114188  0.78854617  1
  Hf  Hf32  1  0.09361310  0.29013433  0.29533745  1
  Hf  Hf33  1  0.70573691  0.70946833  0.30033591  1
  Hf  Hf34  1  0.59416499  0.00222775  0.39907334  1
  Hf  Hf35  1  0.90225386  0.30584756  0.69445107  1
  Hf  Hf36  1  0.20549771  0.39620653  0.60045481  1
  Hf  Hf37  1  0.00254389  0.19064367  0.40216516  1
  Hf  Hf38  1  0.39292943  0.40439664  0.40738289  1
  Hf  Hf39  1  0.29906292  0.69505892  0.88897364  1
  Hf  Hf40  1  0.10204062  0.09422046  0.69704764  1
  Hf  Hf41  1  0.70039080  0.29756904  0.51181264  1
  Hf  Hf42  1  0.79990570  0.39997684  0.21050230  1
  Hf  Hf43  1  0.79384323  0.00903727  0.80689199  1
  Hf  Hf44  1  0.50071884  0.30040907  0.29881015  1
  Hf  Hf45  1  0.11342714  0.70632783  0.10275741  1
  Hf  Hf46  1  0.20353482  0.19617995  0.41014835  1
  Hf  Hf47  1  0.40581851  0.80314416  0.79156957  1
  Hf  Hf48  1  0.20685888  -0.01055880  0.40010582  1
  Hf  Hf49  1  0.19856106  0.41592221  0.19745711  1
  Zr  Zr50  1  0.70303029  0.70723645  0.10434553  1
  Zr  Zr51  1  0.49779034  0.29778875  0.90214861  1
  Zr  Zr52  1  0.20316873  -0.00366031  -0.00325088  1
  Zr  Zr53  1  0.89364697  0.30793980  0.49955463  1
  Zr  Zr54  1  0.59243357  0.79651098  0.60287156  1
  Zr  Zr55  1  -0.00116152  0.79230317  -0.00298745  1
  Zr  Zr56  1  0.69449375  0.29663050  0.89636292  1
  Zr  Zr57  1  0.80095216  0.39880244  -0.00093983  1
  Zr  Zr58  1  0.20624930  -0.00770249  0.19915542  1
  Zr  Zr59  1  0.20929904  0.59964251  0.39808738  1
  Zr  Zr60  1  0.80132690  0.60361249  0.79583142  1
  Zr  Zr61  1  0.90504182  0.09414428  0.29548322  1
  Zr  Zr62  1  0.00576031  0.20301746  0.60224231  1
  Zr  Zr63  1  0.09260211  0.50198219  0.68991132  1
  Zr  Zr64  1  0.70003187  0.10732301  0.69051468  1
  Zr  Zr65  1  0.18836908  0.17507563  0.19225398  1
  Zr  Zr66  1  0.10004579  0.29448401  0.09782978  1
  Zr  Zr67  1  0.21278559  0.20796370  0.60393560  1
  Zr  Zr68  1  -0.00074680  0.80398645  0.59527293  1
  Zr  Zr69  1  0.69847005  0.50482465  0.90041419  1
  Zr  Zr70  1  0.80289575  0.59737198  0.41383044  1
  Zr  Zr71  1  0.78914443  0.19133670  0.20785837  1
  Zr  Zr72  1  0.59536281  0.40483887  0.20422872  1
  Zr  Zr73  1  0.38816563  0.40622574  0.19806477  1
  Zr  Zr74  1  0.00286106  0.00263823  0.80322738  1
  Zr  Zr75  1  0.49494561  0.30444550  0.51211457  1
  Zr  Zr76  1  0.10320577  0.50030390  0.89212545  1
  Zr  Zr77  1  0.79334355  -0.00180765  0.00419655  1
  Zr  Zr78  1  0.69697971  0.70340660  0.49355899  1
  Zr  Zr79  1  0.89976974  0.50999547  0.30724889  1
  Zr  Zr80  1  0.80199740  0.80291446  0.00184020  1
  Zr  Zr81  1  0.69279343  0.29748884  0.10520887  1
  Zr  Zr82  1  0.90677878  0.09332302  0.09944840  1
  Zr  Zr83  1  0.59974566  0.39864729  0.79410193  1
  Zr  Zr84  1  0.20335624  -0.00803902  0.79946605  1
  Zr  Zr85  1  0.48635135  0.50404595  0.89422257  1
  Zr  Zr86  1  0.01438218  0.60564737  0.20441709  1
  Zr  Zr87  1  0.49278348  0.70047676  0.30693412  1
  Zr  Zr88  1  0.30810421  0.30464071  0.90037431  1
  Zr  Zr89  1  -0.00133943  0.80242062  0.40539709  1
  Zr  Zr90  1  0.00587998  0.40863788  0.19841160  1
  Zr  Zr91  1  0.90770647  0.30268326  0.89435305  1
  Zr  Zr92  1  0.70522210  0.51021934  0.10366920  1
  Zr  Zr93  1  0.40178351  0.79564728  0.00438996  1
  Zr  Zr94  1  0.20372221  0.20599026  0.79204409  1
  Zr  Zr95  1  0.29314341  0.29490525  0.29808654  1
  Zr  Zr96  1  0.39260944  0.19544402  0.18984925  1
  Zr  Zr97  1  0.59116574  0.60834150  0.00191476  1
  Zr  Zr98  1  0.58704699  0.60816298  0.19837015  1
  Zr  Zr99  1  0.38661503  0.60048495  0.00868451  1
  Ta  Ta100  1  0.79958261  -0.00474558  0.59699803  1
  Ta  Ta101  1  0.20514315  0.39911802  0.78983054  1
  Ta  Ta102  1  0.31046438  0.09650143  0.89266535  1
  Ta  Ta103  1  0.79751307  0.79673952  0.79552480  1
  Ta  Ta104  1  0.49681410  0.30290466  0.69611287  1
  Ta  Ta105  1  0.59049113  -0.00086793  0.59830924  1
  Ta  Ta106  1  0.79731009  0.41461882  0.59751492  1
  Ta  Ta107  1  0.40278621  -0.00655433  0.40386451  1
  Ta  Ta108  1  0.70008265  0.89782582  0.69411293  1
  Ta  Ta109  1  0.00738854  0.40824936  0.00037275  1
  Ta  Ta110  1  0.39941986  -0.00153941  0.00377733  1
  Ta  Ta111  1  0.30301774  0.89580650  0.10479198  1
  Ta  Ta112  1  0.89552589  0.70722827  0.30189870  1
  Ta  Ta113  1  0.80189960  0.19844011  0.79896499  1
  Ta  Ta114  1  0.89811412  0.10185405  0.69540870  1
  Ta  Ta115  1  0.30437539  0.89819661  0.69346966  1
  Ta  Ta116  1  0.90000716  0.89780663  0.29769399  1
  Ta  Ta117  1  0.59620115  0.80023826  0.79325567  1
  Ta  Ta118  1  0.50048110  0.70164877  0.89330696  1
  Ta  Ta119  1  0.80188593  0.60330931  0.60072866  1
  Ta  Ta120  1  0.49757166  0.90008858  0.89741583  1
  Ta  Ta121  1  0.30863975  0.08704586  0.51176173  1
  Ta  Ta122  1  0.69958413  0.30439444  0.31377849  1
  Ta  Ta123  1  0.69406851  0.70518967  0.89525237  1
  Ta  Ta124  1  0.90360403  0.49631745  0.89272521  1
  Ta  Ta125  1  0.49427343  0.50051808  0.69427299  1
  Ta  Ta126  1  0.80220846  0.40069144  0.79060147  1
  Ta  Ta127  1  -0.00608917  -0.00780012  0.59383675  1
  Ta  Ta128  1  0.39628364  0.19400569  0.00584499  1
  Ta  Ta129  1  0.39403904  0.40343598  0.79300110  1
  Ta  Ta130  1  0.10426204  0.89339045  0.09576716  1
  Ta  Ta131  1  0.81114322  0.61293272  -0.01034173  1
  Ta  Ta132  1  0.49363999  0.30281904  0.09636219  1
  Ta  Ta133  1  0.89701851  0.69963392  0.11415068  1
  Ta  Ta134  1  0.59016170  0.40556983  0.00565417  1
  Ta  Ta135  1  0.59590023  0.59878417  0.58928755  1
  Ta  Ta136  1  0.40005194  0.19851789  0.78702957  1
  Ta  Ta137  1  0.59397140  0.80705747  0.39847672  1
  Ta  Ta138  1  0.69807238  0.09679331  0.50623947  1
  Ta  Ta139  1  0.39520032  0.79206406  0.19847479  1
  Ta  Ta140  1  0.21004263  0.79744259  0.40060090  1
  Ta  Ta141  1  0.80054085  0.80092469  0.59534068  1
  Ta  Ta142  1  0.48797659  0.51204340  0.30927028  1
  Ta  Ta143  1  0.49702154  0.89948443  0.49907521  1
  Ta  Ta144  1  0.29578403  0.70085790  0.69568191  1
  Ta  Ta145  1  0.48784393  0.50174309  0.10303630  1
  Ta  Ta146  1  0.30505385  0.50769124  0.69810408  1
  Ta  Ta147  1  0.90137616  0.70463743  0.69443988  1
  Ta  Ta148  1  0.10297556  0.69537323  0.50308264  1
  Ta  Ta149  1  0.69761077  0.89897383  0.49973480  1
  Ti  Ti150  1  0.10312551  0.89299794  0.69643448  1
  Ti  Ti151  1  -0.00110642  -0.00646508  0.40900002  1
  Ti  Ti152  1  0.20526144  0.60133034  0.59592670  1
  Ti  Ti153  1  0.09716822  0.88942477  0.89950358  1
  Ti  Ti154  1  0.69517230  0.07056711  0.13360846  1
  Ti  Ti155  1  0.21421573  0.59986552  0.20085446  1
  Ti  Ti156  1  0.31200824  0.08468625  0.69916074  1
  Ti  Ti157  1  0.49814888  0.68987388  0.70416878  1
  Ti  Ti158  1  0.10185857  0.50894622  0.30951725  1
  Ti  Ti159  1  0.59758702  0.41000984  0.59847037  1
  Ti  Ti160  1  0.70157168  0.29780804  0.69149936  1
  Ti  Ti161  1  0.89551797  0.09873127  0.51075015  1
  Ti  Ti162  1  0.49626190  0.90128118  0.10534384  1
  Ti  Ti163  1  0.58989707  0.80454987  0.19446239  1
  Ti  Ti164  1  0.30422757  0.89769549  0.50602635  1
  Ti  Ti165  1  0.59791531  0.19664488  0.79265038  1
  Ti  Ti166  1  0.21297581  0.79553360  0.21084683  1
  Ti  Ti167  1  0.29918888  0.70305763  0.49891719  1
  Ti  Ti168  1  0.10517427  0.09606884  0.89685650  1
  Ti  Ti169  1  0.91092212  0.50545150  0.51043311  1
  Ti  Ti170  1  0.69943064  0.70193675  0.69754568  1
  Ti  Ti171  1  0.08993999  0.51196727  0.50450841  1
  Ti  Ti172  1  0.20328564  0.59689244  0.00387807  1
  Ti  Ti173  1  0.58473405  0.18935019  0.60053925  1
  Ti  Ti174  1  0.09957800  0.30727755  0.89154861  1
  Ti  Ti175  1  0.09575401  0.30563044  0.50637795  1
  Ti  Ti176  1  0.00183613  0.80015495  0.20041060  1
  Ti  Ti177  1  0.00182335  0.19881458  0.79871555  1
  Ti  Ti178  1  0.91254928  0.90497788  0.10407187  1
  Ti  Ti179  1  0.21021230  0.79957433  -0.00283087  1
  Ti  Ti180  1  0.20363422  0.80609373  0.79657754  1
  Ti  Ti181  1  0.39917987  0.19574502  0.60405012  1
  Ti  Ti182  1  0.39344762  0.80182482  0.39850670  1
  Ti  Ti183  1  0.49416015  0.09071576  0.10944467  1
  Ti  Ti184  1  0.90046628  0.29682820  0.30140767  1
  Ti  Ti185  1  0.59175654  0.79966751  0.00491200  1
  Ti  Ti186  1  0.90733373  0.50016057  0.69513175  1
  Ti  Ti187  1  0.10888855  0.70751897  0.89299821  1
  Ti  Ti188  1  0.10288431  0.70149115  0.30782664  1
  Ti  Ti189  1  0.49761174  0.09083590  0.29051599  1
  Ti  Ti190  1  0.20547846  -0.01008507  0.60303012  1
  Ti  Ti191  1  0.60003858  0.19218264  0.20668718  1
  Ti  Ti192  1  0.11096926  0.89275399  0.50672586  1
  Ti  Ti193  1  0.30581380  0.50193875  0.50495535  1
  Ti  Ti194  1  0.31052255  0.90186157  0.89548225  1
  Ti  Ti195  1  0.90311614  0.70005096  0.49954905  1
  Ti  Ti196  1  0.59596185  0.60554939  0.79579376  1
  Ti  Ti197  1  0.80470107  0.81198015  0.19396263  1
  Ti  Ti198  1  0.20558533  0.59438307  0.79660595  1
  Ti  Ti199  1  0.49002187  0.90059441  0.29553048  1
  Mo  Mo200  1  0.39566900  0.60094194  0.40420853  1
  Mo  Mo201  1  0.30068081  0.70171093  0.30081787  1
  Mo  Mo202  1  0.20553064  0.80031163  0.59406016  1
  Mo  Mo203  1  0.01200002  -0.00644398  -0.00107352  1
  Mo  Mo204  1  0.30222076  0.29651338  0.50630391  1
  Mo  Mo205  1  0.80390721  0.60931894  0.20611581  1
  Mo  Mo206  1  0.00139961  0.40154397  0.79800194  1
  Mo  Mo207  1  0.38915438  0.60202763  0.20511740  1
  Mo  Mo208  1  0.58399000  -0.00554193  0.20284486  1
  Mo  Mo209  1  0.10042377  0.09071504  0.32187206  1
  Mo  Mo210  1  0.69032779  0.10264809  0.88711312  1
  Mo  Mo211  1  0.30581413  0.08844162  0.09273952  1
  Mo  Mo212  1  0.39835247  0.60319251  0.78932992  1
  Mo  Mo213  1  0.30820791  0.89137506  0.30246516  1
  Mo  Mo214  1  0.90137425  0.10218866  0.88882486  1
  Mo  Mo215  1  0.30205530  0.50885664  0.30267184  1
  Mo  Mo216  1  0.31317568  0.30860412  0.69676310  1
  Mo  Mo217  1  0.29272068  0.70387502  0.10634299  1
  Mo  Mo218  1  0.40148005  -0.00621968  0.60110047  1
  Mo  Mo219  1  0.80141927  0.19479447  0.60221229  1
  Mo  Mo220  1  0.29599418  0.50346953  0.88745118  1
  Mo  Mo221  1  0.39746720  0.40637646  0.60356648  1
  Mo  Mo222  1  0.39864591  -0.00254588  0.79825283  1
  Mo  Mo223  1  0.80238064  0.80551079  0.40141635  1
  Mo  Mo224  1  -0.00064481  0.40819856  0.59814088  1
  Mo  Mo225  1  0.39797432  0.39958808  0.00447011  1
  Mo  Mo226  1  0.50016070  0.50572796  0.50098257  1
  Mo  Mo227  1  0.89625062  0.70378439  0.88914932  1
  Mo  Mo228  1  0.68597749  0.89644238  0.10528782  1
  Mo  Mo229  1  0.40218121  -0.01242060  0.19817145  1
  Mo  Mo230  1  0.09157900  0.30907375  0.70867899  1
  Mo  Mo231  1  0.49941052  0.70410653  0.48911145  1
  Mo  Mo232  1  -0.00687055  0.60657883  0.59744293  1
  Mo  Mo233  1  0.69317399  0.09837497  0.30251826  1
  Mo  Mo234  1  0.79935430  0.39799316  0.40632920  1
  Mo  Mo235  1  0.49946623  0.90438982  0.69618814  1
  Mo  Mo236  1  0.49378896  0.70408902  0.10315004  1
  Mo  Mo237  1  0.00215793  0.19458356  0.20310618  1
  Mo  Mo238  1  0.80860009  -0.01253791  0.20008445  1
  Mo  Mo239  1  0.69883982  0.50158357  0.50758616  1
  Mo  Mo240  1  0.10157839  0.08977337  0.07957681  1
  Mo  Mo241  1  0.59146736  0.60493637  0.40757404  1
  Mo  Mo242  1  0.00591201  0.79886978  0.79755394  1
  Mo  Mo243  1  0.00555346  0.60726571  0.40732248  1
  Mo  Mo244  1  0.29866066  0.50879468  0.10533994  1
  Mo  Mo245  1  0.88969610  0.90115544  0.49702103  1
  Mo  Mo246  1  0.30480491  0.30524143  0.09343907  1
  Mo  Mo247  1  0.49411976  0.10521121  0.69566802  1
  Mo  Mo248  1  0.49638223  0.09333466  0.50782186  1
  Mo  Mo249  1  0.10672443  0.51272224  0.09371741  1
