# generated using pymatgen
data_HfZrTaTiMo
_symmetry_space_group_name_H-M   'P 1'
_cell_length_a   16.87826042
_cell_length_b   16.89020829
_cell_length_c   16.88974954
_cell_angle_alpha   89.98521257
_cell_angle_beta   90.06682064
_cell_angle_gamma   90.02648192
_symmetry_Int_Tables_number   1
_chemical_formula_structural   HfZrTaTiMo
_chemical_formula_sum   'Hf50 Zr50 Ta50 Ti50 Mo50'
_cell_volume   4814.88082255
_cell_formula_units_Z   50
loop_
 _symmetry_equiv_pos_site_id
 _symmetry_equiv_pos_as_xyz
  1  'x, y, z'
loop_
 _atom_site_type_symbol
 _atom_site_label
 _atom_site_symmetry_multiplicity
 _atom_site_fract_x
 _atom_site_fract_y
 _atom_site_fract_z
 _atom_site_occupancy
  Hf  Hf0  1  0.41092062  0.79868550  0.41002222  1
  Hf  Hf1  1  0.00221637  0.01132035  0.19817089  1
  Hf  Hf2  1  0.49186617  0.30100147  0.90870779  1
  Hf  Hf3  1  0.00790250  -0.00937561  0.39974295  1
  Hf  Hf4  1  0.79623459  0.40277219  0.39754978  1
  Hf  Hf5  1  0.00091563  0.60284483  0.39896520  1
  Hf  Hf6  1  0.59553185  0.40420126  0.59982842  1
  Hf  Hf7  1  0.10149500  0.10406318  0.50623943  1
  Hf  Hf8  1  0.19138371  0.01303750  0.20249469  1
  Hf  Hf9  1  0.19490926  0.59124181  0.60441129  1
  Hf  Hf10  1  0.80559257  0.80432412  0.39870990  1
  Hf  Hf11  1  0.10461848  0.70537746  0.70463422  1
  Hf  Hf12  1  0.70673675  0.10268455  0.30381834  1
  Hf  Hf13  1  -0.00466961  0.00862272  -0.01716089  1
  Hf  Hf14  1  0.59931208  0.79099043  0.00502574  1
  Hf  Hf15  1  0.89673564  0.50388846  0.50067343  1
  Hf  Hf16  1  0.60407695  0.00571398  0.19780084  1
  Hf  Hf17  1  0.29660496  0.69705234  0.89895928  1
  Hf  Hf18  1  0.40743423  0.60122678  0.01106335  1
  Hf  Hf19  1  0.39628748  0.59833917  0.80134109  1
  Hf  Hf20  1  0.30362153  0.89564613  0.29553195  1
  Hf  Hf21  1  0.79574792  0.60566263  0.60488019  1
  Hf  Hf22  1  0.40060207  -0.00334562  0.60616058  1
  Hf  Hf23  1  0.79467393  0.40177562  0.60069181  1
  Hf  Hf24  1  0.50039111  0.49794139  0.90515404  1
  Hf  Hf25  1  0.01265150  0.40688708  0.40613795  1
  Hf  Hf26  1  0.68442162  0.51568081  0.49414415  1
  Hf  Hf27  1  0.60669500  0.40083999  0.00816529  1
  Hf  Hf28  1  0.10025702  0.69693600  0.28578419  1
  Hf  Hf29  1  -0.00453402  0.80087280  0.40341548  1
  Hf  Hf30  1  0.69922927  0.29305785  0.49832470  1
  Hf  Hf31  1  0.30339664  0.48566157  0.91617781  1
  Hf  Hf32  1  0.30418891  0.69878595  0.50765590  1
  Hf  Hf33  1  0.19650127  0.58928583  0.80171120  1
  Hf  Hf34  1  0.80342578  0.00184550  0.19349344  1
  Hf  Hf35  1  0.19312678  -0.00101392  0.39988904  1
  Hf  Hf36  1  0.29503479  0.69539517  0.29676594  1
  Hf  Hf37  1  0.60541714  0.39823759  0.80690206  1
  Hf  Hf38  1  0.59734546  -0.00516063  -0.00253745  1
  Hf  Hf39  1  0.50138025  0.69938543  0.69865752  1
  Hf  Hf40  1  0.09904488  0.70728920  0.10434861  1
  Hf  Hf41  1  0.01173128  0.40135599  0.60516485  1
  Hf  Hf42  1  0.49172081  0.28723470  0.50089472  1
  Hf  Hf43  1  0.90482987  0.29760918  0.70152351  1
  Hf  Hf44  1  0.39729955  0.80816400  0.80709734  1
  Hf  Hf45  1  0.50957295  0.67873168  0.50092468  1
  Hf  Hf46  1  0.39792579  -0.00508263  0.80086524  1
  Hf  Hf47  1  0.90462962  0.10653301  0.30892336  1
  Hf  Hf48  1  0.59171957  0.81062540  0.59120195  1
  Hf  Hf49  1  0.30242528  0.89769957  0.50847592  1
  Zr  Zr50  1  0.90377408  0.09852493  0.50175362  1
  Zr  Zr51  1  0.89880100  0.49807231  0.70687142  1
  Zr  Zr52  1  0.49411231  0.29014386  0.69765447  1
  Zr  Zr53  1  0.50364329  0.69350451  0.29871204  1
  Zr  Zr54  1  0.50133472  0.50468330  0.70089976  1
  Zr  Zr55  1  0.90125551  0.50060359  0.29336993  1
  Zr  Zr56  1  0.80056361  0.39347273  0.00669100  1
  Zr  Zr57  1  0.00220394  0.80098854  0.79662979  1
  Zr  Zr58  1  0.19439169  0.39567219  0.79911817  1
  Zr  Zr59  1  0.30190882  0.10992919  0.31124709  1
  Zr  Zr60  1  0.81021726  0.21084567  0.19186598  1
  Zr  Zr61  1  0.50168943  0.89360696  0.10325549  1
  Zr  Zr62  1  0.20388783  0.80549795  -0.01202383  1
  Zr  Zr63  1  0.90312286  0.89223310  0.09226810  1
  Zr  Zr64  1  0.10961724  0.30371935  0.08734353  1
  Zr  Zr65  1  0.90098924  0.50338540  0.90812752  1
  Zr  Zr66  1  0.29372759  0.90178587  0.09952962  1
  Zr  Zr67  1  0.79205401  0.39307089  0.81189843  1
  Zr  Zr68  1  0.00313545  0.60328479  0.60631228  1
  Zr  Zr69  1  0.10113233  0.88106346  0.27680958  1
  Zr  Zr70  1  0.40003442  0.01378017  0.19253211  1
  Zr  Zr71  1  0.80500904  0.19547318  0.80519001  1
  Zr  Zr72  1  0.39978121  -0.00610423  -0.01131331  1
  Zr  Zr73  1  0.69974900  0.09869283  0.90687154  1
  Zr  Zr74  1  0.60354308  0.19594781  0.80523273  1
  Zr  Zr75  1  0.79431450  0.40014335  0.19228021  1
  Zr  Zr76  1  0.90366800  0.69938175  0.09491494  1
  Zr  Zr77  1  0.20052309  0.20292958  0.19942053  1
  Zr  Zr78  1  0.09348326  0.89672221  0.09123427  1
  Zr  Zr79  1  -0.00384614  0.39683752  0.18966760  1
  Zr  Zr80  1  0.69166865  0.70234534  0.30024736  1
  Zr  Zr81  1  0.19052834  0.58774547  0.40221216  1
  Zr  Zr82  1  0.80103755  0.60782868  0.80220357  1
  Zr  Zr83  1  0.59290868  0.20380347  0.20020436  1
  Zr  Zr84  1  0.28834253  0.10429064  0.89752396  1
  Zr  Zr85  1  0.69778746  0.29142539  0.69616726  1
  Zr  Zr86  1  0.19770997  0.39621606  0.60091056  1
  Zr  Zr87  1  0.29194257  0.69160421  0.10232090  1
  Zr  Zr88  1  0.19209449  0.80100604  0.40827167  1
  Zr  Zr89  1  0.91714708  0.09108530  0.70054673  1
  Zr  Zr90  1  0.30269474  0.11416717  0.50405840  1
  Zr  Zr91  1  0.49363461  0.10942254  0.31143255  1
  Zr  Zr92  1  0.59276083  -0.00418479  0.79916890  1
  Zr  Zr93  1  0.89559957  0.89192939  0.89639661  1
  Zr  Zr94  1  0.50260688  0.90218551  0.29789614  1
  Zr  Zr95  1  0.30081535  0.49126200  0.49375310  1
  Zr  Zr96  1  0.59323561  0.39603359  0.39318718  1
  Zr  Zr97  1  0.69718510  0.70141246  0.50076143  1
  Zr  Zr98  1  0.00466849  0.20138569  0.19647313  1
  Zr  Zr99  1  0.70705080  0.89401143  0.70435609  1
  Ta  Ta100  1  0.60462283  0.00196880  0.41183288  1
  Ta  Ta101  1  0.49685475  0.49391106  0.29034199  1
  Ta  Ta102  1  0.90615860  0.29440526  0.50050845  1
  Ta  Ta103  1  0.90212857  0.70010987  0.90725595  1
  Ta  Ta104  1  0.70295057  0.10566350  0.09299752  1
  Ta  Ta105  1  0.79334990  0.60234908  0.19293354  1
  Ta  Ta106  1  0.69962549  0.29855743  0.29847398  1
  Ta  Ta107  1  0.00740650  0.59702998  0.80658508  1
  Ta  Ta108  1  0.69074537  0.70449261  0.70589529  1
  Ta  Ta109  1  0.29416713  0.29713651  0.90411637  1
  Ta  Ta110  1  0.00046056  0.20205457  -0.01334617  1
  Ta  Ta111  1  0.39445815  0.39324849  0.59857969  1
  Ta  Ta112  1  0.80457820  0.20742641  -0.00437219  1
  Ta  Ta113  1  0.80133006  0.19157726  0.59967076  1
  Ta  Ta114  1  0.10607700  0.10302499  0.07721174  1
  Ta  Ta115  1  0.60007568  0.59732856  0.18902619  1
  Ta  Ta116  1  0.89807896  0.70236888  0.50184468  1
  Ta  Ta117  1  0.60334642  0.60418159  0.01008038  1
  Ta  Ta118  1  0.01303144  0.59683472  -0.00184581  1
  Ta  Ta119  1  0.29473679  0.10672686  0.69968860  1
  Ta  Ta120  1  0.00040930  0.80725549  0.59785748  1
  Ta  Ta121  1  0.10218312  0.90872318  0.89244530  1
  Ta  Ta122  1  0.30274890  0.70657972  0.69514960  1
  Ta  Ta123  1  0.90050494  0.10550585  0.08666220  1
  Ta  Ta124  1  0.29802247  0.28851563  0.69716529  1
  Ta  Ta125  1  0.90526249  0.29808414  0.31441267  1
  Ta  Ta126  1  0.40685525  0.78785728  0.19217646  1
  Ta  Ta127  1  0.29105684  0.10631045  0.08775472  1
  Ta  Ta128  1  0.70602052  0.89241439  0.90087132  1
  Ta  Ta129  1  0.60119346  0.00328087  0.59819035  1
  Ta  Ta130  1  0.01106675  0.20415738  0.60521008  1
  Ta  Ta131  1  0.01340298  0.40032117  0.80344066  1
  Ta  Ta132  1  0.80351296  0.00225051  0.80149295  1
  Ta  Ta133  1  0.89972394  0.90433395  0.69732811  1
  Ta  Ta134  1  0.19611285  0.81003538  0.60823392  1
  Ta  Ta135  1  0.59879002  0.81479840  0.40465785  1
  Ta  Ta136  1  0.40007485  0.58846897  0.39247204  1
  Ta  Ta137  1  0.49908001  0.49099898  0.10695346  1
  Ta  Ta138  1  0.19666182  -0.00038917  0.60894820  1
  Ta  Ta139  1  0.49569199  0.10400352  0.69458968  1
  Ta  Ta140  1  0.80066303  0.60523683  0.38903024  1
  Ta  Ta141  1  0.49787461  0.10353810  0.50329973  1
  Ta  Ta142  1  0.39309632  0.20952290  0.19143193  1
  Ta  Ta143  1  0.69884421  0.51316768  0.90842425  1
  Ta  Ta144  1  0.69975826  0.90118153  0.29887429  1
  Ta  Ta145  1  0.79626947  0.79666999  0.20075509  1
  Ta  Ta146  1  0.10766281  0.30229803  0.30673487  1
  Ta  Ta147  1  0.29719707  0.30580928  0.30755434  1
  Ta  Ta148  1  0.39548449  0.20408725  0.00620159  1
  Ta  Ta149  1  0.11017505  0.29406987  0.49636206  1
  Ti  Ti150  1  0.49690804  0.89477657  0.69726489  1
  Ti  Ti151  1  0.59683352  0.80230740  0.80832927  1
  Ti  Ti152  1  0.39476127  0.39339687  0.79493228  1
  Ti  Ti153  1  0.50191013  0.11037361  0.08991453  1
  Ti  Ti154  1  0.39872660  0.59333251  0.19797170  1
  Ti  Ti155  1  0.80054710  0.20131810  0.40636989  1
  Ti  Ti156  1  0.78927040  0.78922186  0.00214486  1
  Ti  Ti157  1  0.29367539  0.49246564  0.28943995  1
  Ti  Ti158  1  0.09059856  0.91304513  0.70163865  1
  Ti  Ti159  1  0.80179897  0.00388462  -0.00338506  1
  Ti  Ti160  1  0.40681924  -0.00309562  0.40889218  1
  Ti  Ti161  1  0.10456780  0.10289778  0.88910638  1
  Ti  Ti162  1  0.89877034  0.89933332  0.29252657  1
  Ti  Ti163  1  0.29497856  0.31044347  0.08919548  1
  Ti  Ti164  1  0.70137455  0.69963274  0.89749027  1
  Ti  Ti165  1  0.80051188  -0.00300595  0.40245739  1
  Ti  Ti166  1  0.39527308  0.19809656  0.80262518  1
  Ti  Ti167  1  0.11532788  0.49684238  0.10280803  1
  Ti  Ti168  1  0.50517214  0.69486271  0.89826722  1
  Ti  Ti169  1  0.30357635  0.49397650  0.69938061  1
  Ti  Ti170  1  0.60166990  0.19641023  0.40121076  1
  Ti  Ti171  1  0.01302396  0.20219428  0.80052656  1
  Ti  Ti172  1  0.91189754  0.30248432  0.89894974  1
  Ti  Ti173  1  0.10038466  0.70225921  0.90127343  1
  Ti  Ti174  1  0.40592509  0.79779884  -0.00375109  1
  Ti  Ti175  1  0.49664926  0.50014117  0.49466678  1
  Ti  Ti176  1  0.70560529  0.90563834  0.50037571  1
  Ti  Ti177  1  0.10896284  0.49287630  0.28666312  1
  Ti  Ti178  1  0.49727110  0.10869350  0.90449265  1
  Ti  Ti179  1  0.68947545  0.51364449  0.70837090  1
  Ti  Ti180  1  0.19999839  -0.00143935  0.79338011  1
  Ti  Ti181  1  0.49647534  0.30404546  0.10059168  1
  Ti  Ti182  1  0.78958701  0.01050413  0.60357049  1
  Ti  Ti183  1  -0.00200046  0.59582876  0.19460595  1
  Ti  Ti184  1  0.90125630  0.90768372  0.51388559  1
  Ti  Ti185  1  0.01035581  0.40414532  -0.00651329  1
  Ti  Ti186  1  0.39772335  0.59209574  0.60023444  1
  Ti  Ti187  1  0.89629649  0.71096040  0.70373365  1
  Ti  Ti188  1  0.89727153  0.50709800  0.09226848  1
  Ti  Ti189  1  0.39744527  0.39674433  0.39901115  1
  Ti  Ti190  1  0.70244656  0.89590265  0.10190407  1
  Ti  Ti191  1  0.09839429  0.70367453  0.50704826  1
  Ti  Ti192  1  0.39214315  0.39730050  0.19426455  1
  Ti  Ti193  1  0.69047071  0.29053871  0.09984797  1
  Ti  Ti194  1  0.61113904  0.18161843  0.59760536  1
  Ti  Ti195  1  0.19479776  0.58942640  0.00036915  1
  Ti  Ti196  1  0.68980728  0.50002049  0.29210161  1
  Ti  Ti197  1  0.20719677  0.81320852  0.79540665  1
  Ti  Ti198  1  0.80346030  0.80028679  0.60036072  1
  Ti  Ti199  1  0.49239633  0.30267420  0.29576899  1
  Mo  Mo200  1  -0.02238093  0.79217016  0.21005383  1
  Mo  Mo201  1  0.29297956  0.90232440  0.89537506  1
  Mo  Mo202  1  0.19288823  0.00461602  -0.00999681  1
  Mo  Mo203  1  0.60230575  0.60826375  0.81248546  1
  Mo  Mo204  1  0.10065304  0.29813058  0.89617999  1
  Mo  Mo205  1  0.19953859  0.20492561  -0.00924346  1
  Mo  Mo206  1  0.00495052  0.20658359  0.40557645  1
  Mo  Mo207  1  0.39877540  0.21308420  0.39865154  1
  Mo  Mo208  1  0.09842069  0.50271329  0.70776603  1
  Mo  Mo209  1  0.19971817  0.39773128  0.39460743  1
  Mo  Mo210  1  0.59539390  0.20249886  0.00562457  1
  Mo  Mo211  1  0.00388002  0.00055667  0.79856044  1
  Mo  Mo212  1  0.20201153  0.40033227  0.00028634  1
  Mo  Mo213  1  0.00596608  -0.00412649  0.60083930  1
  Mo  Mo214  1  0.09800540  0.11592518  0.31592189  1
  Mo  Mo215  1  0.20513623  0.39969900  0.20023534  1
  Mo  Mo216  1  0.90030555  0.10422706  0.89656499  1
  Mo  Mo217  1  0.50072135  0.91143608  0.50195074  1
  Mo  Mo218  1  0.19480708  0.20107519  0.79655411  1
  Mo  Mo219  1  0.79892984  0.79827717  0.80015365  1
  Mo  Mo220  1  0.50001877  0.69431490  0.10437067  1
  Mo  Mo221  1  0.89641871  0.69659156  0.29677148  1
  Mo  Mo222  1  0.59655265  0.39786589  0.19876087  1
  Mo  Mo223  1  0.30028454  0.49398366  0.10661541  1
  Mo  Mo224  1  0.00828777  0.79260151  -0.01437342  1
  Mo  Mo225  1  0.21578454  0.79546488  0.19585702  1
  Mo  Mo226  1  0.60567340  0.80099580  0.20043763  1
  Mo  Mo227  1  0.40082020  0.39468159  0.01334651  1
  Mo  Mo228  1  0.20014869  0.20568163  0.40279097  1
  Mo  Mo229  1  0.10215462  0.49762445  0.90953965  1
  Mo  Mo230  1  0.70102325  0.09797540  0.49788455  1
  Mo  Mo231  1  0.09959022  0.90285886  0.51400149  1
  Mo  Mo232  1  0.59369258  0.58751667  0.38246432  1
  Mo  Mo233  1  0.09921684  0.49739879  0.50149841  1
  Mo  Mo234  1  0.69838967  0.50831044  0.10108529  1
  Mo  Mo235  1  0.19776176  0.58841441  0.19730052  1
  Mo  Mo236  1  0.69235296  0.29618264  0.91416749  1
  Mo  Mo237  1  0.70004790  0.09206296  0.69603547  1
  Mo  Mo238  1  0.50670918  0.88760859  0.90109121  1
  Mo  Mo239  1  0.10651998  0.10065882  0.70436900  1
  Mo  Mo240  1  0.70084397  0.70279408  0.10292724  1
  Mo  Mo241  1  0.10234004  0.29078446  0.70109280  1
  Mo  Mo242  1  0.59987601  0.60051852  0.61468680  1
  Mo  Mo243  1  0.19908012  0.20014175  0.60445983  1
  Mo  Mo244  1  0.91147036  0.29923113  0.08217689  1
  Mo  Mo245  1  0.39618903  0.19713511  0.60317320  1
  Mo  Mo246  1  0.30040010  0.29986186  0.49756457  1
  Mo  Mo247  1  0.29374889  0.90155255  0.70136639  1
  Mo  Mo248  1  0.39817206  0.79952553  0.60649187  1
  Mo  Mo249  1  0.79509353  0.60575101  0.00216440  1
