# generated using pymatgen
data_HfZrTaTiMo
_symmetry_space_group_name_H-M   'P 1'
_cell_length_a   16.88244590
_cell_length_b   16.88869123
_cell_length_c   16.88721938
_cell_angle_alpha   90.04835194
_cell_angle_beta   90.05012141
_cell_angle_gamma   90.04830570
_symmetry_Int_Tables_number   1
_chemical_formula_structural   HfZrTaTiMo
_chemical_formula_sum   'Hf50 Zr50 Ta50 Ti50 Mo50'
_cell_volume   4814.91951837
_cell_formula_units_Z   50
loop_
 _symmetry_equiv_pos_site_id
 _symmetry_equiv_pos_as_xyz
  1  'x, y, z'
loop_
 _atom_site_type_symbol
 _atom_site_label
 _atom_site_symmetry_multiplicity
 _atom_site_fract_x
 _atom_site_fract_y
 _atom_site_fract_z
 _atom_site_occupancy
  Hf  Hf0  1  0.40313433  -0.00988416  0.79643069  1
  Hf  Hf1  1  0.69925815  0.10455119  0.70451261  1
  Hf  Hf2  1  0.20489495  0.19877493  0.19899328  1
  Hf  Hf3  1  0.59791222  0.40419244  0.00733254  1
  Hf  Hf4  1  0.30278764  0.09578457  0.10058038  1
  Hf  Hf5  1  0.50309652  0.69472669  0.10289369  1
  Hf  Hf6  1  0.29552130  0.30265390  0.70480695  1
  Hf  Hf7  1  0.70833142  0.10715421  0.10367701  1
  Hf  Hf8  1  0.29528600  0.70059778  0.69372539  1
  Hf  Hf9  1  0.70453218  0.30105400  0.49489570  1
  Hf  Hf10  1  0.40715108  0.79420428  0.79652705  1
  Hf  Hf11  1  0.69997007  0.30277727  0.90109047  1
  Hf  Hf12  1  0.50373157  0.50877531  0.49375868  1
  Hf  Hf13  1  0.28824207  0.70464771  0.28909423  1
  Hf  Hf14  1  0.59984985  0.78965266  0.80560820  1
  Hf  Hf15  1  0.40231779  0.40387845  0.59472431  1
  Hf  Hf16  1  0.30557218  0.09813903  0.89949214  1
  Hf  Hf17  1  0.30311757  0.31113916  0.29159390  1
  Hf  Hf18  1  0.69648666  0.69528838  0.10016056  1
  Hf  Hf19  1  0.60801967  0.60013719  0.38222136  1
  Hf  Hf20  1  0.29668666  0.88957476  0.90543638  1
  Hf  Hf21  1  0.39461545  -0.00727353  0.59567694  1
  Hf  Hf22  1  0.69961165  0.49968732  0.49366741  1
  Hf  Hf23  1  0.70198886  0.29858863  0.70194404  1
  Hf  Hf24  1  -0.00047618  0.40448925  0.01024467  1
  Hf  Hf25  1  0.88273160  0.50039833  0.11044140  1
  Hf  Hf26  1  0.78944866  0.77279256  0.39021402  1
  Hf  Hf27  1  0.40273813  0.59920279  0.79261020  1
  Hf  Hf28  1  0.00240582  0.20674223  0.80150401  1
  Hf  Hf29  1  0.41038183  -0.00608903  0.00699936  1
  Hf  Hf30  1  0.81207116  0.79287122  0.00888425  1
  Hf  Hf31  1  0.59788454  0.60097313  0.80650693  1
  Hf  Hf32  1  0.50395788  0.89517061  0.49654157  1
  Hf  Hf33  1  0.40041541  0.80376002  0.20095027  1
  Hf  Hf34  1  0.08216878  0.09761568  0.29123396  1
  Hf  Hf35  1  0.20848583  0.60317919  0.40561510  1
  Hf  Hf36  1  0.09429146  0.08774953  0.68745839  1
  Hf  Hf37  1  -0.00106139  0.40420132  0.60643121  1
  Hf  Hf38  1  0.80174391  0.60331454  0.60124521  1
  Hf  Hf39  1  0.40654429  0.20934699  0.01305467  1
  Hf  Hf40  1  0.10573373  0.49569601  0.90046968  1
  Hf  Hf41  1  0.29005499  0.88797793  0.09962087  1
  Hf  Hf42  1  0.89995091  0.10329556  0.49419517  1
  Hf  Hf43  1  0.20502809  0.20571589  0.00322814  1
  Hf  Hf44  1  0.19840340  0.19857157  0.80211743  1
  Hf  Hf45  1  0.90063179  0.50700194  0.49433495  1
  Hf  Hf46  1  0.40536255  0.20266914  0.60158882  1
  Hf  Hf47  1  -0.00579282  0.39670988  0.20428004  1
  Hf  Hf48  1  0.11873736  0.49858856  0.52368603  1
  Hf  Hf49  1  0.20077303  0.19057187  0.39417997  1
  Zr  Zr50  1  0.90204190  0.89333100  0.48959407  1
  Zr  Zr51  1  0.09404315  0.89983078  0.50348230  1
  Zr  Zr52  1  0.60873424  0.00299471  0.00024747  1
  Zr  Zr53  1  0.59919386  0.20284962  0.39425930  1
  Zr  Zr54  1  0.69763872  0.89258420  0.70345521  1
  Zr  Zr55  1  0.29295025  0.30893016  0.49662131  1
  Zr  Zr56  1  0.79928905  0.80085644  0.19648821  1
  Zr  Zr57  1  0.09947888  0.30190847  0.29916239  1
  Zr  Zr58  1  0.71063496  0.31096583  0.10939020  1
  Zr  Zr59  1  0.89649652  0.29274753  0.49984636  1
  Zr  Zr60  1  0.29820801  0.69606637  0.90287826  1
  Zr  Zr61  1  -0.01474219  0.79341856  0.17647640  1
  Zr  Zr62  1  0.79455163  -0.00168628  0.81453466  1
  Zr  Zr63  1  0.90611703  0.09859043  0.91099186  1
  Zr  Zr64  1  0.89941638  0.10239412  0.69423911  1
  Zr  Zr65  1  0.09129976  0.88323853  0.29625668  1
  Zr  Zr66  1  0.79117732  0.60436145  0.81084855  1
  Zr  Zr67  1  0.90006072  0.30969526  0.90615233  1
  Zr  Zr68  1  0.00951013  -0.01600670  0.80391019  1
  Zr  Zr69  1  0.69698149  0.89463432  0.48173808  1
  Zr  Zr70  1  0.20561167  -0.00406865  0.39686410  1
  Zr  Zr71  1  0.20075000  -0.00382071  0.20594402  1
  Zr  Zr72  1  0.91895559  0.69584246  0.30749211  1
  Zr  Zr73  1  0.79090485  0.60655448  0.21717001  1
  Zr  Zr74  1  0.40415553  -0.00331350  0.20387189  1
  Zr  Zr75  1  0.19836940  0.19421653  0.59806914  1
  Zr  Zr76  1  0.38613017  0.80136768  0.40254868  1
  Zr  Zr77  1  -0.00123107  0.60278641  0.01416959  1
  Zr  Zr78  1  0.51647582  0.89332117  0.30583253  1
  Zr  Zr79  1  0.59092807  0.20040990  0.19808800  1
  Zr  Zr80  1  0.20859244  0.58930364  0.01417496  1
  Zr  Zr81  1  0.02503806  0.59487871  0.40299061  1
  Zr  Zr82  1  0.89939862  0.90418692  0.30352816  1
  Zr  Zr83  1  0.79774535  -0.00078628  0.59194741  1
  Zr  Zr84  1  0.60068037  0.00555432  0.59496474  1
  Zr  Zr85  1  0.49432880  0.30580731  0.89800996  1
  Zr  Zr86  1  0.39770622  0.19644707  0.39492733  1
  Zr  Zr87  1  0.90734031  0.89344200  0.70001770  1
  Zr  Zr88  1  0.59773661  0.41242978  0.79665496  1
  Zr  Zr89  1  0.60907006  0.02214649  0.39354346  1
  Zr  Zr90  1  0.40965403  0.40602205  0.78398429  1
  Zr  Zr91  1  0.19733422  -0.00955298  0.79817049  1
  Zr  Zr92  1  0.59322610  0.20418101  0.59510510  1
  Zr  Zr93  1  0.09529230  0.10207004  0.91203584  1
  Zr  Zr94  1  0.79884990  0.40430091  0.60502767  1
  Zr  Zr95  1  0.10245311  0.70571521  0.90997043  1
  Zr  Zr96  1  0.30102413  0.49184249  0.89975383  1
  Zr  Zr97  1  0.79844700  0.79288742  0.59640780  1
  Zr  Zr98  1  0.50302737  0.10177415  0.89856699  1
  Zr  Zr99  1  0.27299258  0.49927118  0.68306576  1
  Ta  Ta100  1  0.18852393  0.80515328  0.79427195  1
  Ta  Ta101  1  0.89655109  0.30268507  0.70718816  1
  Ta  Ta102  1  0.89662277  0.50484573  0.90345697  1
  Ta  Ta103  1  0.59973933  0.20242281  0.00712289  1
  Ta  Ta104  1  0.09719689  0.89429038  0.09540157  1
  Ta  Ta105  1  0.39350071  0.41687443  0.39521426  1
  Ta  Ta106  1  0.10341871  0.30817430  0.90435278  1
  Ta  Ta107  1  0.90036682  0.50529299  0.70906229  1
  Ta  Ta108  1  0.60027013  -0.00418790  0.80559826  1
  Ta  Ta109  1  0.50085407  0.69873985  0.29474782  1
  Ta  Ta110  1  0.70071651  0.90263296  0.29550079  1
  Ta  Ta111  1  0.10184197  0.31089907  0.70141247  1
  Ta  Ta112  1  0.39467611  0.60128772  0.39294187  1
  Ta  Ta113  1  0.08902986  0.10005160  0.10063308  1
  Ta  Ta114  1  0.79927907  0.19948864  0.80980837  1
  Ta  Ta115  1  0.50444112  0.89477373  0.69620596  1
  Ta  Ta116  1  0.00059495  0.40772610  0.80019891  1
  Ta  Ta117  1  0.90829152  0.10560932  0.10349449  1
  Ta  Ta118  1  0.90210616  0.50141026  0.30518083  1
  Ta  Ta119  1  0.50161418  0.69762464  0.49428318  1
  Ta  Ta120  1  0.80218786  -0.00253158  0.00540372  1
  Ta  Ta121  1  0.11280685  0.70473648  0.10788034  1
  Ta  Ta122  1  0.80356770  0.20122205  0.00283341  1
  Ta  Ta123  1  0.80671809  0.39776719  0.38962525  1
  Ta  Ta124  1  0.60979265  0.59253241  -0.00287079  1
  Ta  Ta125  1  0.89795112  0.10297957  0.29536466  1
  Ta  Ta126  1  0.00485891  0.60366868  0.61020470  1
  Ta  Ta127  1  0.19670054  0.41288312  0.39637683  1
  Ta  Ta128  1  0.90638400  0.88865279  0.90801779  1
  Ta  Ta129  1  0.40559314  0.79571870  0.00320386  1
  Ta  Ta130  1  0.49963042  0.09611745  0.70397602  1
  Ta  Ta131  1  0.38951502  -0.00354244  0.39535999  1
  Ta  Ta132  1  0.08814767  0.09981240  0.49854712  1
  Ta  Ta133  1  0.80080700  0.00278870  0.19724611  1
  Ta  Ta134  1  0.90396280  0.69982764  0.70592360  1
  Ta  Ta135  1  0.50557677  0.89149105  0.90333735  1
  Ta  Ta136  1  0.48891350  0.50666438  0.91587081  1
  Ta  Ta137  1  0.49315635  0.50354594  0.10114571  1
  Ta  Ta138  1  0.59191614  0.39960542  0.60196548  1
  Ta  Ta139  1  0.70395088  0.30259813  0.29714838  1
  Ta  Ta140  1  0.49517116  0.31508248  0.29493759  1
  Ta  Ta141  1  0.39264086  0.59668350  0.19889736  1
  Ta  Ta142  1  0.19237768  -0.00485394  0.00044922  1
  Ta  Ta143  1  0.69529635  0.69665176  0.69796630  1
  Ta  Ta144  1  0.91011889  0.69576336  0.49980858  1
  Ta  Ta145  1  0.09728682  0.29593803  0.10185747  1
  Ta  Ta146  1  0.60536905  0.00551395  0.19752366  1
  Ta  Ta147  1  0.09748390  0.29996276  0.49832425  1
  Ta  Ta148  1  0.00148699  0.60077353  0.80089233  1
  Ta  Ta149  1  0.30294773  0.09568763  0.69913387  1
  Ti  Ti150  1  0.28913793  0.50060790  0.28629336  1
  Ti  Ti151  1  0.51368121  0.89286066  0.10007796  1
  Ti  Ti152  1  0.18965306  0.60051106  0.79263080  1
  Ti  Ti153  1  0.49228554  0.10133178  0.29513130  1
  Ti  Ti154  1  0.81525509  0.21149621  0.20305244  1
  Ti  Ti155  1  0.50517249  0.51808804  0.68084960  1
  Ti  Ti156  1  0.50220566  0.69680072  0.67917962  1
  Ti  Ti157  1  0.79259894  0.41224387  0.00178572  1
  Ti  Ti158  1  0.59760782  0.40180023  0.39084170  1
  Ti  Ti159  1  -0.00128425  -0.01232263  0.00593970  1
  Ti  Ti160  1  0.69820989  0.89829908  0.10314236  1
  Ti  Ti161  1  0.40414665  0.20183019  0.79333177  1
  Ti  Ti162  1  -0.00237233  0.00204354  0.39827939  1
  Ti  Ti163  1  0.29826027  0.09576174  0.50206600  1
  Ti  Ti164  1  0.00006622  0.20680971  0.60241730  1
  Ti  Ti165  1  0.00727432  0.79762944  0.80221413  1
  Ti  Ti166  1  0.60042605  0.79355086  0.59585179  1
  Ti  Ti167  1  0.39323468  0.39738222  0.01949032  1
  Ti  Ti168  1  0.69138569  0.69030018  0.49994256  1
  Ti  Ti169  1  0.39571065  0.79955370  0.59254640  1
  Ti  Ti170  1  0.70673507  0.48682385  0.29429095  1
  Ti  Ti171  1  0.19551786  0.79558672  0.40424820  1
  Ti  Ti172  1  0.29708402  0.89334881  0.69483418  1
  Ti  Ti173  1  0.59492883  0.40498373  0.19700566  1
  Ti  Ti174  1  0.00449127  0.40250755  0.39925946  1
  Ti  Ti175  1  0.20782413  0.39426417  0.01544932  1
  Ti  Ti176  1  0.79834061  0.79152794  0.80791602  1
  Ti  Ti177  1  0.00549860  0.79378409  0.60108892  1
  Ti  Ti178  1  0.72109297  0.11749649  0.49426278  1
  Ti  Ti179  1  0.40326703  0.20631001  0.19351752  1
  Ti  Ti180  1  -0.00664311  0.20661853  0.39148091  1
  Ti  Ti181  1  0.20176802  -0.00834833  0.59653165  1
  Ti  Ti182  1  0.79854240  0.40960092  0.80310133  1
  Ti  Ti183  1  0.49274796  0.50000964  0.29221099  1
  Ti  Ti184  1  0.69533957  0.50707443  0.69497050  1
  Ti  Ti185  1  0.60296367  0.79396585  -0.00324802  1
  Ti  Ti186  1  0.10054737  0.70186893  0.69794285  1
  Ti  Ti187  1  0.90388078  0.69811645  0.90416592  1
  Ti  Ti188  1  0.60027898  0.58874395  0.19799619  1
  Ti  Ti189  1  0.11283766  0.49440415  0.11823689  1
  Ti  Ti190  1  0.01067546  0.59699526  0.20296592  1
  Ti  Ti191  1  0.59799734  0.19896225  0.80322780  1
  Ti  Ti192  1  0.49283399  0.09627880  0.49635576  1
  Ti  Ti193  1  0.49640682  0.69268202  0.91372450  1
  Ti  Ti194  1  0.20137479  0.79870425  0.59234169  1
  Ti  Ti195  1  0.38569461  0.60366496  0.58182578  1
  Ti  Ti196  1  0.70235489  0.89081461  0.90677739  1
  Ti  Ti197  1  0.49821050  0.30969989  0.48743825  1
  Ti  Ti198  1  0.29811543  0.69886471  0.10137445  1
  Ti  Ti199  1  0.29953553  0.30816098  0.89750124  1
  Mo  Mo200  1  0.10209740  0.49864326  0.29522181  1
  Mo  Mo201  1  0.09486697  0.50474332  0.70649813  1
  Mo  Mo202  1  0.49740702  0.30917974  0.10792692  1
  Mo  Mo203  1  0.19995274  0.79810766  0.00314099  1
  Mo  Mo204  1  0.79821216  0.01387461  0.38691321  1
  Mo  Mo205  1  0.59941506  0.78746611  0.39862178  1
  Mo  Mo206  1  -0.00490278  0.20248721  0.19488518  1
  Mo  Mo207  1  0.19912307  0.40014997  0.19817908  1
  Mo  Mo208  1  0.60055256  0.80646605  0.19583610  1
  Mo  Mo209  1  0.50378879  0.29077540  0.69758900  1
  Mo  Mo210  1  0.70291525  0.49956669  0.90740426  1
  Mo  Mo211  1  0.40310769  0.60249443  0.00864003  1
  Mo  Mo212  1  0.89852007  0.91640713  0.09635291  1
  Mo  Mo213  1  0.50551403  0.10291545  0.10449148  1
  Mo  Mo214  1  0.30263384  0.50529025  0.49455400  1
  Mo  Mo215  1  0.70155634  0.11051122  0.90528631  1
  Mo  Mo216  1  0.69322563  0.50237320  0.10591432  1
  Mo  Mo217  1  0.00021679  0.21221869  0.00615534  1
  Mo  Mo218  1  0.39962128  0.40935275  0.20070251  1
  Mo  Mo219  1  0.01003061  0.78702969  0.40904980  1
  Mo  Mo220  1  0.29468641  0.89643303  0.50214696  1
  Mo  Mo221  1  0.29241181  0.89724964  0.30186961  1
  Mo  Mo222  1  0.19695603  0.38637230  0.59767872  1
  Mo  Mo223  1  0.30329055  0.49489827  0.10856324  1
  Mo  Mo224  1  0.19326714  0.39670922  0.80303813  1
  Mo  Mo225  1  0.90102701  0.30157941  0.30142944  1
  Mo  Mo226  1  0.30074718  0.70315387  0.49911421  1
  Mo  Mo227  1  0.31179498  0.10173406  0.29600131  1
  Mo  Mo228  1  0.10315287  0.88943790  0.69085690  1
  Mo  Mo229  1  0.69988264  0.70315298  0.90648323  1
  Mo  Mo230  1  0.67867144  0.70914679  0.29037935  1
  Mo  Mo231  1  0.10611635  0.69723148  0.29152750  1
  Mo  Mo232  1  -0.00609396  -0.00000968  0.19222520  1
  Mo  Mo233  1  0.10181984  0.70344327  0.50820065  1
  Mo  Mo234  1  0.09778324  0.89216898  0.91059119  1
  Mo  Mo235  1  0.79438716  0.59439166  0.40012043  1
  Mo  Mo236  1  0.80123334  0.20389525  0.38254921  1
  Mo  Mo237  1  0.19799461  0.59755516  0.20350308  1
  Mo  Mo238  1  0.60238604  0.60426558  0.59629863  1
  Mo  Mo239  1  0.80196711  0.40135234  0.20782171  1
  Mo  Mo240  1  0.89726503  0.68018400  0.10166118  1
  Mo  Mo241  1  0.90051860  0.29874680  0.10042082  1
  Mo  Mo242  1  0.19631816  0.79791973  0.19804912  1
  Mo  Mo243  1  0.80426239  0.20163011  0.61456369  1
  Mo  Mo244  1  -0.00089430  0.79869405  -0.00030026  1
  Mo  Mo245  1  0.79841166  0.60036072  -0.00114949  1
  Mo  Mo246  1  0.19555529  0.62139150  0.59894775  1
  Mo  Mo247  1  0.29885217  0.30496827  0.10476435  1
  Mo  Mo248  1  0.71411281  0.10510245  0.29143360  1
  Mo  Mo249  1  0.00061045  -0.00110312  0.59160961  1
