# generated using pymatgen
data_HfZrTaTiMo
_symmetry_space_group_name_H-M   'P 1'
_cell_length_a   16.88791634
_cell_length_b   16.88939405
_cell_length_c   16.89356056
_cell_angle_alpha   89.99533093
_cell_angle_beta   90.05319818
_cell_angle_gamma   89.97201359
_symmetry_Int_Tables_number   1
_chemical_formula_structural   HfZrTaTiMo
_chemical_formula_sum   'Hf50 Zr50 Ta50 Ti50 Mo50'
_cell_volume   4818.49142025
_cell_formula_units_Z   50
loop_
 _symmetry_equiv_pos_site_id
 _symmetry_equiv_pos_as_xyz
  1  'x, y, z'
loop_
 _atom_site_type_symbol
 _atom_site_label
 _atom_site_symmetry_multiplicity
 _atom_site_fract_x
 _atom_site_fract_y
 _atom_site_fract_z
 _atom_site_occupancy
  Hf  Hf0  1  0.20172443  0.60109947  0.20161903  1
  Hf  Hf1  1  -0.01296207  0.20135328  0.19775144  1
  Hf  Hf2  1  0.30969718  0.10397026  0.09751930  1
  Hf  Hf3  1  0.71880234  0.88277359  0.49777973  1
  Hf  Hf4  1  0.50321787  0.30215837  0.10449218  1
  Hf  Hf5  1  0.79966147  0.61039099  0.20266884  1
  Hf  Hf6  1  0.10112029  0.50710780  0.69638801  1
  Hf  Hf7  1  0.19362470  0.60583528  0.39897923  1
  Hf  Hf8  1  -0.00655686  -0.00710603  0.19305851  1
  Hf  Hf9  1  -0.00322604  0.39717249  0.20223886  1
  Hf  Hf10  1  0.40538341  0.79674701  0.59724911  1
  Hf  Hf11  1  0.20725084  0.17929915  0.62509463  1
  Hf  Hf12  1  0.69977650  0.09460597  0.29964619  1
  Hf  Hf13  1  0.39903465  0.60874555  0.80169094  1
  Hf  Hf14  1  0.19891940  0.79744998  0.78952913  1
  Hf  Hf15  1  0.88389314  0.30899978  0.29601992  1
  Hf  Hf16  1  0.39494133  0.19912168  0.38893055  1
  Hf  Hf17  1  0.79693869  0.80252106  0.78926323  1
  Hf  Hf18  1  0.40027819  0.59759504  0.20098502  1
  Hf  Hf19  1  0.09198715  0.70496842  0.10122814  1
  Hf  Hf20  1  0.79546689  0.39943631  0.60999912  1
  Hf  Hf21  1  0.49981851  0.10084627  0.49502697  1
  Hf  Hf22  1  0.10069258  0.10984858  0.09499453  1
  Hf  Hf23  1  0.90656737  0.50552022  0.50445542  1
  Hf  Hf24  1  0.89663726  0.50144651  0.30262189  1
  Hf  Hf25  1  0.59845879  -0.01543103  0.40354442  1
  Hf  Hf26  1  0.20635809  0.00446447  0.39588966  1
  Hf  Hf27  1  0.09600678  0.50616695  0.50613180  1
  Hf  Hf28  1  0.79187271  0.20133949  0.40337173  1
  Hf  Hf29  1  0.49697307  0.50552122  0.89474680  1
  Hf  Hf30  1  0.60137091  0.40280802  -0.00398790  1
  Hf  Hf31  1  0.68268468  0.51070153  0.50223845  1
  Hf  Hf32  1  0.90032206  0.30120563  0.50654800  1
  Hf  Hf33  1  0.20676251  0.59885467  0.00660621  1
  Hf  Hf34  1  0.20066298  0.01064720  0.77869743  1
  Hf  Hf35  1  0.30446222  0.89840894  0.49099171  1
  Hf  Hf36  1  0.59863409  0.80697649  -0.00283216  1
  Hf  Hf37  1  0.90162900  0.49486791  0.90323400  1
  Hf  Hf38  1  0.70196479  0.09994905  0.09037217  1
  Hf  Hf39  1  -0.00024461  0.60840204  0.79558888  1
  Hf  Hf40  1  0.50207781  0.09529010  0.29815085  1
  Hf  Hf41  1  0.09947027  0.70834278  0.90278445  1
  Hf  Hf42  1  0.90083062  0.91018810  0.88873866  1
  Hf  Hf43  1  0.89226661  0.49698660  0.09589106  1
  Hf  Hf44  1  0.49999468  0.89517862  0.70528068  1
  Hf  Hf45  1  0.09319401  0.49555373  0.90095320  1
  Hf  Hf46  1  0.70197938  0.49110978  0.29155584  1
  Hf  Hf47  1  0.50184471  0.09926262  0.70224421  1
  Hf  Hf48  1  0.39502092  0.40437718  0.00342607  1
  Hf  Hf49  1  0.29335568  0.29216426  0.49548969  1
  Zr  Zr50  1  -0.01462669  0.19612274  0.40003623  1
  Zr  Zr51  1  0.80465572  0.60255669  0.60538393  1
  Zr  Zr52  1  0.90539441  0.71921068  0.90390989  1
  Zr  Zr53  1  0.21348051  0.19719312  0.21069212  1
  Zr  Zr54  1  0.60632644  -0.01538026  0.19086141  1
  Zr  Zr55  1  0.10060410  0.10627386  0.89049561  1
  Zr  Zr56  1  0.20945794  0.40019274  0.00543480  1
  Zr  Zr57  1  0.78528536  0.39690035  0.41361524  1
  Zr  Zr58  1  0.30701486  0.10173462  0.89812784  1
  Zr  Zr59  1  0.09234499  0.89668008  0.31275254  1
  Zr  Zr60  1  0.59309040  0.79138589  0.40715960  1
  Zr  Zr61  1  0.09470155  0.30324198  0.90101336  1
  Zr  Zr62  1  -0.00439590  0.00363508  0.00135776  1
  Zr  Zr63  1  0.08863840  0.50054914  0.10089567  1
  Zr  Zr64  1  0.10107076  0.10014584  0.49667714  1
  Zr  Zr65  1  0.09933018  0.30005394  0.10040913  1
  Zr  Zr66  1  0.09919977  0.29058673  0.70951997  1
  Zr  Zr67  1  0.80446365  -0.00841539  0.59727803  1
  Zr  Zr68  1  0.09468481  0.10069484  0.30240031  1
  Zr  Zr69  1  0.30046454  0.89894980  0.89700603  1
  Zr  Zr70  1  0.70115598  0.09428832  0.70748512  1
  Zr  Zr71  1  0.59750353  0.60589060  0.38383394  1
  Zr  Zr72  1  0.60320351  0.39749518  0.60525043  1
  Zr  Zr73  1  0.40187542  0.20064682  0.60377672  1
  Zr  Zr74  1  0.40583699  0.40452012  0.60109115  1
  Zr  Zr75  1  0.59737628  -0.01591833  0.59733468  1
  Zr  Zr76  1  0.71004887  0.30411771  0.09829546  1
  Zr  Zr77  1  0.40838116  0.78296070  0.40233007  1
  Zr  Zr78  1  0.10190872  0.29206027  0.50193716  1
  Zr  Zr79  1  0.51192101  0.47960805  0.29573657  1
  Zr  Zr80  1  0.20137884  -0.00669539  0.00637218  1
  Zr  Zr81  1  0.50730583  0.69907894  0.71055200  1
  Zr  Zr82  1  0.09178020  0.89699479  0.89416361  1
  Zr  Zr83  1  0.88922238  0.30409717  0.89976553  1
  Zr  Zr84  1  0.49504132  0.89275690  0.29724792  1
  Zr  Zr85  1  0.69549612  0.10240879  0.50026349  1
  Zr  Zr86  1  0.30019107  0.50692131  0.50546219  1
  Zr  Zr87  1  0.80196851  -0.01124507  0.19609161  1
  Zr  Zr88  1  0.70385900  0.71362688  0.09731376  1
  Zr  Zr89  1  0.89537349  0.08671020  0.71264435  1
  Zr  Zr90  1  0.20370594  0.39597391  0.60775382  1
  Zr  Zr91  1  0.49910960  0.09907191  0.09438609  1
  Zr  Zr92  1  0.50705443  0.66113464  0.52612474  1
  Zr  Zr93  1  0.59871802  0.20235120  0.80186934  1
  Zr  Zr94  1  0.30271086  0.50458558  0.89483143  1
  Zr  Zr95  1  0.19172926  0.80604384  0.59960716  1
  Zr  Zr96  1  0.60626917  0.40667236  0.79335461  1
  Zr  Zr97  1  0.20224853  -0.01032018  0.19524272  1
  Zr  Zr98  1  0.60000540  0.60340178  -0.00455713  1
  Zr  Zr99  1  0.40399589  0.59593360  0.39338740  1
  Ta  Ta100  1  0.00354649  0.40152825  0.39997861  1
  Ta  Ta101  1  0.00097916  -0.00376866  0.58980234  1
  Ta  Ta102  1  0.09188452  0.70535670  0.30156184  1
  Ta  Ta103  1  0.39421418  -0.00646134  0.19982778  1
  Ta  Ta104  1  0.29312322  0.69404065  0.50758725  1
  Ta  Ta105  1  0.70668438  0.29852054  0.90097147  1
  Ta  Ta106  1  0.39446722  -0.00071323  0.59810018  1
  Ta  Ta107  1  -0.01255588  0.19526625  0.79955080  1
  Ta  Ta108  1  0.30024370  0.70262100  0.90612073  1
  Ta  Ta109  1  0.70910773  0.09738099  0.90076782  1
  Ta  Ta110  1  0.20864899  0.39802938  0.80224612  1
  Ta  Ta111  1  0.40183428  0.39663413  0.39837568  1
  Ta  Ta112  1  0.80148930  0.61116429  0.39840734  1
  Ta  Ta113  1  0.60678701  0.79712776  0.60190085  1
  Ta  Ta114  1  0.90113778  0.89511914  0.31404933  1
  Ta  Ta115  1  0.70245057  0.70437839  0.89610301  1
  Ta  Ta116  1  0.10405861  0.30162276  0.30532614  1
  Ta  Ta117  1  0.40515317  -0.00071955  0.79899797  1
  Ta  Ta118  1  -0.00703704  0.61173479  0.39945219  1
  Ta  Ta119  1  0.09555460  0.50281233  0.30304907  1
  Ta  Ta120  1  0.60273717  -0.00833643  0.80748675  1
  Ta  Ta121  1  -0.00988134  0.19004151  0.60839655  1
  Ta  Ta122  1  0.91222053  0.71007876  0.69124016  1
  Ta  Ta123  1  -0.00880433  0.80324290  0.20223976  1
  Ta  Ta124  1  0.50168208  0.09659441  0.90276704  1
  Ta  Ta125  1  0.30569758  0.70103726  0.09779093  1
  Ta  Ta126  1  0.59962729  0.60409353  0.19352901  1
  Ta  Ta127  1  0.19741031  0.40205317  0.39761353  1
  Ta  Ta128  1  0.21337983  0.21050012  -0.00827837  1
  Ta  Ta129  1  0.19998189  0.80160535  0.19909555  1
  Ta  Ta130  1  0.30255924  0.89366481  0.30265631  1
  Ta  Ta131  1  0.29611792  0.49435576  0.30130430  1
  Ta  Ta132  1  0.70849014  0.90294183  0.90330204  1
  Ta  Ta133  1  0.88755682  0.10587028  0.09155776  1
  Ta  Ta134  1  0.40299711  0.79765696  -0.00172754  1
  Ta  Ta135  1  0.19940058  -0.00306240  0.59898217  1
  Ta  Ta136  1  0.20325529  0.80543330  0.01270209  1
  Ta  Ta137  1  0.70543192  0.69809944  0.50581350  1
  Ta  Ta138  1  0.80325540  0.60412691  0.79861850  1
  Ta  Ta139  1  0.59958773  0.20238077  -0.00725795  1
  Ta  Ta140  1  0.50604964  0.30125814  0.49111050  1
  Ta  Ta141  1  0.49302289  0.30388690  0.89477858  1
  Ta  Ta142  1  0.60085209  0.20444044  0.20281879  1
  Ta  Ta143  1  0.79837817  0.60552268  -0.00573681  1
  Ta  Ta144  1  0.49759696  0.70286764  0.09910387  1
  Ta  Ta145  1  -0.01343909  0.20058144  -0.00460518  1
  Ta  Ta146  1  0.89925448  0.70659055  0.09616935  1
  Ta  Ta147  1  0.39509703  0.39854498  0.20083132  1
  Ta  Ta148  1  0.90616106  0.89520782  0.69489685  1
  Ta  Ta149  1  0.80358890  0.20111453  0.60424580  1
  Ti  Ti150  1  -0.00633935  0.39619119  0.79017039  1
  Ti  Ti151  1  0.88866627  0.30652715  0.09035442  1
  Ti  Ti152  1  0.30132553  0.09982965  0.49563745  1
  Ti  Ti153  1  0.81100712  -0.00082934  0.40706416  1
  Ti  Ti154  1  0.09132828  0.70192723  0.50812810  1
  Ti  Ti155  1  0.29637384  0.30744610  0.30223152  1
  Ti  Ti156  1  0.29642065  0.69425570  0.69336737  1
  Ti  Ti157  1  0.80431419  0.80452033  0.19995867  1
  Ti  Ti158  1  0.90433151  0.71031968  0.50635131  1
  Ti  Ti159  1  0.30361070  0.29854604  0.10639217  1
  Ti  Ti160  1  0.49833357  0.50410620  0.09874356  1
  Ti  Ti161  1  -0.00245287  0.39320226  0.60841706  1
  Ti  Ti162  1  0.39747603  0.19959560  0.80181373  1
  Ti  Ti163  1  0.79560840  0.19967510  0.20176970  1
  Ti  Ti164  1  -0.00765512  0.60838632  0.20756042  1
  Ti  Ti165  1  0.40229832  0.21070680  -0.00655678  1
  Ti  Ti166  1  0.60568097  0.80299219  0.80371587  1
  Ti  Ti167  1  0.70991706  0.50147989  0.89795033  1
  Ti  Ti168  1  0.71297046  0.28992693  0.71093869  1
  Ti  Ti169  1  0.60456171  0.21020710  0.60191884  1
  Ti  Ti170  1  0.20262414  0.40533634  0.20177259  1
  Ti  Ti171  1  0.81368961  0.78574466  0.39645904  1
  Ti  Ti172  1  0.89479235  0.09127824  0.30005655  1
  Ti  Ti173  1  -0.00535461  0.60499198  -0.00013648  1
  Ti  Ti174  1  0.69744190  0.71146096  0.29546227  1
  Ti  Ti175  1  0.50168401  0.51363140  0.69207566  1
  Ti  Ti176  1  0.19822963  0.60627913  0.79707817  1
  Ti  Ti177  1  0.68722773  0.31314424  0.28954397  1
  Ti  Ti178  1  0.61115286  0.60224669  0.80075078  1
  Ti  Ti179  1  0.29528780  0.70593749  0.29943260  1
  Ti  Ti180  1  0.39930788  0.79656771  0.80684213  1
  Ti  Ti181  1  0.30727933  0.90012931  0.69809448  1
  Ti  Ti182  1  0.89138072  0.89112836  0.08407244  1
  Ti  Ti183  1  0.90644687  0.50512320  0.69734519  1
  Ti  Ti184  1  0.30594773  0.29945708  0.71550016  1
  Ti  Ti185  1  0.70377914  0.49720135  0.10157085  1
  Ti  Ti186  1  0.40280952  -0.01230200  0.00289279  1
  Ti  Ti187  1  0.70641440  0.88929283  0.30277375  1
  Ti  Ti188  1  0.60248208  0.21367202  0.39251469  1
  Ti  Ti189  1  0.49348568  0.30398161  0.70840008  1
  Ti  Ti190  1  0.49782649  0.89241015  0.10270484  1
  Ti  Ti191  1  0.29855069  0.50668645  0.70172308  1
  Ti  Ti192  1  0.08649836  0.90255221  0.69719406  1
  Ti  Ti193  1  0.60146550  -0.00529155  -0.00357722  1
  Ti  Ti194  1  0.40406913  0.20406859  0.20839552  1
  Ti  Ti195  1  0.39482865  0.79876176  0.19622131  1
  Ti  Ti196  1  0.19338388  0.79677782  0.40358513  1
  Ti  Ti197  1  0.80135033  0.40673158  0.79172113  1
  Ti  Ti198  1  0.70194613  0.70127101  0.69669310  1
  Ti  Ti199  1  0.49930605  0.90068919  0.89761638  1
  Mo  Mo200  1  0.89756696  0.09780734  0.50471940  1
  Mo  Mo201  1  0.31331961  0.09379860  0.70264660  1
  Mo  Mo202  1  0.59752441  0.40258796  0.18727056  1
  Mo  Mo203  1  0.31028021  0.09026545  0.29774099  1
  Mo  Mo204  1  0.09413981  0.89124542  0.10453613  1
  Mo  Mo205  1  0.19561552  0.60963739  0.60556267  1
  Mo  Mo206  1  0.30657049  0.50280706  0.11144303  1
  Mo  Mo207  1  0.50025320  0.29636668  0.29659932  1
  Mo  Mo208  1  0.20763838  0.20380988  0.80361683  1
  Mo  Mo209  1  0.30742917  0.30000133  0.89075233  1
  Mo  Mo210  1  0.89919873  0.29903531  0.70344265  1
  Mo  Mo211  1  0.31009754  0.89076012  0.10361185  1
  Mo  Mo212  1  -0.00925761  0.39314345  0.00596759  1
  Mo  Mo213  1  0.00229855  0.00040718  0.79166749  1
  Mo  Mo214  1  0.90806492  0.89276290  0.49632660  1
  Mo  Mo215  1  0.69524733  0.29254037  0.51199063  1
  Mo  Mo216  1  0.59694956  0.39119768  0.40501165  1
  Mo  Mo217  1  0.38706058  0.59868681  0.61203677  1
  Mo  Mo218  1  0.79576956  0.40397133  0.19376170  1
  Mo  Mo219  1  0.69726324  0.89154674  0.70396746  1
  Mo  Mo220  1  0.09897039  0.70025031  0.69579552  1
  Mo  Mo221  1  0.10050809  0.90213051  0.50068940  1
  Mo  Mo222  1  0.00465520  0.80307133  0.78436079  1
  Mo  Mo223  1  0.00168062  0.80681758  0.59230340  1
  Mo  Mo224  1  0.79919668  0.19809155  0.80276041  1
  Mo  Mo225  1  0.08611206  0.09460542  0.69825585  1
  Mo  Mo226  1  0.79967392  0.00001740  -0.00376373  1
  Mo  Mo227  1  0.49329563  0.90267324  0.50531461  1
  Mo  Mo228  1  0.80040096  0.80303086  -0.00604780  1
  Mo  Mo229  1  0.70919326  0.89923258  0.08887180  1
  Mo  Mo230  1  0.40256250  0.60787939  0.00359848  1
  Mo  Mo231  1  -0.00024702  0.79620309  0.40425589  1
  Mo  Mo232  1  -0.01400816  -0.00316633  0.40698491  1
  Mo  Mo233  1  0.49993079  0.48907041  0.50298286  1
  Mo  Mo234  1  0.50168558  0.70639687  0.90055815  1
  Mo  Mo235  1  0.00138977  0.80684936  0.01333530  1
  Mo  Mo236  1  0.00122076  0.61007488  0.59762840  1
  Mo  Mo237  1  0.50534723  0.70416991  0.27488250  1
  Mo  Mo238  1  0.61556454  0.59574949  0.62150212  1
  Mo  Mo239  1  0.90070359  0.70498959  0.29668515  1
  Mo  Mo240  1  0.79426516  -0.00641656  0.80045131  1
  Mo  Mo241  1  0.79732908  0.19818691  -0.00456190  1
  Mo  Mo242  1  0.20731577  0.20271675  0.39342248  1
  Mo  Mo243  1  0.89159749  0.10284093  0.90045708  1
  Mo  Mo244  1  0.40245507  0.40438707  0.79222028  1
  Mo  Mo245  1  0.60201135  0.79813583  0.19644941  1
  Mo  Mo246  1  0.80281606  0.79565008  0.60042878  1
  Mo  Mo247  1  0.39773330  0.00218932  0.39816834  1
  Mo  Mo248  1  0.70843609  0.50621273  0.71093602  1
  Mo  Mo249  1  0.79282245  0.41081214  -0.00478622  1
