# generated using pymatgen
data_HfZrTaTiMo
_symmetry_space_group_name_H-M   'P 1'
_cell_length_a   16.88394468
_cell_length_b   16.87995992
_cell_length_c   16.89223620
_cell_angle_alpha   89.98307787
_cell_angle_beta   90.02279675
_cell_angle_gamma   90.00238595
_symmetry_Int_Tables_number   1
_chemical_formula_structural   HfZrTaTiMo
_chemical_formula_sum   'Hf50 Zr50 Ta50 Ti50 Mo50'
_cell_volume   4814.29195269
_cell_formula_units_Z   50
loop_
 _symmetry_equiv_pos_site_id
 _symmetry_equiv_pos_as_xyz
  1  'x, y, z'
loop_
 _atom_site_type_symbol
 _atom_site_label
 _atom_site_symmetry_multiplicity
 _atom_site_fract_x
 _atom_site_fract_y
 _atom_site_fract_z
 _atom_site_occupancy
  Hf  Hf0  1  0.19227291  0.60200512  0.19950905  1
  Hf  Hf1  1  0.40317238  0.19881931  -0.00283749  1
  Hf  Hf2  1  0.89724366  0.50484323  0.29941601  1
  Hf  Hf3  1  0.30794145  0.69988420  0.10467685  1
  Hf  Hf4  1  0.59700674  0.19242933  0.59692790  1
  Hf  Hf5  1  0.89618716  0.11062680  0.30424713  1
  Hf  Hf6  1  0.80271092  0.00076763  0.00469404  1
  Hf  Hf7  1  0.10270905  0.29072023  0.09763669  1
  Hf  Hf8  1  0.90103442  0.10395769  0.89625051  1
  Hf  Hf9  1  0.81519718  -0.00023685  0.19419848  1
  Hf  Hf10  1  0.70120027  0.11090037  0.30510301  1
  Hf  Hf11  1  0.09112998  0.48999944  0.89261000  1
  Hf  Hf12  1  0.69939891  0.90170129  0.89405851  1
  Hf  Hf13  1  0.08873632  0.70614206  0.30036446  1
  Hf  Hf14  1  0.19354000  0.79765096  0.80721517  1
  Hf  Hf15  1  0.41110202  0.60413471  0.40027023  1
  Hf  Hf16  1  0.40484423  0.40003759  0.59708699  1
  Hf  Hf17  1  0.00958399  0.19938499  0.41154492  1
  Hf  Hf18  1  0.59245944  0.60626521  0.40003835  1
  Hf  Hf19  1  0.50097040  0.70224675  0.89543543  1
  Hf  Hf20  1  0.50430440  0.90105630  0.89457070  1
  Hf  Hf21  1  0.60312571  0.60428557  0.20211421  1
  Hf  Hf22  1  0.19869640  0.80572791  0.40045419  1
  Hf  Hf23  1  0.69550826  0.10548761  0.11110317  1
  Hf  Hf24  1  0.69711312  0.30583538  0.69735464  1
  Hf  Hf25  1  0.08937299  0.69327515  0.50058697  1
  Hf  Hf26  1  0.49687810  0.50320355  0.11044415  1
  Hf  Hf27  1  0.89911980  0.29847026  0.30144440  1
  Hf  Hf28  1  0.70089409  0.30122219  0.88414686  1
  Hf  Hf29  1  0.20604907  0.19666297  0.79287026  1
  Hf  Hf30  1  0.08539561  0.50139864  0.30469041  1
  Hf  Hf31  1  0.40546286  -0.00200618  0.39777522  1
  Hf  Hf32  1  0.40025355  0.19561305  0.21149453  1
  Hf  Hf33  1  0.20462663  -0.00261415  0.80434360  1
  Hf  Hf34  1  0.10000691  0.90467273  0.69773023  1
  Hf  Hf35  1  -0.00962298  0.60806957  0.18428147  1
  Hf  Hf36  1  0.59063426  0.80736097  0.39952173  1
  Hf  Hf37  1  0.59361648  0.60554387  0.59822258  1
  Hf  Hf38  1  0.39959100  -0.00510360  -0.00038454  1
  Hf  Hf39  1  0.19932840  0.60452311  0.39965884  1
  Hf  Hf40  1  0.79119097  -0.00074115  0.41142946  1
  Hf  Hf41  1  -0.00307903  0.00020711  0.00923373  1
  Hf  Hf42  1  0.20028867  0.18913546  0.41117699  1
  Hf  Hf43  1  -0.00619167  0.59857443  0.79975839  1
  Hf  Hf44  1  0.19265520  0.60391531  -0.00811308  1
  Hf  Hf45  1  0.40161461  0.40725415  -0.01250476  1
  Hf  Hf46  1  0.49926887  0.88441949  0.11407842  1
  Hf  Hf47  1  0.90366575  0.29031789  0.69137849  1
  Hf  Hf48  1  0.39229074  0.40527240  0.79904618  1
  Hf  Hf49  1  0.81427705  0.40951906  0.80062237  1
  Zr  Zr50  1  0.19880845  0.79883073  0.59376335  1
  Zr  Zr51  1  0.70622250  0.70124442  0.89424594  1
  Zr  Zr52  1  0.78959485  -0.00065153  0.60400831  1
  Zr  Zr53  1  0.30277362  0.49695262  0.49593017  1
  Zr  Zr54  1  0.70798680  0.88675341  0.30547781  1
  Zr  Zr55  1  0.79962449  0.00116374  0.79053271  1
  Zr  Zr56  1  0.70319977  0.50094280  0.29969967  1
  Zr  Zr57  1  0.70744623  0.71114198  0.49998171  1
  Zr  Zr58  1  0.80383597  0.20844873  0.00139857  1
  Zr  Zr59  1  0.51056312  0.29983447  0.70087238  1
  Zr  Zr60  1  0.40052137  0.58833005  0.79483283  1
  Zr  Zr61  1  0.20204804  0.59594108  0.60494597  1
  Zr  Zr62  1  0.80898600  0.41126392  0.59891353  1
  Zr  Zr63  1  0.09758936  0.29329738  0.29280891  1
  Zr  Zr64  1  0.50813790  0.29993502  0.10714368  1
  Zr  Zr65  1  0.90686152  0.89552511  0.30472313  1
  Zr  Zr66  1  0.39073470  0.18845875  0.60092178  1
  Zr  Zr67  1  0.39655553  -0.00140077  0.20410788  1
  Zr  Zr68  1  0.39664170  0.19281843  0.79657848  1
  Zr  Zr69  1  0.89120168  0.11466738  0.51225619  1
  Zr  Zr70  1  0.60461561  0.79254126  0.00335076  1
  Zr  Zr71  1  0.70001241  0.29850518  0.30099929  1
  Zr  Zr72  1  0.69136609  0.49913818  0.50415081  1
  Zr  Zr73  1  0.30763109  0.90135131  0.68942151  1
  Zr  Zr74  1  0.30619134  0.50053633  0.30010498  1
  Zr  Zr75  1  0.30393604  0.50542975  0.10397128  1
  Zr  Zr76  1  0.19105917  0.39326957  0.40387781  1
  Zr  Zr77  1  0.50635491  0.10141981  0.10690553  1
  Zr  Zr78  1  0.09970025  0.10712127  0.90818189  1
  Zr  Zr79  1  0.51277362  0.30277873  0.88611857  1
  Zr  Zr80  1  0.29295953  0.09676789  0.91398187  1
  Zr  Zr81  1  0.29562553  0.29272579  0.10277741  1
  Zr  Zr82  1  0.09987543  0.30234951  0.70206794  1
  Zr  Zr83  1  0.20072404  0.40445074  -0.00275105  1
  Zr  Zr84  1  -0.00582391  0.80305447  0.60058343  1
  Zr  Zr85  1  -0.01394134  0.40015262  -0.00020877  1
  Zr  Zr86  1  0.90830478  0.89300201  0.89157733  1
  Zr  Zr87  1  0.80657619  0.39975090  0.40830113  1
  Zr  Zr88  1  0.81223901  0.79103808  0.18637745  1
  Zr  Zr89  1  0.58953190  -0.00360713  0.22673697  1
  Zr  Zr90  1  0.00807755  0.00561555  0.40510439  1
  Zr  Zr91  1  0.60772448  0.19899334  -0.00409777  1
  Zr  Zr92  1  0.30717063  0.70310283  0.69537571  1
  Zr  Zr93  1  0.69370503  0.89794309  0.10599813  1
  Zr  Zr94  1  0.30302715  0.70098021  0.89822353  1
  Zr  Zr95  1  0.19907040  -0.00102617  0.40233537  1
  Zr  Zr96  1  0.09582443  0.49162340  0.69919583  1
  Zr  Zr97  1  0.89571190  0.69832143  0.31252595  1
  Zr  Zr98  1  0.50659424  0.29924596  0.30466302  1
  Zr  Zr99  1  0.60890172  0.40704347  0.00066952  1
  Ta  Ta100  1  0.39651039  0.39699629  0.20879051  1
  Ta  Ta101  1  0.60070490  0.59717070  -0.00247447  1
  Ta  Ta102  1  0.60102857  0.60378447  0.79548031  1
  Ta  Ta103  1  0.31100422  0.70592204  0.49777470  1
  Ta  Ta104  1  0.00306400  0.00405260  0.79266766  1
  Ta  Ta105  1  0.50404587  0.49089545  0.30248330  1
  Ta  Ta106  1  0.51166312  0.49456196  0.69704550  1
  Ta  Ta107  1  0.00004088  0.80664650  0.40961745  1
  Ta  Ta108  1  0.30037159  0.29509652  0.50082683  1
  Ta  Ta109  1  -0.00555319  0.39979757  0.19190434  1
  Ta  Ta110  1  0.19643497  -0.00256608  0.19939526  1
  Ta  Ta111  1  0.19661463  0.40017743  0.20257812  1
  Ta  Ta112  1  0.70343641  0.50543862  0.89593033  1
  Ta  Ta113  1  0.10220276  0.10312891  0.69067562  1
  Ta  Ta114  1  0.49682490  0.09141063  0.50629218  1
  Ta  Ta115  1  0.59377601  0.19386426  0.40919140  1
  Ta  Ta116  1  0.80184673  0.40138322  -0.00048977  1
  Ta  Ta117  1  0.59891502  0.00087289  -0.00258721  1
  Ta  Ta118  1  0.10269186  0.89994175  0.09802514  1
  Ta  Ta119  1  0.69965534  0.50565333  0.69900568  1
  Ta  Ta120  1  -0.00276359  0.60357855  -0.00534172  1
  Ta  Ta121  1  0.39789648  -0.00242139  0.79806872  1
  Ta  Ta122  1  0.40652246  0.59443851  -0.00979328  1
  Ta  Ta123  1  -0.00591884  0.00744608  0.60370210  1
  Ta  Ta124  1  0.30597665  0.70482543  0.29621295  1
  Ta  Ta125  1  0.90261562  0.70430518  0.89308406  1
  Ta  Ta126  1  0.39586299  0.80276126  -0.00125534  1
  Ta  Ta127  1  0.50213063  0.08145536  0.69884642  1
  Ta  Ta128  1  0.19684409  0.80122809  0.19687071  1
  Ta  Ta129  1  0.60115928  0.80142104  0.78501551  1
  Ta  Ta130  1  0.00286519  0.00430243  0.19391485  1
  Ta  Ta131  1  0.09484051  0.29714440  0.89502993  1
  Ta  Ta132  1  0.80420166  0.59885016  0.79589926  1
  Ta  Ta133  1  0.80648839  0.60059905  -0.00378524  1
  Ta  Ta134  1  0.29275160  0.89907830  0.09780484  1
  Ta  Ta135  1  0.30057793  0.89316656  0.29245903  1
  Ta  Ta136  1  0.70850685  0.69991597  0.30149013  1
  Ta  Ta137  1  0.49480686  0.69600710  0.10225414  1
  Ta  Ta138  1  0.89364029  0.70277677  0.69877335  1
  Ta  Ta139  1  0.19781329  0.80386613  -0.00396571  1
  Ta  Ta140  1  0.79861333  0.19210774  0.78823403  1
  Ta  Ta141  1  0.81086188  0.79841245  0.00199838  1
  Ta  Ta142  1  0.59898401  -0.00090932  0.41353750  1
  Ta  Ta143  1  0.19924479  0.59590048  0.79955998  1
  Ta  Ta144  1  0.69711314  0.29546619  0.50221886  1
  Ta  Ta145  1  -0.01402169  0.59495838  0.60213216  1
  Ta  Ta146  1  0.29472001  0.09867582  0.30007984  1
  Ta  Ta147  1  0.70505149  0.69991096  0.69464954  1
  Ta  Ta148  1  -0.00558002  0.40311383  0.59206370  1
  Ta  Ta149  1  0.40709060  0.59495401  0.59766931  1
  Ti  Ti150  1  -0.00356742  0.39631832  0.41183968  1
  Ti  Ti151  1  0.90775677  0.29696593  0.88872594  1
  Ti  Ti152  1  0.40284912  0.80622196  0.39720637  1
  Ti  Ti153  1  0.49380256  0.71347085  0.50811564  1
  Ti  Ti154  1  -0.00058513  0.19248544  0.79113565  1
  Ti  Ti155  1  0.49280076  0.71350158  0.28270762  1
  Ti  Ti156  1  0.09084662  0.70119489  0.70404675  1
  Ti  Ti157  1  0.28492501  0.10045092  0.10183342  1
  Ti  Ti158  1  0.60949593  0.39958160  0.19685660  1
  Ti  Ti159  1  0.09072573  0.50245501  0.49855383  1
  Ti  Ti160  1  0.10918394  0.10259553  0.09930909  1
  Ti  Ti161  1  0.60073530  0.81206930  0.60443221  1
  Ti  Ti162  1  0.49503594  0.90342239  0.51690566  1
  Ti  Ti163  1  0.21163712  0.40519769  0.79979871  1
  Ti  Ti164  1  -0.00293322  0.80563040  0.18608599  1
  Ti  Ti165  1  0.89586846  0.70074346  0.50452494  1
  Ti  Ti166  1  0.89545361  0.89817323  0.50066736  1
  Ti  Ti167  1  0.40874847  0.39214674  0.40607903  1
  Ti  Ti168  1  0.20287893  0.40283031  0.59719144  1
  Ti  Ti169  1  0.69398863  0.09709415  0.89041899  1
  Ti  Ti170  1  0.70539201  0.69289495  0.10236907  1
  Ti  Ti171  1  -0.00802743  0.19488195  0.18870058  1
  Ti  Ti172  1  0.10328200  0.29329613  0.51812464  1
  Ti  Ti173  1  0.40151109  0.19455681  0.40529531  1
  Ti  Ti174  1  0.10392317  0.10411843  0.28631865  1
  Ti  Ti175  1  0.79504191  0.81078360  0.60305234  1
  Ti  Ti176  1  0.70849287  0.50618816  0.10036524  1
  Ti  Ti177  1  0.30932072  0.90071972  0.50297454  1
  Ti  Ti178  1  0.90377335  0.89722231  0.70246484  1
  Ti  Ti179  1  0.09722427  0.89845311  0.29205962  1
  Ti  Ti180  1  0.29531283  0.29583135  0.30520147  1
  Ti  Ti181  1  0.29010884  0.29623862  0.90415599  1
  Ti  Ti182  1  0.09951679  0.90908782  0.50957717  1
  Ti  Ti183  1  0.09880126  0.70779565  0.09224684  1
  Ti  Ti184  1  0.29278765  0.30168339  0.68982996  1
  Ti  Ti185  1  0.80288833  0.59845193  0.41461182  1
  Ti  Ti186  1  0.89143506  0.50418695  0.09887217  1
  Ti  Ti187  1  0.21141379  0.01777900  0.59350214  1
  Ti  Ti188  1  0.09512202  0.49724428  0.09998615  1
  Ti  Ti189  1  0.40195435  0.80892910  0.79787923  1
  Ti  Ti190  1  0.51196121  0.09540259  0.88749783  1
  Ti  Ti191  1  0.09680234  0.90044661  0.90341344  1
  Ti  Ti192  1  0.79761375  0.80075064  0.79112391  1
  Ti  Ti193  1  0.00320644  0.79532018  -0.00350072  1
  Ti  Ti194  1  0.89361446  0.28997237  0.50585910  1
  Ti  Ti195  1  -0.00825808  0.20079553  0.00727984  1
  Ti  Ti196  1  0.80269986  0.39526262  0.18672872  1
  Ti  Ti197  1  0.80429596  0.20949851  0.18720686  1
  Ti  Ti198  1  0.49698063  0.70796623  0.69480999  1
  Ti  Ti199  1  0.68842943  0.09576418  0.69998558  1
  Mo  Mo200  1  0.60512723  0.18266756  0.79464297  1
  Mo  Mo201  1  0.59793952  -0.00476531  0.79767456  1
  Mo  Mo202  1  0.00728227  0.20263392  0.60017669  1
  Mo  Mo203  1  0.50170217  0.89917158  0.69997683  1
  Mo  Mo204  1  -0.00564085  0.60315696  0.40867607  1
  Mo  Mo205  1  0.79384037  0.20317839  0.41170342  1
  Mo  Mo206  1  0.89585943  0.50576186  0.90144519  1
  Mo  Mo207  1  0.60454333  0.78551197  0.20559655  1
  Mo  Mo208  1  0.59034212  0.39510984  0.41197942  1
  Mo  Mo209  1  0.80204437  0.60619928  0.60429774  1
  Mo  Mo210  1  0.59828547  0.40006002  0.59642837  1
  Mo  Mo211  1  0.39242041  0.79822906  0.19731356  1
  Mo  Mo212  1  0.49462873  0.89021554  0.30504056  1
  Mo  Mo213  1  0.69178715  0.90085134  0.50678949  1
  Mo  Mo214  1  0.49851133  0.10289918  0.31558508  1
  Mo  Mo215  1  0.30373765  0.89700533  0.90316130  1
  Mo  Mo216  1  0.59720731  -0.00668079  0.60163100  1
  Mo  Mo217  1  0.78649513  0.19822604  0.60498928  1
  Mo  Mo218  1  0.09424327  0.70157513  0.89940831  1
  Mo  Mo219  1  0.29062554  0.50179402  0.89544947  1
  Mo  Mo220  1  0.90319488  0.10583190  0.10205222  1
  Mo  Mo221  1  0.49813224  0.29487918  0.49745664  1
  Mo  Mo222  1  0.51255904  0.50573389  0.89370229  1
  Mo  Mo223  1  0.19551160  -0.00677795  0.00822021  1
  Mo  Mo224  1  0.40027547  -0.00352319  0.59746296  1
  Mo  Mo225  1  0.70646655  0.30705156  0.10494259  1
  Mo  Mo226  1  0.90691602  0.10330013  0.70126415  1
  Mo  Mo227  1  0.40648042  0.79994588  0.59563804  1
  Mo  Mo228  1  0.90064530  0.30258446  0.10448842  1
  Mo  Mo229  1  0.91272075  0.89641150  0.09555026  1
  Mo  Mo230  1  0.60897663  0.41859810  0.79682242  1
  Mo  Mo231  1  0.10201299  0.09942974  0.51697818  1
  Mo  Mo232  1  0.30045200  0.49571875  0.69771100  1
  Mo  Mo233  1  0.40800200  0.59953314  0.20733569  1
  Mo  Mo234  1  0.60299374  0.20339405  0.21026986  1
  Mo  Mo235  1  0.30392115  0.09871025  0.49752455  1
  Mo  Mo236  1  0.19410703  0.20212646  -0.00073416  1
  Mo  Mo237  1  0.80600150  0.80269530  0.41433593  1
  Mo  Mo238  1  0.90491166  0.70059149  0.08495661  1
  Mo  Mo239  1  0.79737600  0.59935795  0.18840207  1
  Mo  Mo240  1  0.29999557  0.09296437  0.69889048  1
  Mo  Mo241  1  0.20258616  0.19243812  0.20346666  1
  Mo  Mo242  1  0.50174814  0.49224566  0.49836363  1
  Mo  Mo243  1  0.69733334  0.89288217  0.69861630  1
  Mo  Mo244  1  0.69136736  0.10103257  0.50305960  1
  Mo  Mo245  1  0.89976593  0.50392624  0.69681400  1
  Mo  Mo246  1  -0.00615770  0.39264807  0.79951571  1
  Mo  Mo247  1  0.20294657  0.19892218  0.59953717  1
  Mo  Mo248  1  0.00154953  0.79946934  0.79805593  1
  Mo  Mo249  1  0.90615337  0.50948458  0.49670777  1
