# generated using pymatgen
data_HfZrTaTiMo
_symmetry_space_group_name_H-M   'P 1'
_cell_length_a   16.88801406
_cell_length_b   16.89075221
_cell_length_c   16.88947778
_cell_angle_alpha   89.98229847
_cell_angle_beta   89.98064574
_cell_angle_gamma   90.00365196
_symmetry_Int_Tables_number   1
_chemical_formula_structural   HfZrTaTiMo
_chemical_formula_sum   'Hf50 Zr50 Ta50 Ti50 Mo50'
_cell_volume   4817.74431394
_cell_formula_units_Z   50
loop_
 _symmetry_equiv_pos_site_id
 _symmetry_equiv_pos_as_xyz
  1  'x, y, z'
loop_
 _atom_site_type_symbol
 _atom_site_label
 _atom_site_symmetry_multiplicity
 _atom_site_fract_x
 _atom_site_fract_y
 _atom_site_fract_z
 _atom_site_occupancy
  Hf  Hf0  1  0.60005216  0.00082662  0.80238091  1
  Hf  Hf1  1  0.60820446  0.59853360  0.61074405  1
  Hf  Hf2  1  0.49430739  0.10714826  0.09873904  1
  Hf  Hf3  1  0.39128559  0.00017238  0.39825996  1
  Hf  Hf4  1  -0.00111747  0.01115206  0.18677991  1
  Hf  Hf5  1  0.00229132  0.59161852  0.38832923  1
  Hf  Hf6  1  0.20278259  -0.00187725  0.39482079  1
  Hf  Hf7  1  0.29707225  0.90865520  0.51736775  1
  Hf  Hf8  1  0.69511356  0.69496532  0.09177112  1
  Hf  Hf9  1  0.49723270  0.51327117  0.29657620  1
  Hf  Hf10  1  0.28943301  0.89840860  0.90797142  1
  Hf  Hf11  1  0.38669630  0.60386394  0.42142867  1
  Hf  Hf12  1  0.49772783  0.69525649  0.70459991  1
  Hf  Hf13  1  0.49497682  0.50721290  0.10176890  1
  Hf  Hf14  1  0.49775148  0.09720385  0.50307506  1
  Hf  Hf15  1  0.29483216  0.30787483  0.50142060  1
  Hf  Hf16  1  0.80248879  0.20718495  0.19542909  1
  Hf  Hf17  1  0.50452651  0.50388002  0.91635751  1
  Hf  Hf18  1  0.49595153  0.89871337  0.90261363  1
  Hf  Hf19  1  0.70927248  0.10967399  0.69554450  1
  Hf  Hf20  1  0.49575432  0.10461470  0.29524992  1
  Hf  Hf21  1  0.79006806  0.38892571  -0.00374789  1
  Hf  Hf22  1  0.40261999  0.39944372  0.80975677  1
  Hf  Hf23  1  0.80224582  -0.00005862  0.39838587  1
  Hf  Hf24  1  0.49652189  0.69314245  0.09892543  1
  Hf  Hf25  1  0.89915619  0.10467643  0.70714069  1
  Hf  Hf26  1  0.89659592  0.10226032  0.50850571  1
  Hf  Hf27  1  0.49348610  0.89673506  0.69611761  1
  Hf  Hf28  1  0.10464289  0.30195670  0.49642247  1
  Hf  Hf29  1  0.90565649  0.50599838  0.70165266  1
  Hf  Hf30  1  0.59419809  0.20591180  0.80326577  1
  Hf  Hf31  1  0.18682759  0.20041419  0.18977343  1
  Hf  Hf32  1  0.10691838  0.48982977  0.50037460  1
  Hf  Hf33  1  0.30066845  0.69583766  0.70668618  1
  Hf  Hf34  1  0.19595321  0.19499062  0.80206117  1
  Hf  Hf35  1  0.29710413  0.30820532  0.69289328  1
  Hf  Hf36  1  0.49581119  0.30060088  0.09917001  1
  Hf  Hf37  1  0.39479972  -0.00653188  0.20233814  1
  Hf  Hf38  1  0.49802323  0.69402217  0.90420550  1
  Hf  Hf39  1  0.20272955  0.19127954  0.40317109  1
  Hf  Hf40  1  -0.00660367  0.80710658  0.18995118  1
  Hf  Hf41  1  0.89371382  0.68911790  0.50285551  1
  Hf  Hf42  1  0.40416974  0.40178101  0.39962736  1
  Hf  Hf43  1  0.20193916  0.18816486  0.60447826  1
  Hf  Hf44  1  0.49732545  0.89709183  0.50287182  1
  Hf  Hf45  1  0.90025274  0.69672536  0.71258422  1
  Hf  Hf46  1  0.69828946  0.69845693  0.89486477  1
  Hf  Hf47  1  0.20347479  0.80160522  0.39866660  1
  Hf  Hf48  1  0.49527662  0.10866500  0.91193141  1
  Hf  Hf49  1  0.70234542  0.89414217  0.50086362  1
  Zr  Zr50  1  0.19436937  0.40254700  0.18621884  1
  Zr  Zr51  1  0.10006966  0.70424282  0.90139489  1
  Zr  Zr52  1  0.10540791  0.70002716  0.09385671  1
  Zr  Zr53  1  0.10580036  0.90670183  0.08951002  1
  Zr  Zr54  1  0.59881622  0.79876383  0.20421842  1
  Zr  Zr55  1  0.50056040  0.29957866  0.68325688  1
  Zr  Zr56  1  0.70510932  0.29333632  0.69568152  1
  Zr  Zr57  1  0.01800241  0.60751351  0.59632916  1
  Zr  Zr58  1  0.00391291  0.20274251  0.60159706  1
  Zr  Zr59  1  0.80984387  -0.01397335  0.80253994  1
  Zr  Zr60  1  0.00222715  0.40175291  0.19689671  1
  Zr  Zr61  1  0.80953127  0.80037397  0.19433263  1
  Zr  Zr62  1  0.91013916  0.69669704  0.88743312  1
  Zr  Zr63  1  0.29245638  0.90272191  0.09764401  1
  Zr  Zr64  1  0.81124756  0.80317024  -0.00780957  1
  Zr  Zr65  1  -0.00364836  0.39559019  0.59876327  1
  Zr  Zr66  1  0.69787035  0.29807291  0.50965150  1
  Zr  Zr67  1  0.00080929  0.79879007  0.60467047  1
  Zr  Zr68  1  0.70157890  0.90167878  0.09379547  1
  Zr  Zr69  1  0.19429564  0.60832939  0.40238577  1
  Zr  Zr70  1  0.59876587  0.39478873  0.39462777  1
  Zr  Zr71  1  0.00590549  0.79591419  0.39698669  1
  Zr  Zr72  1  0.39495798  0.20176988  0.79798774  1
  Zr  Zr73  1  0.70834678  0.50745083  0.49901204  1
  Zr  Zr74  1  0.39001927  0.00168076  0.79121600  1
  Zr  Zr75  1  0.29376146  0.69773970  0.90996806  1
  Zr  Zr76  1  0.19155052  0.79014136  0.60065322  1
  Zr  Zr77  1  0.80093364  0.59108535  -0.00567829  1
  Zr  Zr78  1  0.68363690  0.49418792  0.09688061  1
  Zr  Zr79  1  0.79924230  0.20829455  0.39572043  1
  Zr  Zr80  1  0.70062059  0.10613561  0.50828089  1
  Zr  Zr81  1  0.20099945  0.39552497  0.81178725  1
  Zr  Zr82  1  0.60327047  -0.00277499  0.60534447  1
  Zr  Zr83  1  0.70441733  0.69669233  0.50057692  1
  Zr  Zr84  1  0.80819374  0.00227258  0.19932008  1
  Zr  Zr85  1  0.80535649  0.79703584  0.39001284  1
  Zr  Zr86  1  0.60528337  0.39696827  0.81386700  1
  Zr  Zr87  1  0.09478458  0.10075942  0.29721753  1
  Zr  Zr88  1  0.21408490  0.59881598  0.59368167  1
  Zr  Zr89  1  0.29854172  0.29409331  0.29496888  1
  Zr  Zr90  1  0.61730492  0.22766069  -0.00504703  1
  Zr  Zr91  1  0.70897229  0.10026483  0.09212338  1
  Zr  Zr92  1  0.60738972  0.21106039  0.20594402  1
  Zr  Zr93  1  0.39561386  0.39909756  0.19823257  1
  Zr  Zr94  1  0.29600857  0.51316218  0.28883946  1
  Zr  Zr95  1  0.80694317  0.59315551  0.20215085  1
  Zr  Zr96  1  0.39998378  0.42376742  0.59029329  1
  Zr  Zr97  1  0.29460846  0.09906752  0.91344768  1
  Zr  Zr98  1  0.71463474  0.10586830  0.89964449  1
  Zr  Zr99  1  0.90888980  0.49616952  0.89538505  1
  Ta  Ta100  1  0.49792437  0.89697088  0.30092078  1
  Ta  Ta101  1  0.10313085  0.90393784  0.29042232  1
  Ta  Ta102  1  0.59920044  0.80062397  0.79963632  1
  Ta  Ta103  1  0.49968060  0.89953582  0.09893957  1
  Ta  Ta104  1  0.39191446  0.39977541  0.00397089  1
  Ta  Ta105  1  -0.00225710  -0.00417680  0.60456982  1
  Ta  Ta106  1  0.20030735  0.59243009  0.80352759  1
  Ta  Ta107  1  0.90536632  0.30013975  0.29792649  1
  Ta  Ta108  1  0.39578373  0.59040255  0.80322577  1
  Ta  Ta109  1  -0.00377361  0.20333413  0.40358474  1
  Ta  Ta110  1  -0.00091738  0.00028966  0.40307152  1
  Ta  Ta111  1  0.80767496  0.40089874  0.39469361  1
  Ta  Ta112  1  0.80596900  0.80031094  0.60889019  1
  Ta  Ta113  1  0.19579082  0.00076833  0.79983580  1
  Ta  Ta114  1  0.80451458  0.40505150  0.60329497  1
  Ta  Ta115  1  0.59329596  0.79734337  0.39801603  1
  Ta  Ta116  1  0.39459984  0.80067251  0.80105626  1
  Ta  Ta117  1  0.09939262  0.08997921  0.50493622  1
  Ta  Ta118  1  0.09819478  0.90579160  0.50253994  1
  Ta  Ta119  1  0.70393273  0.88852586  0.70541936  1
  Ta  Ta120  1  0.90390188  0.49294178  0.09668204  1
  Ta  Ta121  1  0.69729757  0.09784760  0.30141289  1
  Ta  Ta122  1  0.09623394  0.09166412  0.70379990  1
  Ta  Ta123  1  0.39612972  0.80066599  0.20140521  1
  Ta  Ta124  1  0.90101258  0.30028980  0.70898818  1
  Ta  Ta125  1  -0.00487330  0.40185712  0.39435052  1
  Ta  Ta126  1  0.59554570  0.20364175  0.39611994  1
  Ta  Ta127  1  0.48971309  0.69963817  0.30263729  1
  Ta  Ta128  1  0.79859432  0.39944246  0.80106460  1
  Ta  Ta129  1  0.29654763  0.50268204  0.91324826  1
  Ta  Ta130  1  0.29341386  0.09927964  0.09970550  1
  Ta  Ta131  1  0.00733018  0.39387439  0.00312279  1
  Ta  Ta132  1  0.10564521  0.69886542  0.28385944  1
  Ta  Ta133  1  0.38901391  0.18683431  0.59533395  1
  Ta  Ta134  1  0.09411827  0.30032975  0.30147339  1
  Ta  Ta135  1  0.39304632  0.79380312  0.60145580  1
  Ta  Ta136  1  0.39914916  0.19994667  0.40085427  1
  Ta  Ta137  1  0.69539639  0.90177958  0.30085845  1
  Ta  Ta138  1  0.39653260  0.79810043  0.00743409  1
  Ta  Ta139  1  0.30038164  0.70104181  0.29132564  1
  Ta  Ta140  1  0.60104868  -0.00254038  -0.00093090  1
  Ta  Ta141  1  0.10555520  0.49385806  0.70453112  1
  Ta  Ta142  1  0.09926077  0.90367751  0.70437419  1
  Ta  Ta143  1  0.89695320  0.50176185  0.50029487  1
  Ta  Ta144  1  0.59903747  -0.00137134  0.39448938  1
  Ta  Ta145  1  0.39402710  0.80013497  0.40048471  1
  Ta  Ta146  1  0.00691005  0.19963199  0.80940881  1
  Ta  Ta147  1  0.59845491  -0.00078591  0.20037246  1
  Ta  Ta148  1  0.90239784  0.89977110  0.50345424  1
  Ta  Ta149  1  0.90414425  0.09693269  0.91010136  1
  Ti  Ti150  1  0.80817385  0.59206554  0.38350523  1
  Ti  Ti151  1  0.29458425  0.69005884  0.10123179  1
  Ti  Ti152  1  0.10122885  0.30351944  0.70228445  1
  Ti  Ti153  1  0.60551985  0.59146173  0.80060505  1
  Ti  Ti154  1  0.19825829  0.40729042  0.38601004  1
  Ti  Ti155  1  0.49785717  0.70023779  0.50620146  1
  Ti  Ti156  1  0.59726768  0.80309441  -0.00379359  1
  Ti  Ti157  1  0.90806167  0.90498423  0.30227044  1
  Ti  Ti158  1  0.60008835  0.60866900  0.39712840  1
  Ti  Ti159  1  0.78396413  0.58392857  0.79604862  1
  Ti  Ti160  1  0.90811783  0.69549897  0.28979716  1
  Ti  Ti161  1  0.49911981  0.50378724  0.70418662  1
  Ti  Ti162  1  0.90234119  0.92408490  0.07286052  1
  Ti  Ti163  1  0.79834610  0.39581954  0.20243960  1
  Ti  Ti164  1  0.29630788  0.29195174  0.09275724  1
  Ti  Ti165  1  0.90343755  0.10575669  0.30058079  1
  Ti  Ti166  1  0.09976944  0.90359591  0.90221883  1
  Ti  Ti167  1  0.00128617  -0.00290510  0.80555257  1
  Ti  Ti168  1  0.70319333  0.89635956  0.89968719  1
  Ti  Ti169  1  0.60322252  0.60566443  0.20802934  1
  Ti  Ti170  1  0.49997213  0.29299924  0.50383998  1
  Ti  Ti171  1  0.70028089  0.70051800  0.30113057  1
  Ti  Ti172  1  0.50872341  0.51281985  0.50177344  1
  Ti  Ti173  1  0.60399932  0.41066960  0.60332808  1
  Ti  Ti174  1  0.00540446  0.39297607  0.80668052  1
  Ti  Ti175  1  0.90000100  0.29092030  0.90004047  1
  Ti  Ti176  1  0.29848365  0.49943336  0.70147572  1
  Ti  Ti177  1  0.09361781  0.69764041  0.72260316  1
  Ti  Ti178  1  0.90204194  0.29854894  0.09384720  1
  Ti  Ti179  1  0.19872805  0.80728909  0.79809799  1
  Ti  Ti180  1  0.69907945  0.49734065  0.29902415  1
  Ti  Ti181  1  0.90958499  0.68829012  0.09383900  1
  Ti  Ti182  1  0.10105450  0.29887812  0.91127512  1
  Ti  Ti183  1  0.29786757  0.29713184  0.91450329  1
  Ti  Ti184  1  0.10596143  0.49813273  0.90570736  1
  Ti  Ti185  1  0.80747139  -0.01381634  0.60794368  1
  Ti  Ti186  1  0.60219615  0.79414920  0.60390544  1
  Ti  Ti187  1  0.60073891  0.39014779  0.20917055  1
  Ti  Ti188  1  0.49564503  0.10005747  0.69289218  1
  Ti  Ti189  1  -0.00099207  0.20121914  0.18975977  1
  Ti  Ti190  1  0.10886512  0.50546882  0.09089226  1
  Ti  Ti191  1  0.00436888  0.59016525  -0.00108415  1
  Ti  Ti192  1  0.29853673  0.10302545  0.28674156  1
  Ti  Ti193  1  0.00415330  0.19474188  0.00390754  1
  Ti  Ti194  1  -0.00331485  0.80931648  -0.00728990  1
  Ti  Ti195  1  0.00549002  0.58836347  0.19993515  1
  Ti  Ti196  1  0.40102925  -0.00247054  0.00504653  1
  Ti  Ti197  1  0.20537184  0.80303458  0.20109256  1
  Ti  Ti198  1  0.18621375  0.19742834  0.00302598  1
  Ti  Ti199  1  0.70774977  0.70218715  0.70585559  1
  Mo  Mo200  1  0.29713657  0.51142443  0.09149991  1
  Mo  Mo201  1  0.01990631  0.58408367  0.80108775  1
  Mo  Mo202  1  0.90461201  0.89794239  0.70144539  1
  Mo  Mo203  1  0.09529531  0.09893760  0.89902698  1
  Mo  Mo204  1  0.09370830  0.29695222  0.09141909  1
  Mo  Mo205  1  0.48108356  0.30380919  0.91237215  1
  Mo  Mo206  1  0.09790759  0.49978989  0.29550360  1
  Mo  Mo207  1  0.19138242  0.00847702  -0.00347165  1
  Mo  Mo208  1  0.29882520  0.89371863  0.29535683  1
  Mo  Mo209  1  0.90391386  0.10991706  0.08878129  1
  Mo  Mo210  1  0.81492763  0.20416640  0.80402632  1
  Mo  Mo211  1  0.19695093  0.60363715  0.19509606  1
  Mo  Mo212  1  0.39389299  0.60986273  0.19757670  1
  Mo  Mo213  1  0.70524660  0.30923303  0.10906068  1
  Mo  Mo214  1  0.49617322  0.29434321  0.30366279  1
  Mo  Mo215  1  0.00152757  0.81767744  0.80120260  1
  Mo  Mo216  1  0.29315430  0.89429684  0.70637569  1
  Mo  Mo217  1  0.81768752  0.21686735  0.60210604  1
  Mo  Mo218  1  0.38876879  0.19712134  0.19907609  1
  Mo  Mo219  1  0.40741465  0.60260694  0.60647191  1
  Mo  Mo220  1  0.29270355  0.49401398  0.49676281  1
  Mo  Mo221  1  0.20124762  0.79949154  -0.00025286  1
  Mo  Mo222  1  0.19914676  0.39663257  0.00183265  1
  Mo  Mo223  1  0.38922019  0.20588493  0.00608758  1
  Mo  Mo224  1  0.30353428  0.71031469  0.50222124  1
  Mo  Mo225  1  0.39072227  0.00107873  0.60427412  1
  Mo  Mo226  1  0.19930409  0.00441856  0.19870488  1
  Mo  Mo227  1  0.81532961  0.20568081  0.00101646  1
  Mo  Mo228  1  0.09954840  0.10240885  0.09116440  1
  Mo  Mo229  1  0.70575951  0.30559678  0.30137745  1
  Mo  Mo230  1  0.79725194  0.79880362  0.79834131  1
  Mo  Mo231  1  0.58185915  0.19676324  0.59718420  1
  Mo  Mo232  1  0.59746805  0.39914172  0.00097785  1
  Mo  Mo233  1  0.69572561  0.49781244  0.89617379  1
  Mo  Mo234  1  0.39204265  0.59996954  0.00374730  1
  Mo  Mo235  1  0.19744567  0.59432411  0.00128016  1
  Mo  Mo236  1  0.19289923  -0.00092663  0.60833263  1
  Mo  Mo237  1  0.00373264  0.00752267  -0.00922910  1
  Mo  Mo238  1  0.19907658  0.40080489  0.60832874  1
  Mo  Mo239  1  0.89839856  0.49365303  0.29533014  1
  Mo  Mo240  1  0.29212920  0.08886556  0.69516616  1
  Mo  Mo241  1  0.09933638  0.70529561  0.48428414  1
  Mo  Mo242  1  0.91133257  0.90108356  0.89704694  1
  Mo  Mo243  1  0.70270818  0.49536285  0.70019418  1
  Mo  Mo244  1  0.80040826  0.59909304  0.61188486  1
  Mo  Mo245  1  0.60168865  0.60210306  -0.00273309  1
  Mo  Mo246  1  0.71818953  0.29802038  0.89018933  1
  Mo  Mo247  1  0.89933851  0.30702926  0.49768149  1
  Mo  Mo248  1  0.29910239  0.09771976  0.50116126  1
  Mo  Mo249  1  0.80145140  0.00208139  -0.00779407  1
