# generated using pymatgen
data_HfZrTaTiMo
_symmetry_space_group_name_H-M   'P 1'
_cell_length_a   16.88444649
_cell_length_b   16.88240410
_cell_length_c   16.88538682
_cell_angle_alpha   90.00730305
_cell_angle_beta   89.94551187
_cell_angle_gamma   90.01812285
_symmetry_Int_Tables_number   1
_chemical_formula_structural   HfZrTaTiMo
_chemical_formula_sum   'Hf50 Zr50 Ta50 Ti50 Mo50'
_cell_volume   4813.17787724
_cell_formula_units_Z   50
loop_
 _symmetry_equiv_pos_site_id
 _symmetry_equiv_pos_as_xyz
  1  'x, y, z'
loop_
 _atom_site_type_symbol
 _atom_site_label
 _atom_site_symmetry_multiplicity
 _atom_site_fract_x
 _atom_site_fract_y
 _atom_site_fract_z
 _atom_site_occupancy
  Hf  Hf0  1  0.18820587  0.40202310  0.59448725  1
  Hf  Hf1  1  0.19469721  0.40189580  0.40114356  1
  Hf  Hf2  1  0.60088461  0.39541586  0.40532131  1
  Hf  Hf3  1  0.30307049  0.50245109  0.69201909  1
  Hf  Hf4  1  0.10019170  0.90191367  0.30463903  1
  Hf  Hf5  1  0.09942043  0.89825132  0.10294985  1
  Hf  Hf6  1  0.00386820  0.20602351  -0.00181897  1
  Hf  Hf7  1  0.70096109  0.69945211  0.90807730  1
  Hf  Hf8  1  0.29693860  0.29642017  0.49959422  1
  Hf  Hf9  1  0.42179115  -0.00140190  -0.01044832  1
  Hf  Hf10  1  0.49741598  0.89768086  0.50137373  1
  Hf  Hf11  1  0.31126211  0.09956485  0.29383821  1
  Hf  Hf12  1  0.80723853  0.39074889  0.01393770  1
  Hf  Hf13  1  0.30341779  0.90322460  0.89950320  1
  Hf  Hf14  1  0.79377059  0.19861470  0.59754663  1
  Hf  Hf15  1  0.89780713  0.29883084  0.89459846  1
  Hf  Hf16  1  0.79611048  -0.00037346  0.00535120  1
  Hf  Hf17  1  0.40481633  0.20085094  0.80609954  1
  Hf  Hf18  1  0.19981780  0.39400931  0.80777371  1
  Hf  Hf19  1  0.20405554  0.59535658  0.80939291  1
  Hf  Hf20  1  0.39824016  0.79714506  0.20103695  1
  Hf  Hf21  1  0.80303233  0.38556846  0.20975456  1
  Hf  Hf22  1  0.69471717  0.90411413  0.29503243  1
  Hf  Hf23  1  0.89391160  0.69585640  0.90575036  1
  Hf  Hf24  1  0.57251368  0.81231107  -0.01117764  1
  Hf  Hf25  1  0.39349466  0.40068958  -0.00010732  1
  Hf  Hf26  1  0.00390134  0.60109110  0.80126060  1
  Hf  Hf27  1  0.78730475  0.20100418  0.79060792  1
  Hf  Hf28  1  0.70129402  0.51619904  0.30522178  1
  Hf  Hf29  1  0.39872356  0.79122366  0.40157083  1
  Hf  Hf30  1  0.50229905  0.09824960  0.49983306  1
  Hf  Hf31  1  0.70444402  0.69826358  0.70039231  1
  Hf  Hf32  1  0.40370663  0.20060439  0.39864176  1
  Hf  Hf33  1  0.89712579  0.69050902  0.49371522  1
  Hf  Hf34  1  0.68665836  0.70090851  0.10313806  1
  Hf  Hf35  1  0.41394372  0.80007487  0.81697581  1
  Hf  Hf36  1  0.31154377  0.09677444  0.10016910  1
  Hf  Hf37  1  0.59613602  0.79748128  0.80159537  1
  Hf  Hf38  1  0.50596982  0.50392247  0.09958321  1
  Hf  Hf39  1  0.49697614  0.29331221  0.29149568  1
  Hf  Hf40  1  0.00655053  0.20264895  0.60345464  1
  Hf  Hf41  1  0.20555021  0.20847781  -0.00834841  1
  Hf  Hf42  1  0.10384285  0.69921572  0.69582021  1
  Hf  Hf43  1  0.50220652  0.90838152  0.29808032  1
  Hf  Hf44  1  0.49259184  0.70090177  0.69267893  1
  Hf  Hf45  1  0.69096652  0.28481320  0.09979185  1
  Hf  Hf46  1  0.90717734  0.51324025  0.10531437  1
  Hf  Hf47  1  0.40085350  0.20400319  -0.00244990  1
  Hf  Hf48  1  0.69788697  0.50418669  0.91440940  1
  Hf  Hf49  1  0.39738750  0.40028394  0.81280965  1
  Zr  Zr50  1  0.59959878  0.40448389  0.79923878  1
  Zr  Zr51  1  0.10016167  0.30424630  0.10561539  1
  Zr  Zr52  1  0.90138258  0.50507975  0.69293752  1
  Zr  Zr53  1  0.00571578  0.00331819  0.79253827  1
  Zr  Zr54  1  0.30172965  0.09889809  0.70106121  1
  Zr  Zr55  1  0.68440089  0.10185270  0.91413249  1
  Zr  Zr56  1  0.90347389  0.29816554  0.49099276  1
  Zr  Zr57  1  0.70256670  0.51010021  0.10143184  1
  Zr  Zr58  1  0.30763739  0.90323888  0.09801927  1
  Zr  Zr59  1  0.78430032  0.19590056  0.40516323  1
  Zr  Zr60  1  0.19804034  0.60804380  0.39209616  1
  Zr  Zr61  1  -0.00251595  0.80526823  0.40321664  1
  Zr  Zr62  1  0.59956611  0.59648835  0.59308322  1
  Zr  Zr63  1  0.60616793  0.39893329  0.20340599  1
  Zr  Zr64  1  0.89825045  0.89980421  0.11014948  1
  Zr  Zr65  1  0.19695153  0.79500443  0.00288553  1
  Zr  Zr66  1  0.00101092  -0.00080805  -0.00223789  1
  Zr  Zr67  1  0.69794958  0.89613385  0.70370857  1
  Zr  Zr68  1  0.00049560  0.80229862  0.59868082  1
  Zr  Zr69  1  -0.00187569  -0.00673399  0.59800833  1
  Zr  Zr70  1  0.20333929  0.59600884  0.00585910  1
  Zr  Zr71  1  0.30664482  0.89304851  0.69937321  1
  Zr  Zr72  1  0.09487560  0.50231233  0.10511331  1
  Zr  Zr73  1  0.49602908  0.49682555  0.69384301  1
  Zr  Zr74  1  0.89800220  0.50735728  0.90926829  1
  Zr  Zr75  1  0.00378046  0.00873086  0.21046051  1
  Zr  Zr76  1  0.49814127  0.69450436  0.09623036  1
  Zr  Zr77  1  0.68802730  0.90454937  0.10467955  1
  Zr  Zr78  1  0.49600336  0.50448399  0.29758736  1
  Zr  Zr79  1  0.79211379  0.00519064  0.79337302  1
  Zr  Zr80  1  0.80221481  -0.00180784  0.40453508  1
  Zr  Zr81  1  0.80244040  0.79814728  0.20793108  1
  Zr  Zr82  1  0.01053138  0.39526044  0.79447228  1
  Zr  Zr83  1  0.29437562  0.10316662  0.50060723  1
  Zr  Zr84  1  0.89928263  0.50369594  0.30676554  1
  Zr  Zr85  1  0.30426681  0.69921872  0.69660517  1
  Zr  Zr86  1  0.89269025  0.88776091  0.89355534  1
  Zr  Zr87  1  0.89490480  0.10559196  0.11078499  1
  Zr  Zr88  1  0.79516355  0.40167103  0.79334845  1
  Zr  Zr89  1  0.19598683  -0.00369294  0.59892494  1
  Zr  Zr90  1  0.50687580  0.69177503  0.29205078  1
  Zr  Zr91  1  0.20464272  0.20254681  0.19816368  1
  Zr  Zr92  1  0.09183845  0.49753644  0.28900416  1
  Zr  Zr93  1  0.20045266  0.78413594  0.20674770  1
  Zr  Zr94  1  0.30020082  0.90674401  0.30294990  1
  Zr  Zr95  1  0.30167891  0.49893680  0.29768744  1
  Zr  Zr96  1  0.89801059  0.10438799  0.89573284  1
  Zr  Zr97  1  0.60775950  0.19700890  0.59622219  1
  Zr  Zr98  1  0.30335489  0.29989526  0.69191010  1
  Zr  Zr99  1  0.80593735  0.80400281  0.59526729  1
  Ta  Ta100  1  0.30189843  0.09427056  0.89542195  1
  Ta  Ta101  1  0.69558537  0.89814676  0.49936436  1
  Ta  Ta102  1  0.59192086  0.59944113  0.80766077  1
  Ta  Ta103  1  0.79610237  0.40018885  0.59176101  1
  Ta  Ta104  1  0.50894036  0.10250368  0.10488887  1
  Ta  Ta105  1  0.19950861  0.79482131  0.80627968  1
  Ta  Ta106  1  0.90245216  0.69515466  0.30356966  1
  Ta  Ta107  1  0.59682989  0.19844426  0.79509223  1
  Ta  Ta108  1  0.19780481  0.59854068  0.58633511  1
  Ta  Ta109  1  0.60379946  0.40052305  0.59075454  1
  Ta  Ta110  1  0.70784438  0.50304364  0.49248471  1
  Ta  Ta111  1  0.10692186  0.89159324  0.70607931  1
  Ta  Ta112  1  0.30364208  0.50244914  0.49501217  1
  Ta  Ta113  1  0.40382346  0.59369850  0.81230941  1
  Ta  Ta114  1  0.80008641  0.59638294  0.59581578  1
  Ta  Ta115  1  0.90604558  0.10703812  0.31179115  1
  Ta  Ta116  1  0.09797487  0.29991449  0.30163230  1
  Ta  Ta117  1  0.20803190  0.39970087  -0.00343821  1
  Ta  Ta118  1  0.09511805  0.10191262  0.48793217  1
  Ta  Ta119  1  0.60165268  0.79864887  0.40130626  1
  Ta  Ta120  1  0.50284843  0.29405582  0.10090739  1
  Ta  Ta121  1  0.90779564  0.09874915  0.49766679  1
  Ta  Ta122  1  0.60328541  -0.00063969  0.60253226  1
  Ta  Ta123  1  0.19659453  0.00049002  0.80170474  1
  Ta  Ta124  1  0.30329725  0.70004281  0.49869255  1
  Ta  Ta125  1  0.00366831  0.40137215  0.59207479  1
  Ta  Ta126  1  0.40295085  0.39890650  0.40411591  1
  Ta  Ta127  1  0.60660334  0.00944262  0.40222313  1
  Ta  Ta128  1  0.69508782  0.89975158  0.90224014  1
  Ta  Ta129  1  0.01246179  0.20245705  0.79193201  1
  Ta  Ta130  1  0.19759692  0.00728340  0.19993408  1
  Ta  Ta131  1  0.90012967  0.10426002  0.69498497  1
  Ta  Ta132  1  0.09981199  0.89444357  0.89856550  1
  Ta  Ta133  1  0.19647459  0.00498903  -0.00267861  1
  Ta  Ta134  1  0.51340502  0.29996337  0.90778843  1
  Ta  Ta135  1  0.40050713  -0.00519133  0.59857791  1
  Ta  Ta136  1  0.50118272  0.30119940  0.69490057  1
  Ta  Ta137  1  0.00118872  0.39507555  0.00105265  1
  Ta  Ta138  1  0.70060634  0.69910492  0.49284525  1
  Ta  Ta139  1  0.30383154  0.30172123  0.29628428  1
  Ta  Ta140  1  0.59614082  0.79686607  0.59256984  1
  Ta  Ta141  1  0.79801080  0.00467005  0.59721755  1
  Ta  Ta142  1  0.69318625  0.09807373  0.11411126  1
  Ta  Ta143  1  0.10292670  0.10315607  0.10061091  1
  Ta  Ta144  1  0.20314732  0.80171873  0.58840202  1
  Ta  Ta145  1  0.69292885  0.29840909  0.90865633  1
  Ta  Ta146  1  0.40576770  0.60137079  0.57994682  1
  Ta  Ta147  1  0.19313309  0.20168213  0.80094260  1
  Ta  Ta148  1  -0.00090706  0.79011412  0.00719913  1
  Ta  Ta149  1  0.31013945  0.70108116  0.90790888  1
  Ti  Ti150  1  0.69961362  0.50329350  0.69473554  1
  Ti  Ti151  1  0.69233505  0.30690547  0.69542336  1
  Ti  Ti152  1  0.10410655  0.90485926  0.49288864  1
  Ti  Ti153  1  0.90024907  0.30151719  0.69607318  1
  Ti  Ti154  1  0.89744372  0.49975356  0.49222382  1
  Ti  Ti155  1  0.00542969  0.59309069  0.59014071  1
  Ti  Ti156  1  0.30905576  0.70025009  0.09032740  1
  Ti  Ti157  1  0.80312947  0.20174123  0.21137256  1
  Ti  Ti158  1  0.00290463  0.79576262  0.80147082  1
  Ti  Ti159  1  0.89648301  0.70016765  0.70400035  1
  Ti  Ti160  1  0.40923346  0.40229213  0.58573834  1
  Ti  Ti161  1  0.59191448  0.00619103  0.79979716  1
  Ti  Ti162  1  0.90168344  0.90641412  0.30358086  1
  Ti  Ti163  1  0.19943205  0.61000482  0.19839475  1
  Ti  Ti164  1  0.80046053  0.80260762  0.40001695  1
  Ti  Ti165  1  0.80147478  0.20022654  0.00511335  1
  Ti  Ti166  1  0.39249568  0.39598297  0.18876287  1
  Ti  Ti167  1  0.59032070  0.60251700  0.41054902  1
  Ti  Ti168  1  0.49791986  0.09545857  0.70066826  1
  Ti  Ti169  1  0.80418644  0.61264722  0.20122924  1
  Ti  Ti170  1  0.68557086  0.28196967  0.30322476  1
  Ti  Ti171  1  0.79533189  0.38927189  0.39678547  1
  Ti  Ti172  1  0.40643212  0.19828221  0.60036220  1
  Ti  Ti173  1  -0.01656562  0.38259135  0.20012062  1
  Ti  Ti174  1  0.69779582  0.69839370  0.30445327  1
  Ti  Ti175  1  0.18472769  0.19870306  0.61033608  1
  Ti  Ti176  1  0.00914584  0.59986687  0.39933764  1
  Ti  Ti177  1  0.09542141  0.49868178  0.91019381  1
  Ti  Ti178  1  0.09637087  0.69920680  0.90642751  1
  Ti  Ti179  1  0.38159451  0.60001293  0.19514358  1
  Ti  Ti180  1  0.10171001  0.50445305  0.69417338  1
  Ti  Ti181  1  0.50444692  0.90974799  0.11551290  1
  Ti  Ti182  1  0.49632671  0.90148009  0.69680051  1
  Ti  Ti183  1  0.80062328  0.79859519  0.00907036  1
  Ti  Ti184  1  0.21196542  0.39952476  0.19058199  1
  Ti  Ti185  1  0.50466611  0.29489128  0.50051363  1
  Ti  Ti186  1  0.00004606  0.78890000  0.20119927  1
  Ti  Ti187  1  0.39836906  0.00029605  0.40583383  1
  Ti  Ti188  1  0.10357718  0.09951784  0.89886477  1
  Ti  Ti189  1  0.79592652  0.59893599  0.79728024  1
  Ti  Ti190  1  0.39889470  0.58851176  -0.00755699  1
  Ti  Ti191  1  0.10182198  0.70106667  0.49848972  1
  Ti  Ti192  1  0.20336968  0.79572726  0.40036759  1
  Ti  Ti193  1  0.19861493  0.00611814  0.39759676  1
  Ti  Ti194  1  0.09897257  0.29262750  0.49236497  1
  Ti  Ti195  1  -0.00041500  0.20264455  0.21014550  1
  Ti  Ti196  1  0.89775268  0.89594484  0.70596093  1
  Ti  Ti197  1  0.00228241  0.39719346  0.39994690  1
  Ti  Ti198  1  0.50886415  0.10128266  0.29042107  1
  Ti  Ti199  1  0.19576349  0.19853209  0.38935760  1
  Mo  Mo200  1  0.50432327  0.91809395  0.88355298  1
  Mo  Mo201  1  0.89948145  0.29349587  0.10433153  1
  Mo  Mo202  1  0.60912853  0.60309328  0.20170083  1
  Mo  Mo203  1  0.09452983  0.70169107  0.30062569  1
  Mo  Mo204  1  0.80060108  0.01207500  0.21250936  1
  Mo  Mo205  1  0.69875771  0.30912125  0.49842607  1
  Mo  Mo206  1  0.59425480  0.19749922  0.00343965  1
  Mo  Mo207  1  0.49879091  0.49602345  0.49431758  1
  Mo  Mo208  1  0.59637031  0.19592049  0.39841256  1
  Mo  Mo209  1  0.69472781  0.09654383  0.69827727  1
  Mo  Mo210  1  0.10009052  0.30372405  0.89992777  1
  Mo  Mo211  1  0.08956391  0.69641444  0.10289799  1
  Mo  Mo212  1  0.49820036  0.68364243  0.90425652  1
  Mo  Mo213  1  0.10111676  0.09900474  0.70189900  1
  Mo  Mo214  1  0.89247411  0.90383086  0.49902891  1
  Mo  Mo215  1  0.39978791  0.80041134  0.59397053  1
  Mo  Mo216  1  0.10422856  0.10508599  0.30197143  1
  Mo  Mo217  1  0.59418658  0.59729702  -0.00384827  1
  Mo  Mo218  1  0.29842965  0.89703448  0.49587639  1
  Mo  Mo219  1  0.50157791  0.10590078  0.89510711  1
  Mo  Mo220  1  0.00103775  0.00290737  0.40299172  1
  Mo  Mo221  1  0.00115486  0.61867205  0.20331829  1
  Mo  Mo222  1  0.79939724  0.60638397  0.40185516  1
  Mo  Mo223  1  0.30045610  0.69457390  0.30224586  1
  Mo  Mo224  1  0.89853126  0.69948012  0.10177170  1
  Mo  Mo225  1  0.90538378  0.29431235  0.30261987  1
  Mo  Mo226  1  0.10122637  0.30087588  0.69543641  1
  Mo  Mo227  1  0.69706016  0.09081001  0.50236415  1
  Mo  Mo228  1  0.59883157  0.00082055  0.00494263  1
  Mo  Mo229  1  0.09141450  0.50283062  0.49724303  1
  Mo  Mo230  1  0.40690869  0.00473605  0.19797109  1
  Mo  Mo231  1  0.70171343  0.09891425  0.29725717  1
  Mo  Mo232  1  0.60031708  0.19548687  0.20339880  1
  Mo  Mo233  1  0.29944831  0.50311572  0.10178304  1
  Mo  Mo234  1  0.60021536  0.00603368  0.20590566  1
  Mo  Mo235  1  0.40473954  0.20250180  0.19749422  1
  Mo  Mo236  1  0.80294781  0.61000280  0.01168656  1
  Mo  Mo237  1  0.29853845  0.50290008  0.90232519  1
  Mo  Mo238  1  0.50357798  0.49518479  0.90760252  1
  Mo  Mo239  1  0.40376960  0.00374700  0.79441807  1
  Mo  Mo240  1  0.00390678  0.60505215  0.00153387  1
  Mo  Mo241  1  0.00877550  0.19990569  0.39796372  1
  Mo  Mo242  1  0.50259205  0.70079812  0.49589183  1
  Mo  Mo243  1  0.39861630  0.59825350  0.40255317  1
  Mo  Mo244  1  0.29716975  0.29683304  0.89880859  1
  Mo  Mo245  1  0.59685235  0.80029720  0.20911624  1
  Mo  Mo246  1  0.40058250  0.80389920  0.00061926  1
  Mo  Mo247  1  0.80040950  0.79726534  0.80189009  1
  Mo  Mo248  1  0.59867399  0.39589756  0.00220366  1
  Mo  Mo249  1  0.30480124  0.30479396  0.10171492  1
