# generated using pymatgen
data_HfZrTaTiMo
_symmetry_space_group_name_H-M   'P 1'
_cell_length_a   16.88438148
_cell_length_b   16.87230069
_cell_length_c   16.87983175
_cell_angle_alpha   89.99134700
_cell_angle_beta   90.02184078
_cell_angle_gamma   89.95753309
_symmetry_Int_Tables_number   1
_chemical_formula_structural   HfZrTaTiMo
_chemical_formula_sum   'Hf50 Zr50 Ta50 Ti50 Mo50'
_cell_volume   4808.69708204
_cell_formula_units_Z   50
loop_
 _symmetry_equiv_pos_site_id
 _symmetry_equiv_pos_as_xyz
  1  'x, y, z'
loop_
 _atom_site_type_symbol
 _atom_site_label
 _atom_site_symmetry_multiplicity
 _atom_site_fract_x
 _atom_site_fract_y
 _atom_site_fract_z
 _atom_site_occupancy
  Hf  Hf0  1  0.79200367  0.00356762  0.59071762  1
  Hf  Hf1  1  0.89677118  0.89817033  0.90326023  1
  Hf  Hf2  1  -0.00775979  0.19984910  0.59307545  1
  Hf  Hf3  1  0.21183115  -0.00074817  0.59515807  1
  Hf  Hf4  1  0.20608677  0.20298468  0.79552415  1
  Hf  Hf5  1  0.20971716  0.41521153  0.59571710  1
  Hf  Hf6  1  0.61297456  -0.01294427  0.39867331  1
  Hf  Hf7  1  0.10668557  0.50964246  0.30516630  1
  Hf  Hf8  1  0.89772861  0.30589173  0.70367069  1
  Hf  Hf9  1  0.71382931  0.49717017  0.49475939  1
  Hf  Hf10  1  0.49887323  0.29942541  0.69237104  1
  Hf  Hf11  1  0.30460610  0.30518163  0.10101361  1
  Hf  Hf12  1  0.89471032  0.30557011  0.09859455  1
  Hf  Hf13  1  -0.01138267  0.60406527  -0.00297160  1
  Hf  Hf14  1  0.70767047  0.49397020  0.91075663  1
  Hf  Hf15  1  0.69325772  0.10576782  0.70867039  1
  Hf  Hf16  1  0.09917359  0.30212987  0.69883266  1
  Hf  Hf17  1  0.80621318  0.60804510  0.19653035  1
  Hf  Hf18  1  0.78598450  -0.00931645  0.80332387  1
  Hf  Hf19  1  0.70961207  0.30570815  0.70562910  1
  Hf  Hf20  1  0.59873304  0.39388630  0.39735226  1
  Hf  Hf21  1  0.00067753  0.20485789  -0.00666305  1
  Hf  Hf22  1  0.09926364  0.49777043  0.90686435  1
  Hf  Hf23  1  0.10890495  0.30051047  0.50065933  1
  Hf  Hf24  1  0.09644777  0.09745898  0.50361688  1
  Hf  Hf25  1  0.69819714  0.29250720  0.30278262  1
  Hf  Hf26  1  0.89105020  0.09223417  0.10798480  1
  Hf  Hf27  1  0.59721203  0.00264607  -0.00062284  1
  Hf  Hf28  1  0.79439064  0.19910147  0.00085483  1
  Hf  Hf29  1  0.59479485  0.39244669  0.00348423  1
  Hf  Hf30  1  0.70055196  0.89928795  0.10568066  1
  Hf  Hf31  1  0.29129924  0.49642232  0.29577935  1
  Hf  Hf32  1  0.40204908  0.60506996  0.39605205  1
  Hf  Hf33  1  -0.00477923  0.79922445  0.20564527  1
  Hf  Hf34  1  0.21339641  -0.00256459  0.00679349  1
  Hf  Hf35  1  0.89942030  0.10005678  0.69820755  1
  Hf  Hf36  1  0.01436655  0.39543789  0.20545760  1
  Hf  Hf37  1  0.10314952  0.50164934  0.10052455  1
  Hf  Hf38  1  0.89955332  0.50157350  0.30392173  1
  Hf  Hf39  1  0.09269288  0.90597571  0.49860649  1
  Hf  Hf40  1  0.50543897  0.69654865  0.90829516  1
  Hf  Hf41  1  0.21188597  0.40296094  0.79889285  1
  Hf  Hf42  1  0.49331685  0.89774134  0.30188070  1
  Hf  Hf43  1  0.40540878  0.19875098  0.20167437  1
  Hf  Hf44  1  0.50538519  0.89018681  0.50881050  1
  Hf  Hf45  1  0.89596469  0.49368594  0.70070757  1
  Hf  Hf46  1  0.70147530  0.70270846  0.69674801  1
  Hf  Hf47  1  0.88388397  0.91446338  0.29699180  1
  Hf  Hf48  1  0.89902886  0.90809747  0.49625936  1
  Hf  Hf49  1  0.38960161  0.18813351  0.59280427  1
  Zr  Zr50  1  0.40442020  0.79639736  0.79442329  1
  Zr  Zr51  1  0.39079585  0.79083100  0.40475784  1
  Zr  Zr52  1  0.70566352  0.49391621  0.29655418  1
  Zr  Zr53  1  0.49959526  0.50022150  0.69021074  1
  Zr  Zr54  1  0.00865779  0.39554378  0.39826649  1
  Zr  Zr55  1  0.30371792  0.50374015  0.90456203  1
  Zr  Zr56  1  0.39867576  0.60925930  0.01113291  1
  Zr  Zr57  1  0.69516557  0.69724985  0.90523766  1
  Zr  Zr58  1  0.31238944  0.09232996  0.89858328  1
  Zr  Zr59  1  0.39889659  0.40185622  0.39535927  1
  Zr  Zr60  1  0.21256866  0.80376620  0.00181658  1
  Zr  Zr61  1  0.59481155  0.00488036  0.20092212  1
  Zr  Zr62  1  0.89747441  0.70761841  0.49567271  1
  Zr  Zr63  1  0.00523280  0.19718376  0.21002207  1
  Zr  Zr64  1  0.00214704  0.79502845  0.79781041  1
  Zr  Zr65  1  0.50216478  0.09983599  0.89897895  1
  Zr  Zr66  1  0.49018709  0.90227919  0.09721211  1
  Zr  Zr67  1  0.50198239  0.49952165  0.49995034  1
  Zr  Zr68  1  0.10237230  0.88781182  0.10566866  1
  Zr  Zr69  1  0.19834358  0.19576856  0.20335978  1
  Zr  Zr70  1  0.20550427  -0.00826246  0.20654548  1
  Zr  Zr71  1  0.60586828  0.19958538  0.59091955  1
  Zr  Zr72  1  0.10374805  0.90123802  0.89789839  1
  Zr  Zr73  1  0.88675117  0.30721998  0.29587961  1
  Zr  Zr74  1  0.40419680  0.59647194  0.79539291  1
  Zr  Zr75  1  0.00064097  -0.00041030  0.00276712  1
  Zr  Zr76  1  0.10662053  0.69603468  0.90048382  1
  Zr  Zr77  1  0.10443027  0.51071999  0.70808144  1
  Zr  Zr78  1  0.50141319  0.50249031  0.09512911  1
  Zr  Zr79  1  0.10567774  0.30548368  0.09089510  1
  Zr  Zr80  1  0.58890984  0.60325759  0.20439650  1
  Zr  Zr81  1  0.88879533  0.31582985  0.49917828  1
  Zr  Zr82  1  0.10564002  0.10154547  0.89254496  1
  Zr  Zr83  1  0.89629990  0.09975362  0.89536395  1
  Zr  Zr84  1  0.00742903  0.79744077  0.60479970  1
  Zr  Zr85  1  0.59216727  0.40619420  0.80630220  1
  Zr  Zr86  1  0.38303296  0.59769993  0.58962347  1
  Zr  Zr87  1  0.39864532  0.20791853  0.79755861  1
  Zr  Zr88  1  0.89175958  0.89576882  0.69430497  1
  Zr  Zr89  1  0.39981987  0.60736450  0.20507923  1
  Zr  Zr90  1  0.50287044  0.08889013  0.70746577  1
  Zr  Zr91  1  0.89472848  0.48917084  0.09558802  1
  Zr  Zr92  1  0.38502154  -0.00574648  0.40859584  1
  Zr  Zr93  1  0.39183053  0.79155501  0.60102172  1
  Zr  Zr94  1  0.70277029  0.69968610  0.30317735  1
  Zr  Zr95  1  0.61260827  0.39524523  0.59354498  1
  Zr  Zr96  1  0.80729492  0.59925789  0.80868554  1
  Zr  Zr97  1  0.00950406  0.00519715  0.21066473  1
  Zr  Zr98  1  0.09614931  0.69608924  0.48968536  1
  Zr  Zr99  1  0.50343737  0.09662830  0.49373322  1
  Ta  Ta100  1  0.70040505  0.10080180  0.48809189  1
  Ta  Ta101  1  -0.00162921  0.60178900  0.60386000  1
  Ta  Ta102  1  0.39523272  0.79683234  0.20373438  1
  Ta  Ta103  1  0.00248692  -0.00133690  0.79184933  1
  Ta  Ta104  1  0.70180351  0.49803214  0.09861061  1
  Ta  Ta105  1  0.20994321  0.19847994  -0.00146850  1
  Ta  Ta106  1  0.70495267  0.09623415  0.29876838  1
  Ta  Ta107  1  0.69755969  0.29573131  0.90015508  1
  Ta  Ta108  1  0.59140425  0.39300075  0.19909232  1
  Ta  Ta109  1  0.59519993  0.79628017  0.20390304  1
  Ta  Ta110  1  0.29812061  0.70143092  0.89452974  1
  Ta  Ta111  1  0.30192949  0.09838012  0.30243271  1
  Ta  Ta112  1  0.78802692  -0.00249880  -0.00266923  1
  Ta  Ta113  1  0.20293562  0.19522385  0.40058126  1
  Ta  Ta114  1  0.60133758  0.80648162  0.80162181  1
  Ta  Ta115  1  -0.00092657  0.19546903  0.39470079  1
  Ta  Ta116  1  -0.00257444  0.61019321  0.20402971  1
  Ta  Ta117  1  0.60718612  -0.00804969  0.59805254  1
  Ta  Ta118  1  0.68944424  0.10770769  0.89783680  1
  Ta  Ta119  1  -0.00559159  0.60521167  0.80169347  1
  Ta  Ta120  1  0.79875493  0.79864450  0.00283863  1
  Ta  Ta121  1  0.80517468  0.19252243  0.40097939  1
  Ta  Ta122  1  0.69337016  0.69742772  0.09609050  1
  Ta  Ta123  1  0.80640609  0.60766910  0.40060241  1
  Ta  Ta124  1  0.49544632  0.29464967  0.49496250  1
  Ta  Ta125  1  0.59425345  0.19880133  0.19123508  1
  Ta  Ta126  1  0.39406400  0.20020934  0.39672797  1
  Ta  Ta127  1  0.90418359  0.50680362  0.49677565  1
  Ta  Ta128  1  0.79756064  0.79963101  0.19921456  1
  Ta  Ta129  1  0.10167094  0.69830902  0.10424225  1
  Ta  Ta130  1  0.79289202  0.19527482  0.19977006  1
  Ta  Ta131  1  0.20070253  0.81050564  0.39637026  1
  Ta  Ta132  1  0.20132137  0.79775050  0.59948075  1
  Ta  Ta133  1  0.19998887  0.80118117  0.78891524  1
  Ta  Ta134  1  0.00452489  0.40973024  0.59797061  1
  Ta  Ta135  1  0.40659203  0.40012034  0.20185907  1
  Ta  Ta136  1  0.60200587  0.79732141  0.39872471  1
  Ta  Ta137  1  0.89277812  0.70146378  0.69814123  1
  Ta  Ta138  1  0.09829606  0.50747952  0.49393338  1
  Ta  Ta139  1  0.69908293  0.70390099  0.50288787  1
  Ta  Ta140  1  0.20879348  0.60249945  0.00971794  1
  Ta  Ta141  1  0.30671196  0.30128105  0.90879510  1
  Ta  Ta142  1  -0.00041116  0.80537772  0.38557227  1
  Ta  Ta143  1  0.28245010  0.68915019  0.70538786  1
  Ta  Ta144  1  0.40050666  0.40218424  0.80099782  1
  Ta  Ta145  1  0.39648544  -0.00769981  0.60046855  1
  Ta  Ta146  1  0.30035538  0.30265879  0.49721527  1
  Ta  Ta147  1  0.19898589  -0.00135829  0.39658128  1
  Ta  Ta148  1  0.79649385  0.20042209  0.58977283  1
  Ta  Ta149  1  0.80307324  0.60117668  0.59731373  1
  Ti  Ti150  1  -0.00488362  0.01208735  0.39276118  1
  Ti  Ti151  1  0.10366154  0.10227951  0.09471352  1
  Ti  Ti152  1  0.30708914  0.08800492  0.70787424  1
  Ti  Ti153  1  0.29389170  0.70955553  0.10797411  1
  Ti  Ti154  1  0.59916382  0.80263745  0.00245458  1
  Ti  Ti155  1  0.80060026  0.20310881  0.80521534  1
  Ti  Ti156  1  0.69707470  0.88624273  0.68773701  1
  Ti  Ti157  1  0.30307720  0.89847884  0.70293830  1
  Ti  Ti158  1  0.69969297  0.30231006  0.10188377  1
  Ti  Ti159  1  0.50230952  0.29225692  0.30283887  1
  Ti  Ti160  1  0.79166577  0.80929750  0.39787404  1
  Ti  Ti161  1  0.21182489  0.60374259  0.40848897  1
  Ti  Ti162  1  0.50252374  0.10199384  0.30640343  1
  Ti  Ti163  1  0.10466264  0.69986637  0.29856635  1
  Ti  Ti164  1  0.89783480  0.70753667  0.09875918  1
  Ti  Ti165  1  0.09692620  0.09702830  0.69676145  1
  Ti  Ti166  1  0.51391509  0.70092905  0.69268389  1
  Ti  Ti167  1  0.61025392  0.59767085  0.59827914  1
  Ti  Ti168  1  -0.00588284  0.79473125  0.00133321  1
  Ti  Ti169  1  0.50166045  0.29313202  0.90333702  1
  Ti  Ti170  1  0.10077057  0.90869704  0.69459320  1
  Ti  Ti171  1  0.10771009  0.30540763  0.90205733  1
  Ti  Ti172  1  0.59513744  0.60141420  0.39499865  1
  Ti  Ti173  1  0.60443661  -0.01738709  0.80299031  1
  Ti  Ti174  1  0.19809525  0.60147219  0.59698081  1
  Ti  Ti175  1  0.69521460  0.10261501  0.10007454  1
  Ti  Ti176  1  0.70902539  0.49723641  0.70075874  1
  Ti  Ti177  1  0.30680753  0.30899773  0.69003815  1
  Ti  Ti178  1  0.31072292  0.90159901  0.89312369  1
  Ti  Ti179  1  0.40605473  0.40088090  -0.00136503  1
  Ti  Ti180  1  0.20209051  -0.00480295  0.79494511  1
  Ti  Ti181  1  0.00172944  0.20356470  0.80298242  1
  Ti  Ti182  1  0.39592951  0.80060574  0.00529944  1
  Ti  Ti183  1  0.21065473  0.40466079  0.00372849  1
  Ti  Ti184  1  0.39514306  -0.00025774  0.20073450  1
  Ti  Ti185  1  0.29067143  0.30400465  0.30037129  1
  Ti  Ti186  1  0.50458189  0.89710712  0.69728858  1
  Ti  Ti187  1  0.41161057  0.19931804  0.00947490  1
  Ti  Ti188  1  0.89314813  0.90312332  0.10188624  1
  Ti  Ti189  1  0.51403775  0.69912168  0.50548928  1
  Ti  Ti190  1  0.20234647  0.60303166  0.19355561  1
  Ti  Ti191  1  0.88869506  0.31823320  0.90271107  1
  Ti  Ti192  1  0.31326166  0.09588968  0.09828143  1
  Ti  Ti193  1  0.20804482  0.19446820  0.60170721  1
  Ti  Ti194  1  0.49307131  0.90054132  0.90032743  1
  Ti  Ti195  1  0.79255227  0.80009468  0.80904322  1
  Ti  Ti196  1  -0.00226523  0.40251693  0.80989070  1
  Ti  Ti197  1  0.28716718  0.70469169  0.29806818  1
  Ti  Ti198  1  0.80565399  0.60420402  -0.00006128  1
  Ti  Ti199  1  0.59872068  0.59460131  0.80207798  1
  Mo  Mo200  1  0.60148495  0.20979995  0.80588495  1
  Mo  Mo201  1  0.39411852  0.39479738  0.59538994  1
  Mo  Mo202  1  0.29772594  0.89787622  0.29800277  1
  Mo  Mo203  1  0.78466120  0.39540499  0.19533648  1
  Mo  Mo204  1  0.79141040  0.00284914  0.19599793  1
  Mo  Mo205  1  0.79273726  0.39392108  0.00121785  1
  Mo  Mo206  1  0.79609198  0.79832341  0.59292879  1
  Mo  Mo207  1  0.49394008  0.10259698  0.09985475  1
  Mo  Mo208  1  0.79786326  0.40325032  0.39961818  1
  Mo  Mo209  1  0.59746406  0.19446148  0.39074223  1
  Mo  Mo210  1  0.69965478  0.89564262  0.29729551  1
  Mo  Mo211  1  0.89801007  0.70759578  0.30053316  1
  Mo  Mo212  1  0.11559559  0.29938489  0.30860694  1
  Mo  Mo213  1  0.19983141  0.79418516  0.20844128  1
  Mo  Mo214  1  0.70277264  0.89411858  0.49791594  1
  Mo  Mo215  1  0.30186287  0.50167888  0.69895241  1
  Mo  Mo216  1  0.90262295  0.49224858  0.90073716  1
  Mo  Mo217  1  0.40039028  -0.00603467  -0.00092084  1
  Mo  Mo218  1  0.89650947  0.70644160  0.90278935  1
  Mo  Mo219  1  0.60085778  0.79700909  0.60142037  1
  Mo  Mo220  1  0.50278779  0.70618381  0.30435864  1
  Mo  Mo221  1  0.60023995  0.20135089  0.00550674  1
  Mo  Mo222  1  -0.00072975  0.60768418  0.39597512  1
  Mo  Mo223  1  0.28430169  0.70160240  0.50003632  1
  Mo  Mo224  1  0.70327406  0.29343047  0.49246656  1
  Mo  Mo225  1  0.09746356  0.90118643  0.30780445  1
  Mo  Mo226  1  0.79936385  0.39913212  0.80573502  1
  Mo  Mo227  1  -0.00277940  0.39944708  -0.01128415  1
  Mo  Mo228  1  0.80462857  0.40564508  0.60050635  1
  Mo  Mo229  1  0.79849244  0.00518531  0.39742846  1
  Mo  Mo230  1  0.29867501  0.49393478  0.10489139  1
  Mo  Mo231  1  0.89811891  0.09986477  0.49572414  1
  Mo  Mo232  1  0.00117227  0.00533348  0.60555404  1
  Mo  Mo233  1  0.29591824  0.10326863  0.49720852  1
  Mo  Mo234  1  0.49824817  0.29937089  0.10176509  1
  Mo  Mo235  1  0.30778012  0.89609443  0.10791082  1
  Mo  Mo236  1  0.10475137  0.10010104  0.31213334  1
  Mo  Mo237  1  0.50248382  0.49944791  0.90273520  1
  Mo  Mo238  1  0.89393554  0.10286476  0.30262781  1
  Mo  Mo239  1  0.29267094  0.50104316  0.49232090  1
  Mo  Mo240  1  0.69442559  0.89541624  0.90711124  1
  Mo  Mo241  1  0.50198773  0.71185310  0.09996987  1
  Mo  Mo242  1  0.60310768  0.59857798  0.00431985  1
  Mo  Mo243  1  0.20202732  0.39709333  0.40036846  1
  Mo  Mo244  1  0.29218353  0.89710161  0.50375173  1
  Mo  Mo245  1  0.50062370  0.49571888  0.29710653  1
  Mo  Mo246  1  0.40461720  -0.01620620  0.79513469  1
  Mo  Mo247  1  0.10052582  0.69542689  0.69811608  1
  Mo  Mo248  1  0.20674801  0.40250331  0.20047477  1
  Mo  Mo249  1  0.19953075  0.60323704  0.80728813  1
