# generated using pymatgen
data_HfZrTaTiMo
_symmetry_space_group_name_H-M   'P 1'
_cell_length_a   16.88691508
_cell_length_b   16.87444682
_cell_length_c   16.87325808
_cell_angle_alpha   89.98436099
_cell_angle_beta   89.96439483
_cell_angle_gamma   89.97149581
_symmetry_Int_Tables_number   1
_chemical_formula_structural   HfZrTaTiMo
_chemical_formula_sum   'Hf50 Zr50 Ta50 Ti50 Mo50'
_cell_volume   4808.15721238
_cell_formula_units_Z   50
loop_
 _symmetry_equiv_pos_site_id
 _symmetry_equiv_pos_as_xyz
  1  'x, y, z'
loop_
 _atom_site_type_symbol
 _atom_site_label
 _atom_site_symmetry_multiplicity
 _atom_site_fract_x
 _atom_site_fract_y
 _atom_site_fract_z
 _atom_site_occupancy
  Hf  Hf0  1  0.50221146  0.70116833  0.30728593  1
  Hf  Hf1  1  0.19622206  0.39036125  0.01240915  1
  Hf  Hf2  1  0.38913723  0.41381059  0.79349666  1
  Hf  Hf3  1  0.79588936  0.80171570  0.41330132  1
  Hf  Hf4  1  0.69826580  0.90469721  0.31318788  1
  Hf  Hf5  1  0.21581879  0.58775079  0.78658298  1
  Hf  Hf6  1  -0.00432515  0.59043882  0.79414659  1
  Hf  Hf7  1  -0.00345022  0.20196564  0.40291425  1
  Hf  Hf8  1  0.59431171  0.19842964  0.80204321  1
  Hf  Hf9  1  0.19562622  -0.00085849  0.79206138  1
  Hf  Hf10  1  0.39567414  0.20841326  -0.00044993  1
  Hf  Hf11  1  -0.00898677  0.20027099  -0.00382218  1
  Hf  Hf12  1  0.20182868  0.00746513  0.20436404  1
  Hf  Hf13  1  0.30518305  0.09804263  0.69299795  1
  Hf  Hf14  1  0.50342999  0.29770132  0.10461192  1
  Hf  Hf15  1  0.10405421  0.49189973  0.30389824  1
  Hf  Hf16  1  0.09689047  0.70984990  0.50900271  1
  Hf  Hf17  1  0.69783945  0.30130398  0.70381516  1
  Hf  Hf18  1  0.49321946  0.29707557  0.29923298  1
  Hf  Hf19  1  0.78638469  0.20027070  0.40486448  1
  Hf  Hf20  1  0.31958595  0.69586507  0.88917011  1
  Hf  Hf21  1  0.80445304  0.59770512  0.60009970  1
  Hf  Hf22  1  0.50238998  0.10376655  0.09691039  1
  Hf  Hf23  1  0.30808545  0.90792436  0.31069097  1
  Hf  Hf24  1  0.50096070  0.69777288  0.09825573  1
  Hf  Hf25  1  0.88666813  0.10942981  0.88509572  1
  Hf  Hf26  1  0.30516893  0.29563239  0.49636692  1
  Hf  Hf27  1  0.60298677  0.59830079  0.80354891  1
  Hf  Hf28  1  -0.00264740  0.19486407  0.60587468  1
  Hf  Hf29  1  0.39102635  0.59898802  0.60065706  1
  Hf  Hf30  1  0.50463938  0.90455643  0.89823258  1
  Hf  Hf31  1  0.89886574  0.69416896  0.30339947  1
  Hf  Hf32  1  0.19466267  0.20072738  -0.00280897  1
  Hf  Hf33  1  0.19849471  0.60365537  0.20496893  1
  Hf  Hf34  1  0.79774539  0.80098551  0.00610787  1
  Hf  Hf35  1  0.30593919  0.90810981  0.08937153  1
  Hf  Hf36  1  0.40337836  0.40602110  0.41014862  1
  Hf  Hf37  1  0.39731789  0.40414087  0.00339779  1
  Hf  Hf38  1  0.30536044  0.09483683  0.89814168  1
  Hf  Hf39  1  0.88963638  0.50289806  0.29359096  1
  Hf  Hf40  1  0.20234064  0.80087750  0.20114747  1
  Hf  Hf41  1  0.49188944  0.70684016  0.69979195  1
  Hf  Hf42  1  0.00335652  0.58605752  0.00208053  1
  Hf  Hf43  1  0.30594125  0.70198969  0.09881429  1
  Hf  Hf44  1  0.09310194  0.69288305  0.68442477  1
  Hf  Hf45  1  0.09877414  0.30016804  0.29609407  1
  Hf  Hf46  1  0.60252555  0.39671845  0.40842254  1
  Hf  Hf47  1  0.79889363  0.80228642  0.19705561  1
  Hf  Hf48  1  0.60522292  0.80063830  0.19158562  1
  Hf  Hf49  1  0.59364326  0.19746196  0.60156499  1
  Zr  Zr50  1  0.08697213  0.10437326  0.10492891  1
  Zr  Zr51  1  0.09378494  0.89862248  0.09722640  1
  Zr  Zr52  1  0.40595030  0.20206837  0.79052611  1
  Zr  Zr53  1  0.59915375  0.59048279  0.39985011  1
  Zr  Zr54  1  0.80058463  0.60141840  0.79963448  1
  Zr  Zr55  1  -0.00456881  0.39275215  0.59459020  1
  Zr  Zr56  1  0.00412051  -0.00119605  0.40254925  1
  Zr  Zr57  1  0.89344700  0.30885531  0.29734953  1
  Zr  Zr58  1  0.09677324  0.69847116  0.89593419  1
  Zr  Zr59  1  0.80494409  0.79966488  0.61253023  1
  Zr  Zr60  1  0.69637536  0.49330493  0.69435181  1
  Zr  Zr61  1  0.20845003  0.79580049  0.79482070  1
  Zr  Zr62  1  0.11211256  0.09584986  0.49281401  1
  Zr  Zr63  1  0.70540451  0.30245170  0.09345812  1
  Zr  Zr64  1  0.89475851  0.09732995  0.30423681  1
  Zr  Zr65  1  0.20093252  0.80007893  -0.00771053  1
  Zr  Zr66  1  0.49287300  0.10152049  0.30738841  1
  Zr  Zr67  1  0.09075581  0.70010858  0.30479150  1
  Zr  Zr68  1  0.10789403  0.48308905  0.89087434  1
  Zr  Zr69  1  0.70216031  0.69459613  0.30633485  1
  Zr  Zr70  1  0.28976948  0.30792178  0.88891532  1
  Zr  Zr71  1  0.10131432  0.88379354  0.68496532  1
  Zr  Zr72  1  0.91092253  0.70037407  0.50650415  1
  Zr  Zr73  1  0.19858099  0.19912993  0.60433148  1
  Zr  Zr74  1  -0.00037432  0.58887866  0.40700257  1
  Zr  Zr75  1  0.80119924  0.19392195  0.19419509  1
  Zr  Zr76  1  0.69255573  0.90696160  0.70309261  1
  Zr  Zr77  1  0.89107515  0.29285269  0.71156279  1
  Zr  Zr78  1  0.10733993  0.30794325  0.49167584  1
  Zr  Zr79  1  0.00067199  0.00446887  0.60710235  1
  Zr  Zr80  1  0.19961638  0.80646707  0.40975983  1
  Zr  Zr81  1  0.49732301  0.50531228  0.89870082  1
  Zr  Zr82  1  0.29946207  0.49969053  0.11026786  1
  Zr  Zr83  1  0.09801999  0.90461004  0.30529500  1
  Zr  Zr84  1  0.21274990  0.20184895  0.19385507  1
  Zr  Zr85  1  0.20350951  0.59323839  -0.00404659  1
  Zr  Zr86  1  0.50402616  0.89769437  0.30795389  1
  Zr  Zr87  1  0.89259920  0.69581528  0.90767300  1
  Zr  Zr88  1  0.59699052  0.20377357  0.41119204  1
  Zr  Zr89  1  0.00100044  0.00463993  0.79845097  1
  Zr  Zr90  1  0.50110267  0.70035277  0.90025490  1
  Zr  Zr91  1  0.79751436  -0.00031046  0.19806248  1
  Zr  Zr92  1  -0.02164189  0.79550215  0.79189525  1
  Zr  Zr93  1  0.40411167  0.00152772  0.19629892  1
  Zr  Zr94  1  0.69116758  0.70091868  0.69775002  1
  Zr  Zr95  1  0.41699593  0.00488520  0.59909540  1
  Zr  Zr96  1  0.90380119  0.68573370  0.10745525  1
  Zr  Zr97  1  0.18643270  0.00271406  -0.01484274  1
  Zr  Zr98  1  0.70913013  0.90760251  0.89181627  1
  Zr  Zr99  1  0.60306240  0.41071796  0.19864399  1
  Ta  Ta100  1  0.69997423  0.09546170  0.70735691  1
  Ta  Ta101  1  -0.01087474  0.00230573  -0.00862636  1
  Ta  Ta102  1  0.19001166  0.19436605  0.79603111  1
  Ta  Ta103  1  0.50411150  0.30741653  0.90018376  1
  Ta  Ta104  1  0.21126324  0.40689892  0.59894322  1
  Ta  Ta105  1  0.70483589  0.30900791  0.29934912  1
  Ta  Ta106  1  0.20501736  -0.00903633  0.59354693  1
  Ta  Ta107  1  0.31014290  0.09705656  0.48992310  1
  Ta  Ta108  1  -0.00859480  0.80763500  0.20273284  1
  Ta  Ta109  1  0.31401648  0.89014168  0.69254251  1
  Ta  Ta110  1  0.89111056  0.49261334  0.09758889  1
  Ta  Ta111  1  0.60175934  0.80066116  0.80446816  1
  Ta  Ta112  1  0.60067552  0.59390778  0.19458636  1
  Ta  Ta113  1  0.09987132  0.49354236  0.69050506  1
  Ta  Ta114  1  0.61058455  0.59767025  0.00917516  1
  Ta  Ta115  1  0.30904548  0.69959457  0.30622307  1
  Ta  Ta116  1  0.69960688  0.10463520  0.08863639  1
  Ta  Ta117  1  0.79482124  0.19516959  0.60189122  1
  Ta  Ta118  1  0.69151371  0.69681747  0.50370382  1
  Ta  Ta119  1  0.89027264  0.09645929  0.50189297  1
  Ta  Ta120  1  0.80001156  0.00072799  0.60411437  1
  Ta  Ta121  1  0.40442308  0.59940001  0.20576055  1
  Ta  Ta122  1  0.89966534  0.49058274  0.69712157  1
  Ta  Ta123  1  0.30626009  0.30381116  0.30042526  1
  Ta  Ta124  1  0.90250169  0.90274255  0.50326622  1
  Ta  Ta125  1  0.60224957  0.00405841  0.41086778  1
  Ta  Ta126  1  0.49368815  0.50192587  0.29919808  1
  Ta  Ta127  1  -0.00404513  0.39158317  0.00074750  1
  Ta  Ta128  1  0.50554725  0.89854634  0.50047577  1
  Ta  Ta129  1  0.60064975  0.40678836  -0.00143680  1
  Ta  Ta130  1  0.40282684  0.80042147  0.19885579  1
  Ta  Ta131  1  0.60423030  0.00454046  -0.00181636  1
  Ta  Ta132  1  0.20812881  0.19848426  0.39023841  1
  Ta  Ta133  1  0.69929528  0.09102515  0.50803304  1
  Ta  Ta134  1  0.40714961  0.80672295  0.00039365  1
  Ta  Ta135  1  -0.01124949  0.00251343  0.19656640  1
  Ta  Ta136  1  -0.00330387  0.39438742  0.80113974  1
  Ta  Ta137  1  0.59260274  0.39672893  0.59213022  1
  Ta  Ta138  1  0.40826887  0.00062817  0.79362239  1
  Ta  Ta139  1  0.50414155  0.70412335  0.50492212  1
  Ta  Ta140  1  0.50115539  0.50389690  0.69533993  1
  Ta  Ta141  1  0.61112779  0.19316369  0.20898768  1
  Ta  Ta142  1  0.60757953  0.00740645  0.20058713  1
  Ta  Ta143  1  0.30912643  0.90407695  0.50135707  1
  Ta  Ta144  1  -0.00589997  0.39962742  0.19292132  1
  Ta  Ta145  1  0.30040797  0.49924981  0.30647265  1
  Ta  Ta146  1  0.60645710  0.80077817  0.00218293  1
  Ta  Ta147  1  0.10952291  0.49959981  0.50126331  1
  Ta  Ta148  1  0.89420388  0.48879006  0.90545544  1
  Ta  Ta149  1  0.80508159  0.00699012  -0.00117758  1
  Ti  Ti150  1  0.39571631  0.59901110  0.40670577  1
  Ti  Ti151  1  0.31499051  0.90174253  0.89380359  1
  Ti  Ti152  1  0.00885259  0.19258899  0.79155288  1
  Ti  Ti153  1  0.40300240  0.59180301  0.00550923  1
  Ti  Ti154  1  0.89293634  0.30095718  0.09668018  1
  Ti  Ti155  1  0.40372866  0.79913821  0.40734254  1
  Ti  Ti156  1  0.88793382  0.30015347  0.49707351  1
  Ti  Ti157  1  0.39873685  0.40506794  0.59786928  1
  Ti  Ti158  1  0.20894513  0.59823530  0.59588545  1
  Ti  Ti159  1  0.29816100  0.30291259  0.69722764  1
  Ti  Ti160  1  0.49897052  0.09608703  0.90266042  1
  Ti  Ti161  1  0.09099571  0.69991678  0.10421335  1
  Ti  Ti162  1  0.50539262  0.89981362  0.70303700  1
  Ti  Ti163  1  0.69718263  0.90954058  0.09500206  1
  Ti  Ti164  1  0.60144078  0.20250923  -0.00659453  1
  Ti  Ti165  1  0.08705694  0.89223757  0.89466135  1
  Ti  Ti166  1  0.09648237  0.29817380  0.89065196  1
  Ti  Ti167  1  0.70125372  0.10192481  0.89717406  1
  Ti  Ti168  1  0.90118032  0.90532286  0.09563231  1
  Ti  Ti169  1  0.79353418  0.39304371  0.59115410  1
  Ti  Ti170  1  0.59876713  0.40264362  0.80499786  1
  Ti  Ti171  1  0.30576435  0.71004148  0.50645226  1
  Ti  Ti172  1  0.40155630  0.40453635  0.19843225  1
  Ti  Ti173  1  0.09411223  0.49609797  0.11056171  1
  Ti  Ti174  1  0.60041631  0.80776180  0.59535142  1
  Ti  Ti175  1  0.08768137  0.29520615  0.10931118  1
  Ti  Ti176  1  0.88752858  0.29845519  0.89904962  1
  Ti  Ti177  1  0.70770341  0.49685007  0.90933546  1
  Ti  Ti178  1  0.31155491  0.10391360  0.30842360  1
  Ti  Ti179  1  0.41414939  0.20090792  0.59427274  1
  Ti  Ti180  1  0.89135672  0.49451273  0.49620874  1
  Ti  Ti181  1  0.78468909  0.59881446  0.18988862  1
  Ti  Ti182  1  0.10290574  0.30651837  0.70333374  1
  Ti  Ti183  1  0.30826045  0.09775549  0.09217952  1
  Ti  Ti184  1  0.79807323  0.40096855  0.80434597  1
  Ti  Ti185  1  -0.00734175  0.80320324  0.00067029  1
  Ti  Ti186  1  0.49885115  0.31198207  0.69935002  1
  Ti  Ti187  1  0.71220901  0.49628637  0.30526551  1
  Ti  Ti188  1  0.70261644  0.70150091  0.90501516  1
  Ti  Ti189  1  0.20318555  0.39469265  0.20002900  1
  Ti  Ti190  1  0.88703725  0.90872898  0.71181816  1
  Ti  Ti191  1  0.89874125  0.89930648  0.31160665  1
  Ti  Ti192  1  0.70410199  0.50189596  0.49991743  1
  Ti  Ti193  1  0.50375854  0.90587306  0.09385537  1
  Ti  Ti194  1  0.09567026  0.10604172  0.29526454  1
  Ti  Ti195  1  0.71033180  0.49504003  0.09282099  1
  Ti  Ti196  1  0.70377376  0.30006970  0.90222896  1
  Ti  Ti197  1  -0.00591369  0.40079636  0.40164903  1
  Ti  Ti198  1  0.50167838  0.50773512  0.50760760  1
  Ti  Ti199  1  0.20998906  0.59898872  0.40877030  1
  Mo  Mo200  1  0.69952841  0.90261473  0.50638192  1
  Mo  Mo201  1  0.59537303  0.00845459  0.80155365  1
  Mo  Mo202  1  0.40980550  0.00156695  -0.00677697  1
  Mo  Mo203  1  0.30713854  0.30099731  0.11170619  1
  Mo  Mo204  1  0.30033194  0.50368124  0.90226639  1
  Mo  Mo205  1  0.79953087  0.40431984  0.19580458  1
  Mo  Mo206  1  0.09208872  0.10727607  0.89369204  1
  Mo  Mo207  1  0.39710019  0.20256414  0.19877185  1
  Mo  Mo208  1  0.21891741  0.79686359  0.59727659  1
  Mo  Mo209  1  0.30241159  0.70267032  0.69197867  1
  Mo  Mo210  1  0.00351833  0.59053444  0.19502173  1
  Mo  Mo211  1  -0.00098395  0.57989960  0.60005005  1
  Mo  Mo212  1  0.80098785  0.39617261  -0.00542120  1
  Mo  Mo213  1  0.50279890  0.09888622  0.50216592  1
  Mo  Mo214  1  0.90098446  0.68830573  0.69783627  1
  Mo  Mo215  1  0.50213296  0.50325056  0.10276339  1
  Mo  Mo216  1  0.49388193  0.30255893  0.50912758  1
  Mo  Mo217  1  0.10927020  0.09684907  0.69629711  1
  Mo  Mo218  1  0.40836557  0.80350146  0.59651195  1
  Mo  Mo219  1  0.40007756  0.59732298  0.79066814  1
  Mo  Mo220  1  0.79462681  0.40179710  0.40756252  1
  Mo  Mo221  1  -0.01275101  0.81264360  0.60134496  1
  Mo  Mo222  1  0.69451754  0.09776934  0.30612276  1
  Mo  Mo223  1  0.79937566  0.00655646  0.79851033  1
  Mo  Mo224  1  0.79504361  0.20170965  -0.00701717  1
  Mo  Mo225  1  0.20798924  0.39982510  0.39864340  1
  Mo  Mo226  1  0.40700719  0.00136075  0.40741405  1
  Mo  Mo227  1  0.19606101  0.39280113  0.78565741  1
  Mo  Mo228  1  0.10413092  0.89737909  0.50286485  1
  Mo  Mo229  1  0.79363369  0.59181698  0.00107114  1
  Mo  Mo230  1  0.70221415  0.30101496  0.50810906  1
  Mo  Mo231  1  0.60329908  -0.00040927  0.60169277  1
  Mo  Mo232  1  0.29704453  0.50309833  0.49646470  1
  Mo  Mo233  1  0.78410943  0.20269977  0.79894782  1
  Mo  Mo234  1  0.20854473  0.00725291  0.40126703  1
  Mo  Mo235  1  0.69833809  0.69562700  0.09806518  1
  Mo  Mo236  1  0.39790633  0.20186243  0.40176432  1
  Mo  Mo237  1  -0.00647736  0.80772446  0.40130506  1
  Mo  Mo238  1  0.89506580  0.09863760  0.09108782  1
  Mo  Mo239  1  -0.00556331  0.20297050  0.19572751  1
  Mo  Mo240  1  0.60181511  0.80109152  0.41414285  1
  Mo  Mo241  1  0.79575497  0.59578210  0.41165475  1
  Mo  Mo242  1  0.88857614  0.10165532  0.69784049  1
  Mo  Mo243  1  0.40610784  0.81001153  0.79748082  1
  Mo  Mo244  1  0.50662368  0.09567659  0.70244413  1
  Mo  Mo245  1  0.89779358  0.90288449  0.90420007  1
  Mo  Mo246  1  0.79556447  0.80186698  0.80601544  1
  Mo  Mo247  1  0.30072531  0.49736769  0.69065727  1
  Mo  Mo248  1  0.79593230  -0.00241731  0.41176042  1
  Mo  Mo249  1  0.59451994  0.59403413  0.59609094  1
