# generated using pymatgen
data_HfZrTaTiMo
_symmetry_space_group_name_H-M   'P 1'
_cell_length_a   16.89307728
_cell_length_b   16.88414321
_cell_length_c   16.87868178
_cell_angle_alpha   90.02940516
_cell_angle_beta   90.02991571
_cell_angle_gamma   89.98513942
_symmetry_Int_Tables_number   1
_chemical_formula_structural   HfZrTaTiMo
_chemical_formula_sum   'Hf50 Zr50 Ta50 Ti50 Mo50'
_cell_volume   4814.22285350
_cell_formula_units_Z   50
loop_
 _symmetry_equiv_pos_site_id
 _symmetry_equiv_pos_as_xyz
  1  'x, y, z'
loop_
 _atom_site_type_symbol
 _atom_site_label
 _atom_site_symmetry_multiplicity
 _atom_site_fract_x
 _atom_site_fract_y
 _atom_site_fract_z
 _atom_site_occupancy
  Hf  Hf0  1  0.59413050  0.41144351  -0.00568172  1
  Hf  Hf1  1  0.30806564  0.09802913  0.90434816  1
  Hf  Hf2  1  0.79479941  0.18186672  0.00203276  1
  Hf  Hf3  1  0.49596337  0.09544269  0.09786654  1
  Hf  Hf4  1  0.89325122  0.30245348  0.70594852  1
  Hf  Hf5  1  0.70238934  0.30983952  0.89896893  1
  Hf  Hf6  1  0.00207452  0.19916019  0.59764907  1
  Hf  Hf7  1  0.40137390  0.40118244  0.39835296  1
  Hf  Hf8  1  0.00914266  0.39729961  0.80544039  1
  Hf  Hf9  1  0.79083429  0.18819160  0.79177621  1
  Hf  Hf10  1  0.01695569  0.01317346  0.40437300  1
  Hf  Hf11  1  0.61253354  -0.01352975  0.00044046  1
  Hf  Hf12  1  0.20538956  -0.01037151  0.00045855  1
  Hf  Hf13  1  0.10806807  0.09850773  0.89413937  1
  Hf  Hf14  1  0.30249167  0.09678341  0.30711094  1
  Hf  Hf15  1  0.89597944  0.50949784  0.89536197  1
  Hf  Hf16  1  0.80437065  -0.00181164  0.19220672  1
  Hf  Hf17  1  0.10528934  0.29968209  0.49931080  1
  Hf  Hf18  1  0.89803129  0.51218608  0.50960428  1
  Hf  Hf19  1  0.68611032  0.90653614  0.71164817  1
  Hf  Hf20  1  0.90525901  0.90159129  0.69890340  1
  Hf  Hf21  1  -0.00078599  0.00498059  0.00977393  1
  Hf  Hf22  1  0.49481197  0.30175805  0.69923265  1
  Hf  Hf23  1  0.58964121  0.40660219  0.59845606  1
  Hf  Hf24  1  0.10702859  0.90070242  0.30408313  1
  Hf  Hf25  1  0.68833202  0.09731856  0.48828538  1
  Hf  Hf26  1  0.80107560  0.60837785  0.19318049  1
  Hf  Hf27  1  0.59441272  0.20098487  0.20446491  1
  Hf  Hf28  1  0.30253275  0.29387239  0.49822218  1
  Hf  Hf29  1  0.21462470  0.61209167  0.59606419  1
  Hf  Hf30  1  0.49825959  0.08722876  0.71450490  1
  Hf  Hf31  1  0.20665209  0.19809370  0.00847847  1
  Hf  Hf32  1  0.68686938  0.50955460  0.10263317  1
  Hf  Hf33  1  0.68912679  0.50605196  0.49523594  1
  Hf  Hf34  1  0.10278335  0.30142550  0.29358726  1
  Hf  Hf35  1  0.79894131  0.80221767  0.39866478  1
  Hf  Hf36  1  0.39596146  0.20646424  0.80351920  1
  Hf  Hf37  1  0.89843468  0.30251650  0.09228053  1
  Hf  Hf38  1  0.40197018  -0.00631146  0.59904846  1
  Hf  Hf39  1  0.10713102  0.50201283  0.29570277  1
  Hf  Hf40  1  0.60271192  0.19673064  0.80354664  1
  Hf  Hf41  1  0.01101731  0.18732467  0.18234118  1
  Hf  Hf42  1  0.20789530  0.40033892  0.80056754  1
  Hf  Hf43  1  0.39358164  0.19898833  0.19732413  1
  Hf  Hf44  1  0.79610561  0.60572009  0.39486047  1
  Hf  Hf45  1  0.79159539  0.80624243  0.60284078  1
  Hf  Hf46  1  0.89653876  0.70442870  0.51173141  1
  Hf  Hf47  1  0.11015436  0.49734487  0.10195753  1
  Hf  Hf48  1  0.89840496  0.70488972  0.89985483  1
  Hf  Hf49  1  0.59406186  0.78827893  0.81351058  1
  Zr  Zr50  1  0.29673599  0.68792962  0.30558325  1
  Zr  Zr51  1  0.39901437  0.79733002  0.20156401  1
  Zr  Zr52  1  0.90861603  0.89876282  0.30123864  1
  Zr  Zr53  1  0.10581851  0.09103348  0.69738624  1
  Zr  Zr54  1  0.00572424  0.60802484  0.79536675  1
  Zr  Zr55  1  0.20752187  0.80748490  0.19547369  1
  Zr  Zr56  1  0.68806938  0.89902679  0.48619617  1
  Zr  Zr57  1  0.90971771  0.29423331  0.29558218  1
  Zr  Zr58  1  -0.00282609  0.39931750  0.60530392  1
  Zr  Zr59  1  0.90559461  0.71030807  0.29176529  1
  Zr  Zr60  1  0.30253793  0.69066346  0.09911985  1
  Zr  Zr61  1  0.60562966  0.58568164  0.80012826  1
  Zr  Zr62  1  0.59801757  0.19523060  0.60190559  1
  Zr  Zr63  1  0.59059275  0.79902426  0.60267405  1
  Zr  Zr64  1  0.79411083  0.19019875  0.20340515  1
  Zr  Zr65  1  0.49277704  0.09036103  0.90612281  1
  Zr  Zr66  1  0.80134473  0.00576126  0.39069191  1
  Zr  Zr67  1  0.68152785  0.50505679  0.29241623  1
  Zr  Zr68  1  0.20537845  0.00580950  0.19035404  1
  Zr  Zr69  1  -0.00465275  0.39512880  0.40792974  1
  Zr  Zr70  1  0.79494626  0.39944552  0.59665247  1
  Zr  Zr71  1  0.00412588  0.61072704  0.40272890  1
  Zr  Zr72  1  0.11308607  0.50636055  0.70040443  1
  Zr  Zr73  1  0.41044766  0.78436829  -0.00656287  1
  Zr  Zr74  1  0.89028680  0.30621287  0.89621405  1
  Zr  Zr75  1  0.50385729  0.89661212  0.30648253  1
  Zr  Zr76  1  0.89900386  0.09335502  0.89392832  1
  Zr  Zr77  1  0.00789989  0.20459623  -0.00654908  1
  Zr  Zr78  1  0.69557202  0.30914819  0.10199096  1
  Zr  Zr79  1  0.29614162  0.09357734  0.70797073  1
  Zr  Zr80  1  0.49530234  0.69726801  0.49951354  1
  Zr  Zr81  1  0.79677975  0.39567074  0.40190537  1
  Zr  Zr82  1  0.90964728  0.50475492  0.29377645  1
  Zr  Zr83  1  0.60212797  0.19667998  -0.00135490  1
  Zr  Zr84  1  0.10911572  0.50563754  0.49972016  1
  Zr  Zr85  1  0.71123058  0.69769485  0.90696201  1
  Zr  Zr86  1  0.01242930  0.79503792  0.60765080  1
  Zr  Zr87  1  0.20423520  0.79602968  0.40752202  1
  Zr  Zr88  1  0.39970056  0.39780804  0.21238537  1
  Zr  Zr89  1  0.00448530  0.60256407  0.00614319  1
  Zr  Zr90  1  0.58430815  0.61295756  -0.00354163  1
  Zr  Zr91  1  0.79602508  0.20351117  0.39794472  1
  Zr  Zr92  1  0.80291912  0.40765004  0.19735394  1
  Zr  Zr93  1  0.79551462  0.19988610  0.59592510  1
  Zr  Zr94  1  0.89314629  0.89650957  0.90776651  1
  Zr  Zr95  1  0.29550200  0.09493854  0.50027334  1
  Zr  Zr96  1  0.20099296  0.80306311  0.80589325  1
  Zr  Zr97  1  0.51337325  0.88971485  0.10386384  1
  Zr  Zr98  1  0.59076330  0.00109029  0.59631854  1
  Zr  Zr99  1  0.00396099  0.00455362  0.19504475  1
  Ta  Ta100  1  0.69421219  0.30777831  0.70317031  1
  Ta  Ta101  1  0.49337262  0.50418314  0.11088453  1
  Ta  Ta102  1  0.90558623  0.09183219  0.69859879  1
  Ta  Ta103  1  0.49131197  0.69497718  0.70252450  1
  Ta  Ta104  1  0.30093283  0.49788600  0.10128559  1
  Ta  Ta105  1  0.58256986  0.39866870  0.39330801  1
  Ta  Ta106  1  0.11167349  0.50386119  0.90050274  1
  Ta  Ta107  1  0.30087837  0.90080913  0.49979487  1
  Ta  Ta108  1  0.30169287  0.30101794  0.69372666  1
  Ta  Ta109  1  0.90598889  0.09770500  0.50331991  1
  Ta  Ta110  1  0.78171470  0.42484015  0.79425903  1
  Ta  Ta111  1  0.30328999  0.50194775  0.90455168  1
  Ta  Ta112  1  0.68630722  0.70856393  0.29683842  1
  Ta  Ta113  1  0.69071334  0.71323640  0.10277367  1
  Ta  Ta114  1  0.20988800  0.80131063  0.60253756  1
  Ta  Ta115  1  0.00867863  0.80458591  0.41091512  1
  Ta  Ta116  1  0.00772867  -0.00795507  0.80175606  1
  Ta  Ta117  1  0.59471106  0.40706903  0.79978330  1
  Ta  Ta118  1  0.68677030  0.89966401  0.28959130  1
  Ta  Ta119  1  0.11026919  0.30942920  0.10064275  1
  Ta  Ta120  1  0.20828291  0.40071122  0.39582094  1
  Ta  Ta121  1  0.30766622  0.30856314  0.90886831  1
  Ta  Ta122  1  0.10170483  0.89414932  0.09400339  1
  Ta  Ta123  1  0.11020086  0.91201949  0.51010910  1
  Ta  Ta124  1  0.00702375  0.40400714  -0.00392695  1
  Ta  Ta125  1  0.50106796  0.89819379  0.89791516  1
  Ta  Ta126  1  0.49815316  0.09368114  0.30100083  1
  Ta  Ta127  1  0.30221789  0.50576539  0.49659596  1
  Ta  Ta128  1  0.69626001  0.69656676  0.69980237  1
  Ta  Ta129  1  0.39436900  -0.00621781  0.19536060  1
  Ta  Ta130  1  0.68960307  0.69680845  0.49772953  1
  Ta  Ta131  1  0.40190739  0.59365035  0.39932783  1
  Ta  Ta132  1  0.31019287  0.70046397  0.70435801  1
  Ta  Ta133  1  0.09990799  0.69978591  0.29561811  1
  Ta  Ta134  1  0.20283413  0.19682496  0.19523847  1
  Ta  Ta135  1  0.48480244  0.49690710  0.90024679  1
  Ta  Ta136  1  0.90944188  0.90869001  0.50633035  1
  Ta  Ta137  1  0.79518170  0.80109474  0.79774368  1
  Ta  Ta138  1  0.58849687  0.59481487  0.60437023  1
  Ta  Ta139  1  0.79656828  0.00503239  0.60162651  1
  Ta  Ta140  1  0.20357293  0.60245797  -0.00277626  1
  Ta  Ta141  1  0.49352888  0.29246132  0.49548668  1
  Ta  Ta142  1  0.49324063  0.30759680  0.09580282  1
  Ta  Ta143  1  0.48857449  0.89353424  0.71568091  1
  Ta  Ta144  1  0.18786859  0.18951879  0.39793349  1
  Ta  Ta145  1  0.40044632  0.40922258  0.59776250  1
  Ta  Ta146  1  0.20121265  0.19848743  0.60105440  1
  Ta  Ta147  1  0.49088004  0.30647935  0.90586698  1
  Ta  Ta148  1  0.89481283  0.71581713  0.09209259  1
  Ta  Ta149  1  0.00758137  0.20342170  0.79694749  1
  Ti  Ti150  1  0.50272054  0.69512861  0.29226876  1
  Ti  Ti151  1  0.39602912  0.79259725  0.40230528  1
  Ti  Ti152  1  0.20033510  0.21400047  0.80497004  1
  Ti  Ti153  1  0.40820725  0.00420545  0.40709529  1
  Ti  Ti154  1  0.79596167  0.80841072  0.19258459  1
  Ti  Ti155  1  0.58694982  0.59876226  0.39677420  1
  Ti  Ti156  1  0.39385500  -0.01402017  0.01038879  1
  Ti  Ti157  1  0.89484645  0.51075966  0.70097730  1
  Ti  Ti158  1  0.40172040  0.19241223  0.59826175  1
  Ti  Ti159  1  0.68622760  0.30874497  0.29776807  1
  Ti  Ti160  1  0.49806433  0.89367342  0.49103148  1
  Ti  Ti161  1  0.89060539  0.69865865  0.70438126  1
  Ti  Ti162  1  0.10732489  0.70089018  0.49843490  1
  Ti  Ti163  1  0.00839188  0.80490354  0.80325998  1
  Ti  Ti164  1  0.69903908  0.07747958  0.89215413  1
  Ti  Ti165  1  0.20180395  -0.01597456  0.80747118  1
  Ti  Ti166  1  0.78557125  0.59986220  0.60888484  1
  Ti  Ti167  1  0.30163593  0.31135610  0.09806230  1
  Ti  Ti168  1  0.30465563  0.89631593  0.70334202  1
  Ti  Ti169  1  0.10882089  0.29895981  0.69867416  1
  Ti  Ti170  1  0.10539153  0.90500874  0.69607439  1
  Ti  Ti171  1  0.10403184  0.70581285  0.09954498  1
  Ti  Ti172  1  0.20073627  0.40044940  -0.00469241  1
  Ti  Ti173  1  0.30724596  0.50646301  0.69901628  1
  Ti  Ti174  1  0.40152106  0.59793090  0.00201144  1
  Ti  Ti175  1  0.79725546  -0.00462285  0.79677202  1
  Ti  Ti176  1  0.68373482  0.29981228  0.49490865  1
  Ti  Ti177  1  0.30247940  0.69010957  0.89238304  1
  Ti  Ti178  1  0.10774399  0.69940157  0.90034797  1
  Ti  Ti179  1  0.91456947  0.10768810  0.30500973  1
  Ti  Ti180  1  0.80079483  0.41840632  0.00111229  1
  Ti  Ti181  1  0.00271396  0.80384103  0.19061501  1
  Ti  Ti182  1  0.69348006  0.08718995  0.10750310  1
  Ti  Ti183  1  0.30246980  0.90803739  0.31519656  1
  Ti  Ti184  1  0.39863497  0.40370395  0.79496249  1
  Ti  Ti185  1  0.00774187  0.80368853  -0.00144190  1
  Ti  Ti186  1  0.11642711  0.69984994  0.70723331  1
  Ti  Ti187  1  0.21062910  0.40132987  0.59917478  1
  Ti  Ti188  1  0.19948711  0.60186378  0.19662639  1
  Ti  Ti189  1  -0.00106293  0.40400461  0.18661503  1
  Ti  Ti190  1  -0.00074694  0.60654589  0.18892834  1
  Ti  Ti191  1  0.39413903  0.79693001  0.59872198  1
  Ti  Ti192  1  0.29369919  0.29290931  0.30433058  1
  Ti  Ti193  1  0.40329637  0.59683019  0.79896430  1
  Ti  Ti194  1  0.80130553  0.59972692  0.00987440  1
  Ti  Ti195  1  0.31449279  0.89415549  0.89546755  1
  Ti  Ti196  1  0.58796239  0.19937869  0.39260553  1
  Ti  Ti197  1  0.29396333  0.50335991  0.29762757  1
  Ti  Ti198  1  0.00726564  0.60755730  0.60746634  1
  Ti  Ti199  1  0.20488036  0.80138068  -0.00499176  1
  Mo  Mo200  1  0.20445138  0.59735586  0.39972019  1
  Mo  Mo201  1  0.79659376  -0.00519279  0.00739469  1
  Mo  Mo202  1  0.69298410  0.50287399  0.69113140  1
  Mo  Mo203  1  0.90380385  0.89097821  0.09837259  1
  Mo  Mo204  1  0.59081551  0.00117854  0.39414181  1
  Mo  Mo205  1  0.60069670  0.79765364  0.19971167  1
  Mo  Mo206  1  0.30180156  0.89327608  0.08937652  1
  Mo  Mo207  1  0.80098089  0.60462721  0.78798215  1
  Mo  Mo208  1  0.60035218  0.00128595  0.19961228  1
  Mo  Mo209  1  0.90616724  0.28654950  0.49728576  1
  Mo  Mo210  1  0.48979813  0.49940591  0.70369733  1
  Mo  Mo211  1  0.20511388  -0.00900165  0.60484276  1
  Mo  Mo212  1  0.90769210  0.50634580  0.09244499  1
  Mo  Mo213  1  0.49795949  0.29265061  0.30180918  1
  Mo  Mo214  1  0.11126671  0.30433020  0.90147427  1
  Mo  Mo215  1  0.88833394  0.09822642  0.09586520  1
  Mo  Mo216  1  0.39828156  0.79388659  0.80068834  1
  Mo  Mo217  1  0.21295717  0.60204527  0.80437540  1
  Mo  Mo218  1  0.48947984  0.69069908  0.89122871  1
  Mo  Mo219  1  0.10446459  0.10000334  0.50486658  1
  Mo  Mo220  1  0.39726227  0.40697896  0.00621320  1
  Mo  Mo221  1  0.39498118  -0.01216379  0.80503467  1
  Mo  Mo222  1  0.58824576  0.40069717  0.19985362  1
  Mo  Mo223  1  0.49141638  0.10669484  0.49100380  1
  Mo  Mo224  1  0.20384727  -0.00112497  0.40457774  1
  Mo  Mo225  1  0.39707459  0.21194915  0.00453575  1
  Mo  Mo226  1  0.00271880  0.19625647  0.40531115  1
  Mo  Mo227  1  0.40162473  0.20060357  0.39483232  1
  Mo  Mo228  1  0.49536925  0.50679165  0.30005944  1
  Mo  Mo229  1  0.79515524  0.80596994  0.00507129  1
  Mo  Mo230  1  0.10671689  0.10448953  0.29706434  1
  Mo  Mo231  1  0.70174591  0.09267168  0.70236908  1
  Mo  Mo232  1  0.00101280  0.00066291  0.60229145  1
  Mo  Mo233  1  0.49390564  0.49998423  0.49676228  1
  Mo  Mo234  1  0.09485953  0.89595413  0.90278684  1
  Mo  Mo235  1  0.59250968  0.60829749  0.19888130  1
  Mo  Mo236  1  0.30913876  0.09447756  0.09947961  1
  Mo  Mo237  1  0.30889008  0.70260750  0.50369135  1
  Mo  Mo238  1  0.60169907  0.79868922  -0.00074194  1
  Mo  Mo239  1  0.59758395  -0.00734189  0.80816855  1
  Mo  Mo240  1  0.50046941  0.69261447  0.10832389  1
  Mo  Mo241  1  0.70274791  0.89505688  0.90213208  1
  Mo  Mo242  1  0.70451207  0.50345985  0.90768800  1
  Mo  Mo243  1  0.59647734  0.79243803  0.39526504  1
  Mo  Mo244  1  0.11343288  0.10073664  0.09513700  1
  Mo  Mo245  1  0.40080062  0.59567394  0.60353412  1
  Mo  Mo246  1  0.40127331  0.59382191  0.20517027  1
  Mo  Mo247  1  0.68032565  0.08900395  0.29821136  1
  Mo  Mo248  1  0.20838935  0.39565463  0.20126180  1
  Mo  Mo249  1  0.70632539  0.89425123  0.09944723  1
