# generated using pymatgen
data_HfZrTaTiMo
_symmetry_space_group_name_H-M   'P 1'
_cell_length_a   16.88238693
_cell_length_b   16.88552725
_cell_length_c   16.89067578
_cell_angle_alpha   90.04759971
_cell_angle_beta   89.95522949
_cell_angle_gamma   90.05147587
_symmetry_Int_Tables_number   1
_chemical_formula_structural   HfZrTaTiMo
_chemical_formula_sum   'Hf50 Zr50 Ta50 Ti50 Mo50'
_cell_volume   4814.98616717
_cell_formula_units_Z   50
loop_
 _symmetry_equiv_pos_site_id
 _symmetry_equiv_pos_as_xyz
  1  'x, y, z'
loop_
 _atom_site_type_symbol
 _atom_site_label
 _atom_site_symmetry_multiplicity
 _atom_site_fract_x
 _atom_site_fract_y
 _atom_site_fract_z
 _atom_site_occupancy
  Hf  Hf0  1  0.79697687  0.00383192  0.00295731  1
  Hf  Hf1  1  0.49963700  0.31553290  0.90064657  1
  Hf  Hf2  1  0.30509407  0.69410332  0.69896456  1
  Hf  Hf3  1  0.50523153  0.89465009  0.69283904  1
  Hf  Hf4  1  0.88900552  0.49243487  0.29939552  1
  Hf  Hf5  1  0.00189968  0.00040723  0.19952341  1
  Hf  Hf6  1  0.30428651  0.10112221  0.90193532  1
  Hf  Hf7  1  0.90885363  0.11112095  0.50171914  1
  Hf  Hf8  1  0.00832350  -0.00398703  0.00136236  1
  Hf  Hf9  1  0.10985944  0.30415708  0.30048001  1
  Hf  Hf10  1  0.60179733  0.60743732  0.80812888  1
  Hf  Hf11  1  0.30624003  0.89036845  0.90690676  1
  Hf  Hf12  1  0.59800000  0.39420457  0.58500396  1
  Hf  Hf13  1  0.59057482  0.00316806  0.20741731  1
  Hf  Hf14  1  0.91213072  0.68639538  0.69330638  1
  Hf  Hf15  1  0.00715575  0.00459082  0.59868475  1
  Hf  Hf16  1  -0.00132382  0.79164361  -0.00014974  1
  Hf  Hf17  1  0.61191746  0.00790349  0.58895398  1
  Hf  Hf18  1  0.00324138  0.80304703  0.40284881  1
  Hf  Hf19  1  0.49021425  0.70147246  0.10099401  1
  Hf  Hf20  1  0.60310132  0.20694166  0.00311919  1
  Hf  Hf21  1  -0.00319736  0.39265594  -0.00979173  1
  Hf  Hf22  1  0.29927056  0.69597052  0.89869541  1
  Hf  Hf23  1  0.31737299  0.09217656  0.48636247  1
  Hf  Hf24  1  0.69974682  0.90093414  0.10946044  1
  Hf  Hf25  1  0.59902545  0.79985038  -0.00576723  1
  Hf  Hf26  1  0.41067899  -0.00792846  0.80614647  1
  Hf  Hf27  1  0.88702613  0.88600859  0.10605670  1
  Hf  Hf28  1  0.59713894  0.79774452  0.80176325  1
  Hf  Hf29  1  -0.00525149  0.39524600  0.39951738  1
  Hf  Hf30  1  0.20008688  0.79597841  0.41279084  1
  Hf  Hf31  1  0.19598145  0.00322781  0.59457367  1
  Hf  Hf32  1  0.70289826  0.90205462  0.89888500  1
  Hf  Hf33  1  0.38608804  0.40948829  0.00804055  1
  Hf  Hf34  1  0.10741627  0.89619077  0.29076779  1
  Hf  Hf35  1  0.19569970  -0.00484669  0.80209157  1
  Hf  Hf36  1  0.19483248  0.79309634  0.80098806  1
  Hf  Hf37  1  0.69204615  0.49375592  0.70306420  1
  Hf  Hf38  1  0.80586708  0.01270786  0.78765453  1
  Hf  Hf39  1  0.29413057  0.10065736  0.10837001  1
  Hf  Hf40  1  0.18984759  0.19855910  0.00208583  1
  Hf  Hf41  1  0.10620219  0.88875356  0.69150676  1
  Hf  Hf42  1  0.00628960  0.00217642  0.40253325  1
  Hf  Hf43  1  0.31666222  0.30064502  0.71277733  1
  Hf  Hf44  1  0.79855758  0.78200689  0.80461885  1
  Hf  Hf45  1  0.69989322  0.10707012  0.10528193  1
  Hf  Hf46  1  0.09776015  0.69363483  0.51425835  1
  Hf  Hf47  1  0.89945619  0.10543235  0.10234870  1
  Hf  Hf48  1  0.59923242  0.60686420  0.20351914  1
  Hf  Hf49  1  0.19786406  0.59995424  0.40513036  1
  Zr  Zr50  1  0.79630943  -0.00204183  0.40953572  1
  Zr  Zr51  1  0.10247287  0.49273168  0.30100835  1
  Zr  Zr52  1  0.89900189  0.10725860  0.89794928  1
  Zr  Zr53  1  0.19075091  0.00015509  0.40616510  1
  Zr  Zr54  1  0.89932687  0.89812595  0.89844554  1
  Zr  Zr55  1  0.50578045  0.10680771  0.69993922  1
  Zr  Zr56  1  0.09356072  0.49420023  0.09915132  1
  Zr  Zr57  1  0.79821494  0.60043001  0.19160773  1
  Zr  Zr58  1  0.00637079  0.79045410  0.80398102  1
  Zr  Zr59  1  0.18265121  0.20511180  0.79579126  1
  Zr  Zr60  1  0.49602490  0.30530343  0.10675811  1
  Zr  Zr61  1  0.20167504  0.19850893  0.59772841  1
  Zr  Zr62  1  0.80373168  0.21217728  0.40041428  1
  Zr  Zr63  1  0.79682022  0.58802253  0.59250064  1
  Zr  Zr64  1  0.30611775  0.29839931  0.89735872  1
  Zr  Zr65  1  0.71527062  0.71735136  0.10015353  1
  Zr  Zr66  1  0.89973550  0.89448024  0.69435135  1
  Zr  Zr67  1  0.30033817  0.49821736  0.49657201  1
  Zr  Zr68  1  0.20254216  0.60191078  0.19033084  1
  Zr  Zr69  1  0.78936958  0.19693350  0.59962346  1
  Zr  Zr70  1  0.31100439  0.10349814  0.70511479  1
  Zr  Zr71  1  0.00962247  0.39007649  0.79826909  1
  Zr  Zr72  1  0.40957905  -0.00106863  0.59465903  1
  Zr  Zr73  1  0.69864354  0.50128826  0.30681848  1
  Zr  Zr74  1  0.10235255  0.29788259  0.10647143  1
  Zr  Zr75  1  0.49984054  0.49985622  0.10195096  1
  Zr  Zr76  1  0.88937301  0.70604419  0.30357778  1
  Zr  Zr77  1  0.49237786  0.89528569  0.10051421  1
  Zr  Zr78  1  0.89686768  0.29192229  0.69710847  1
  Zr  Zr79  1  0.00032035  0.20146551  0.20491418  1
  Zr  Zr80  1  0.20351550  0.19784063  0.40265001  1
  Zr  Zr81  1  0.49546895  0.50527621  0.70092344  1
  Zr  Zr82  1  0.20065328  0.39453959  0.60870091  1
  Zr  Zr83  1  0.69424615  0.69323577  0.68596312  1
  Zr  Zr84  1  0.41211710  0.21127675  0.57872611  1
  Zr  Zr85  1  0.50172558  0.30902481  0.71027137  1
  Zr  Zr86  1  0.69559083  0.70022367  0.49076590  1
  Zr  Zr87  1  -0.00544257  0.60660023  0.19693151  1
  Zr  Zr88  1  0.70108275  0.89815440  0.69227168  1
  Zr  Zr89  1  0.48501210  0.70059776  0.90321675  1
  Zr  Zr90  1  0.69831379  0.31250537  0.30279299  1
  Zr  Zr91  1  0.80852597  0.40019964  0.80395043  1
  Zr  Zr92  1  0.30109776  0.69986445  0.29562477  1
  Zr  Zr93  1  0.30560729  0.49017927  0.30127152  1
  Zr  Zr94  1  0.80595727  0.40539543  -0.00143214  1
  Zr  Zr95  1  0.50952867  0.90108732  0.48798080  1
  Zr  Zr96  1  0.30130119  0.90262057  0.30063251  1
  Zr  Zr97  1  0.49498083  0.10594152  0.10475083  1
  Zr  Zr98  1  0.60186119  0.19906584  0.80655808  1
  Zr  Zr99  1  0.69318179  0.10476343  0.30341264  1
  Ta  Ta100  1  0.90897560  0.29931328  0.50524083  1
  Ta  Ta101  1  0.79879712  0.21136966  -0.00204098  1
  Ta  Ta102  1  0.90246730  0.69836442  0.50311510  1
  Ta  Ta103  1  0.00851200  0.00535116  0.79337210  1
  Ta  Ta104  1  0.40082783  -0.00399029  0.00382759  1
  Ta  Ta105  1  0.69891968  0.30766883  0.89889501  1
  Ta  Ta106  1  0.40169070  0.79087426  0.59069572  1
  Ta  Ta107  1  0.40464319  0.79099951  0.40438338  1
  Ta  Ta108  1  0.59518210  0.79607779  0.21325408  1
  Ta  Ta109  1  -0.00279376  0.59755271  0.40488199  1
  Ta  Ta110  1  0.90096406  0.10629695  0.30335670  1
  Ta  Ta111  1  0.60616163  0.60292176  0.00104184  1
  Ta  Ta112  1  0.00007218  0.19691789  0.79664738  1
  Ta  Ta113  1  0.79677201  0.39660575  0.59210224  1
  Ta  Ta114  1  0.70161060  0.10477786  0.90105166  1
  Ta  Ta115  1  0.19625418  0.59442038  0.60913586  1
  Ta  Ta116  1  0.10631472  0.89703974  0.10297837  1
  Ta  Ta117  1  0.80303823  0.21262112  0.20209278  1
  Ta  Ta118  1  0.49730364  0.89900983  0.30535809  1
  Ta  Ta119  1  -0.00475977  0.60195794  -0.00163566  1
  Ta  Ta120  1  0.59392416  0.00182843  -0.00688840  1
  Ta  Ta121  1  0.19983113  0.40213154  -0.00641112  1
  Ta  Ta122  1  0.58527418  0.60940926  0.39485154  1
  Ta  Ta123  1  0.39860916  0.00116188  0.20644314  1
  Ta  Ta124  1  0.30085349  0.29487098  0.10882831  1
  Ta  Ta125  1  0.19724015  0.40397669  0.79954330  1
  Ta  Ta126  1  0.09774550  0.49441517  0.50416588  1
  Ta  Ta127  1  0.19326113  0.59294452  0.79287019  1
  Ta  Ta128  1  0.90041694  0.89560676  0.50411531  1
  Ta  Ta129  1  -0.00201623  0.79746274  0.19760481  1
  Ta  Ta130  1  0.80212054  0.59694472  0.80475148  1
  Ta  Ta131  1  0.30237080  0.89089053  0.69260052  1
  Ta  Ta132  1  0.49738473  0.50211004  0.49110580  1
  Ta  Ta133  1  0.49343054  0.49825794  0.30200013  1
  Ta  Ta134  1  0.69376232  0.49844747  0.90402210  1
  Ta  Ta135  1  0.80510699  0.60598022  -0.00660849  1
  Ta  Ta136  1  0.40057351  0.39890559  0.59073150  1
  Ta  Ta137  1  0.49891310  0.50143638  0.90086824  1
  Ta  Ta138  1  0.38708107  0.59800900  0.00655580  1
  Ta  Ta139  1  0.59915469  0.40560118  0.20145066  1
  Ta  Ta140  1  0.30396900  0.89428046  0.50235599  1
  Ta  Ta141  1  0.20006487  0.59648579  -0.00081599  1
  Ta  Ta142  1  0.30124889  0.30058368  0.29687893  1
  Ta  Ta143  1  0.09540517  0.29998528  0.49975943  1
  Ta  Ta144  1  0.69082726  0.89719674  0.31080081  1
  Ta  Ta145  1  0.19412383  0.79621564  0.00132285  1
  Ta  Ta146  1  0.69696680  0.30288975  0.70473320  1
  Ta  Ta147  1  0.10089667  0.50169125  0.89822104  1
  Ta  Ta148  1  0.90765465  0.49972563  0.69653074  1
  Ta  Ta149  1  0.19672459  -0.00460890  0.00222911  1
  Ti  Ti150  1  0.80303492  0.59687381  0.40643603  1
  Ti  Ti151  1  0.09761132  0.68485608  0.89821489  1
  Ti  Ti152  1  0.69973426  0.31202613  0.10237129  1
  Ti  Ti153  1  0.00374027  0.39926005  0.60453989  1
  Ti  Ti154  1  0.80010419  0.39866277  0.41677676  1
  Ti  Ti155  1  0.79941921  0.79909319  0.59109253  1
  Ti  Ti156  1  0.58896707  0.21099537  0.40439758  1
  Ti  Ti157  1  0.49871007  0.69268508  0.69157747  1
  Ti  Ti158  1  0.49828710  0.31140834  0.29973843  1
  Ti  Ti159  1  0.29623717  0.89909713  0.10293942  1
  Ti  Ti160  1  0.69877709  0.10750926  0.70501228  1
  Ti  Ti161  1  0.40887770  0.20160631  0.39325019  1
  Ti  Ti162  1  -0.01432462  0.39274061  0.20401261  1
  Ti  Ti163  1  0.59699225  0.79380597  0.58659526  1
  Ti  Ti164  1  0.30068924  0.50488727  0.89044676  1
  Ti  Ti165  1  0.90917959  0.49946880  0.50610380  1
  Ti  Ti166  1  0.40011856  0.20064654  0.00201786  1
  Ti  Ti167  1  0.09706375  0.09825254  0.90141688  1
  Ti  Ti168  1  0.69924200  0.49656573  0.09576634  1
  Ti  Ti169  1  0.90998203  0.51024097  0.89118110  1
  Ti  Ti170  1  0.68746718  0.50164245  0.49095083  1
  Ti  Ti171  1  0.00391530  0.79745082  0.59741802  1
  Ti  Ti172  1  0.49847680  0.10218473  0.90448778  1
  Ti  Ti173  1  0.39281351  0.59639858  0.19512223  1
  Ti  Ti174  1  0.59955180  0.00055378  0.80560131  1
  Ti  Ti175  1  0.09754892  0.69934454  0.29910296  1
  Ti  Ti176  1  0.69267794  0.10753882  0.48905494  1
  Ti  Ti177  1  0.89588531  0.30134947  0.10117629  1
  Ti  Ti178  1  0.10814817  0.10407410  0.29111109  1
  Ti  Ti179  1  0.79708231  0.80751438  0.40745699  1
  Ti  Ti180  1  0.80067659  0.00595770  0.59672439  1
  Ti  Ti181  1  0.40553649  0.80095983  0.79338595  1
  Ti  Ti182  1  0.59573524  0.20792580  0.20759546  1
  Ti  Ti183  1  0.01369721  0.19656081  0.61208462  1
  Ti  Ti184  1  0.39697464  0.79890561  0.20206416  1
  Ti  Ti185  1  0.60092600  0.20660015  0.58850013  1
  Ti  Ti186  1  0.79969454  0.00370078  0.21040905  1
  Ti  Ti187  1  0.09993750  0.70033311  0.09831800  1
  Ti  Ti188  1  0.21274590  0.40288130  0.18852815  1
  Ti  Ti189  1  0.30023953  0.09784115  0.29701760  1
  Ti  Ti190  1  0.89847134  0.49884450  0.10069380  1
  Ti  Ti191  1  0.40105862  0.38768707  0.40470798  1
  Ti  Ti192  1  0.31018369  0.50089218  0.70476390  1
  Ti  Ti193  1  0.89463020  0.90026528  0.30131002  1
  Ti  Ti194  1  0.20090364  0.79299406  0.19110608  1
  Ti  Ti195  1  0.00153544  0.20465426  -0.00512821  1
  Ti  Ti196  1  0.40077077  0.60271237  0.58791051  1
  Ti  Ti197  1  0.40193368  0.61081903  0.40174132  1
  Ti  Ti198  1  0.70105082  0.70818819  0.30574164  1
  Ti  Ti199  1  0.40197459  0.19908896  0.21351566  1
  Mo  Mo200  1  0.79552555  0.20286453  0.80284453  1
  Mo  Mo201  1  0.70528317  0.69459625  0.90554568  1
  Mo  Mo202  1  0.59007298  0.40772570  0.39612817  1
  Mo  Mo203  1  0.20016392  0.00284128  0.19384554  1
  Mo  Mo204  1  0.49359872  0.10535041  0.30375829  1
  Mo  Mo205  1  0.69655059  0.30452945  0.49949449  1
  Mo  Mo206  1  0.89606512  0.30341112  0.30200875  1
  Mo  Mo207  1  0.70522790  0.89641916  0.49862844  1
  Mo  Mo208  1  0.00507420  0.20125746  0.39844789  1
  Mo  Mo209  1  0.39808817  0.59903210  0.80223519  1
  Mo  Mo210  1  0.90403396  0.10093563  0.69809406  1
  Mo  Mo211  1  0.60240829  0.40563302  0.80536958  1
  Mo  Mo212  1  0.80119451  0.79613437  -0.01110441  1
  Mo  Mo213  1  0.38751772  0.80002896  0.01074913  1
  Mo  Mo214  1  0.30279580  0.30309354  0.48693261  1
  Mo  Mo215  1  0.09927193  0.88796766  0.50598180  1
  Mo  Mo216  1  0.40798325  0.19181409  0.81565154  1
  Mo  Mo217  1  0.59768646  0.79706044  0.39303543  1
  Mo  Mo218  1  0.49897735  0.69640463  0.49843397  1
  Mo  Mo219  1  0.79819516  0.39749500  0.18731135  1
  Mo  Mo220  1  0.10020082  0.30274157  0.90134325  1
  Mo  Mo221  1  0.39860260  0.39690830  0.20536738  1
  Mo  Mo222  1  0.58991198  0.59526032  0.58706841  1
  Mo  Mo223  1  0.29513908  0.49963498  0.09831162  1
  Mo  Mo224  1  0.09379171  0.11549905  0.49985239  1
  Mo  Mo225  1  0.49079016  0.69992140  0.29735885  1
  Mo  Mo226  1  0.29837433  0.70332362  0.09617999  1
  Mo  Mo227  1  0.09839677  0.30022084  0.69719033  1
  Mo  Mo228  1  0.10595317  0.90016010  0.90595126  1
  Mo  Mo229  1  0.79684798  0.80876422  0.22091700  1
  Mo  Mo230  1  0.40388359  -0.00126877  0.39145447  1
  Mo  Mo231  1  0.59751132  0.00552763  0.39862071  1
  Mo  Mo232  1  0.09824741  0.09830230  0.70154519  1
  Mo  Mo233  1  0.60536717  0.40772664  0.00297826  1
  Mo  Mo234  1  0.00451309  0.59272480  0.79836214  1
  Mo  Mo235  1  0.20945998  0.79323565  0.60125333  1
  Mo  Mo236  1  0.10290124  0.09355686  0.10042769  1
  Mo  Mo237  1  0.30159598  0.69654235  0.50599528  1
  Mo  Mo238  1  0.39612938  0.41623530  0.80425895  1
  Mo  Mo239  1  0.89887823  0.28836482  0.90033052  1
  Mo  Mo240  1  0.10229098  0.69109367  0.69813781  1
  Mo  Mo241  1  0.09829789  0.49814760  0.69972587  1
  Mo  Mo242  1  0.51182966  0.10476159  0.48448550  1
  Mo  Mo243  1  0.20642798  0.19808596  0.20558289  1
  Mo  Mo244  1  0.50179847  0.30573030  0.48830678  1
  Mo  Mo245  1  0.00183016  0.58855280  0.59726212  1
  Mo  Mo246  1  0.49972624  0.90289547  0.90091919  1
  Mo  Mo247  1  0.90230768  0.68836726  0.89837319  1
  Mo  Mo248  1  0.90292311  0.70323970  0.09638283  1
  Mo  Mo249  1  0.20058470  0.39382272  0.41043892  1
