# generated using pymatgen
data_HfZrTaTiMo
_symmetry_space_group_name_H-M   'P 1'
_cell_length_a   16.88746005
_cell_length_b   16.89174819
_cell_length_c   16.89070441
_cell_angle_alpha   89.99938467
_cell_angle_beta   90.00932445
_cell_angle_gamma   90.04330162
_symmetry_Int_Tables_number   1
_chemical_formula_structural   HfZrTaTiMo
_chemical_formula_sum   'Hf50 Zr50 Ta50 Ti50 Mo50'
_cell_volume   4818.21932676
_cell_formula_units_Z   50
loop_
 _symmetry_equiv_pos_site_id
 _symmetry_equiv_pos_as_xyz
  1  'x, y, z'
loop_
 _atom_site_type_symbol
 _atom_site_label
 _atom_site_symmetry_multiplicity
 _atom_site_fract_x
 _atom_site_fract_y
 _atom_site_fract_z
 _atom_site_occupancy
  Hf  Hf0  1  0.89428367  0.89133528  0.28456912  1
  Hf  Hf1  1  0.29493222  0.09567198  0.70298933  1
  Hf  Hf2  1  0.09069126  0.89418760  0.28748130  1
  Hf  Hf3  1  0.09824741  0.69935007  0.09893918  1
  Hf  Hf4  1  0.59852366  0.60581226  0.40007619  1
  Hf  Hf5  1  0.89573791  0.10830024  0.10016062  1
  Hf  Hf6  1  0.90631600  0.10681310  0.50375032  1
  Hf  Hf7  1  0.78694173  0.19814365  0.39166943  1
  Hf  Hf8  1  0.50849461  0.11065043  0.89721786  1
  Hf  Hf9  1  0.12904221  0.90191904  0.70989260  1
  Hf  Hf10  1  0.39330171  0.59880845  0.79657546  1
  Hf  Hf11  1  0.68415038  0.12517520  0.71436677  1
  Hf  Hf12  1  0.40389182  0.40475427  0.00720560  1
  Hf  Hf13  1  0.40637104  0.39976361  0.81443943  1
  Hf  Hf14  1  0.50468308  0.70111719  0.28785009  1
  Hf  Hf15  1  0.28679538  0.69835456  0.49844528  1
  Hf  Hf16  1  0.71831257  0.50003391  0.89412443  1
  Hf  Hf17  1  0.59449698  0.59010504  0.81098801  1
  Hf  Hf18  1  0.29493823  0.10187361  0.50021667  1
  Hf  Hf19  1  -0.00607433  0.78830319  0.39439557  1
  Hf  Hf20  1  0.29530414  0.10365671  0.09537713  1
  Hf  Hf21  1  0.00203337  -0.00270898  -0.00340617  1
  Hf  Hf22  1  0.89078749  0.89300273  0.50611014  1
  Hf  Hf23  1  0.00274589  0.79723204  0.60799451  1
  Hf  Hf24  1  0.40333834  0.20724602  -0.00567751  1
  Hf  Hf25  1  0.69968570  0.69145048  0.70387624  1
  Hf  Hf26  1  0.50790547  0.29480437  0.71302810  1
  Hf  Hf27  1  0.00027996  0.00051634  0.39553933  1
  Hf  Hf28  1  0.59762049  0.20246377  0.58388023  1
  Hf  Hf29  1  -0.00268618  0.60050505  0.20786205  1
  Hf  Hf30  1  0.29785978  0.69681962  0.09268141  1
  Hf  Hf31  1  0.90238771  0.49728344  0.10194052  1
  Hf  Hf32  1  0.20077041  0.39943035  0.61384112  1
  Hf  Hf33  1  0.77105395  0.01408414  0.18577634  1
  Hf  Hf34  1  0.10299615  0.09935457  0.50603235  1
  Hf  Hf35  1  0.89093131  0.90164111  0.89708315  1
  Hf  Hf36  1  0.80525028  0.58720024  0.60738416  1
  Hf  Hf37  1  -0.00064650  0.40653010  0.60775201  1
  Hf  Hf38  1  0.20979571  0.80320043  0.19397936  1
  Hf  Hf39  1  0.29538887  0.30696757  0.29834248  1
  Hf  Hf40  1  0.90229679  0.30461880  0.49181110  1
  Hf  Hf41  1  0.79016946  0.20358536  0.59303427  1
  Hf  Hf42  1  0.10070634  0.10629390  0.09956147  1
  Hf  Hf43  1  0.40608171  -0.00013786  0.60195509  1
  Hf  Hf44  1  0.70304228  0.69807946  0.51319609  1
  Hf  Hf45  1  0.30552885  0.30391041  0.49729663  1
  Hf  Hf46  1  -0.00007512  -0.00750087  0.60949045  1
  Hf  Hf47  1  0.20677272  0.59522938  0.61956929  1
  Hf  Hf48  1  0.28988883  0.49427081  0.48806835  1
  Hf  Hf49  1  0.89005403  0.89290778  0.10271559  1
  Zr  Zr50  1  0.40260184  0.00130091  0.80209610  1
  Zr  Zr51  1  0.39413321  0.60070020  0.60380904  1
  Zr  Zr52  1  0.51204724  0.10124143  0.10063889  1
  Zr  Zr53  1  0.09820668  0.31327352  0.48899605  1
  Zr  Zr54  1  0.69679362  0.30510529  0.89421951  1
  Zr  Zr55  1  0.40167722  0.60290962  0.39746786  1
  Zr  Zr56  1  0.59165504  0.41037799  -0.00814396  1
  Zr  Zr57  1  0.29615066  0.30024866  0.10796286  1
  Zr  Zr58  1  0.29961757  0.10516043  0.29839558  1
  Zr  Zr59  1  0.40644592  0.80448257  0.00512385  1
  Zr  Zr60  1  0.00357517  0.80602418  0.80449843  1
  Zr  Zr61  1  0.78518733  0.00008830  0.80021527  1
  Zr  Zr62  1  0.28909134  0.89169691  0.88636666  1
  Zr  Zr63  1  -0.00249829  0.79758686  -0.00347580  1
  Zr  Zr64  1  0.20320532  0.21391797  0.79909999  1
  Zr  Zr65  1  0.40361405  0.59141076  0.19434553  1
  Zr  Zr66  1  0.20527076  -0.00480463  0.20058289  1
  Zr  Zr67  1  0.60571105  0.79884006  0.18241304  1
  Zr  Zr68  1  0.69875555  0.89581358  0.29163473  1
  Zr  Zr69  1  0.09674726  0.31050226  0.90265471  1
  Zr  Zr70  1  0.50154799  0.88476158  0.70726918  1
  Zr  Zr71  1  0.90218013  0.10195648  0.70532845  1
  Zr  Zr72  1  0.69822641  0.49490996  0.49775318  1
  Zr  Zr73  1  0.41193752  0.19859574  0.20615721  1
  Zr  Zr74  1  0.80473893  0.60031895  0.39362398  1
  Zr  Zr75  1  0.39259398  -0.00980724  0.39731845  1
  Zr  Zr76  1  0.40234924  0.79768265  0.59513109  1
  Zr  Zr77  1  0.10444005  0.69253543  0.50260741  1
  Zr  Zr78  1  0.60219987  -0.00301356  0.80123791  1
  Zr  Zr79  1  0.10475186  0.49496941  0.30897055  1
  Zr  Zr80  1  0.50125860  0.49095543  0.69555177  1
  Zr  Zr81  1  0.59856886  0.00526163  0.60250202  1
  Zr  Zr82  1  0.10801449  0.89896241  0.50475808  1
  Zr  Zr83  1  0.49859511  0.49446989  0.50263379  1
  Zr  Zr84  1  0.29702933  0.70214385  0.90242753  1
  Zr  Zr85  1  0.21037148  0.80913337  0.38846148  1
  Zr  Zr86  1  0.89256407  0.68362177  0.89420655  1
  Zr  Zr87  1  0.78555432  0.00280220  0.60578160  1
  Zr  Zr88  1  0.09995387  0.09694216  0.70877310  1
  Zr  Zr89  1  0.79311936  0.00698816  0.39994321  1
  Zr  Zr90  1  0.61484403  -0.00676283  0.00815441  1
  Zr  Zr91  1  0.79772426  0.78890981  0.39527424  1
  Zr  Zr92  1  0.18877989  0.20163793  0.39138778  1
  Zr  Zr93  1  0.90045178  0.10100356  0.89757007  1
  Zr  Zr94  1  0.40820651  0.19854003  0.60130662  1
  Zr  Zr95  1  0.80091547  0.39508969  0.19667646  1
  Zr  Zr96  1  0.40286887  0.79938024  0.40297311  1
  Zr  Zr97  1  0.89598370  0.30316082  0.70566171  1
  Zr  Zr98  1  0.50569428  0.90449990  0.29303579  1
  Zr  Zr99  1  0.89968422  0.10676633  0.28845266  1
  Ta  Ta100  1  0.59884393  0.40079619  0.19693517  1
  Ta  Ta101  1  0.39987636  -0.00447713  0.19142386  1
  Ta  Ta102  1  0.90095203  0.69313226  0.51207784  1
  Ta  Ta103  1  0.10288557  0.89451066  0.09281650  1
  Ta  Ta104  1  0.40794270  0.59239267  -0.00147464  1
  Ta  Ta105  1  -0.00360895  0.20826646  -0.00111075  1
  Ta  Ta106  1  0.39727223  -0.00215281  -0.00080841  1
  Ta  Ta107  1  0.50276108  0.10160886  0.48233070  1
  Ta  Ta108  1  0.80098406  0.20995509  0.00453654  1
  Ta  Ta109  1  0.29746207  0.50002483  0.90655450  1
  Ta  Ta110  1  -0.00221957  0.60098109  0.40032121  1
  Ta  Ta111  1  0.19516588  0.20578176  -0.00276439  1
  Ta  Ta112  1  0.29761911  0.49770429  0.10274628  1
  Ta  Ta113  1  0.19623166  0.40284133  0.19708103  1
  Ta  Ta114  1  0.79924500  0.59736202  0.20261860  1
  Ta  Ta115  1  0.90002111  0.69494389  0.70427318  1
  Ta  Ta116  1  0.10400780  0.69604285  0.90116646  1
  Ta  Ta117  1  0.89042586  0.89455490  0.70424338  1
  Ta  Ta118  1  0.60324236  0.79055726  -0.00379454  1
  Ta  Ta119  1  0.90637342  0.30459601  0.29654406  1
  Ta  Ta120  1  0.10132342  0.50429327  0.49726826  1
  Ta  Ta121  1  0.89609656  0.69869790  0.10536649  1
  Ta  Ta122  1  0.89652545  0.31056524  0.90084909  1
  Ta  Ta123  1  0.69698915  0.89527389  0.50418881  1
  Ta  Ta124  1  0.59916741  0.79614665  0.40731593  1
  Ta  Ta125  1  0.79825323  0.40091594  0.60128474  1
  Ta  Ta126  1  0.20207448  0.59508778  0.80336803  1
  Ta  Ta127  1  0.09464950  0.50329298  0.71182761  1
  Ta  Ta128  1  0.10286022  0.09776311  0.89908982  1
  Ta  Ta129  1  0.09925864  0.69423265  0.71066875  1
  Ta  Ta130  1  0.69754057  0.31076373  0.70567935  1
  Ta  Ta131  1  0.19704140  0.40495848  0.00232061  1
  Ta  Ta132  1  0.19654278  0.21143747  0.60780345  1
  Ta  Ta133  1  0.09577693  0.30508983  0.10183595  1
  Ta  Ta134  1  0.60023000  0.39130907  0.59549459  1
  Ta  Ta135  1  0.90394105  0.49101178  0.30354324  1
  Ta  Ta136  1  0.50495797  0.49411006  0.29399723  1
  Ta  Ta137  1  0.20324435  0.40680962  0.80059128  1
  Ta  Ta138  1  0.50826532  0.30144331  0.10420155  1
  Ta  Ta139  1  0.00251393  0.20752626  0.80633479  1
  Ta  Ta140  1  0.50882360  0.69490889  0.69769339  1
  Ta  Ta141  1  0.19508589  0.59120364  0.00147604  1
  Ta  Ta142  1  0.90663447  0.49631932  0.49498792  1
  Ta  Ta143  1  0.60675328  0.00794786  0.39446768  1
  Ta  Ta144  1  0.70182392  0.88505991  0.90102124  1
  Ta  Ta145  1  0.69695594  0.50348756  0.10125366  1
  Ta  Ta146  1  0.69475672  0.49804414  0.29470759  1
  Ta  Ta147  1  0.40732543  0.39658286  0.39251343  1
  Ta  Ta148  1  0.59696528  0.60160486  0.00175356  1
  Ta  Ta149  1  0.69572988  0.29965470  0.09952808  1
  Ti  Ti150  1  -0.00342490  0.40202701  0.00279125  1
  Ti  Ti151  1  0.59598240  0.39289188  0.39599217  1
  Ti  Ti152  1  0.00084628  0.20172893  0.39149794  1
  Ti  Ti153  1  0.09607907  0.10349847  0.28866353  1
  Ti  Ti154  1  0.69656491  0.49186384  0.70447585  1
  Ti  Ti155  1  0.89815467  0.50530691  0.72147650  1
  Ti  Ti156  1  0.80075610  0.20665118  0.80735342  1
  Ti  Ti157  1  0.29656691  0.10282128  0.89893172  1
  Ti  Ti158  1  0.50357543  0.89454125  0.90117124  1
  Ti  Ti159  1  0.69769094  0.69560666  0.28892746  1
  Ti  Ti160  1  -0.00124843  -0.00164999  0.19091125  1
  Ti  Ti161  1  0.50249082  0.69293638  0.09890921  1
  Ti  Ti162  1  0.31529895  0.30584122  0.70163039  1
  Ti  Ti163  1  -0.00275499  0.21288663  0.19394554  1
  Ti  Ti164  1  0.60365601  0.79430704  0.80578625  1
  Ti  Ti165  1  0.78984578  0.00449455  0.00148719  1
  Ti  Ti166  1  0.50659514  0.30150066  0.29631658  1
  Ti  Ti167  1  0.28236430  0.90234354  0.52710509  1
  Ti  Ti168  1  0.79203674  0.79159027  0.00297589  1
  Ti  Ti169  1  0.09800876  0.49639107  0.10291464  1
  Ti  Ti170  1  -0.00092653  0.59339937  -0.00257901  1
  Ti  Ti171  1  0.29999292  0.69511752  0.29520382  1
  Ti  Ti172  1  0.49615494  0.70271068  0.89598941  1
  Ti  Ti173  1  0.80424969  0.39835019  0.00351472  1
  Ti  Ti174  1  0.60188060  0.79861844  0.59901335  1
  Ti  Ti175  1  0.50398455  0.90482752  0.09875859  1
  Ti  Ti176  1  0.69686431  0.30087343  0.29476990  1
  Ti  Ti177  1  0.09570011  0.50459570  0.89884787  1
  Ti  Ti178  1  0.69608124  0.11389183  0.90962242  1
  Ti  Ti179  1  0.10573830  0.69769442  0.29783652  1
  Ti  Ti180  1  0.80084315  0.59526039  0.00563699  1
  Ti  Ti181  1  0.20115463  0.59500390  0.19923889  1
  Ti  Ti182  1  0.69574974  0.30447010  0.49114825  1
  Ti  Ti183  1  0.70364474  0.69093328  0.10020184  1
  Ti  Ti184  1  0.70407385  0.69311858  0.89962030  1
  Ti  Ti185  1  -0.00195767  0.40558326  0.80488889  1
  Ti  Ti186  1  0.29525703  0.72673430  0.71190770  1
  Ti  Ti187  1  0.41299589  0.20490271  0.39562649  1
  Ti  Ti188  1  0.29998210  0.49524055  0.29784790  1
  Ti  Ti189  1  0.20191464  -0.00552181  -0.00421245  1
  Ti  Ti190  1  0.51116110  0.90232378  0.49679882  1
  Ti  Ti191  1  0.01149589  0.21224492  0.61061242  1
  Ti  Ti192  1  0.79881021  0.39891280  0.39567498  1
  Ti  Ti193  1  0.79439138  0.79616133  0.79614017  1
  Ti  Ti194  1  -0.00088620  0.59477467  0.60624006  1
  Ti  Ti195  1  0.09359305  0.30916072  0.29350846  1
  Ti  Ti196  1  0.29938338  0.30305236  0.90290140  1
  Ti  Ti197  1  0.60923552  0.19386268  0.20620961  1
  Ti  Ti198  1  0.39466990  0.80917305  0.19502119  1
  Ti  Ti199  1  0.20029133  -0.00469340  0.39273415  1
  Mo  Mo200  1  0.40090371  0.39261290  0.59325751  1
  Mo  Mo201  1  0.60291070  0.40331770  0.79767842  1
  Mo  Mo202  1  0.51396766  0.69979727  0.51127565  1
  Mo  Mo203  1  0.00043414  0.79392747  0.19666464  1
  Mo  Mo204  1  0.40561329  0.40101857  0.20417523  1
  Mo  Mo205  1  0.69348378  0.10012008  0.49244391  1
  Mo  Mo206  1  0.60536437  0.59516431  0.19496778  1
  Mo  Mo207  1  0.59775282  0.20265195  0.38982878  1
  Mo  Mo208  1  0.19894404  0.60051394  0.38627454  1
  Mo  Mo209  1  0.79824270  0.78203408  0.19370894  1
  Mo  Mo210  1  0.90228881  0.30159992  0.09478338  1
  Mo  Mo211  1  0.10292386  0.90587958  0.90209686  1
  Mo  Mo212  1  0.00686110  -0.00085350  0.80619775  1
  Mo  Mo213  1  0.41150814  0.79314915  0.80105613  1
  Mo  Mo214  1  0.50105864  0.29994286  0.90452966  1
  Mo  Mo215  1  0.90211198  0.69172486  0.29477181  1
  Mo  Mo216  1  0.00305149  0.59715545  0.80340181  1
  Mo  Mo217  1  0.00232739  0.39942824  0.19989838  1
  Mo  Mo218  1  0.80456460  0.40431586  0.79469885  1
  Mo  Mo219  1  0.60255761  0.59526958  0.60533596  1
  Mo  Mo220  1  0.19298509  0.79978671  -0.00044391  1
  Mo  Mo221  1  0.30741903  0.89983398  0.28632087  1
  Mo  Mo222  1  0.59624693  0.00410485  0.19872650  1
  Mo  Mo223  1  0.69199103  0.10774464  0.29581609  1
  Mo  Mo224  1  -0.00136133  0.40313153  0.39933042  1
  Mo  Mo225  1  0.39817357  0.20315602  0.80605739  1
  Mo  Mo226  1  0.50358887  0.50052475  0.10273133  1
  Mo  Mo227  1  0.20514791  0.00880548  0.60386465  1
  Mo  Mo228  1  0.19386173  0.79074124  0.80603212  1
  Mo  Mo229  1  0.79468060  0.20934957  0.19794807  1
  Mo  Mo230  1  0.29915577  0.48771865  0.70990679  1
  Mo  Mo231  1  0.70106616  0.87932604  0.70146469  1
  Mo  Mo232  1  0.80027160  0.59659298  0.79752564  1
  Mo  Mo233  1  0.90530068  0.49367618  0.90701537  1
  Mo  Mo234  1  0.60366115  0.20944937  0.00294541  1
  Mo  Mo235  1  0.50174166  0.30112812  0.48596698  1
  Mo  Mo236  1  0.69972580  0.12269034  0.09608046  1
  Mo  Mo237  1  0.59702458  0.20831730  0.81018522  1
  Mo  Mo238  1  0.49550609  0.11116020  0.70537608  1
  Mo  Mo239  1  0.30177802  0.90447941  0.09017815  1
  Mo  Mo240  1  0.80109800  0.79610428  0.60910161  1
  Mo  Mo241  1  0.20006031  0.79214185  0.61151361  1
  Mo  Mo242  1  0.70461268  0.88399284  0.08935444  1
  Mo  Mo243  1  0.09376092  0.30744478  0.70637308  1
  Mo  Mo244  1  0.18183836  0.20824133  0.19517219  1
  Mo  Mo245  1  0.20402650  0.00691595  0.81222075  1
  Mo  Mo246  1  0.30288573  0.89847032  0.69953448  1
  Mo  Mo247  1  0.50507827  0.09898719  0.30006619  1
  Mo  Mo248  1  0.20285852  0.40244660  0.39249541  1
  Mo  Mo249  1  0.49626298  0.50674339  0.90267920  1
