# generated using pymatgen
data_HfZrTaTiMo
_symmetry_space_group_name_H-M   'P 1'
_cell_length_a   16.88358865
_cell_length_b   16.88738176
_cell_length_c   16.88529959
_cell_angle_alpha   90.00491501
_cell_angle_beta   89.99399790
_cell_angle_gamma   89.96624953
_symmetry_Int_Tables_number   1
_chemical_formula_structural   HfZrTaTiMo
_chemical_formula_sum   'Hf50 Zr50 Ta50 Ti50 Mo50'
_cell_volume   4814.32910218
_cell_formula_units_Z   50
loop_
 _symmetry_equiv_pos_site_id
 _symmetry_equiv_pos_as_xyz
  1  'x, y, z'
loop_
 _atom_site_type_symbol
 _atom_site_label
 _atom_site_symmetry_multiplicity
 _atom_site_fract_x
 _atom_site_fract_y
 _atom_site_fract_z
 _atom_site_occupancy
  Hf  Hf0  1  0.39838202  0.19837786  0.59038616  1
  Hf  Hf1  1  0.60236062  0.19123552  0.19907862  1
  Hf  Hf2  1  0.59464002  0.60818890  0.79689613  1
  Hf  Hf3  1  0.30495866  0.89620002  0.29766405  1
  Hf  Hf4  1  0.89869988  0.29178407  0.90022468  1
  Hf  Hf5  1  0.59705660  0.20429483  0.60436979  1
  Hf  Hf6  1  0.70159907  0.29301270  0.89963205  1
  Hf  Hf7  1  0.39630527  0.79240038  0.59445944  1
  Hf  Hf8  1  -0.00026736  0.61172484  0.39537977  1
  Hf  Hf9  1  0.91228825  0.51147410  0.09113892  1
  Hf  Hf10  1  -0.00330877  0.61458400  0.59860253  1
  Hf  Hf11  1  0.69804492  0.90022526  0.09535116  1
  Hf  Hf12  1  0.19795139  0.62040871  0.01770514  1
  Hf  Hf13  1  0.29488811  0.90182267  0.50221577  1
  Hf  Hf14  1  0.50390666  0.90186295  0.09602447  1
  Hf  Hf15  1  0.70712959  0.90605328  0.29418581  1
  Hf  Hf16  1  0.10168023  0.70712603  0.49913028  1
  Hf  Hf17  1  0.79778431  0.20152668  0.60580200  1
  Hf  Hf18  1  0.30080065  0.29387836  0.30233985  1
  Hf  Hf19  1  0.90171713  0.09108671  0.50379493  1
  Hf  Hf20  1  0.90162790  0.49733990  0.50538628  1
  Hf  Hf21  1  0.69200616  0.90270826  0.50435873  1
  Hf  Hf22  1  0.40316645  -0.00322425  0.40301708  1
  Hf  Hf23  1  0.89686064  0.49331448  0.69669496  1
  Hf  Hf24  1  0.41373784  0.59088810  0.19694605  1
  Hf  Hf25  1  0.79989085  0.79569317  0.39696972  1
  Hf  Hf26  1  0.50279281  0.70136985  0.30188505  1
  Hf  Hf27  1  0.49897433  0.28673549  0.31711462  1
  Hf  Hf28  1  0.90497479  0.50716072  0.29542060  1
  Hf  Hf29  1  0.39574089  0.60918580  0.40856248  1
  Hf  Hf30  1  0.89559971  0.29516214  0.29812443  1
  Hf  Hf31  1  0.28823594  0.49825602  0.11011656  1
  Hf  Hf32  1  0.50436288  0.88751542  0.89921997  1
  Hf  Hf33  1  0.30280286  0.09513875  0.09859097  1
  Hf  Hf34  1  0.69777388  0.30106603  0.49967912  1
  Hf  Hf35  1  0.30602949  0.50116668  0.70006238  1
  Hf  Hf36  1  0.69964120  0.89720793  0.89750853  1
  Hf  Hf37  1  0.89882286  0.30026020  0.69974100  1
  Hf  Hf38  1  0.58987068  0.60636656  -0.00116650  1
  Hf  Hf39  1  0.00642495  0.00214863  0.19523445  1
  Hf  Hf40  1  0.20728078  0.61309852  0.59802303  1
  Hf  Hf41  1  0.49828199  0.29026994  0.10050438  1
  Hf  Hf42  1  0.10327950  0.50114074  0.49682094  1
  Hf  Hf43  1  0.79610222  0.40666898  0.40644661  1
  Hf  Hf44  1  0.80138842  0.40053985  0.19336270  1
  Hf  Hf45  1  0.69574285  0.51161478  0.30007274  1
  Hf  Hf46  1  0.00361947  0.40072878  0.19499100  1
  Hf  Hf47  1  0.39567030  0.19444475  -0.00951324  1
  Hf  Hf48  1  0.49801035  0.89511701  0.70427032  1
  Hf  Hf49  1  0.30462554  0.70290938  0.71003071  1
  Zr  Zr50  1  0.79645715  0.61785419  0.20289191  1
  Zr  Zr51  1  0.69414978  0.50604028  0.10202691  1
  Zr  Zr52  1  0.88701888  0.09665701  0.29475609  1
  Zr  Zr53  1  0.29293879  0.50261171  0.30065016  1
  Zr  Zr54  1  -0.00016374  0.19406368  0.59723649  1
  Zr  Zr55  1  0.00431363  0.18922655  0.19779216  1
  Zr  Zr56  1  0.59014537  0.40034150  0.00312227  1
  Zr  Zr57  1  0.69874838  0.29193500  0.30015965  1
  Zr  Zr58  1  0.38981805  0.18967328  0.80226031  1
  Zr  Zr59  1  0.79835697  -0.00778308  0.61521635  1
  Zr  Zr60  1  0.10452421  0.89652764  0.29648729  1
  Zr  Zr61  1  0.19684268  0.18476402  0.19946417  1
  Zr  Zr62  1  0.10484718  0.29715198  0.69939671  1
  Zr  Zr63  1  0.09800254  0.50856048  0.91588694  1
  Zr  Zr64  1  0.89780650  0.70777882  0.70966514  1
  Zr  Zr65  1  0.10055184  0.31275922  0.50667740  1
  Zr  Zr66  1  0.90087213  0.70455745  0.90070622  1
  Zr  Zr67  1  0.50163746  0.08853618  0.69658060  1
  Zr  Zr68  1  0.20558829  0.79088966  0.39997272  1
  Zr  Zr69  1  0.49702003  0.10052316  0.30489456  1
  Zr  Zr70  1  0.49126427  0.30507138  0.70148791  1
  Zr  Zr71  1  0.49799986  0.50992117  0.51320998  1
  Zr  Zr72  1  0.10838931  0.30637318  0.30090438  1
  Zr  Zr73  1  0.00481038  0.39746874  0.80856017  1
  Zr  Zr74  1  0.58518515  0.40971379  0.20611146  1
  Zr  Zr75  1  0.50622427  0.71384619  0.09789973  1
  Zr  Zr76  1  0.10354630  0.48761299  0.68442560  1
  Zr  Zr77  1  0.79810240  0.61017176  0.00163056  1
  Zr  Zr78  1  0.19634294  0.78169643  0.18465100  1
  Zr  Zr79  1  0.79815448  0.18756180  -0.00312316  1
  Zr  Zr80  1  0.80229232  0.80131724  0.60643985  1
  Zr  Zr81  1  0.90630692  0.90107662  0.50034353  1
  Zr  Zr82  1  0.69991017  0.50007543  0.90238787  1
  Zr  Zr83  1  0.20411787  0.19173719  0.59547977  1
  Zr  Zr84  1  0.69284122  0.09484384  0.49962479  1
  Zr  Zr85  1  0.20060043  0.39207594  -0.00311931  1
  Zr  Zr86  1  0.39315815  0.39567427  0.00102550  1
  Zr  Zr87  1  0.00268710  0.59794804  0.80125513  1
  Zr  Zr88  1  0.78583827  0.59866965  0.60086538  1
  Zr  Zr89  1  0.29793477  0.70457397  0.89272175  1
  Zr  Zr90  1  0.40515922  0.40130196  0.40431944  1
  Zr  Zr91  1  0.61463271  0.41055398  0.60604936  1
  Zr  Zr92  1  0.59879067  0.79580155  0.60733391  1
  Zr  Zr93  1  0.39861418  0.60254236  0.00190628  1
  Zr  Zr94  1  0.30568970  0.89830947  0.09887042  1
  Zr  Zr95  1  0.60084958  0.40072564  0.79503249  1
  Zr  Zr96  1  0.09873950  0.29381654  0.09166548  1
  Zr  Zr97  1  0.00509289  0.19237530  0.40229861  1
  Zr  Zr98  1  0.70026558  0.09138161  0.10089453  1
  Zr  Zr99  1  0.20482806  -0.00544225  -0.01398477  1
  Ta  Ta100  1  0.69484101  0.70193637  0.49733275  1
  Ta  Ta101  1  0.80582413  -0.00826914  0.80111846  1
  Ta  Ta102  1  0.20901502  0.19647602  -0.01636764  1
  Ta  Ta103  1  0.49794696  0.29555363  0.89610478  1
  Ta  Ta104  1  0.69644434  0.71405214  0.89941721  1
  Ta  Ta105  1  0.90539977  0.71254100  0.10201117  1
  Ta  Ta106  1  0.79120415  0.39941957  0.79260420  1
  Ta  Ta107  1  0.60261160  0.60299246  0.40281259  1
  Ta  Ta108  1  0.29992768  0.90156831  0.70285349  1
  Ta  Ta109  1  0.89602924  0.49807932  0.90276745  1
  Ta  Ta110  1  0.69973713  0.09508719  0.70735792  1
  Ta  Ta111  1  0.48824781  0.50914121  0.70199688  1
  Ta  Ta112  1  0.20426215  0.39536597  0.80582260  1
  Ta  Ta113  1  0.00360231  0.81659545  0.80162191  1
  Ta  Ta114  1  0.60128589  0.19446574  0.80220941  1
  Ta  Ta115  1  0.29470024  0.30243725  0.69862335  1
  Ta  Ta116  1  0.80020728  0.61001666  0.40425420  1
  Ta  Ta117  1  0.40303609  0.39978907  0.20181358  1
  Ta  Ta118  1  0.39199423  -0.00453313  0.80801557  1
  Ta  Ta119  1  0.90687885  0.09696522  0.89306006  1
  Ta  Ta120  1  0.70262670  0.29323691  0.09872281  1
  Ta  Ta121  1  0.59618301  -0.00512265  0.39711798  1
  Ta  Ta122  1  0.00144273  0.81037643  -0.00376382  1
  Ta  Ta123  1  0.19719178  0.80646578  0.60778939  1
  Ta  Ta124  1  0.10440835  0.71071124  0.71020507  1
  Ta  Ta125  1  0.40160354  0.00377440  -0.01562195  1
  Ta  Ta126  1  0.89780358  0.28918829  0.09603380  1
  Ta  Ta127  1  0.29775190  0.50598564  0.89360276  1
  Ta  Ta128  1  -0.00062536  0.80070434  0.39798171  1
  Ta  Ta129  1  0.79198777  0.59798272  0.80013926  1
  Ta  Ta130  1  0.09820523  0.70950687  0.90016674  1
  Ta  Ta131  1  0.10370201  0.09112973  0.70645044  1
  Ta  Ta132  1  0.48845690  0.50162366  0.89225918  1
  Ta  Ta133  1  0.80129120  0.19862625  0.40742364  1
  Ta  Ta134  1  0.80904164  0.80987225  0.00287867  1
  Ta  Ta135  1  0.60979183  0.79917743  0.20761228  1
  Ta  Ta136  1  0.09859579  0.90197667  0.09305275  1
  Ta  Ta137  1  0.29775532  0.50483241  0.50583687  1
  Ta  Ta138  1  0.90313003  0.09680094  0.71109559  1
  Ta  Ta139  1  0.00484733  0.80686387  0.60730174  1
  Ta  Ta140  1  0.59729362  0.40874199  0.40719717  1
  Ta  Ta141  1  0.09872268  0.09996454  0.89166689  1
  Ta  Ta142  1  0.59965396  0.80156710  0.39831593  1
  Ta  Ta143  1  0.90035248  0.89809967  0.29242439  1
  Ta  Ta144  1  0.00531085  -0.00288669  0.39425997  1
  Ta  Ta145  1  0.10179857  0.90424406  0.50463933  1
  Ta  Ta146  1  0.90262396  0.71087831  0.29247892  1
  Ta  Ta147  1  0.29825121  0.69322128  0.29681495  1
  Ta  Ta148  1  0.20451984  0.40463936  0.40305315  1
  Ta  Ta149  1  0.10751192  0.50641478  0.29742169  1
  Ti  Ti150  1  0.50503577  0.10211800  0.49517811  1
  Ti  Ti151  1  0.60137521  -0.00133491  0.79915623  1
  Ti  Ti152  1  0.30179691  0.09861161  0.30488114  1
  Ti  Ti153  1  0.81275143  -0.00604163  0.18439205  1
  Ti  Ti154  1  0.80272586  0.39778900  0.00169526  1
  Ti  Ti155  1  0.50173918  0.70274174  0.50025977  1
  Ti  Ti156  1  0.39825774  0.19501311  0.19980298  1
  Ti  Ti157  1  0.90602177  0.10200410  0.09001995  1
  Ti  Ti158  1  -0.00248782  -0.00682721  -0.00876815  1
  Ti  Ti159  1  0.29451129  0.29754908  0.10972415  1
  Ti  Ti160  1  0.19401663  0.59617771  0.80056591  1
  Ti  Ti161  1  0.70018810  0.71290134  0.71334165  1
  Ti  Ti162  1  0.01387863  0.61542820  0.19685115  1
  Ti  Ti163  1  -0.00240092  0.39930940  0.39956394  1
  Ti  Ti164  1  0.19601740  0.81774810  0.80549829  1
  Ti  Ti165  1  0.19724136  0.80436643  -0.00345818  1
  Ti  Ti166  1  0.10163369  0.28673542  0.89776454  1
  Ti  Ti167  1  0.70300923  0.09840414  0.30258029  1
  Ti  Ti168  1  0.00253333  0.19471833  0.79919618  1
  Ti  Ti169  1  0.10430066  0.08283125  0.50570072  1
  Ti  Ti170  1  0.00149119  0.80486536  0.19583165  1
  Ti  Ti171  1  0.69899367  0.71176111  0.10011336  1
  Ti  Ti172  1  0.29148625  0.09093656  0.70000902  1
  Ti  Ti173  1  0.39381180  0.79804262  -0.00702213  1
  Ti  Ti174  1  0.19909472  0.19143191  0.40351035  1
  Ti  Ti175  1  0.80116691  -0.00171837  0.40046000  1
  Ti  Ti176  1  0.39881495  0.79486782  0.19934664  1
  Ti  Ti177  1  0.39278701  0.39648263  0.80638890  1
  Ti  Ti178  1  0.20095979  -0.00442918  0.80071674  1
  Ti  Ti179  1  0.81411084  -0.00601095  -0.00653936  1
  Ti  Ti180  1  0.60131161  0.60651140  0.60770251  1
  Ti  Ti181  1  0.00235285  -0.00978573  0.80127328  1
  Ti  Ti182  1  0.49647360  0.09487364  0.09632365  1
  Ti  Ti183  1  -0.00157360  0.39439606  -0.00030724  1
  Ti  Ti184  1  0.10199353  0.50590651  0.10624911  1
  Ti  Ti185  1  0.00645988  -0.00906125  0.61472271  1
  Ti  Ti186  1  0.59232054  0.00924044  -0.01066205  1
  Ti  Ti187  1  0.09890679  0.09873324  0.07811039  1
  Ti  Ti188  1  0.59376268  -0.00175861  0.20572100  1
  Ti  Ti189  1  0.29826141  0.09270865  0.49672157  1
  Ti  Ti190  1  0.59439556  0.18874585  -0.00848588  1
  Ti  Ti191  1  0.39943832  0.39475008  0.59474926  1
  Ti  Ti192  1  0.19760538  0.00231333  0.39711963  1
  Ti  Ti193  1  0.49699673  0.89198469  0.30012023  1
  Ti  Ti194  1  0.39739454  -0.00032971  0.59918463  1
  Ti  Ti195  1  0.30004097  0.30075373  0.49562519  1
  Ti  Ti196  1  0.50113171  0.90061613  0.50144368  1
  Ti  Ti197  1  0.70399069  0.09429739  0.89185336  1
  Ti  Ti198  1  0.19544956  0.00351239  0.19849161  1
  Ti  Ti199  1  0.40315878  -0.00064061  0.20060387  1
  Mo  Mo200  1  0.89534847  0.30508241  0.49992625  1
  Mo  Mo201  1  0.50454885  0.09503429  0.89609403  1
  Mo  Mo202  1  0.19926403  0.40068547  0.20415782  1
  Mo  Mo203  1  0.09568465  0.69945287  0.29572639  1
  Mo  Mo204  1  0.50376006  0.50473434  0.30601733  1
  Mo  Mo205  1  0.79713501  0.18845984  0.79941719  1
  Mo  Mo206  1  0.22054784  0.40037487  0.59682408  1
  Mo  Mo207  1  0.70453050  0.29173575  0.70566786  1
  Mo  Mo208  1  0.40239352  0.60747760  0.60297067  1
  Mo  Mo209  1  0.60034766  0.60949657  0.20371429  1
  Mo  Mo210  1  0.00317135  0.18924547  -0.00811992  1
  Mo  Mo211  1  0.39057744  0.19196136  0.41269196  1
  Mo  Mo212  1  0.89918646  0.70476196  0.49404263  1
  Mo  Mo213  1  0.79636905  0.39793947  0.60436670  1
  Mo  Mo214  1  0.00318996  0.61193510  0.00455505  1
  Mo  Mo215  1  -0.01400924  0.39265343  0.58883910  1
  Mo  Mo216  1  0.79880122  0.80637645  0.80390504  1
  Mo  Mo217  1  0.40620628  0.80022033  0.40074223  1
  Mo  Mo218  1  0.10040268  0.90291938  0.89874508  1
  Mo  Mo219  1  0.69798971  0.70511061  0.30326106  1
  Mo  Mo220  1  0.10938176  0.09281605  0.31231094  1
  Mo  Mo221  1  0.69914578  0.50811489  0.70176817  1
  Mo  Mo222  1  0.80402617  0.80532303  0.19537815  1
  Mo  Mo223  1  0.20012531  -0.00093916  0.60308669  1
  Mo  Mo224  1  0.29982542  0.70223084  0.49925609  1
  Mo  Mo225  1  0.10528952  0.90337727  0.70183119  1
  Mo  Mo226  1  0.20024634  0.60042060  0.39924829  1
  Mo  Mo227  1  0.69273506  0.90319838  0.71051887  1
  Mo  Mo228  1  0.50205655  0.29972436  0.49936400  1
  Mo  Mo229  1  0.60404816  0.19254378  0.40512514  1
  Mo  Mo230  1  0.40102434  0.80089116  0.79841189  1
  Mo  Mo231  1  0.19078915  0.60454188  0.20192760  1
  Mo  Mo232  1  0.40286538  0.60089849  0.80181858  1
  Mo  Mo233  1  0.29893639  0.29973930  0.88851312  1
  Mo  Mo234  1  0.49833684  0.70572925  0.89437477  1
  Mo  Mo235  1  0.90448427  0.90369561  0.09713945  1
  Mo  Mo236  1  0.08512811  0.70876153  0.09336290  1
  Mo  Mo237  1  0.69717033  0.51002203  0.49947089  1
  Mo  Mo238  1  0.59321925  -0.00258634  0.60016654  1
  Mo  Mo239  1  0.60824383  0.80000163  0.00256575  1
  Mo  Mo240  1  0.49405013  0.69592441  0.70122084  1
  Mo  Mo241  1  0.59842491  0.79568786  0.80100657  1
  Mo  Mo242  1  0.49461315  0.49411164  0.09809310  1
  Mo  Mo243  1  0.31169491  0.70267457  0.10538975  1
  Mo  Mo244  1  0.19678181  0.19565496  0.79657043  1
  Mo  Mo245  1  0.79890646  0.19687752  0.19335350  1
  Mo  Mo246  1  0.90159916  0.90556772  0.90131677  1
  Mo  Mo247  1  0.29387858  0.09593031  0.89232743  1
  Mo  Mo248  1  0.30225876  0.89642019  0.89390883  1
  Mo  Mo249  1  0.90830757  0.90374540  0.70845110  1
