# generated using pymatgen
data_HfZrTaTiMo
_symmetry_space_group_name_H-M   'P 1'
_cell_length_a   16.88957518
_cell_length_b   16.89227630
_cell_length_c   16.89001619
_cell_angle_alpha   89.98449642
_cell_angle_beta   89.94809565
_cell_angle_gamma   90.04199301
_symmetry_Int_Tables_number   1
_chemical_formula_structural   HfZrTaTiMo
_chemical_formula_sum   'Hf50 Zr50 Ta50 Ti50 Mo50'
_cell_volume   4818.77509794
_cell_formula_units_Z   50
loop_
 _symmetry_equiv_pos_site_id
 _symmetry_equiv_pos_as_xyz
  1  'x, y, z'
loop_
 _atom_site_type_symbol
 _atom_site_label
 _atom_site_symmetry_multiplicity
 _atom_site_fract_x
 _atom_site_fract_y
 _atom_site_fract_z
 _atom_site_occupancy
  Hf  Hf0  1  0.88997449  0.89481920  0.10906266  1
  Hf  Hf1  1  0.60391388  0.40186699  0.80740911  1
  Hf  Hf2  1  0.09599004  0.89458399  0.29928894  1
  Hf  Hf3  1  0.30094039  0.49742872  0.09626450  1
  Hf  Hf4  1  0.40295983  0.80813492  0.60480530  1
  Hf  Hf5  1  0.30105688  0.49238244  0.70506883  1
  Hf  Hf6  1  0.60723853  0.60661346  0.81454147  1
  Hf  Hf7  1  0.89873286  0.69835569  0.70212042  1
  Hf  Hf8  1  0.70128976  0.70196908  0.49813548  1
  Hf  Hf9  1  0.40187220  0.21195939  0.59849936  1
  Hf  Hf10  1  0.70458215  0.69136823  0.09926899  1
  Hf  Hf11  1  0.49799735  0.71243179  0.49141967  1
  Hf  Hf12  1  0.79447060  0.00235641  0.79641452  1
  Hf  Hf13  1  0.39958368  0.01151991  0.18402657  1
  Hf  Hf14  1  0.69071765  0.30835738  0.09838297  1
  Hf  Hf15  1  0.29348041  0.70159437  0.49944077  1
  Hf  Hf16  1  0.19506693  0.39346717  0.20028371  1
  Hf  Hf17  1  0.80616037  0.40075695  0.60919713  1
  Hf  Hf18  1  0.89034538  0.09262239  0.09605286  1
  Hf  Hf19  1  0.40394076  0.59596429  0.59676410  1
  Hf  Hf20  1  0.09504621  0.09952301  0.09106306  1
  Hf  Hf21  1  0.41022189  0.59819805  0.19648483  1
  Hf  Hf22  1  0.90272399  0.69162258  0.10067275  1
  Hf  Hf23  1  0.80860624  0.39730123  0.19307318  1
  Hf  Hf24  1  -0.00654254  0.40394929  0.79497299  1
  Hf  Hf25  1  0.80232334  0.58927126  0.19951760  1
  Hf  Hf26  1  0.00457826  0.58999204  0.40468628  1
  Hf  Hf27  1  0.50139455  0.10743127  0.89330486  1
  Hf  Hf28  1  0.89452061  0.09873153  0.49359497  1
  Hf  Hf29  1  0.58495016  0.59086301  0.39750339  1
  Hf  Hf30  1  0.59983339  0.20718988  0.60626925  1
  Hf  Hf31  1  0.09868465  0.10566410  0.50374421  1
  Hf  Hf32  1  -0.00028583  -0.00788201  -0.00042668  1
  Hf  Hf33  1  0.19753506  0.20309708  0.19105059  1
  Hf  Hf34  1  0.59817114  0.60057059  0.60159547  1
  Hf  Hf35  1  0.49346977  0.30205552  0.11164542  1
  Hf  Hf36  1  0.60284299  0.79912213  0.19495505  1
  Hf  Hf37  1  0.69335061  0.49568996  0.30103155  1
  Hf  Hf38  1  0.78621389  0.20580967  0.61785418  1
  Hf  Hf39  1  0.69624388  0.89420636  0.90306793  1
  Hf  Hf40  1  0.50375897  0.10040274  0.49679520  1
  Hf  Hf41  1  0.10373351  0.69977616  0.50453612  1
  Hf  Hf42  1  0.50137089  0.11931147  0.29230398  1
  Hf  Hf43  1  0.11016745  0.31122072  0.68931264  1
  Hf  Hf44  1  0.30598870  0.89374516  0.29227145  1
  Hf  Hf45  1  0.40464156  -0.01254716  0.79438552  1
  Hf  Hf46  1  0.10120717  0.88717210  0.69909710  1
  Hf  Hf47  1  0.09820402  0.89349934  0.49901379  1
  Hf  Hf48  1  0.49591928  0.49859786  0.71139994  1
  Hf  Hf49  1  0.00505894  0.21616819  0.80588863  1
  Zr  Zr50  1  0.32557930  0.30096542  0.28120521  1
  Zr  Zr51  1  0.39976600  -0.00222461  -0.00476306  1
  Zr  Zr52  1  0.79609123  -0.00543390  0.60054333  1
  Zr  Zr53  1  0.79925712  0.80736051  0.59901405  1
  Zr  Zr54  1  0.69346741  0.30223566  0.30268792  1
  Zr  Zr55  1  0.20482770  -0.00760242  0.79803103  1
  Zr  Zr56  1  0.69526531  0.09873720  0.49035994  1
  Zr  Zr57  1  0.91467915  0.50326134  0.08638588  1
  Zr  Zr58  1  0.90359291  0.29785127  0.49928307  1
  Zr  Zr59  1  0.19684576  0.00375696  0.39535517  1
  Zr  Zr60  1  0.29683282  0.11078026  0.70157090  1
  Zr  Zr61  1  0.39673594  0.19311536  0.00954526  1
  Zr  Zr62  1  0.90582550  0.70434577  0.49913150  1
  Zr  Zr63  1  0.90439671  0.70834327  0.29944733  1
  Zr  Zr64  1  0.89888034  0.10666862  0.90602740  1
  Zr  Zr65  1  0.50688158  0.70796080  0.70989894  1
  Zr  Zr66  1  0.29675206  0.10347522  0.89652690  1
  Zr  Zr67  1  0.10240799  0.10431693  0.89938895  1
  Zr  Zr68  1  0.29046464  0.69711363  0.70016696  1
  Zr  Zr69  1  0.89777080  0.10796163  0.71076622  1
  Zr  Zr70  1  0.09417964  0.50009181  0.90930834  1
  Zr  Zr71  1  0.41418168  0.40451154  0.40086500  1
  Zr  Zr72  1  0.69209045  0.49213804  0.50502313  1
  Zr  Zr73  1  0.79395111  0.19669968  0.19640725  1
  Zr  Zr74  1  0.39583011  0.80131186  0.80772993  1
  Zr  Zr75  1  0.10601930  0.89267101  0.90026276  1
  Zr  Zr76  1  0.20075553  0.20822101  0.39528236  1
  Zr  Zr77  1  0.80931897  0.59059567  0.40538925  1
  Zr  Zr78  1  0.00189031  0.79114281  0.00153595  1
  Zr  Zr79  1  0.40054672  0.00034421  0.60541816  1
  Zr  Zr80  1  0.81530419  0.40396898  0.39976538  1
  Zr  Zr81  1  -0.00431430  0.20771817  0.60780206  1
  Zr  Zr82  1  0.10789323  0.49171574  0.50877376  1
  Zr  Zr83  1  0.20420710  0.39647726  0.39263654  1
  Zr  Zr84  1  0.00606105  0.38955461  0.20205020  1
  Zr  Zr85  1  0.50104312  0.90519765  0.49243828  1
  Zr  Zr86  1  0.70325220  0.70239887  0.30077280  1
  Zr  Zr87  1  0.70721155  0.10326262  0.90600961  1
  Zr  Zr88  1  0.60499800  0.00708456  0.19289946  1
  Zr  Zr89  1  0.40113627  0.59234189  0.39838851  1
  Zr  Zr90  1  -0.00575416  -0.00630859  0.60269720  1
  Zr  Zr91  1  0.60923957  0.20596088  0.79310445  1
  Zr  Zr92  1  0.29516466  0.69842116  0.29964092  1
  Zr  Zr93  1  0.10035755  0.50622564  0.09939077  1
  Zr  Zr94  1  0.59574572  0.00090348  0.00577487  1
  Zr  Zr95  1  0.89290634  0.89767878  0.90198301  1
  Zr  Zr96  1  0.30483763  0.10531454  0.29454001  1
  Zr  Zr97  1  0.30750487  0.49727200  0.90305706  1
  Zr  Zr98  1  0.48874750  0.88249450  0.09921295  1
  Zr  Zr99  1  0.30353187  0.70593076  0.10260475  1
  Ta  Ta100  1  0.00823677  0.39695008  0.39392271  1
  Ta  Ta101  1  0.70210150  0.30406225  0.90534852  1
  Ta  Ta102  1  0.79466559  0.78963879  -0.00151153  1
  Ta  Ta103  1  0.39979188  0.39608860  0.59649626  1
  Ta  Ta104  1  0.40372565  0.21078655  0.41032840  1
  Ta  Ta105  1  0.71045374  0.90442776  0.29474059  1
  Ta  Ta106  1  0.60320926  -0.00200168  0.61181119  1
  Ta  Ta107  1  0.10208351  0.30445311  0.50155636  1
  Ta  Ta108  1  0.10602728  0.10444780  0.70051016  1
  Ta  Ta109  1  0.69477937  0.89097201  0.71150781  1
  Ta  Ta110  1  0.30211070  0.10138197  0.49901333  1
  Ta  Ta111  1  0.69239436  0.30720964  0.50043493  1
  Ta  Ta112  1  0.60484297  0.80956334  0.60032245  1
  Ta  Ta113  1  0.09848662  0.69392964  0.89381977  1
  Ta  Ta114  1  -0.00263288  0.59459303  0.79636211  1
  Ta  Ta115  1  -0.00029410  -0.00056415  0.20222949  1
  Ta  Ta116  1  0.29227171  0.89582301  0.09639452  1
  Ta  Ta117  1  0.09756045  0.69905723  0.70201167  1
  Ta  Ta118  1  0.19843771  0.79735253  0.39733283  1
  Ta  Ta119  1  0.60011016  0.20166907  0.00596360  1
  Ta  Ta120  1  0.49481033  0.71298493  0.29646204  1
  Ta  Ta121  1  0.00215409  -0.00184009  0.79615214  1
  Ta  Ta122  1  0.29528658  0.49847721  0.50278554  1
  Ta  Ta123  1  0.79605567  0.20087294  0.39721541  1
  Ta  Ta124  1  -0.00371066  0.19727143  0.19588791  1
  Ta  Ta125  1  0.79400540  0.78486687  0.80725787  1
  Ta  Ta126  1  0.39967709  0.00496545  0.39565269  1
  Ta  Ta127  1  0.49602916  0.89936166  0.29732413  1
  Ta  Ta128  1  0.58833902  0.40605021  0.20592544  1
  Ta  Ta129  1  -0.00074026  0.58902940  0.61024761  1
  Ta  Ta130  1  0.20116735  0.00082401  0.59750063  1
  Ta  Ta131  1  0.19646974  0.00145866  0.19350020  1
  Ta  Ta132  1  0.59550930  0.59801048  0.00187687  1
  Ta  Ta133  1  0.29697592  0.89826139  0.49487268  1
  Ta  Ta134  1  0.79952546  0.59547639  0.80391559  1
  Ta  Ta135  1  0.89537626  0.90179220  0.29719685  1
  Ta  Ta136  1  -0.00682276  -0.00285787  0.39611545  1
  Ta  Ta137  1  0.00399097  0.79893945  0.20007172  1
  Ta  Ta138  1  0.20294635  0.60972824  -0.00371379  1
  Ta  Ta139  1  0.49627468  0.49540253  0.90784866  1
  Ta  Ta140  1  0.80293033  0.39941798  -0.00117361  1
  Ta  Ta141  1  0.30589179  0.30517403  0.89957211  1
  Ta  Ta142  1  0.90281623  0.29028887  0.29939798  1
  Ta  Ta143  1  0.20013467  0.20936903  -0.00151777  1
  Ta  Ta144  1  0.70027625  0.50139022  0.70432815  1
  Ta  Ta145  1  0.19945851  0.39782573  0.80156952  1
  Ta  Ta146  1  0.89457094  0.09489595  0.29926941  1
  Ta  Ta147  1  0.10483663  0.89591284  0.10200680  1
  Ta  Ta148  1  0.59854920  0.78321820  -0.00624961  1
  Ta  Ta149  1  0.60421451  0.80898410  0.39393958  1
  Ti  Ti150  1  0.29434203  0.89453818  0.91266008  1
  Ti  Ti151  1  0.79779355  0.20862450  0.00704538  1
  Ti  Ti152  1  0.10190228  0.69401613  0.30022385  1
  Ti  Ti153  1  0.30825455  0.30885167  0.09581065  1
  Ti  Ti154  1  -0.00651224  0.37982518  -0.00999568  1
  Ti  Ti155  1  0.80032021  0.40069193  0.80022742  1
  Ti  Ti156  1  0.09137609  0.10127035  0.29455690  1
  Ti  Ti157  1  -0.00889068  0.40839217  0.60788386  1
  Ti  Ti158  1  0.88707429  0.29557265  0.89994788  1
  Ti  Ti159  1  0.59910661  -0.00183533  0.38765989  1
  Ti  Ti160  1  0.09110030  0.29518872  0.08839469  1
  Ti  Ti161  1  0.80416672  0.81290858  0.40275367  1
  Ti  Ti162  1  0.19395883  0.79599765  0.19834731  1
  Ti  Ti163  1  -0.00580387  0.80124988  0.59953536  1
  Ti  Ti164  1  0.50055643  0.10210402  0.70391625  1
  Ti  Ti165  1  0.69421876  0.49686178  0.09374243  1
  Ti  Ti166  1  0.70256327  0.69928977  0.70049609  1
  Ti  Ti167  1  0.19841962  0.79059126  -0.00069123  1
  Ti  Ti168  1  0.29464895  0.50621392  0.29377424  1
  Ti  Ti169  1  0.40317642  0.78622749  -0.00920708  1
  Ti  Ti170  1  0.91598614  0.50083170  0.29055415  1
  Ti  Ti171  1  0.20104149  0.21486685  0.80278467  1
  Ti  Ti172  1  0.09845191  0.68998847  0.10542909  1
  Ti  Ti173  1  0.59167439  0.59714928  0.19514277  1
  Ti  Ti174  1  0.00086773  0.19995476  0.39375705  1
  Ti  Ti175  1  0.89696087  0.50375664  0.90489310  1
  Ti  Ti176  1  0.19388409  0.59149624  0.60987899  1
  Ti  Ti177  1  0.89781867  0.89220565  0.71100497  1
  Ti  Ti178  1  0.19851474  0.39090175  -0.00371541  1
  Ti  Ti179  1  0.70982211  0.89984385  0.09894999  1
  Ti  Ti180  1  0.89803248  0.68572226  0.90651505  1
  Ti  Ti181  1  0.51020373  0.88786915  0.89363548  1
  Ti  Ti182  1  -0.00549762  0.79296719  0.80468741  1
  Ti  Ti183  1  0.19446475  0.59462147  0.80209209  1
  Ti  Ti184  1  0.59378796  0.21443007  0.40090736  1
  Ti  Ti185  1  0.80903433  0.58973878  0.60368814  1
  Ti  Ti186  1  0.11024108  0.51570829  0.29401896  1
  Ti  Ti187  1  0.40698742  0.60882546  -0.00122720  1
  Ti  Ti188  1  0.49719189  0.30949373  0.91068143  1
  Ti  Ti189  1  0.28619226  0.89151869  0.69062200  1
  Ti  Ti190  1  0.21083407  0.20979010  0.59448792  1
  Ti  Ti191  1  0.59823405  -0.00204221  0.79468076  1
  Ti  Ti192  1  0.69951812  0.90766368  0.48964979  1
  Ti  Ti193  1  0.70134949  0.09949991  0.29886270  1
  Ti  Ti194  1  0.70410295  0.49917128  0.91093117  1
  Ti  Ti195  1  0.39963152  0.61088613  0.81419272  1
  Ti  Ti196  1  0.20477587  0.78917781  0.80751777  1
  Ti  Ti197  1  0.49804640  0.49006624  0.09030054  1
  Ti  Ti198  1  0.40106251  0.21730485  0.79478002  1
  Ti  Ti199  1  0.50043374  0.31338516  0.70148441  1
  Mo  Mo200  1  0.29384440  0.69611684  0.90294160  1
  Mo  Mo201  1  0.40155272  0.41262957  0.19715499  1
  Mo  Mo202  1  0.10359581  0.50257514  0.70472979  1
  Mo  Mo203  1  0.21203450  0.39655117  0.60146849  1
  Mo  Mo204  1  0.39884590  0.19613588  0.18905244  1
  Mo  Mo205  1  0.50759326  0.30435923  0.50014368  1
  Mo  Mo206  1  0.69317160  0.08884704  0.70487534  1
  Mo  Mo207  1  0.00434080  0.60638072  -0.01016777  1
  Mo  Mo208  1  0.70338368  0.69336264  0.90641696  1
  Mo  Mo209  1  0.60002232  0.40390447  0.00123864  1
  Mo  Mo210  1  0.19940954  0.59807617  0.39788120  1
  Mo  Mo211  1  0.00812346  0.60653119  0.20639902  1
  Mo  Mo212  1  0.79675006  0.21416551  0.80273338  1
  Mo  Mo213  1  0.59623013  0.40023441  0.60658620  1
  Mo  Mo214  1  0.59090296  0.39745983  0.40287742  1
  Mo  Mo215  1  0.79693704  0.59073621  -0.00506206  1
  Mo  Mo216  1  0.51264383  0.90059649  0.70529394  1
  Mo  Mo217  1  0.70153867  0.10458991  0.09616625  1
  Mo  Mo218  1  0.19890395  0.80228514  0.59624674  1
  Mo  Mo219  1  0.50410614  0.30297061  0.30148278  1
  Mo  Mo220  1  0.79828865  0.00150929  0.39317264  1
  Mo  Mo221  1  0.60037815  0.20268833  0.19828255  1
  Mo  Mo222  1  0.89276163  0.30709005  0.71234597  1
  Mo  Mo223  1  -0.00396705  0.20970459  0.00077660  1
  Mo  Mo224  1  0.89367584  0.50562671  0.70668992  1
  Mo  Mo225  1  0.69722681  0.31920429  0.70424529  1
  Mo  Mo226  1  0.28122066  0.09350452  0.09337574  1
  Mo  Mo227  1  0.30256979  0.30469891  0.70483038  1
  Mo  Mo228  1  0.79850624  0.80129118  0.19848639  1
  Mo  Mo229  1  0.49771282  0.69451635  0.90581918  1
  Mo  Mo230  1  0.40279504  0.39726709  -0.00131313  1
  Mo  Mo231  1  0.30044676  0.30329239  0.50375643  1
  Mo  Mo232  1  0.90376436  0.89911662  0.48483959  1
  Mo  Mo233  1  0.39781578  0.80919615  0.39549969  1
  Mo  Mo234  1  0.90182245  0.29481237  0.09191966  1
  Mo  Mo235  1  0.79755611  0.00118802  0.20187028  1
  Mo  Mo236  1  0.50436940  0.69426269  0.09749723  1
  Mo  Mo237  1  0.50013240  0.50248454  0.28778318  1
  Mo  Mo238  1  0.10985917  0.30484662  0.90120183  1
  Mo  Mo239  1  0.00293068  0.80225608  0.39405934  1
  Mo  Mo240  1  0.40108302  0.79982720  0.19908373  1
  Mo  Mo241  1  0.40399054  0.39150768  0.80224639  1
  Mo  Mo242  1  0.49808223  0.49394596  0.51489096  1
  Mo  Mo243  1  0.20219395  -0.00570631  0.00572939  1
  Mo  Mo244  1  0.19941990  0.59999692  0.19746437  1
  Mo  Mo245  1  0.79328902  -0.00985353  0.00322334  1
  Mo  Mo246  1  0.60554517  0.79553204  0.80223838  1
  Mo  Mo247  1  0.08979211  0.28750175  0.30118952  1
  Mo  Mo248  1  0.51138041  0.11218239  0.10143400  1
  Mo  Mo249  1  0.91224004  0.49659827  0.50834878  1
