# generated using pymatgen
data_HfZrTaTiMo
_symmetry_space_group_name_H-M   'P 1'
_cell_length_a   16.88189367
_cell_length_b   16.89041226
_cell_length_c   16.87604330
_cell_angle_alpha   89.98103342
_cell_angle_beta   89.97976804
_cell_angle_gamma   89.95789568
_symmetry_Int_Tables_number   1
_chemical_formula_structural   HfZrTaTiMo
_chemical_formula_sum   'Hf50 Zr50 Ta50 Ti50 Mo50'
_cell_volume   4812.06930191
_cell_formula_units_Z   50
loop_
 _symmetry_equiv_pos_site_id
 _symmetry_equiv_pos_as_xyz
  1  'x, y, z'
loop_
 _atom_site_type_symbol
 _atom_site_label
 _atom_site_symmetry_multiplicity
 _atom_site_fract_x
 _atom_site_fract_y
 _atom_site_fract_z
 _atom_site_occupancy
  Hf  Hf0  1  0.50556734  0.89464110  0.70932784  1
  Hf  Hf1  1  0.20198125  0.41219190  0.39241721  1
  Hf  Hf2  1  0.20443157  0.40588194  0.60235948  1
  Hf  Hf3  1  0.71626257  0.90277363  0.49073841  1
  Hf  Hf4  1  0.59936498  0.21199662  0.59919055  1
  Hf  Hf5  1  0.39651837  0.21354051  -0.00854186  1
  Hf  Hf6  1  0.49666700  0.69358039  0.50554778  1
  Hf  Hf7  1  0.50453173  0.69419892  0.09869680  1
  Hf  Hf8  1  0.30662674  0.09508807  0.29625718  1
  Hf  Hf9  1  0.58406247  0.39446067  0.41609668  1
  Hf  Hf10  1  0.51421636  0.10787037  0.28531162  1
  Hf  Hf11  1  0.89452423  0.70268910  0.49590883  1
  Hf  Hf12  1  0.09417687  0.50943489  0.71590912  1
  Hf  Hf13  1  0.89272530  0.09223241  0.49645445  1
  Hf  Hf14  1  0.50134543  0.10565581  0.91201926  1
  Hf  Hf15  1  -0.00463804  0.40454911  0.60334948  1
  Hf  Hf16  1  0.09526304  0.09664852  0.09815180  1
  Hf  Hf17  1  0.79193360  0.59801840  0.00107955  1
  Hf  Hf18  1  0.60241986  0.60366783  0.40892720  1
  Hf  Hf19  1  0.09658648  0.30607275  0.49283034  1
  Hf  Hf20  1  0.70402504  0.49042982  0.51151192  1
  Hf  Hf21  1  0.51116848  0.29623250  0.09316791  1
  Hf  Hf22  1  0.90383218  0.30100554  0.10608131  1
  Hf  Hf23  1  0.89609773  0.31105192  0.49183983  1
  Hf  Hf24  1  0.20935104  0.01075518  0.60174115  1
  Hf  Hf25  1  0.69997392  0.29778335  0.29169937  1
  Hf  Hf26  1  0.10702201  0.89540530  0.50040718  1
  Hf  Hf27  1  0.50547813  0.30899710  0.29007217  1
  Hf  Hf28  1  0.20656320  0.78355219  0.80205598  1
  Hf  Hf29  1  0.69034349  0.11341663  0.10521950  1
  Hf  Hf30  1  0.20474689  0.40776970  0.19735469  1
  Hf  Hf31  1  0.40116487  0.20123471  0.60730376  1
  Hf  Hf32  1  0.40827310  0.21450083  0.39742917  1
  Hf  Hf33  1  0.69896271  0.89980388  0.70012144  1
  Hf  Hf34  1  0.41543903  -0.00444074  0.18367080  1
  Hf  Hf35  1  0.79357758  -0.00724291  0.01213327  1
  Hf  Hf36  1  0.79528912  0.60480190  0.39696240  1
  Hf  Hf37  1  -0.01083279  0.39072094  0.80669828  1
  Hf  Hf38  1  0.60779710  0.41134370  -0.00140797  1
  Hf  Hf39  1  0.70500974  0.09590201  0.30055415  1
  Hf  Hf40  1  0.19604451  0.20920332  -0.00626092  1
  Hf  Hf41  1  0.39901961  0.39653430  0.80710246  1
  Hf  Hf42  1  0.29939525  0.69860895  0.50126876  1
  Hf  Hf43  1  0.30895522  0.49834423  0.92141415  1
  Hf  Hf44  1  0.00086736  0.39881510  -0.00622441  1
  Hf  Hf45  1  0.89707807  0.90330929  0.70456415  1
  Hf  Hf46  1  0.60912401  0.79923521  0.39484692  1
  Hf  Hf47  1  0.50064986  0.50605925  0.29492563  1
  Hf  Hf48  1  0.70205723  0.10287541  0.69665205  1
  Hf  Hf49  1  0.09582263  0.10232253  0.70579983  1
  Zr  Zr50  1  -0.00101022  0.79738552  0.60051909  1
  Zr  Zr51  1  0.09305626  0.51135500  0.10823500  1
  Zr  Zr52  1  0.40346736  0.39806149  0.59952559  1
  Zr  Zr53  1  0.60690208  0.79341894  0.59784319  1
  Zr  Zr54  1  0.79017742  0.80819376  0.20117778  1
  Zr  Zr55  1  -0.00645490  0.20259487  0.60316828  1
  Zr  Zr56  1  0.29831632  0.88791970  0.69840090  1
  Zr  Zr57  1  0.09941021  0.68843571  0.90575179  1
  Zr  Zr58  1  0.30567893  0.09257619  0.08879453  1
  Zr  Zr59  1  0.10223684  0.09917602  0.49614611  1
  Zr  Zr60  1  0.20092260  0.58786111  0.59895032  1
  Zr  Zr61  1  0.20379577  0.00859190  0.80566165  1
  Zr  Zr62  1  0.20025836  0.39705480  0.81504149  1
  Zr  Zr63  1  0.89395393  0.31287129  0.29891055  1
  Zr  Zr64  1  0.90274831  0.69792241  0.10430812  1
  Zr  Zr65  1  0.60883910  -0.02166172  0.19592144  1
  Zr  Zr66  1  0.08768659  0.69608960  0.29297858  1
  Zr  Zr67  1  0.89957321  0.68999883  0.70673683  1
  Zr  Zr68  1  0.10231786  0.29888948  0.70284819  1
  Zr  Zr69  1  0.19912149  0.20695823  0.19635043  1
  Zr  Zr70  1  0.30507045  0.89911292  0.49277703  1
  Zr  Zr71  1  0.10502475  0.89709193  0.69904743  1
  Zr  Zr72  1  0.30957341  0.90054062  0.29835825  1
  Zr  Zr73  1  0.00105542  0.79366921  0.80394430  1
  Zr  Zr74  1  -0.00303660  0.18635230  0.38538124  1
  Zr  Zr75  1  0.10208864  0.69825742  0.49696645  1
  Zr  Zr76  1  0.70802623  0.30395641  0.49909557  1
  Zr  Zr77  1  0.30062881  0.69285873  0.09020886  1
  Zr  Zr78  1  0.20543392  0.79439472  0.20219211  1
  Zr  Zr79  1  0.40034460  0.00620337  0.79990884  1
  Zr  Zr80  1  0.70059914  0.30548232  0.89381972  1
  Zr  Zr81  1  0.40547917  0.00550970  0.60208627  1
  Zr  Zr82  1  0.09004698  0.89906339  0.29795898  1
  Zr  Zr83  1  0.30565983  0.89437476  0.90861754  1
  Zr  Zr84  1  0.50458814  0.50313483  0.70304187  1
  Zr  Zr85  1  0.78766351  0.79658971  0.80994737  1
  Zr  Zr86  1  0.50628693  0.09905855  0.49527210  1
  Zr  Zr87  1  0.69627381  0.49388545  0.30395651  1
  Zr  Zr88  1  0.39488291  0.20959375  0.19244847  1
  Zr  Zr89  1  0.60353687  0.00019773  0.81001889  1
  Zr  Zr90  1  0.79379753  0.00210780  0.81420947  1
  Zr  Zr91  1  0.08038164  0.31968248  0.29059039  1
  Zr  Zr92  1  0.80233609  0.40642031  -0.00223304  1
  Zr  Zr93  1  0.40673005  0.79394519  0.60595069  1
  Zr  Zr94  1  0.10061714  0.89392946  0.90876071  1
  Zr  Zr95  1  0.19955938  0.20419270  0.38189309  1
  Zr  Zr96  1  0.90189400  0.09859737  0.90495181  1
  Zr  Zr97  1  0.30163099  0.30625593  0.49255946  1
  Zr  Zr98  1  0.77568851  0.59884373  0.80150352  1
  Zr  Zr99  1  0.59854884  -0.00614394  0.00496766  1
  Ta  Ta100  1  0.88597168  0.49475144  0.70096596  1
  Ta  Ta101  1  0.30776443  0.50482198  0.29834281  1
  Ta  Ta102  1  -0.00851153  0.59692426  0.39914180  1
  Ta  Ta103  1  0.09969227  0.89420011  0.10048745  1
  Ta  Ta104  1  0.20990987  0.19919373  0.60335487  1
  Ta  Ta105  1  0.09591389  0.70277759  0.09917111  1
  Ta  Ta106  1  0.39899987  0.20582872  0.80061915  1
  Ta  Ta107  1  0.29969567  0.89389635  0.09261523  1
  Ta  Ta108  1  -0.00669814  -0.00611821  0.01025820  1
  Ta  Ta109  1  0.60361727  0.40971102  0.18477906  1
  Ta  Ta110  1  0.19611446  -0.00377744  0.00324940  1
  Ta  Ta111  1  0.89936285  0.09994864  0.70328980  1
  Ta  Ta112  1  0.60398426  -0.00625036  0.39533950  1
  Ta  Ta113  1  0.20677380  0.20114455  0.80860271  1
  Ta  Ta114  1  0.89913959  0.89451404  0.90849240  1
  Ta  Ta115  1  0.79739639  0.79441524  0.59815082  1
  Ta  Ta116  1  0.89128989  0.49768777  0.49845404  1
  Ta  Ta117  1  0.89707620  0.50652302  0.89007113  1
  Ta  Ta118  1  0.79449632  0.59845528  0.20086484  1
  Ta  Ta119  1  0.40614326  0.78220336  0.80364891  1
  Ta  Ta120  1  -0.00401600  0.20556675  0.80897272  1
  Ta  Ta121  1  0.30323977  0.10172319  0.48927523  1
  Ta  Ta122  1  0.39986892  0.59964684  0.80121112  1
  Ta  Ta123  1  0.60876511  0.60362652  0.61177059  1
  Ta  Ta124  1  -0.00558686  0.18487625  0.20069082  1
  Ta  Ta125  1  0.60044630  0.20727467  0.79772331  1
  Ta  Ta126  1  -0.00551013  -0.00308880  0.59776322  1
  Ta  Ta127  1  0.69079255  0.69819934  0.10474679  1
  Ta  Ta128  1  0.88877174  0.90319728  0.31201070  1
  Ta  Ta129  1  0.40061858  0.40920761  0.19063550  1
  Ta  Ta130  1  0.89740216  0.69549858  0.90556953  1
  Ta  Ta131  1  0.79379542  0.80022903  0.00254040  1
  Ta  Ta132  1  0.50343813  0.69584629  0.29111146  1
  Ta  Ta133  1  0.80266670  0.20499962  0.60469873  1
  Ta  Ta134  1  0.40266370  0.79499767  0.19840765  1
  Ta  Ta135  1  0.79184435  0.60191825  0.60356869  1
  Ta  Ta136  1  0.20496305  0.79524912  0.39337069  1
  Ta  Ta137  1  0.19651228  -0.00267444  0.19683630  1
  Ta  Ta138  1  0.79633053  0.41093967  0.19090820  1
  Ta  Ta139  1  0.70355580  0.09862798  0.49860560  1
  Ta  Ta140  1  0.80562939  0.20988221  0.79758927  1
  Ta  Ta141  1  0.40024288  0.60263394  0.39649078  1
  Ta  Ta142  1  0.19691328  0.00151489  0.39037031  1
  Ta  Ta143  1  0.60607102  0.59738779  -0.00687108  1
  Ta  Ta144  1  0.80441511  0.20237247  0.00079799  1
  Ta  Ta145  1  -0.00786800  0.59292605  0.59840239  1
  Ta  Ta146  1  0.30228329  0.68583024  0.69763924  1
  Ta  Ta147  1  0.49996499  0.88678982  0.90345340  1
  Ta  Ta148  1  0.30309581  0.32450461  0.08390461  1
  Ta  Ta149  1  0.80191033  0.19409360  0.39662091  1
  Ti  Ti150  1  -0.00363139  0.20162423  0.00094270  1
  Ti  Ti151  1  0.50732142  0.10316458  0.70523973  1
  Ti  Ti152  1  -0.01307188  0.00112904  0.19806487  1
  Ti  Ti153  1  0.39428637  0.60003271  0.19656759  1
  Ti  Ti154  1  0.69607561  0.11529161  0.90629070  1
  Ti  Ti155  1  -0.01185130  0.80954011  0.19689691  1
  Ti  Ti156  1  0.49260227  0.50760859  0.09102620  1
  Ti  Ti157  1  0.40237535  0.79034256  0.39009511  1
  Ti  Ti158  1  0.09507578  0.09966472  0.90489622  1
  Ti  Ti159  1  0.08809236  0.50866387  0.29529495  1
  Ti  Ti160  1  0.20302097  0.60118099  0.38975820  1
  Ti  Ti161  1  0.49535476  0.50469864  0.50927031  1
  Ti  Ti162  1  0.10446072  0.68741020  0.70251202  1
  Ti  Ti163  1  0.60220982  0.78181155  0.80523018  1
  Ti  Ti164  1  0.81188515  0.18960869  0.19985279  1
  Ti  Ti165  1  0.50485156  0.50284970  0.89733841  1
  Ti  Ti166  1  0.50381200  0.88970844  0.29717069  1
  Ti  Ti167  1  0.60992976  0.79712142  -0.00425801  1
  Ti  Ti168  1  0.80505497  -0.00148568  0.59925529  1
  Ti  Ti169  1  0.30544062  0.09738668  0.90577387  1
  Ti  Ti170  1  0.90181902  0.49900478  0.29826939  1
  Ti  Ti171  1  0.50940883  0.30486962  0.89854262  1
  Ti  Ti172  1  0.60107447  -0.00088012  0.59464763  1
  Ti  Ti173  1  0.60279958  0.20259849  0.40279655  1
  Ti  Ti174  1  -0.00620407  0.59714301  -0.00096308  1
  Ti  Ti175  1  0.31224097  0.50501282  0.49387358  1
  Ti  Ti176  1  0.09221262  0.30393348  0.10301387  1
  Ti  Ti177  1  0.29745676  0.30031361  0.70600286  1
  Ti  Ti178  1  0.20776713  0.60069893  0.20415757  1
  Ti  Ti179  1  0.50260888  0.89900847  0.49419828  1
  Ti  Ti180  1  0.80465209  -0.00460257  0.19614421  1
  Ti  Ti181  1  0.50334826  0.69090556  0.90165599  1
  Ti  Ti182  1  0.30003936  0.68807928  0.90567943  1
  Ti  Ti183  1  0.49988379  0.88169895  0.09096037  1
  Ti  Ti184  1  0.09106069  0.50233744  0.49166042  1
  Ti  Ti185  1  0.41189434  0.00089245  0.39423984  1
  Ti  Ti186  1  0.70445173  0.31887815  0.69962539  1
  Ti  Ti187  1  -0.00585243  0.80197021  0.00622168  1
  Ti  Ti188  1  0.69190380  0.69821769  0.29027454  1
  Ti  Ti189  1  0.90351888  0.50440268  0.10631053  1
  Ti  Ti190  1  -0.00081452  -0.00067042  0.80666424  1
  Ti  Ti191  1  0.18740861  0.40024788  -0.00151940  1
  Ti  Ti192  1  -0.00827128  0.80423406  0.40192830  1
  Ti  Ti193  1  0.70203252  0.29653986  0.10096502  1
  Ti  Ti194  1  0.40251356  0.79010829  -0.00409739  1
  Ti  Ti195  1  -0.00359270  -0.00248416  0.39852718  1
  Ti  Ti196  1  0.19728610  0.59451430  0.00606061  1
  Ti  Ti197  1  0.51106520  0.30987575  0.70571701  1
  Ti  Ti198  1  0.89724826  0.70516313  0.29984817  1
  Ti  Ti199  1  0.09680063  0.51038200  0.89754245  1
  Mo  Mo200  1  0.19678163  0.79565729  0.00493521  1
  Mo  Mo201  1  0.30938563  0.69443560  0.30106406  1
  Mo  Mo202  1  0.79831614  0.40158951  0.79834283  1
  Mo  Mo203  1  0.80141015  0.40078385  0.60853672  1
  Mo  Mo204  1  0.30240976  0.50358866  0.10140196  1
  Mo  Mo205  1  0.69418386  0.49972086  0.89502730  1
  Mo  Mo206  1  0.40363725  -0.01225934  -0.00016080  1
  Mo  Mo207  1  0.70340340  0.90072284  0.30123452  1
  Mo  Mo208  1  0.40076876  0.59435171  0.60096872  1
  Mo  Mo209  1  0.69157503  0.69880501  0.90862357  1
  Mo  Mo210  1  0.31254777  0.32050534  0.29360139  1
  Mo  Mo211  1  0.29928873  0.30475729  0.90189367  1
  Mo  Mo212  1  -0.00660040  0.41366856  0.19421745  1
  Mo  Mo213  1  0.69915230  0.88890656  0.09956616  1
  Mo  Mo214  1  0.41235438  0.59979668  -0.00639919  1
  Mo  Mo215  1  0.69923856  0.50849072  0.10312201  1
  Mo  Mo216  1  0.60010394  0.59690185  0.19343450  1
  Mo  Mo217  1  0.90160186  0.89987010  0.49979677  1
  Mo  Mo218  1  -0.01427304  0.60535346  0.20678001  1
  Mo  Mo219  1  0.89613333  0.08696579  0.29668354  1
  Mo  Mo220  1  0.69580436  0.70094042  0.70005773  1
  Mo  Mo221  1  0.30101021  0.11514486  0.70538303  1
  Mo  Mo222  1  0.21180931  0.59548225  0.80486909  1
  Mo  Mo223  1  0.30180649  0.50390428  0.71276358  1
  Mo  Mo224  1  0.09639069  0.08525296  0.29020002  1
  Mo  Mo225  1  0.90165370  0.89961186  0.10311704  1
  Mo  Mo226  1  0.60552469  0.20902611  0.19634929  1
  Mo  Mo227  1  0.50141977  0.29976644  0.50713539  1
  Mo  Mo228  1  -0.00207604  0.42051207  0.39914317  1
  Mo  Mo229  1  0.41528217  0.40482452  -0.00059895  1
  Mo  Mo230  1  0.60512320  0.20595655  -0.00463190  1
  Mo  Mo231  1  0.50135635  0.69415931  0.70889090  1
  Mo  Mo232  1  0.40047305  0.41093853  0.39428649  1
  Mo  Mo233  1  0.89152369  0.29950883  0.70324822  1
  Mo  Mo234  1  0.80153902  0.40515183  0.39124578  1
  Mo  Mo235  1  0.89757561  0.10133331  0.10169745  1
  Mo  Mo236  1  0.09595650  0.29107494  0.90492096  1
  Mo  Mo237  1  0.59385710  0.60213677  0.80395125  1
  Mo  Mo238  1  0.79987464  0.79750079  0.39522464  1
  Mo  Mo239  1  0.79945837  0.00085308  0.39792173  1
  Mo  Mo240  1  0.50406706  0.10811505  0.09489841  1
  Mo  Mo241  1  0.60029973  0.40332771  0.60699094  1
  Mo  Mo242  1  0.89772962  0.29658923  0.90446962  1
  Mo  Mo243  1  0.60092892  0.40331640  0.80034835  1
  Mo  Mo244  1  0.59447319  0.79437290  0.20079169  1
  Mo  Mo245  1  0.69594788  0.49299314  0.70177496  1
  Mo  Mo246  1  0.20053886  0.78547302  0.60246937  1
  Mo  Mo247  1  0.69479280  0.88846573  0.90495121  1
  Mo  Mo248  1  0.70343462  0.69802569  0.50353884  1
  Mo  Mo249  1  -0.00967508  0.59485856  0.80083243  1
