# generated using pymatgen
data_HfZrTaTiMo
_symmetry_space_group_name_H-M   'P 1'
_cell_length_a   16.87855720
_cell_length_b   16.89598669
_cell_length_c   16.88467759
_cell_angle_alpha   90.05377775
_cell_angle_beta   90.01891609
_cell_angle_gamma   90.00564163
_symmetry_Int_Tables_number   1
_chemical_formula_structural   HfZrTaTiMo
_chemical_formula_sum   'Hf50 Zr50 Ta50 Ti50 Mo50'
_cell_volume   4815.16788194
_cell_formula_units_Z   50
loop_
 _symmetry_equiv_pos_site_id
 _symmetry_equiv_pos_as_xyz
  1  'x, y, z'
loop_
 _atom_site_type_symbol
 _atom_site_label
 _atom_site_symmetry_multiplicity
 _atom_site_fract_x
 _atom_site_fract_y
 _atom_site_fract_z
 _atom_site_occupancy
  Hf  Hf0  1  0.90215214  0.29712035  0.30257448  1
  Hf  Hf1  1  0.30853752  0.10146513  0.71039161  1
  Hf  Hf2  1  0.60007515  0.59756188  0.79050875  1
  Hf  Hf3  1  0.70507315  0.09538023  0.30632331  1
  Hf  Hf4  1  0.40431658  0.19892388  0.60411105  1
  Hf  Hf5  1  0.59754291  0.20601947  0.42386268  1
  Hf  Hf6  1  0.70734383  0.70956432  0.50260270  1
  Hf  Hf7  1  0.09139427  0.10539380  0.29163174  1
  Hf  Hf8  1  0.50311824  0.89870743  0.29925113  1
  Hf  Hf9  1  0.30555189  0.50282640  0.09827823  1
  Hf  Hf10  1  -0.00748520  -0.00817499  0.39416310  1
  Hf  Hf11  1  0.70288255  0.70058893  0.90538331  1
  Hf  Hf12  1  0.70505886  0.09245526  0.50487898  1
  Hf  Hf13  1  0.20246603  0.20397496  0.19036821  1
  Hf  Hf14  1  0.90188959  0.49640751  0.50647028  1
  Hf  Hf15  1  0.89723507  0.70547383  0.50578089  1
  Hf  Hf16  1  0.51454205  0.10565703  0.29491476  1
  Hf  Hf17  1  -0.00669407  0.19862355  0.40606247  1
  Hf  Hf18  1  0.29932187  0.30390929  0.50571269  1
  Hf  Hf19  1  0.49753396  0.30650103  0.71339209  1
  Hf  Hf20  1  0.50080552  0.69925056  0.89427578  1
  Hf  Hf21  1  0.70314859  0.70207565  0.10050855  1
  Hf  Hf22  1  0.49905481  0.90498778  0.50686859  1
  Hf  Hf23  1  0.29638664  0.10319047  0.30003273  1
  Hf  Hf24  1  -0.00220216  0.59738334  0.40207706  1
  Hf  Hf25  1  0.09479622  0.29742372  0.29727607  1
  Hf  Hf26  1  0.10021984  0.09876597  0.70458217  1
  Hf  Hf27  1  0.69799820  0.49606714  0.89801109  1
  Hf  Hf28  1  0.69771755  0.49507327  0.69227996  1
  Hf  Hf29  1  0.90298388  0.29508119  0.09539644  1
  Hf  Hf30  1  0.40196242  0.40826369  0.40169385  1
  Hf  Hf31  1  0.40242773  0.19973802  0.19408175  1
  Hf  Hf32  1  0.79678091  0.40039276  0.19600362  1
  Hf  Hf33  1  0.00010862  0.80367683  0.39844305  1
  Hf  Hf34  1  0.29544140  0.51258293  0.50690852  1
  Hf  Hf35  1  0.89213389  0.09594122  0.09462848  1
  Hf  Hf36  1  0.71444633  0.89829743  0.31405829  1
  Hf  Hf37  1  0.69762593  0.89987244  0.69660466  1
  Hf  Hf38  1  0.79165316  0.40169083  0.40004538  1
  Hf  Hf39  1  0.19728679  0.40447214  0.39893117  1
  Hf  Hf40  1  -0.00305446  0.40377477  0.19768034  1
  Hf  Hf41  1  0.01176932  0.79609007  0.60764723  1
  Hf  Hf42  1  0.58737329  0.39998867  0.41231673  1
  Hf  Hf43  1  0.11462527  0.68900414  0.50074613  1
  Hf  Hf44  1  0.90553610  0.71083949  0.90668815  1
  Hf  Hf45  1  0.09586999  0.88634170  0.09612650  1
  Hf  Hf46  1  0.79536773  0.81103289  0.81231731  1
  Hf  Hf47  1  0.19805017  -0.00266384  0.19226636  1
  Hf  Hf48  1  0.80914908  0.60584859  0.20278279  1
  Hf  Hf49  1  0.39620817  0.79155451  0.59842608  1
  Zr  Zr50  1  0.90517637  0.70542588  0.70759616  1
  Zr  Zr51  1  0.49905813  0.50354240  0.09893506  1
  Zr  Zr52  1  0.80124816  0.20508651  0.60096410  1
  Zr  Zr53  1  0.40609776  0.41026821  0.60339177  1
  Zr  Zr54  1  0.09480463  0.50011592  0.29932662  1
  Zr  Zr55  1  0.10024074  0.70191509  0.29497477  1
  Zr  Zr56  1  0.90369602  0.08585073  0.69900918  1
  Zr  Zr57  1  0.00448715  0.19768502  -0.00134043  1
  Zr  Zr58  1  0.69704144  0.50707340  0.09765946  1
  Zr  Zr59  1  0.70565455  0.10183393  0.90340275  1
  Zr  Zr60  1  0.40375297  0.79188836  0.40204677  1
  Zr  Zr61  1  0.30561356  0.91027322  0.70242332  1
  Zr  Zr62  1  0.10203122  0.49847264  0.70506447  1
  Zr  Zr63  1  0.40204480  0.20389913  0.40680948  1
  Zr  Zr64  1  0.79606305  0.19428770  0.19895181  1
  Zr  Zr65  1  0.49808275  0.51390461  0.29711799  1
  Zr  Zr66  1  0.09321433  0.09613403  0.50618894  1
  Zr  Zr67  1  0.59242759  0.00550009  0.80623746  1
  Zr  Zr68  1  0.20465162  0.39348116  -0.00042729  1
  Zr  Zr69  1  0.60052451  0.38908054  -0.00716938  1
  Zr  Zr70  1  0.39914059  -0.00072239  0.19397908  1
  Zr  Zr71  1  0.59611053  0.38450077  0.19266613  1
  Zr  Zr72  1  0.39554184  0.39333510  0.20204390  1
  Zr  Zr73  1  -0.00286345  0.20645831  0.60221646  1
  Zr  Zr74  1  0.69511473  0.51101805  0.50397946  1
  Zr  Zr75  1  0.19176360  0.79686412  0.79359363  1
  Zr  Zr76  1  0.50338412  0.89643081  0.09943360  1
  Zr  Zr77  1  0.69332529  0.30911054  0.70465214  1
  Zr  Zr78  1  0.39637575  0.00504062  0.40276635  1
  Zr  Zr79  1  -0.00429563  0.59392308  -0.00308094  1
  Zr  Zr80  1  0.09539926  0.70083273  0.09911357  1
  Zr  Zr81  1  0.29417683  0.69652336  0.89854050  1
  Zr  Zr82  1  0.90510761  0.90129428  0.70235658  1
  Zr  Zr83  1  0.40004177  0.59533311  0.78904215  1
  Zr  Zr84  1  0.89952611  0.09503909  0.89441979  1
  Zr  Zr85  1  0.80727639  0.59609726  0.80040354  1
  Zr  Zr86  1  0.69058632  0.28916521  0.30074237  1
  Zr  Zr87  1  0.19795930  -0.00137710  0.40039616  1
  Zr  Zr88  1  0.10218618  0.10395063  0.89050719  1
  Zr  Zr89  1  0.00039347  -0.01121211  -0.00455791  1
  Zr  Zr90  1  0.20320613  0.79816474  0.60182650  1
  Zr  Zr91  1  0.10311408  0.30573936  0.70930316  1
  Zr  Zr92  1  0.68858063  0.51141934  0.29475388  1
  Zr  Zr93  1  0.30523195  0.10276491  0.89855368  1
  Zr  Zr94  1  0.19570052  0.59720554  -0.00480567  1
  Zr  Zr95  1  0.80389156  0.20987373  0.79814278  1
  Zr  Zr96  1  0.49241688  0.91007381  0.69896300  1
  Zr  Zr97  1  0.40211349  0.79789999  -0.00212036  1
  Zr  Zr98  1  0.61154807  -0.00405523  0.19298657  1
  Zr  Zr99  1  0.50224084  0.69485414  0.11018702  1
  Ta  Ta100  1  0.59511162  0.60137496  -0.00538636  1
  Ta  Ta101  1  -0.00921972  -0.00921112  0.19853870  1
  Ta  Ta102  1  0.59517404  0.19701456  0.60858320  1
  Ta  Ta103  1  0.20513237  0.40064840  0.19871418  1
  Ta  Ta104  1  0.19756020  -0.00663358  0.80528951  1
  Ta  Ta105  1  0.29945219  0.69824865  0.30117225  1
  Ta  Ta106  1  0.80375290  0.60248882  0.60578079  1
  Ta  Ta107  1  0.39835081  0.79604191  0.79357156  1
  Ta  Ta108  1  0.49708752  0.49095181  0.88971702  1
  Ta  Ta109  1  0.20327945  0.00461703  0.60009022  1
  Ta  Ta110  1  0.50358184  0.10223003  0.08470908  1
  Ta  Ta111  1  0.20501369  0.59601486  0.20064767  1
  Ta  Ta112  1  0.70109352  0.09749748  0.08842239  1
  Ta  Ta113  1  0.29682694  0.89327882  0.29641128  1
  Ta  Ta114  1  0.60059389  0.20057305  -0.01017308  1
  Ta  Ta115  1  0.29835675  0.49239978  0.88892337  1
  Ta  Ta116  1  0.79989241  0.60842604  0.39509245  1
  Ta  Ta117  1  0.59358015  0.62378344  0.39686574  1
  Ta  Ta118  1  0.09662811  0.30081008  0.09947362  1
  Ta  Ta119  1  0.29877501  0.70037036  0.10110718  1
  Ta  Ta120  1  0.60021351  0.80110876  0.59618221  1
  Ta  Ta121  1  0.00710559  0.59834102  0.60329208  1
  Ta  Ta122  1  0.09613135  0.48864424  0.89396057  1
  Ta  Ta123  1  0.19765767  0.20169188  0.40999933  1
  Ta  Ta124  1  0.80810950  0.80416849  0.20161229  1
  Ta  Ta125  1  0.80268057  0.39758838  -0.00625364  1
  Ta  Ta126  1  0.29833823  0.30226656  0.71040519  1
  Ta  Ta127  1  0.39993476  0.39441293  -0.00949276  1
  Ta  Ta128  1  0.30495275  0.09908000  0.08646906  1
  Ta  Ta129  1  0.20163666  0.20063705  -0.00099978  1
  Ta  Ta130  1  0.89556175  0.08686028  0.50241766  1
  Ta  Ta131  1  0.29528237  0.89422057  0.09319647  1
  Ta  Ta132  1  0.60299592  0.80072486  0.40371650  1
  Ta  Ta133  1  0.88997850  0.89572636  0.50248698  1
  Ta  Ta134  1  0.19604766  0.40164519  0.59924340  1
  Ta  Ta135  1  0.69890638  0.09666611  0.70176402  1
  Ta  Ta136  1  0.29767000  0.89753437  0.90171477  1
  Ta  Ta137  1  0.50362645  0.69536115  0.68765227  1
  Ta  Ta138  1  0.19823005  -0.00328021  -0.00197711  1
  Ta  Ta139  1  0.60427722  0.80454715  -0.00580997  1
  Ta  Ta140  1  0.09904437  0.90118244  0.50476925  1
  Ta  Ta141  1  0.10078629  0.30406968  0.89567372  1
  Ta  Ta142  1  0.09893716  0.49452937  0.09958620  1
  Ta  Ta143  1  0.90725516  0.30874729  0.90157614  1
  Ta  Ta144  1  0.20260601  0.20206228  0.60067513  1
  Ta  Ta145  1  0.90118693  0.31391638  0.50278686  1
  Ta  Ta146  1  0.29218270  0.49644704  0.70346093  1
  Ta  Ta147  1  0.20497459  0.79653458  0.19869922  1
  Ta  Ta148  1  0.79905202  -0.02411960  -0.00604718  1
  Ta  Ta149  1  0.80618831  0.40258355  0.80437829  1
  Ti  Ti150  1  0.40216026  0.59558263  -0.00758547  1
  Ti  Ti151  1  0.90401808  0.32167730  0.69441511  1
  Ti  Ti152  1  0.39327529  0.60578306  0.21081418  1
  Ti  Ti153  1  0.39489464  0.79631148  0.20256927  1
  Ti  Ti154  1  0.29063887  0.68315851  0.69444812  1
  Ti  Ti155  1  0.70285844  0.28625615  0.08864004  1
  Ti  Ti156  1  0.60268911  -0.00695911  -0.00647032  1
  Ti  Ti157  1  0.59763636  0.00697783  0.60523151  1
  Ti  Ti158  1  0.20413345  0.80264918  0.39940582  1
  Ti  Ti159  1  0.59688202  0.80045827  0.79675965  1
  Ti  Ti160  1  0.49819682  0.09424019  0.50940459  1
  Ti  Ti161  1  0.30343570  0.68682889  0.49759322  1
  Ti  Ti162  1  -0.00711995  0.59988771  0.19687206  1
  Ti  Ti163  1  0.80149931  0.20110139  0.40984971  1
  Ti  Ti164  1  0.50305561  0.29345219  0.29974511  1
  Ti  Ti165  1  0.30370760  0.29374635  0.88889690  1
  Ti  Ti166  1  0.90371065  0.71640520  0.09651567  1
  Ti  Ti167  1  0.30603557  0.29428288  0.08928690  1
  Ti  Ti168  1  0.20662358  0.59399447  0.38964909  1
  Ti  Ti169  1  0.60458897  -0.00440667  0.40967659  1
  Ti  Ti170  1  0.79776535  -0.00908263  0.80890867  1
  Ti  Ti171  1  -0.00659762  0.20960205  0.79708915  1
  Ti  Ti172  1  0.89453798  0.09471436  0.30027309  1
  Ti  Ti173  1  0.89955767  0.49725409  0.30627361  1
  Ti  Ti174  1  0.29843953  0.90701988  0.50182793  1
  Ti  Ti175  1  0.00337517  0.60024885  0.80304595  1
  Ti  Ti176  1  0.49450273  0.89749426  0.89467466  1
  Ti  Ti177  1  0.59829434  0.19910872  0.80259391  1
  Ti  Ti178  1  0.60895187  0.78899693  0.21503981  1
  Ti  Ti179  1  0.29705378  0.29855385  0.30402744  1
  Ti  Ti180  1  0.70498083  0.89027328  0.09727384  1
  Ti  Ti181  1  0.40150781  -0.00384930  -0.00430034  1
  Ti  Ti182  1  0.09570057  0.70751966  0.89839983  1
  Ti  Ti183  1  0.49823691  0.28771372  0.08858049  1
  Ti  Ti184  1  0.89986121  0.71059577  0.30062009  1
  Ti  Ti185  1  0.49430184  0.29878397  0.89302179  1
  Ti  Ti186  1  0.79616412  -0.00842000  0.59811388  1
  Ti  Ti187  1  0.70284983  0.31002033  0.51585882  1
  Ti  Ti188  1  0.90662922  0.49580203  0.69923864  1
  Ti  Ti189  1  0.90263468  0.49406819  0.09027702  1
  Ti  Ti190  1  0.09168854  0.31243882  0.50166740  1
  Ti  Ti191  1  0.09671715  0.10064555  0.10117280  1
  Ti  Ti192  1  0.09521594  0.91136274  0.70191356  1
  Ti  Ti193  1  0.48974253  0.10875415  0.89829289  1
  Ti  Ti194  1  0.80577414  -0.01065572  0.19487071  1
  Ti  Ti195  1  0.49652994  0.53206718  0.50971592  1
  Ti  Ti196  1  0.80607630  0.59545469  -0.00088386  1
  Ti  Ti197  1  0.58642184  0.40448794  0.59723793  1
  Ti  Ti198  1  0.10028329  0.89406966  0.29278465  1
  Ti  Ti199  1  0.70090526  0.70467714  0.69416444  1
  Mo  Mo200  1  0.80403849  0.80121975  0.39972624  1
  Mo  Mo201  1  -0.00142399  0.79979867  -0.00242642  1
  Mo  Mo202  1  0.00959188  0.80457474  0.80570081  1
  Mo  Mo203  1  0.09966050  0.49939404  0.50352501  1
  Mo  Mo204  1  -0.00163723  0.18981046  0.19816451  1
  Mo  Mo205  1  0.39972337  -0.00401391  0.81798080  1
  Mo  Mo206  1  0.49729142  0.70610341  0.30042052  1
  Mo  Mo207  1  0.59754721  0.40197299  0.80230643  1
  Mo  Mo208  1  0.70575127  0.30019811  0.89895993  1
  Mo  Mo209  1  0.00182464  -0.00973548  0.59504022  1
  Mo  Mo210  1  0.00435780  0.40613937  0.60028802  1
  Mo  Mo211  1  0.20501768  0.20426355  0.80169576  1
  Mo  Mo212  1  0.68884859  0.89812909  0.90105946  1
  Mo  Mo213  1  0.19926847  0.80095089  -0.00033731  1
  Mo  Mo214  1  0.19288260  0.59736180  0.80111737  1
  Mo  Mo215  1  0.69778789  0.90207436  0.50499257  1
  Mo  Mo216  1  0.20331396  0.39789270  0.80302642  1
  Mo  Mo217  1  0.20025614  0.59723283  0.60376524  1
  Mo  Mo218  1  0.00765144  -0.01112078  0.80135800  1
  Mo  Mo219  1  0.50303261  0.10467068  0.70573418  1
  Mo  Mo220  1  0.80587572  0.40611270  0.60571832  1
  Mo  Mo221  1  0.50348384  0.50195311  0.69662267  1
  Mo  Mo222  1  0.40305847  0.20675985  -0.00375057  1
  Mo  Mo223  1  0.29443876  0.10434089  0.50724935  1
  Mo  Mo224  1  0.79435807  0.80187173  0.60585461  1
  Mo  Mo225  1  -0.00591605  0.80223701  0.20162098  1
  Mo  Mo226  1  0.39377347  0.01102201  0.59037400  1
  Mo  Mo227  1  0.29844246  0.50553379  0.29847343  1
  Mo  Mo228  1  0.59808757  0.19329452  0.17754760  1
  Mo  Mo229  1  0.90210127  0.49588857  0.89915961  1
  Mo  Mo230  1  0.70776445  0.70728745  0.30294135  1
  Mo  Mo231  1  0.60254003  0.60931960  0.59796790  1
  Mo  Mo232  1  0.60370083  0.61598793  0.20391511  1
  Mo  Mo233  1  0.40511283  0.20264853  0.80250911  1
  Mo  Mo234  1  0.79592432  0.20882870  -0.00466253  1
  Mo  Mo235  1  0.10403171  0.89445689  0.89926505  1
  Mo  Mo236  1  0.89969029  0.89980022  0.29715221  1
  Mo  Mo237  1  0.39841275  0.60491078  0.60133870  1
  Mo  Mo238  1  0.39706330  0.40029498  0.80227905  1
  Mo  Mo239  1  -0.00628156  0.40329649  0.80345002  1
  Mo  Mo240  1  0.00261513  0.39871266  -0.00011719  1
  Mo  Mo241  1  0.50295163  0.29743620  0.51228890  1
  Mo  Mo242  1  -0.00158092  0.39937948  0.40237066  1
  Mo  Mo243  1  0.10103429  0.68626465  0.70553175  1
  Mo  Mo244  1  0.91030677  0.89625077  0.89859625  1
  Mo  Mo245  1  0.89779436  0.89444961  0.10032721  1
  Mo  Mo246  1  0.39933157  0.60551417  0.40044769  1
  Mo  Mo247  1  0.80013754  0.80517564  0.00602945  1
  Mo  Mo248  1  0.80499717  -0.00171696  0.40626291  1
  Mo  Mo249  1  0.50563462  0.70411697  0.50242273  1
