# generated using pymatgen
data_HfZrTaTiMo
_symmetry_space_group_name_H-M   'P 1'
_cell_length_a   16.89168735
_cell_length_b   16.90264273
_cell_length_c   16.89141210
_cell_angle_alpha   90.00564376
_cell_angle_beta   89.98606715
_cell_angle_gamma   89.99377204
_symmetry_Int_Tables_number   1
_chemical_formula_structural   HfZrTaTiMo
_chemical_formula_sum   'Hf50 Zr50 Ta50 Ti50 Mo50'
_cell_volume   4822.73708469
_cell_formula_units_Z   50
loop_
 _symmetry_equiv_pos_site_id
 _symmetry_equiv_pos_as_xyz
  1  'x, y, z'
loop_
 _atom_site_type_symbol
 _atom_site_label
 _atom_site_symmetry_multiplicity
 _atom_site_fract_x
 _atom_site_fract_y
 _atom_site_fract_z
 _atom_site_occupancy
  Hf  Hf0  1  0.70270094  0.89320707  0.30033183  1
  Hf  Hf1  1  0.60770084  0.60079912  0.39976953  1
  Hf  Hf2  1  0.29207983  0.29304803  0.30080512  1
  Hf  Hf3  1  0.59910103  -0.00914683  0.19752661  1
  Hf  Hf4  1  0.39841908  -0.00701485  0.81090672  1
  Hf  Hf5  1  0.69984816  0.11600609  0.50223182  1
  Hf  Hf6  1  0.60083808  0.78929763  0.79758812  1
  Hf  Hf7  1  0.80060150  -0.00251563  0.20367835  1
  Hf  Hf8  1  0.58497539  0.22519792  -0.00083152  1
  Hf  Hf9  1  0.49982140  0.30514724  0.49910030  1
  Hf  Hf10  1  0.50869164  0.10002367  0.69631005  1
  Hf  Hf11  1  0.61270462  0.40072614  0.59465941  1
  Hf  Hf12  1  0.09651354  0.50626472  0.69766409  1
  Hf  Hf13  1  0.28457750  0.30528752  0.09897859  1
  Hf  Hf14  1  0.09871605  0.10077653  0.10833020  1
  Hf  Hf15  1  0.51071059  0.09686528  0.30589098  1
  Hf  Hf16  1  0.19943199  -0.00221215  0.80801081  1
  Hf  Hf17  1  -0.00363683  0.40321638  -0.00603351  1
  Hf  Hf18  1  0.09360944  0.89699055  0.70273243  1
  Hf  Hf19  1  0.19872048  0.60099094  0.00137060  1
  Hf  Hf20  1  0.30097458  0.69240325  0.69418507  1
  Hf  Hf21  1  0.40406346  0.80933775  0.18852241  1
  Hf  Hf22  1  0.79821151  0.79226712  0.00956539  1
  Hf  Hf23  1  0.00194224  0.60762208  0.19779018  1
  Hf  Hf24  1  0.20560963  0.80503441  0.00126621  1
  Hf  Hf25  1  0.52227862  0.49188269  0.09818394  1
  Hf  Hf26  1  0.61129061  -0.00486912  0.60019177  1
  Hf  Hf27  1  0.10228203  0.29300644  0.29384109  1
  Hf  Hf28  1  0.41046525  0.20264103  0.19758348  1
  Hf  Hf29  1  0.80360231  0.40179297  0.79647082  1
  Hf  Hf30  1  0.89328381  0.30925440  0.10250550  1
  Hf  Hf31  1  0.89372829  0.50573177  0.10235246  1
  Hf  Hf32  1  0.29566710  0.89436475  0.69956672  1
  Hf  Hf33  1  0.10295532  0.50057453  0.09759329  1
  Hf  Hf34  1  0.50964103  0.50456746  0.89942654  1
  Hf  Hf35  1  0.19752771  0.60382194  0.80226605  1
  Hf  Hf36  1  0.50223920  0.89665331  0.69995945  1
  Hf  Hf37  1  0.00755484  0.60332555  0.40048000  1
  Hf  Hf38  1  0.39881289  -0.00763076  0.58613432  1
  Hf  Hf39  1  0.49681943  0.50358342  0.69358716  1
  Hf  Hf40  1  0.18324070  0.19768046  0.59367343  1
  Hf  Hf41  1  -0.00160614  0.39487777  0.58455415  1
  Hf  Hf42  1  0.40215946  0.40065721  0.20039490  1
  Hf  Hf43  1  0.19515755  0.19517017  0.80433906  1
  Hf  Hf44  1  0.20492646  -0.00882449  0.00450925  1
  Hf  Hf45  1  0.40129133  0.79431196  0.80352759  1
  Hf  Hf46  1  0.80433297  0.40127202  0.40406450  1
  Hf  Hf47  1  0.80447898  -0.01025008  0.40162388  1
  Hf  Hf48  1  0.38746251  0.58359218  0.19614097  1
  Hf  Hf49  1  0.70206536  0.50925914  0.89864682  1
  Zr  Zr50  1  0.69628083  0.10361787  0.10215755  1
  Zr  Zr51  1  0.50529125  0.08729318  0.91038209  1
  Zr  Zr52  1  -0.01003961  0.19963427  0.19964648  1
  Zr  Zr53  1  0.49526010  0.69382002  0.49983786  1
  Zr  Zr54  1  -0.00590580  0.78290602  0.79741092  1
  Zr  Zr55  1  0.71043767  0.50500367  0.10224427  1
  Zr  Zr56  1  0.40457977  0.20341408  0.81112518  1
  Zr  Zr57  1  0.20784947  0.42664006  0.20824202  1
  Zr  Zr58  1  0.89915150  0.50966441  0.69087939  1
  Zr  Zr59  1  0.70005538  0.09785465  0.90401916  1
  Zr  Zr60  1  0.18912929  0.40824606  0.40391261  1
  Zr  Zr61  1  0.89387918  0.09461487  0.90950497  1
  Zr  Zr62  1  0.18707547  0.80397455  0.39983788  1
  Zr  Zr63  1  0.39800048  0.19866232  0.59292280  1
  Zr  Zr64  1  0.18809877  0.79310462  0.59653408  1
  Zr  Zr65  1  0.69339713  0.31937242  0.10427553  1
  Zr  Zr66  1  0.29253387  0.70028008  0.28919778  1
  Zr  Zr67  1  0.70188989  0.29023557  0.69205322  1
  Zr  Zr68  1  0.29710028  0.09838666  0.10687761  1
  Zr  Zr69  1  0.89482789  0.90032202  0.90158543  1
  Zr  Zr70  1  0.49703835  0.30451741  0.69358693  1
  Zr  Zr71  1  0.80103600  0.00191109  0.78162261  1
  Zr  Zr72  1  0.19834268  0.40413307  0.59012803  1
  Zr  Zr73  1  -0.00433408  0.00598109  0.59886438  1
  Zr  Zr74  1  0.49033089  0.50005592  0.50628557  1
  Zr  Zr75  1  -0.00695975  0.40253670  0.80316884  1
  Zr  Zr76  1  0.41645406  0.38926837  0.00051363  1
  Zr  Zr77  1  0.08641236  0.90176900  0.90330287  1
  Zr  Zr78  1  0.80430443  -0.00649863  0.60137447  1
  Zr  Zr79  1  0.29941784  0.10017777  0.69986368  1
  Zr  Zr80  1  0.89680002  0.10898208  0.49739233  1
  Zr  Zr81  1  0.29988778  0.69934442  0.49428431  1
  Zr  Zr82  1  0.89858884  0.10584056  0.30668024  1
  Zr  Zr83  1  0.60773847  0.78887398  0.59660247  1
  Zr  Zr84  1  0.70570188  0.89689055  0.89838220  1
  Zr  Zr85  1  0.50709614  0.89559310  0.48854253  1
  Zr  Zr86  1  0.49521818  0.69586844  0.09358743  1
  Zr  Zr87  1  0.31178367  0.69776874  0.90988588  1
  Zr  Zr88  1  0.09862060  0.30179316  0.70434352  1
  Zr  Zr89  1  0.29450516  0.89859909  0.29598422  1
  Zr  Zr90  1  -0.00062704  0.40469394  0.21057833  1
  Zr  Zr91  1  0.79696632  0.20716532  0.00451160  1
  Zr  Zr92  1  0.08778328  0.09606280  0.90629938  1
  Zr  Zr93  1  0.61207126  0.60877136  0.21086832  1
  Zr  Zr94  1  0.18944189  0.00101892  0.59068518  1
  Zr  Zr95  1  0.40439829  0.20506576  0.00587114  1
  Zr  Zr96  1  0.29513382  0.09841066  0.48777847  1
  Zr  Zr97  1  0.20450583  0.40762140  0.80345722  1
  Zr  Zr98  1  -0.00208339  0.78752926  0.00868848  1
  Zr  Zr99  1  0.40260456  0.19839074  0.39483333  1
  Ta  Ta100  1  0.19397997  0.79234362  0.80821942  1
  Ta  Ta101  1  0.60115592  0.20174817  0.80372014  1
  Ta  Ta102  1  0.60637482  0.79696730  0.19412487  1
  Ta  Ta103  1  0.60486008  -0.00495605  0.79864987  1
  Ta  Ta104  1  0.39733972  -0.00473897  0.39335621  1
  Ta  Ta105  1  0.19373851  0.59489348  0.39312592  1
  Ta  Ta106  1  0.90048324  0.70325925  0.29902919  1
  Ta  Ta107  1  -0.00371977  0.20327879  0.60086505  1
  Ta  Ta108  1  0.19110532  -0.00326929  0.39958869  1
  Ta  Ta109  1  0.89988358  0.89533821  0.10955604  1
  Ta  Ta110  1  -0.00295653  -0.00997616  0.21068137  1
  Ta  Ta111  1  0.39856713  0.59306909  0.80162573  1
  Ta  Ta112  1  0.40525465  -0.00344376  0.19945669  1
  Ta  Ta113  1  0.79602956  0.20839054  0.21061877  1
  Ta  Ta114  1  0.19135130  0.59801888  0.58515379  1
  Ta  Ta115  1  0.60482077  -0.01854043  0.00868439  1
  Ta  Ta116  1  -0.00187238  0.40238780  0.39970271  1
  Ta  Ta117  1  -0.00408440  0.79288938  0.60108278  1
  Ta  Ta118  1  0.80629948  0.39449747  0.59296028  1
  Ta  Ta119  1  -0.00349534  0.60607234  -0.00628684  1
  Ta  Ta120  1  0.71152636  0.50710562  0.50544773  1
  Ta  Ta121  1  0.00656617  0.61245093  0.59611768  1
  Ta  Ta122  1  0.71859516  0.69453785  0.69576512  1
  Ta  Ta123  1  0.29525590  0.30337777  0.90180593  1
  Ta  Ta124  1  0.39207607  0.59456604  0.39553209  1
  Ta  Ta125  1  0.50222909  0.88949331  0.90830040  1
  Ta  Ta126  1  0.80016969  0.79059429  0.19903693  1
  Ta  Ta127  1  0.10072837  0.09834008  0.30101422  1
  Ta  Ta128  1  0.49989112  0.49938745  0.30833147  1
  Ta  Ta129  1  0.89611754  0.50924476  0.30147730  1
  Ta  Ta130  1  -0.00193639  0.20571496  0.00191852  1
  Ta  Ta131  1  0.60394282  0.40070086  0.79786339  1
  Ta  Ta132  1  0.30149917  0.30525943  0.69936908  1
  Ta  Ta133  1  -0.00740790  0.19777028  0.79621358  1
  Ta  Ta134  1  0.60882356  0.78559060  0.39015699  1
  Ta  Ta135  1  0.69932884  0.10730717  0.30777676  1
  Ta  Ta136  1  -0.01188361  0.00733543  0.78231636  1
  Ta  Ta137  1  0.89833738  0.29577968  0.89723690  1
  Ta  Ta138  1  0.61147365  0.40547703  0.40201077  1
  Ta  Ta139  1  0.00214609  -0.00844281  0.39634629  1
  Ta  Ta140  1  0.80046264  0.79334758  0.40015021  1
  Ta  Ta141  1  0.19405831  0.20163901  -0.00232142  1
  Ta  Ta142  1  0.70551914  0.50898099  0.69698807  1
  Ta  Ta143  1  0.10388007  0.30101704  0.09953327  1
  Ta  Ta144  1  0.89626041  0.70019232  0.50102153  1
  Ta  Ta145  1  0.70512174  0.69940505  0.89464942  1
  Ta  Ta146  1  0.60416685  0.79676976  0.00766420  1
  Ta  Ta147  1  0.79756466  0.60563852  0.39797867  1
  Ta  Ta148  1  0.81281296  0.60605944  0.80347910  1
  Ta  Ta149  1  0.39639620  0.80115941  0.59368692  1
  Ti  Ti150  1  0.09761762  0.50302733  0.90138481  1
  Ti  Ti151  1  0.29798929  0.70138815  0.10215648  1
  Ti  Ti152  1  0.09957944  0.30120184  0.90512635  1
  Ti  Ti153  1  0.80358467  0.40613156  -0.01361536  1
  Ti  Ti154  1  0.89959334  0.51032992  0.49974676  1
  Ti  Ti155  1  0.39898051  0.58801961  0.00466925  1
  Ti  Ti156  1  0.70017483  0.29985735  0.30517377  1
  Ti  Ti157  1  0.50184080  0.69449340  0.90523066  1
  Ti  Ti158  1  0.69952066  0.30497497  0.89584327  1
  Ti  Ti159  1  0.79926722  0.40276747  0.21910958  1
  Ti  Ti160  1  0.10208533  0.71018535  0.28880633  1
  Ti  Ti161  1  0.60203227  0.60541809  0.79111680  1
  Ti  Ti162  1  0.30293853  0.09974341  0.91122050  1
  Ti  Ti163  1  0.70526945  0.88599594  0.49859402  1
  Ti  Ti164  1  0.81007027  0.61149959  -0.00183585  1
  Ti  Ti165  1  0.59938602  0.20709989  0.20371900  1
  Ti  Ti166  1  0.49246597  0.69912494  0.29877215  1
  Ti  Ti167  1  -0.00391799  0.80210100  0.39275047  1
  Ti  Ti168  1  -0.00157539  0.60671065  0.80776586  1
  Ti  Ti169  1  0.89404110  0.09673259  0.10081722  1
  Ti  Ti170  1  -0.00597249  -0.00380463  0.01901847  1
  Ti  Ti171  1  0.09691472  0.89178375  0.11586717  1
  Ti  Ti172  1  0.30150852  0.49239633  0.91040558  1
  Ti  Ti173  1  0.80547016  0.20093616  0.79380205  1
  Ti  Ti174  1  0.00051265  0.21172765  0.40648406  1
  Ti  Ti175  1  0.38900265  0.40701722  0.39866536  1
  Ti  Ti176  1  0.08763535  0.89727250  0.49780516  1
  Ti  Ti177  1  0.39925729  0.80301387  0.39830267  1
  Ti  Ti178  1  0.69939803  0.11009844  0.69463478  1
  Ti  Ti179  1  0.90069968  0.88739642  0.50117927  1
  Ti  Ti180  1  0.60440461  0.21254259  0.40262488  1
  Ti  Ti181  1  0.80289776  0.21927381  0.40247665  1
  Ti  Ti182  1  0.50938227  0.09963823  0.49629223  1
  Ti  Ti183  1  0.39899300  0.40417080  0.80063493  1
  Ti  Ti184  1  0.29093276  0.09925948  0.29552589  1
  Ti  Ti185  1  0.71080145  0.88254827  0.70066283  1
  Ti  Ti186  1  0.10795852  0.70436621  0.10902542  1
  Ti  Ti187  1  0.49011846  0.68902227  0.69083853  1
  Ti  Ti188  1  0.60787700  -0.00457658  0.40200370  1
  Ti  Ti189  1  0.50463953  0.30889391  0.30539481  1
  Ti  Ti190  1  0.30759464  0.50026905  0.68655496  1
  Ti  Ti191  1  0.50397808  0.09292254  0.09921422  1
  Ti  Ti192  1  0.61280503  0.61174489  0.00267947  1
  Ti  Ti193  1  0.18769149  0.19577853  0.40555050  1
  Ti  Ti194  1  0.29954472  0.30352653  0.50093590  1
  Ti  Ti195  1  0.60927926  0.40924546  0.22324867  1
  Ti  Ti196  1  0.61113820  0.60326403  0.59890149  1
  Ti  Ti197  1  0.39850218  -0.02298715  0.01178395  1
  Ti  Ti198  1  0.19536042  -0.00772513  0.20334128  1
  Ti  Ti199  1  0.50501865  0.89501170  0.30200887  1
  Mo  Mo200  1  0.89321893  0.11744230  0.69577902  1
  Mo  Mo201  1  0.70767124  0.69721956  0.49985104  1
  Mo  Mo202  1  0.29801263  0.49898660  0.08236736  1
  Mo  Mo203  1  0.70257482  0.69807063  0.09687916  1
  Mo  Mo204  1  0.50133891  0.31095823  0.87954012  1
  Mo  Mo205  1  0.29618161  0.50503884  0.49883598  1
  Mo  Mo206  1  0.89803627  0.50513846  0.90344274  1
  Mo  Mo207  1  0.09205682  0.70376366  0.49411186  1
  Mo  Mo208  1  0.70127728  0.30284434  0.49642914  1
  Mo  Mo209  1  0.60961953  0.40126723  -0.01700673  1
  Mo  Mo210  1  0.89775492  0.88388265  0.69433762  1
  Mo  Mo211  1  0.30212514  0.50119888  0.31030395  1
  Mo  Mo212  1  0.89747650  0.30566090  0.30487062  1
  Mo  Mo213  1  0.80118546  0.79171968  0.79261614  1
  Mo  Mo214  1  0.09573407  0.90217057  0.29729733  1
  Mo  Mo215  1  0.38848316  0.40040856  0.59824716  1
  Mo  Mo216  1  0.79940193  -0.00956757  0.01978050  1
  Mo  Mo217  1  0.09571614  0.51074512  0.30003531  1
  Mo  Mo218  1  0.19676892  0.80289469  0.19126580  1
  Mo  Mo219  1  0.70596404  0.50040191  0.30739251  1
  Mo  Mo220  1  0.09069696  0.10134804  0.48533443  1
  Mo  Mo221  1  0.08783367  0.10179788  0.70351350  1
  Mo  Mo222  1  0.30034713  0.90154390  0.10371085  1
  Mo  Mo223  1  0.10065307  0.69582245  0.69996624  1
  Mo  Mo224  1  0.30628954  0.89545276  0.90253208  1
  Mo  Mo225  1  0.89899541  0.69815298  0.10546666  1
  Mo  Mo226  1  0.60077540  0.19748228  0.59652125  1
  Mo  Mo227  1  0.90179904  0.69667469  0.69596415  1
  Mo  Mo228  1  0.40464907  0.80207323  0.00061358  1
  Mo  Mo229  1  0.80630103  0.20723547  0.59946136  1
  Mo  Mo230  1  0.89682566  0.69777664  0.90163537  1
  Mo  Mo231  1  0.09369894  0.50686907  0.49735964  1
  Mo  Mo232  1  0.10026142  0.69528791  0.90063707  1
  Mo  Mo233  1  0.70877615  0.70133030  0.29838847  1
  Mo  Mo234  1  0.80696954  0.60136333  0.59548739  1
  Mo  Mo235  1  0.50230060  0.89814292  0.09858902  1
  Mo  Mo236  1  0.70359593  0.89338984  0.10482635  1
  Mo  Mo237  1  0.51431791  0.31072731  0.12624444  1
  Mo  Mo238  1  -0.00007995  0.79959401  0.20434726  1
  Mo  Mo239  1  0.19674364  0.19053885  0.20035034  1
  Mo  Mo240  1  0.09329773  0.29491167  0.49268456  1
  Mo  Mo241  1  0.38882114  0.59905714  0.60023138  1
  Mo  Mo242  1  0.90000737  0.30140520  0.49849527  1
  Mo  Mo243  1  0.30411193  0.89957090  0.49189221  1
  Mo  Mo244  1  0.19214522  0.39811992  -0.00667834  1
  Mo  Mo245  1  0.90217570  0.88947883  0.30228516  1
  Mo  Mo246  1  0.19840646  0.60855823  0.19730746  1
  Mo  Mo247  1  0.80698729  0.79603099  0.59660599  1
  Mo  Mo248  1  0.80594259  0.60639001  0.20659338  1
  Mo  Mo249  1  0.89697448  0.29751823  0.69747712  1
