# generated using pymatgen
data_HfZrTaTiMo
_symmetry_space_group_name_H-M   'P 1'
_cell_length_a   16.88218242
_cell_length_b   16.88137728
_cell_length_c   16.89592572
_cell_angle_alpha   90.02024332
_cell_angle_beta   89.98604440
_cell_angle_gamma   89.95845115
_symmetry_Int_Tables_number   1
_chemical_formula_structural   HfZrTaTiMo
_chemical_formula_sum   'Hf50 Zr50 Ta50 Ti50 Mo50'
_cell_volume   4815.24403797
_cell_formula_units_Z   50
loop_
 _symmetry_equiv_pos_site_id
 _symmetry_equiv_pos_as_xyz
  1  'x, y, z'
loop_
 _atom_site_type_symbol
 _atom_site_label
 _atom_site_symmetry_multiplicity
 _atom_site_fract_x
 _atom_site_fract_y
 _atom_site_fract_z
 _atom_site_occupancy
  Hf  Hf0  1  0.19320014  0.19098393  0.59402453  1
  Hf  Hf1  1  0.69282729  0.50625345  0.30547442  1
  Hf  Hf2  1  0.20307750  0.81002704  0.00679890  1
  Hf  Hf3  1  0.09872542  0.30048100  0.69061964  1
  Hf  Hf4  1  0.61230997  -0.00715816  0.79389133  1
  Hf  Hf5  1  0.29876016  0.50223006  0.50977794  1
  Hf  Hf6  1  0.69820609  0.29951082  0.30223195  1
  Hf  Hf7  1  0.49820852  0.90128997  0.51018506  1
  Hf  Hf8  1  0.69764966  0.29628030  0.89187271  1
  Hf  Hf9  1  0.70330624  0.09707739  0.50271071  1
  Hf  Hf10  1  -0.00052915  0.60494280  0.19581661  1
  Hf  Hf11  1  0.49686891  0.30107633  0.88694762  1
  Hf  Hf12  1  0.00013777  0.80357179  0.79382124  1
  Hf  Hf13  1  0.60156800  0.00318741  0.61020151  1
  Hf  Hf14  1  0.00668660  -0.00112489  0.40724498  1
  Hf  Hf15  1  0.50274501  0.49997565  0.69765136  1
  Hf  Hf16  1  0.90768429  0.69794608  0.30697805  1
  Hf  Hf17  1  0.80105414  0.78892328  0.19399585  1
  Hf  Hf18  1  0.30713284  0.29930104  0.09755061  1
  Hf  Hf19  1  0.10710611  0.70642819  0.90151325  1
  Hf  Hf20  1  0.00182171  0.39926442  0.40117899  1
  Hf  Hf21  1  0.21003167  0.39865296  0.79628393  1
  Hf  Hf22  1  0.00126976  0.19817945  0.00469805  1
  Hf  Hf23  1  0.91447389  0.90102790  0.10324266  1
  Hf  Hf24  1  -0.00465885  0.60711961  0.78909222  1
  Hf  Hf25  1  0.80832189  0.19381786  0.60311093  1
  Hf  Hf26  1  0.89668875  0.90890324  0.90017797  1
  Hf  Hf27  1  0.69305237  0.50677237  0.87582795  1
  Hf  Hf28  1  0.60213225  0.79764418  0.40884426  1
  Hf  Hf29  1  -0.00369829  0.40419323  0.58886912  1
  Hf  Hf30  1  0.20029213  0.39714846  0.40011897  1
  Hf  Hf31  1  0.68366076  0.50078962  0.11532274  1
  Hf  Hf32  1  0.19668098  0.39679454  0.00160825  1
  Hf  Hf33  1  -0.00096776  0.60473388  0.00476966  1
  Hf  Hf34  1  0.89113594  0.70093376  0.89559474  1
  Hf  Hf35  1  0.40095462  0.79543850  0.79478291  1
  Hf  Hf36  1  0.68964328  0.30046492  0.10386625  1
  Hf  Hf37  1  0.50381646  0.89567721  0.89984763  1
  Hf  Hf38  1  0.69449974  0.69241229  0.30537947  1
  Hf  Hf39  1  -0.00235483  0.60788610  0.58927694  1
  Hf  Hf40  1  0.49725359  0.30468937  0.10254021  1
  Hf  Hf41  1  0.69909559  0.69227246  0.69609940  1
  Hf  Hf42  1  0.30627654  0.09677993  0.69251908  1
  Hf  Hf43  1  0.40719514  0.60492014  -0.01138427  1
  Hf  Hf44  1  0.59136008  0.19552685  0.40657884  1
  Hf  Hf45  1  0.00926351  0.19294413  0.40386298  1
  Hf  Hf46  1  0.10188474  0.50466219  0.89833530  1
  Hf  Hf47  1  0.69362029  0.10399050  0.10029872  1
  Hf  Hf48  1  0.69920704  0.89950997  0.30493521  1
  Hf  Hf49  1  0.69284981  0.69824716  0.88898238  1
  Zr  Zr50  1  0.29120027  0.09324952  0.09914769  1
  Zr  Zr51  1  0.49161337  0.10142246  0.89261035  1
  Zr  Zr52  1  0.20011280  0.40052056  0.20589388  1
  Zr  Zr53  1  0.80680002  0.00377885  0.19402446  1
  Zr  Zr54  1  0.90165323  0.29677673  0.29994140  1
  Zr  Zr55  1  0.29959995  0.69821837  0.10032163  1
  Zr  Zr56  1  0.91166159  0.89411994  0.29663662  1
  Zr  Zr57  1  0.10447909  0.70749833  0.68785699  1
  Zr  Zr58  1  0.40206098  0.79990678  0.20332426  1
  Zr  Zr59  1  0.19585723  -0.00021045  0.78929802  1
  Zr  Zr60  1  0.09044003  0.50637396  0.30336454  1
  Zr  Zr61  1  0.90392099  0.49556012  0.10214171  1
  Zr  Zr62  1  0.11015793  0.50361747  0.68457977  1
  Zr  Zr63  1  0.70948010  0.09891194  0.89847695  1
  Zr  Zr64  1  0.19768998  0.80937800  0.20342866  1
  Zr  Zr65  1  0.70315404  0.29581851  0.49935032  1
  Zr  Zr66  1  0.79068663  0.81547916  0.79146104  1
  Zr  Zr67  1  0.09513056  0.29903211  0.89819085  1
  Zr  Zr68  1  0.30438395  0.09976411  0.49920892  1
  Zr  Zr69  1  0.39501384  -0.00512201  0.19994301  1
  Zr  Zr70  1  0.81170400  -0.00123433  0.40774551  1
  Zr  Zr71  1  0.79224889  0.80036198  0.00351806  1
  Zr  Zr72  1  0.30341837  0.49867702  0.09672171  1
  Zr  Zr73  1  0.51079302  0.68955817  0.51180552  1
  Zr  Zr74  1  0.21533429  0.60405428  0.79032905  1
  Zr  Zr75  1  -0.00356584  0.19280195  0.78875721  1
  Zr  Zr76  1  0.19320429  0.20933632  0.20870867  1
  Zr  Zr77  1  0.19886028  0.19629469  0.79505386  1
  Zr  Zr78  1  0.59746891  0.60246679  -0.00331312  1
  Zr  Zr79  1  0.60014388  0.19246851  0.78245264  1
  Zr  Zr80  1  0.39941964  0.59514792  0.40077305  1
  Zr  Zr81  1  0.80202176  0.40458721  0.20905891  1
  Zr  Zr82  1  0.89218977  0.50515758  0.89670783  1
  Zr  Zr83  1  0.80040638  0.60876352  0.58762328  1
  Zr  Zr84  1  0.68925720  0.90142163  0.10073949  1
  Zr  Zr85  1  0.09906343  0.08959748  0.10716347  1
  Zr  Zr86  1  0.39613080  0.80425891  0.60818247  1
  Zr  Zr87  1  0.78979482  0.40478214  -0.00236344  1
  Zr  Zr88  1  0.29592823  0.90268936  0.30869223  1
  Zr  Zr89  1  0.90111335  0.29885782  0.09874132  1
  Zr  Zr90  1  0.49786182  0.10235200  0.09955279  1
  Zr  Zr91  1  -0.00086784  0.00515204  0.79020772  1
  Zr  Zr92  1  0.29781797  0.90507599  0.89940769  1
  Zr  Zr93  1  0.70182571  0.10130167  0.30067255  1
  Zr  Zr94  1  0.79680615  0.39845625  0.78652635  1
  Zr  Zr95  1  0.59284481  0.40358802  0.41096150  1
  Zr  Zr96  1  0.49961323  0.49145551  0.10619759  1
  Zr  Zr97  1  0.39793079  0.59653854  0.21160141  1
  Zr  Zr98  1  0.49077208  0.09709586  0.30913241  1
  Zr  Zr99  1  -0.00484446  0.40308612  0.79313246  1
  Ta  Ta100  1  -0.00240806  0.18475450  0.59413186  1
  Ta  Ta101  1  0.50230242  0.49670098  0.88368096  1
  Ta  Ta102  1  0.80442133  0.00041085  0.60808720  1
  Ta  Ta103  1  0.79762260  0.40886258  0.59197558  1
  Ta  Ta104  1  0.59670267  -0.00345084  0.40969513  1
  Ta  Ta105  1  0.39516739  0.20280866  0.20937090  1
  Ta  Ta106  1  0.79966475  0.60636044  0.19441575  1
  Ta  Ta107  1  0.10373321  0.70164614  0.49727051  1
  Ta  Ta108  1  0.29153387  0.70043927  0.31091307  1
  Ta  Ta109  1  0.88959506  0.51002528  0.69239248  1
  Ta  Ta110  1  0.70652894  0.89648546  0.51011930  1
  Ta  Ta111  1  0.39829395  -0.00649573  0.40954566  1
  Ta  Ta112  1  0.90318661  0.89828729  0.68858538  1
  Ta  Ta113  1  0.09787455  0.90258364  0.68425428  1
  Ta  Ta114  1  0.30128977  0.09804418  0.89933858  1
  Ta  Ta115  1  0.59798394  -0.00355088  -0.00398665  1
  Ta  Ta116  1  0.39737400  0.79757506  0.40710222  1
  Ta  Ta117  1  0.19683440  0.59888303  0.20576543  1
  Ta  Ta118  1  0.40316505  0.60682394  0.79888433  1
  Ta  Ta119  1  0.50214135  0.89662466  0.30876913  1
  Ta  Ta120  1  0.10043152  0.70685876  0.30528244  1
  Ta  Ta121  1  0.40454320  -0.01015121  0.78737386  1
  Ta  Ta122  1  0.59044096  0.20187345  0.20630050  1
  Ta  Ta123  1  0.80367723  0.79440050  0.41413310  1
  Ta  Ta124  1  0.69876030  0.30123007  0.69318561  1
  Ta  Ta125  1  0.20801943  0.80489457  0.59802957  1
  Ta  Ta126  1  0.39650884  0.40158792  0.40314198  1
  Ta  Ta127  1  0.60204337  0.39984390  0.60184893  1
  Ta  Ta128  1  0.48786020  0.29717734  0.50767265  1
  Ta  Ta129  1  0.09897388  0.70490945  0.10512487  1
  Ta  Ta130  1  0.89716771  0.09917821  0.90048930  1
  Ta  Ta131  1  0.79338750  0.61015136  0.01515499  1
  Ta  Ta132  1  0.50548993  0.70017470  0.10317919  1
  Ta  Ta133  1  0.80351903  0.40961905  0.40965399  1
  Ta  Ta134  1  0.39779922  -0.00800033  0.00088214  1
  Ta  Ta135  1  0.19596095  -0.00148780  0.40795219  1
  Ta  Ta136  1  0.00649169  0.80224982  0.40772731  1
  Ta  Ta137  1  0.10458183  0.09189118  0.90859562  1
  Ta  Ta138  1  0.39305378  0.39904360  0.22244153  1
  Ta  Ta139  1  0.19934047  0.20057880  -0.00173022  1
  Ta  Ta140  1  0.91398081  0.09919290  0.29088600  1
  Ta  Ta141  1  0.89345241  0.29253817  0.89834965  1
  Ta  Ta142  1  0.59676824  0.79693342  0.20312742  1
  Ta  Ta143  1  0.09743354  0.90452662  0.90695369  1
  Ta  Ta144  1  0.40411827  0.79964280  0.00232919  1
  Ta  Ta145  1  0.31119524  0.29655751  0.68904595  1
  Ta  Ta146  1  0.19606660  0.59784037  0.40333669  1
  Ta  Ta147  1  0.20470854  0.80703905  0.79078314  1
  Ta  Ta148  1  0.49340562  0.29913282  0.30833880  1
  Ta  Ta149  1  0.29991533  0.70365789  0.89957460  1
  Ti  Ti150  1  0.29429471  0.10154699  0.31003124  1
  Ti  Ti151  1  0.00582436  0.20185478  0.19966452  1
  Ti  Ti152  1  0.10738398  0.09237830  0.30006063  1
  Ti  Ti153  1  0.00580571  0.39921207  0.00353351  1
  Ti  Ti154  1  0.30614298  0.29342263  0.50216674  1
  Ti  Ti155  1  0.39933226  0.40123885  -0.01292664  1
  Ti  Ti156  1  0.59690322  0.40146502  -0.01161136  1
  Ti  Ti157  1  0.48977538  0.10119001  0.50983295  1
  Ti  Ti158  1  0.89902971  0.29707732  0.49951563  1
  Ti  Ti159  1  0.49333589  0.30153861  0.69486269  1
  Ti  Ti160  1  0.29478746  0.69866412  0.50371575  1
  Ti  Ti161  1  0.81294188  0.19228085  0.40178442  1
  Ti  Ti162  1  0.50049872  0.89650589  0.10066236  1
  Ti  Ti163  1  0.30595061  0.49638653  0.68937125  1
  Ti  Ti164  1  0.10071181  0.90814151  0.10728671  1
  Ti  Ti165  1  0.59910230  0.80643727  0.79263732  1
  Ti  Ti166  1  0.79804002  0.00136481  0.00196795  1
  Ti  Ti167  1  0.59831589  0.79688197  0.00066194  1
  Ti  Ti168  1  0.48702715  0.10143790  0.69322807  1
  Ti  Ti169  1  -0.00196399  0.00544776  0.00250708  1
  Ti  Ti170  1  0.00223218  0.79799344  0.00505308  1
  Ti  Ti171  1  0.50967733  0.49885931  0.29982214  1
  Ti  Ti172  1  0.59782962  0.19915595  0.60258844  1
  Ti  Ti173  1  0.80479447  0.19229649  0.78744177  1
  Ti  Ti174  1  0.59456907  0.19913228  -0.00364413  1
  Ti  Ti175  1  0.39255773  0.60977701  0.61258429  1
  Ti  Ti176  1  0.49478354  0.50097434  0.51264344  1
  Ti  Ti177  1  0.50378684  0.69723670  0.30527558  1
  Ti  Ti178  1  0.68821532  0.51388009  0.49955616  1
  Ti  Ti179  1  0.30366684  0.50405272  0.89756913  1
  Ti  Ti180  1  0.10405039  0.29456354  0.49598007  1
  Ti  Ti181  1  0.80600377  0.19517931  0.00470684  1
  Ti  Ti182  1  0.01660700  0.39272695  0.19412815  1
  Ti  Ti183  1  0.80574170  0.19453893  0.19528264  1
  Ti  Ti184  1  0.80025974  0.60577904  0.40615038  1
  Ti  Ti185  1  0.30203371  0.28705284  0.31821233  1
  Ti  Ti186  1  0.51103939  0.69387273  0.70216143  1
  Ti  Ti187  1  0.39519132  0.40103587  0.79428093  1
  Ti  Ti188  1  0.89918530  0.50745781  0.30563484  1
  Ti  Ti189  1  0.19665772  0.59858164  0.00621765  1
  Ti  Ti190  1  0.90480119  0.50999421  0.48897937  1
  Ti  Ti191  1  0.19982969  0.80436085  0.40911970  1
  Ti  Ti192  1  0.89902420  0.30347506  0.69202280  1
  Ti  Ti193  1  0.90522783  0.89434916  0.51184941  1
  Ti  Ti194  1  0.10323999  0.89912640  0.50864712  1
  Ti  Ti195  1  0.20141408  0.39495755  0.59200227  1
  Ti  Ti196  1  0.39630307  0.19630996  -0.00293931  1
  Ti  Ti197  1  0.59293709  -0.00132498  0.20494543  1
  Ti  Ti198  1  0.30807644  0.28934572  0.89134841  1
  Ti  Ti199  1  0.60938813  0.80384022  0.60716108  1
  Mo  Mo200  1  0.59214129  0.60166759  0.79471489  1
  Mo  Mo201  1  0.40387076  -0.00126376  0.60284240  1
  Mo  Mo202  1  0.90600708  0.70768044  0.49554149  1
  Mo  Mo203  1  0.59406057  0.60781661  0.20672242  1
  Mo  Mo204  1  0.50540747  0.89661312  0.70157742  1
  Mo  Mo205  1  0.59733915  0.39447972  0.78801334  1
  Mo  Mo206  1  0.09819750  0.29683493  0.30190829  1
  Mo  Mo207  1  0.89613978  0.70675086  0.69303640  1
  Mo  Mo208  1  0.00957803  0.80002263  0.20196321  1
  Mo  Mo209  1  0.10306610  0.09291069  0.49947951  1
  Mo  Mo210  1  0.70430104  0.89934618  0.69206549  1
  Mo  Mo211  1  0.29572312  0.50388989  0.30963846  1
  Mo  Mo212  1  0.89966128  0.09178546  0.69788449  1
  Mo  Mo213  1  0.19870110  0.19768311  0.40122500  1
  Mo  Mo214  1  0.90307285  0.09559725  0.50036711  1
  Mo  Mo215  1  0.10022480  0.30099383  0.10094045  1
  Mo  Mo216  1  0.70933589  0.10249262  0.69774734  1
  Mo  Mo217  1  0.58863789  0.39249658  0.21403862  1
  Mo  Mo218  1  0.10317519  0.90017658  0.30754037  1
  Mo  Mo219  1  0.90438675  0.70444071  0.09998906  1
  Mo  Mo220  1  0.29671402  0.90242394  0.69540612  1
  Mo  Mo221  1  0.39688264  0.20024193  0.40442282  1
  Mo  Mo222  1  0.69694264  0.49861784  0.68762173  1
  Mo  Mo223  1  0.60270490  0.59240775  0.60098552  1
  Mo  Mo224  1  0.00164768  0.80268269  0.59365440  1
  Mo  Mo225  1  0.30230607  0.90321583  0.09690826  1
  Mo  Mo226  1  0.20595874  0.60745690  0.59160429  1
  Mo  Mo227  1  0.90119185  0.09791586  0.09990348  1
  Mo  Mo228  1  0.19860674  -0.00009338  -0.00196804  1
  Mo  Mo229  1  0.59444427  0.59803991  0.40709711  1
  Mo  Mo230  1  0.19672015  -0.00107895  0.21350692  1
  Mo  Mo231  1  0.70085320  0.70324608  0.50083365  1
  Mo  Mo232  1  0.00792331  -0.00137295  0.20667238  1
  Mo  Mo233  1  0.29790238  0.90085615  0.50147608  1
  Mo  Mo234  1  0.80034069  0.60354485  0.78714950  1
  Mo  Mo235  1  0.80372102  0.00473864  0.79300266  1
  Mo  Mo236  1  0.49905109  0.70445887  0.89819758  1
  Mo  Mo237  1  0.80603208  0.80200918  0.59808853  1
  Mo  Mo238  1  0.00068618  -0.00078849  0.59490318  1
  Mo  Mo239  1  0.40430592  0.20108177  0.60030747  1
  Mo  Mo240  1  0.10254231  0.50379516  0.09901108  1
  Mo  Mo241  1  0.68905935  0.69738428  0.10552870  1
  Mo  Mo242  1  0.39568951  0.19985695  0.79537261  1
  Mo  Mo243  1  0.09740483  0.09206735  0.68538709  1
  Mo  Mo244  1  0.10423324  0.50388554  0.49855260  1
  Mo  Mo245  1  0.30120277  0.70165556  0.69911828  1
  Mo  Mo246  1  0.69465825  0.90159416  0.90510468  1
  Mo  Mo247  1  0.00180664  0.60579959  0.40151833  1
  Mo  Mo248  1  0.40095944  0.39749941  0.59797170  1
  Mo  Mo249  1  0.19869174  -0.00636118  0.59455467  1
