# generated using pymatgen
data_HfZrTaTiMo
_symmetry_space_group_name_H-M   'P 1'
_cell_length_a   16.88888237
_cell_length_b   16.88677919
_cell_length_c   16.89250305
_cell_angle_alpha   90.02630721
_cell_angle_beta   90.03596511
_cell_angle_gamma   90.03398538
_symmetry_Int_Tables_number   1
_chemical_formula_structural   HfZrTaTiMo
_chemical_formula_sum   'Hf50 Zr50 Ta50 Ti50 Mo50'
_cell_volume   4817.71975408
_cell_formula_units_Z   50
loop_
 _symmetry_equiv_pos_site_id
 _symmetry_equiv_pos_as_xyz
  1  'x, y, z'
loop_
 _atom_site_type_symbol
 _atom_site_label
 _atom_site_symmetry_multiplicity
 _atom_site_fract_x
 _atom_site_fract_y
 _atom_site_fract_z
 _atom_site_occupancy
  Hf  Hf0  1  0.19358945  0.79598831  0.80189004  1
  Hf  Hf1  1  0.69972901  0.09391051  0.69103270  1
  Hf  Hf2  1  0.79817563  0.20023468  0.79377944  1
  Hf  Hf3  1  0.69872589  0.70193387  0.89587534  1
  Hf  Hf4  1  0.79809837  0.60057017  0.20626956  1
  Hf  Hf5  1  0.61268224  0.60706203  0.20029444  1
  Hf  Hf6  1  0.00308002  0.00619023  0.01306887  1
  Hf  Hf7  1  0.50249951  0.30823728  0.89507412  1
  Hf  Hf8  1  0.70458296  0.31047522  0.30347841  1
  Hf  Hf9  1  0.69877543  0.69314586  0.69202141  1
  Hf  Hf10  1  0.59742992  0.80014118  0.79335431  1
  Hf  Hf11  1  0.20106378  0.59233760  0.19700327  1
  Hf  Hf12  1  0.09014690  0.90435685  0.29577787  1
  Hf  Hf13  1  0.08738018  0.91015417  0.89106043  1
  Hf  Hf14  1  0.88997723  0.50049239  0.69150789  1
  Hf  Hf15  1  0.79141316  0.59745097  0.00163344  1
  Hf  Hf16  1  0.40041722  0.60009771  0.39725896  1
  Hf  Hf17  1  0.90109015  0.09251654  0.90212818  1
  Hf  Hf18  1  0.30586674  0.69741766  0.09514700  1
  Hf  Hf19  1  0.89073206  0.29865782  0.10018029  1
  Hf  Hf20  1  0.20078359  0.79577607  -0.00975281  1
  Hf  Hf21  1  0.70044376  0.30357004  0.10319440  1
  Hf  Hf22  1  0.91042084  0.89105910  0.50370400  1
  Hf  Hf23  1  0.19813803  0.59624448  0.59858300  1
  Hf  Hf24  1  0.70956275  0.10388992  0.90817198  1
  Hf  Hf25  1  0.59613241  0.20402649  0.39817580  1
  Hf  Hf26  1  0.20445047  0.00982782  0.40822914  1
  Hf  Hf27  1  0.29919620  0.89743953  0.10578397  1
  Hf  Hf28  1  0.49145878  0.11020076  0.90611431  1
  Hf  Hf29  1  0.21175295  0.19901997  0.39895616  1
  Hf  Hf30  1  0.60714437  -0.00247850  0.00662421  1
  Hf  Hf31  1  0.39910781  0.00361768  0.59673887  1
  Hf  Hf32  1  0.00575641  0.40667379  0.00349120  1
  Hf  Hf33  1  0.39492475  0.00628817  0.79682042  1
  Hf  Hf34  1  0.10699597  0.29088972  0.69285743  1
  Hf  Hf35  1  0.00288926  0.40355081  0.59606824  1
  Hf  Hf36  1  0.90213918  0.09781842  0.30453443  1
  Hf  Hf37  1  0.60175147  0.20719192  0.00338594  1
  Hf  Hf38  1  0.90913106  0.30098208  0.48545513  1
  Hf  Hf39  1  0.09248069  0.30206426  0.31256477  1
  Hf  Hf40  1  0.89620962  0.69829614  0.50437659  1
  Hf  Hf41  1  0.30184145  0.90686062  0.29604345  1
  Hf  Hf42  1  0.89491506  0.89518469  0.30566873  1
  Hf  Hf43  1  0.29005415  0.89949979  0.69632793  1
  Hf  Hf44  1  0.39908530  0.20383113  0.60224919  1
  Hf  Hf45  1  0.20218323  0.00685711  -0.00093096  1
  Hf  Hf46  1  -0.00003517  0.00200676  0.41246958  1
  Hf  Hf47  1  0.59312194  0.59135799  0.79493342  1
  Hf  Hf48  1  0.00875877  0.19680459  0.00651018  1
  Hf  Hf49  1  0.49359499  0.68859036  0.90096650  1
  Zr  Zr50  1  0.10230258  0.49801503  0.30770485  1
  Zr  Zr51  1  0.20646799  0.41375512  -0.00748639  1
  Zr  Zr52  1  0.30917017  0.30117389  0.09640683  1
  Zr  Zr53  1  0.29440209  0.89975893  0.50987449  1
  Zr  Zr54  1  0.40188125  0.59738884  0.20445775  1
  Zr  Zr55  1  0.40288384  0.39294931  0.39172944  1
  Zr  Zr56  1  -0.01125588  0.79736489  0.80173258  1
  Zr  Zr57  1  0.41536772  0.81491353  0.40333512  1
  Zr  Zr58  1  0.49740652  0.89533503  0.10669618  1
  Zr  Zr59  1  0.58847665  -0.01554769  0.39595804  1
  Zr  Zr60  1  0.20758654  0.20222040  0.20704361  1
  Zr  Zr61  1  0.78580882  0.39564836  0.79998350  1
  Zr  Zr62  1  0.89331982  0.29703590  0.90507293  1
  Zr  Zr63  1  0.20190012  0.59793340  0.80559969  1
  Zr  Zr64  1  0.39556771  0.19854920  0.39749754  1
  Zr  Zr65  1  0.70552936  0.90501706  0.50020589  1
  Zr  Zr66  1  0.50922048  0.69401463  0.50439716  1
  Zr  Zr67  1  0.79833561  0.20155720  0.40277052  1
  Zr  Zr68  1  0.39153634  0.00120718  -0.00301573  1
  Zr  Zr69  1  0.60350309  0.20762848  0.79745831  1
  Zr  Zr70  1  0.00243885  0.40344995  0.79725538  1
  Zr  Zr71  1  -0.01092221  0.79806924  -0.00184815  1
  Zr  Zr72  1  0.50865715  0.49887559  0.50261226  1
  Zr  Zr73  1  0.59840977  0.19485022  0.20925153  1
  Zr  Zr74  1  0.09607752  0.09475281  0.69742178  1
  Zr  Zr75  1  0.11137986  0.29543858  0.89538634  1
  Zr  Zr76  1  0.50433434  0.69970332  0.09806526  1
  Zr  Zr77  1  0.09918265  0.69104559  0.09222945  1
  Zr  Zr78  1  0.89613782  0.90025768  0.11197547  1
  Zr  Zr79  1  0.79767582  0.59337918  0.80207657  1
  Zr  Zr80  1  0.09287753  0.11181934  0.51043457  1
  Zr  Zr81  1  0.40356051  0.41222881  -0.01004302  1
  Zr  Zr82  1  0.10408058  0.49571328  0.49318564  1
  Zr  Zr83  1  0.00427351  0.40135586  0.19555469  1
  Zr  Zr84  1  0.19369950  0.80801310  0.40012789  1
  Zr  Zr85  1  0.78871519  -0.00063644  0.20175844  1
  Zr  Zr86  1  0.09444091  0.69891997  0.30757209  1
  Zr  Zr87  1  0.59837350  -0.00119863  0.20192384  1
  Zr  Zr88  1  0.29891892  0.70108936  0.69865576  1
  Zr  Zr89  1  0.29877885  0.70569394  0.50436349  1
  Zr  Zr90  1  0.79190342  0.39477745  0.58528744  1
  Zr  Zr91  1  0.80207361  0.80129057  0.60965612  1
  Zr  Zr92  1  -0.00576141  0.19530715  0.79305738  1
  Zr  Zr93  1  0.09983253  0.90096765  0.11092182  1
  Zr  Zr94  1  0.60340133  0.00126095  0.80446836  1
  Zr  Zr95  1  0.50560564  0.09326922  0.50283592  1
  Zr  Zr96  1  -0.00676262  0.59384302  0.19671138  1
  Zr  Zr97  1  0.00169554  0.19779004  0.19653141  1
  Zr  Zr98  1  0.50125098  0.89829005  0.90005281  1
  Zr  Zr99  1  0.08904702  0.71361047  0.50490189  1
  Ta  Ta100  1  0.09596755  0.09807644  0.30022555  1
  Ta  Ta101  1  0.81283881  0.00653322  0.59831883  1
  Ta  Ta102  1  -0.00485965  0.59608598  0.60196432  1
  Ta  Ta103  1  0.30574354  0.50097001  0.69969806  1
  Ta  Ta104  1  0.48925840  0.11064591  0.10149825  1
  Ta  Ta105  1  0.70556219  0.90335373  0.70127840  1
  Ta  Ta106  1  0.20879347  0.39755587  0.60294870  1
  Ta  Ta107  1  0.20086990  0.00387063  0.80119577  1
  Ta  Ta108  1  0.30984316  0.10754265  0.10191968  1
  Ta  Ta109  1  -0.01218006  0.59344492  0.40636176  1
  Ta  Ta110  1  0.10361541  0.10114592  0.89381156  1
  Ta  Ta111  1  -0.00343492  0.59750876  0.79841690  1
  Ta  Ta112  1  0.80576244  -0.00470306  0.80055726  1
  Ta  Ta113  1  0.60797425  0.79866541  0.00146034  1
  Ta  Ta114  1  0.70246783  0.09473316  0.50038267  1
  Ta  Ta115  1  0.29101492  0.10307065  0.69925687  1
  Ta  Ta116  1  0.60497372  0.20430479  0.59512396  1
  Ta  Ta117  1  0.88718838  0.10145290  0.09891166  1
  Ta  Ta118  1  0.40227227  0.20934453  0.21401311  1
  Ta  Ta119  1  0.50108472  0.30728860  0.69754303  1
  Ta  Ta120  1  0.40257507  0.79566307  0.79588377  1
  Ta  Ta121  1  -0.00878157  0.78883249  0.20200980  1
  Ta  Ta122  1  0.60954326  0.60038851  0.39343030  1
  Ta  Ta123  1  0.60418668  0.79743285  0.39812814  1
  Ta  Ta124  1  0.90735700  0.90870505  0.70391083  1
  Ta  Ta125  1  0.59803602  0.80567250  0.60003552  1
  Ta  Ta126  1  0.69975989  0.69280655  0.50384054  1
  Ta  Ta127  1  0.20610544  0.40314372  0.19665572  1
  Ta  Ta128  1  0.39758737  0.40289655  0.79792669  1
  Ta  Ta129  1  0.11303034  0.30172494  0.09761614  1
  Ta  Ta130  1  0.50892310  0.49961350  0.29936268  1
  Ta  Ta131  1  0.39374965  0.20441956  0.79349928  1
  Ta  Ta132  1  0.41615104  0.80097502  0.60937453  1
  Ta  Ta133  1  0.89657282  0.48618118  0.31117410  1
  Ta  Ta134  1  0.49605254  0.30417837  0.10582053  1
  Ta  Ta135  1  0.51074031  0.70477721  0.29826125  1
  Ta  Ta136  1  0.09105341  0.69939656  0.69659454  1
  Ta  Ta137  1  0.89022645  0.49594716  0.09772138  1
  Ta  Ta138  1  0.69664565  0.49377618  0.10297016  1
  Ta  Ta139  1  0.79801817  0.59446814  0.40109094  1
  Ta  Ta140  1  0.79620375  0.80317983  -0.00424482  1
  Ta  Ta141  1  0.40584778  0.59925448  0.60709869  1
  Ta  Ta142  1  0.89920119  0.29489338  0.68710631  1
  Ta  Ta143  1  0.50334809  0.30327592  0.50382847  1
  Ta  Ta144  1  0.39520494  0.79644589  -0.00948652  1
  Ta  Ta145  1  0.78987536  0.40269628  -0.00397240  1
  Ta  Ta146  1  0.39712664  0.39927259  0.60227555  1
  Ta  Ta147  1  0.49962579  0.49533999  0.69915332  1
  Ta  Ta148  1  0.21295516  0.40066425  0.79611068  1
  Ta  Ta149  1  0.10006423  0.29878275  0.49885597  1
  Ti  Ti150  1  0.79722291  -0.01403865  -0.00164184  1
  Ti  Ti151  1  0.78799182  0.78256898  0.19953209  1
  Ti  Ti152  1  0.80264791  0.40298894  0.20356649  1
  Ti  Ti153  1  0.60192685  0.39574235  0.59727549  1
  Ti  Ti154  1  0.21365479  0.20161434  0.59594154  1
  Ti  Ti155  1  0.89838547  0.49788540  0.90135392  1
  Ti  Ti156  1  0.50059984  0.50009293  0.10101324  1
  Ti  Ti157  1  0.79327581  0.79188105  0.39996480  1
  Ti  Ti158  1  0.69998236  0.88924294  0.29891267  1
  Ti  Ti159  1  0.50420949  0.10387287  0.69804088  1
  Ti  Ti160  1  0.60450672  0.39830332  0.40423338  1
  Ti  Ti161  1  0.19854902  0.01558495  0.19764002  1
  Ti  Ti162  1  0.60017816  0.59345044  0.00121902  1
  Ti  Ti163  1  0.30146992  0.30510772  0.50269316  1
  Ti  Ti164  1  0.20887825  0.60080411  0.39872458  1
  Ti  Ti165  1  0.70897932  0.10674426  0.09725883  1
  Ti  Ti166  1  0.19743498  0.79131935  0.20189605  1
  Ti  Ti167  1  0.30217923  0.70526737  0.30139855  1
  Ti  Ti168  1  0.89852885  0.70124560  0.30954100  1
  Ti  Ti169  1  -0.00512861  0.59209736  -0.00092827  1
  Ti  Ti170  1  0.59815016  0.40391581  0.00003756  1
  Ti  Ti171  1  0.89350343  0.69628398  0.09610852  1
  Ti  Ti172  1  0.30281206  0.29039041  0.89634656  1
  Ti  Ti173  1  0.69882559  0.88600109  0.10492731  1
  Ti  Ti174  1  0.09381721  0.90210455  0.68939965  1
  Ti  Ti175  1  0.70347441  0.09000213  0.31427444  1
  Ti  Ti176  1  0.68483959  0.49002247  0.89915028  1
  Ti  Ti177  1  0.50712715  0.91031006  0.69444330  1
  Ti  Ti178  1  0.30455280  0.49220853  0.29626240  1
  Ti  Ti179  1  0.21036213  0.59763823  -0.00921745  1
  Ti  Ti180  1  0.59188962  0.40031806  0.20307036  1
  Ti  Ti181  1  0.89716285  0.69623450  0.70013315  1
  Ti  Ti182  1  0.09045768  0.69072777  0.89972001  1
  Ti  Ti183  1  0.30390090  0.49902470  0.50274747  1
  Ti  Ti184  1  0.69232163  0.50176826  0.68620452  1
  Ti  Ti185  1  0.69627196  0.30111640  0.69266547  1
  Ti  Ti186  1  0.80324514  0.19760878  0.59358202  1
  Ti  Ti187  1  0.30864878  0.50416343  0.09625991  1
  Ti  Ti188  1  0.70102348  0.50401552  0.49935700  1
  Ti  Ti189  1  0.29972596  0.89657788  0.89292858  1
  Ti  Ti190  1  0.21118096  0.39559876  0.39959345  1
  Ti  Ti191  1  0.39928193  0.00623732  0.20409386  1
  Ti  Ti192  1  0.20695744  0.19208597  -0.00169850  1
  Ti  Ti193  1  0.40531297  0.79807350  0.20658011  1
  Ti  Ti194  1  0.89256264  0.69812787  0.89815630  1
  Ti  Ti195  1  0.09962880  0.50503122  0.89813912  1
  Ti  Ti196  1  0.70063331  0.49456222  0.30272971  1
  Ti  Ti197  1  0.79870423  0.19992307  0.20830576  1
  Ti  Ti198  1  0.10328436  0.50082309  0.70063064  1
  Ti  Ti199  1  0.48880261  0.09024532  0.30370329  1
  Mo  Mo200  1  -0.00043087  0.00064188  0.79754478  1
  Mo  Mo201  1  -0.00347782  -0.00045458  0.60300043  1
  Mo  Mo202  1  0.79417184  0.40503689  0.39813460  1
  Mo  Mo203  1  0.30635377  0.09303279  0.29654398  1
  Mo  Mo204  1  -0.01043200  0.20208244  0.59662374  1
  Mo  Mo205  1  0.60483160  0.00010449  0.60410913  1
  Mo  Mo206  1  0.79770681  0.20411945  0.00399588  1
  Mo  Mo207  1  0.50435605  0.49950257  0.89670834  1
  Mo  Mo208  1  0.10860793  0.49830894  0.08998052  1
  Mo  Mo209  1  0.61000305  0.79902504  0.20302728  1
  Mo  Mo210  1  0.79907447  0.00026829  0.40539694  1
  Mo  Mo211  1  0.89719797  0.50208632  0.49710721  1
  Mo  Mo212  1  0.29572074  0.11035396  0.89474515  1
  Mo  Mo213  1  0.89664955  0.09913037  0.69448770  1
  Mo  Mo214  1  0.70262136  0.69949307  0.09193315  1
  Mo  Mo215  1  0.60159552  0.59466270  0.59905074  1
  Mo  Mo216  1  0.00036776  0.00840746  0.20168185  1
  Mo  Mo217  1  0.29883203  0.31260308  0.29761418  1
  Mo  Mo218  1  0.70561043  0.89656829  0.89845522  1
  Mo  Mo219  1  0.40554203  0.40585764  0.19640284  1
  Mo  Mo220  1  0.49958546  0.69617588  0.69967745  1
  Mo  Mo221  1  0.00220020  0.19957626  0.39910956  1
  Mo  Mo222  1  0.30117821  0.30343061  0.69993937  1
  Mo  Mo223  1  0.59785319  0.40231622  0.78849468  1
  Mo  Mo224  1  0.31148647  0.51172483  0.88997391  1
  Mo  Mo225  1  0.79779053  0.59621376  0.59342312  1
  Mo  Mo226  1  0.89203787  0.90304697  0.89862366  1
  Mo  Mo227  1  0.70527150  0.70251661  0.30961526  1
  Mo  Mo228  1  0.09659112  0.90495504  0.51864633  1
  Mo  Mo229  1  0.50489362  0.31143601  0.29754426  1
  Mo  Mo230  1  0.39593428  0.00318015  0.39691456  1
  Mo  Mo231  1  0.20754589  0.19844529  0.80002796  1
  Mo  Mo232  1  0.30769106  0.70034526  0.89832603  1
  Mo  Mo233  1  0.69392485  0.29806580  0.50045444  1
  Mo  Mo234  1  0.40169982  0.59544655  0.79674376  1
  Mo  Mo235  1  -0.00328704  0.79779585  0.61277713  1
  Mo  Mo236  1  0.18435854  0.80428958  0.60680064  1
  Mo  Mo237  1  0.19558290  0.00152536  0.60400054  1
  Mo  Mo238  1  0.79960311  0.80815549  0.80390175  1
  Mo  Mo239  1  0.40085148  0.20626966  0.00186112  1
  Mo  Mo240  1  0.11322310  0.10550012  0.10306457  1
  Mo  Mo241  1  0.40041045  0.59723867  -0.00292387  1
  Mo  Mo242  1  -0.00279705  0.39960346  0.40045316  1
  Mo  Mo243  1  0.69510209  0.30778498  0.90395314  1
  Mo  Mo244  1  0.49725135  0.89513711  0.29268278  1
  Mo  Mo245  1  0.50500267  0.89789616  0.51046501  1
  Mo  Mo246  1  0.89784986  0.10368741  0.50406397  1
  Mo  Mo247  1  0.89635875  0.30354305  0.29696057  1
  Mo  Mo248  1  0.29878182  0.10161187  0.50746663  1
  Mo  Mo249  1  -0.00718843  0.79618412  0.39126852  1
