# generated using pymatgen
data_HfZrTaTiMo
_symmetry_space_group_name_H-M   'P 1'
_cell_length_a   16.89404361
_cell_length_b   16.88860412
_cell_length_c   16.88973513
_cell_angle_alpha   90.00112533
_cell_angle_beta   89.95857413
_cell_angle_gamma   90.00233297
_symmetry_Int_Tables_number   1
_chemical_formula_structural   HfZrTaTiMo
_chemical_formula_sum   'Hf50 Zr50 Ta50 Ti50 Mo50'
_cell_volume   4818.92416143
_cell_formula_units_Z   50
loop_
 _symmetry_equiv_pos_site_id
 _symmetry_equiv_pos_as_xyz
  1  'x, y, z'
loop_
 _atom_site_type_symbol
 _atom_site_label
 _atom_site_symmetry_multiplicity
 _atom_site_fract_x
 _atom_site_fract_y
 _atom_site_fract_z
 _atom_site_occupancy
  Hf  Hf0  1  0.50261059  0.69335071  0.09400354  1
  Hf  Hf1  1  0.30172053  0.70776835  0.69940474  1
  Hf  Hf2  1  0.18960883  0.19213352  -0.00949043  1
  Hf  Hf3  1  0.50015094  0.09973238  0.09661087  1
  Hf  Hf4  1  0.00960733  0.01143042  -0.00483444  1
  Hf  Hf5  1  0.30056398  0.30369588  0.29926943  1
  Hf  Hf6  1  0.70139433  0.10271803  0.70303675  1
  Hf  Hf7  1  -0.00709443  0.59902722  0.60473858  1
  Hf  Hf8  1  0.59665654  0.19730957  0.80508261  1
  Hf  Hf9  1  -0.01339291  0.19867876  0.40281449  1
  Hf  Hf10  1  0.79808080  0.79814167  0.00231742  1
  Hf  Hf11  1  0.90351854  0.69844864  0.29820831  1
  Hf  Hf12  1  0.40240525  0.21249781  -0.01602386  1
  Hf  Hf13  1  0.19468144  -0.00775574  0.59968830  1
  Hf  Hf14  1  0.59798956  0.20439453  -0.00719600  1
  Hf  Hf15  1  0.09839961  0.48982513  0.51166883  1
  Hf  Hf16  1  0.80791079  0.20535792  0.18885335  1
  Hf  Hf17  1  0.19505477  0.60400124  0.20436574  1
  Hf  Hf18  1  0.50732520  0.69794757  0.69509757  1
  Hf  Hf19  1  0.20523632  -0.00521048  0.19762001  1
  Hf  Hf20  1  0.09968214  0.89572252  0.09096805  1
  Hf  Hf21  1  0.70020739  0.69924135  0.30482967  1
  Hf  Hf22  1  0.09463819  0.10423313  0.29594011  1
  Hf  Hf23  1  0.79547860  0.40711589  0.39156872  1
  Hf  Hf24  1  0.60481472  0.79779278  0.19964144  1
  Hf  Hf25  1  0.79837765  0.40317584  0.19827701  1
  Hf  Hf26  1  0.69393940  0.30051839  0.49365009  1
  Hf  Hf27  1  0.79578689  0.59206219  0.79735600  1
  Hf  Hf28  1  0.30092142  0.49896573  0.10272616  1
  Hf  Hf29  1  0.29660243  0.30173975  0.10816485  1
  Hf  Hf30  1  0.90199844  0.69923149  0.70539798  1
  Hf  Hf31  1  0.19158768  -0.00722615  0.79895672  1
  Hf  Hf32  1  0.10437516  0.30707249  0.69993997  1
  Hf  Hf33  1  0.58576642  0.19586259  0.59675601  1
  Hf  Hf34  1  0.88081300  0.30127861  0.50966406  1
  Hf  Hf35  1  0.70120683  0.10051844  0.49861242  1
  Hf  Hf36  1  0.30504108  0.09484830  0.89157487  1
  Hf  Hf37  1  0.00210292  0.81270443  0.60165924  1
  Hf  Hf38  1  0.59371045  -0.00768965  0.61045909  1
  Hf  Hf39  1  0.30513492  0.69969592  0.08936514  1
  Hf  Hf40  1  0.41106234  0.79984040  0.40047454  1
  Hf  Hf41  1  0.31036260  0.50825333  0.90603775  1
  Hf  Hf42  1  0.09245112  0.10129811  0.69715337  1
  Hf  Hf43  1  -0.00432800  0.00002639  0.40340517  1
  Hf  Hf44  1  0.19640465  0.59868317  0.39984500  1
  Hf  Hf45  1  0.09883925  0.70912060  0.71217845  1
  Hf  Hf46  1  0.30616144  0.70211231  0.89711349  1
  Hf  Hf47  1  0.39712518  -0.00980387  0.20037183  1
  Hf  Hf48  1  -0.00010059  0.00087259  0.79945346  1
  Hf  Hf49  1  0.09395481  0.49146770  0.10360904  1
  Zr  Zr50  1  0.49822983  0.30125320  0.30543379  1
  Zr  Zr51  1  0.30122398  0.70402977  0.51145137  1
  Zr  Zr52  1  0.19601150  0.59877073  0.80559163  1
  Zr  Zr53  1  0.80215168  0.60091110  0.40408622  1
  Zr  Zr54  1  0.30129638  0.49601831  0.69859846  1
  Zr  Zr55  1  0.40374225  0.60047424  0.20372946  1
  Zr  Zr56  1  0.20342303  0.19323799  0.40813432  1
  Zr  Zr57  1  0.69926650  0.90510247  0.90050260  1
  Zr  Zr58  1  0.29519209  0.31186608  0.50133811  1
  Zr  Zr59  1  0.29673873  0.50002433  0.50251719  1
  Zr  Zr60  1  0.20304126  0.00171943  0.40413590  1
  Zr  Zr61  1  0.69464502  0.70128052  0.50683909  1
  Zr  Zr62  1  0.69709447  0.09914467  0.10629815  1
  Zr  Zr63  1  0.79573640  0.80754437  0.79284822  1
  Zr  Zr64  1  0.80096538  -0.00417072  0.61140931  1
  Zr  Zr65  1  0.20887693  0.19028861  0.60198451  1
  Zr  Zr66  1  0.18461902  0.60416376  0.00151806  1
  Zr  Zr67  1  0.39702663  0.19323787  0.59850809  1
  Zr  Zr68  1  -0.00601273  0.20600624  0.80519284  1
  Zr  Zr69  1  0.20408734  0.79936646  0.20142993  1
  Zr  Zr70  1  0.89890037  0.90327143  0.09815499  1
  Zr  Zr71  1  0.19990955  0.39539227  -0.01241790  1
  Zr  Zr72  1  0.40675286  -0.01336031  0.37925160  1
  Zr  Zr73  1  0.90664809  0.69952484  0.89901017  1
  Zr  Zr74  1  0.10459977  0.70266673  0.50836149  1
  Zr  Zr75  1  0.10014469  0.29991525  0.11071021  1
  Zr  Zr76  1  0.50275219  0.30270015  0.70186062  1
  Zr  Zr77  1  -0.00697742  0.20204675  0.00993630  1
  Zr  Zr78  1  0.70587550  0.30211009  0.68745259  1
  Zr  Zr79  1  0.31191154  0.90181943  0.51156723  1
  Zr  Zr80  1  0.70223280  0.91202880  0.10785079  1
  Zr  Zr81  1  0.91227642  0.50646044  0.29364895  1
  Zr  Zr82  1  0.30400510  0.09992985  0.09442048  1
  Zr  Zr83  1  0.09724013  0.30328443  0.29684145  1
  Zr  Zr84  1  0.51108065  0.90698612  0.09254726  1
  Zr  Zr85  1  0.80697503  0.40374505  0.79558962  1
  Zr  Zr86  1  0.41066373  0.39600736  -0.00220222  1
  Zr  Zr87  1  0.00472553  0.79549390  0.19582062  1
  Zr  Zr88  1  0.80246218  0.00389904  0.39528152  1
  Zr  Zr89  1  0.50361635  0.49655085  0.30483455  1
  Zr  Zr90  1  0.58605776  0.18940927  0.39681777  1
  Zr  Zr91  1  0.69784461  0.49814024  0.09051256  1
  Zr  Zr92  1  0.09475461  0.30111440  0.50799393  1
  Zr  Zr93  1  0.29965390  0.89392737  0.89379963  1
  Zr  Zr94  1  0.40531510  0.39202509  0.80838113  1
  Zr  Zr95  1  0.80775118  0.39616074  -0.00585828  1
  Zr  Zr96  1  0.48836263  0.07180570  0.50007125  1
  Zr  Zr97  1  0.40024667  0.80962821  0.20485867  1
  Zr  Zr98  1  0.69078886  0.89669712  0.49526888  1
  Zr  Zr99  1  -0.00204598  0.80043487  0.40564687  1
  Ta  Ta100  1  0.89701319  0.90300119  0.29308852  1
  Ta  Ta101  1  0.69777167  0.69623091  0.89746364  1
  Ta  Ta102  1  0.60396920  0.59830292  -0.00698733  1
  Ta  Ta103  1  0.60189167  0.40073736  0.19959797  1
  Ta  Ta104  1  0.09474672  0.90321352  0.30048241  1
  Ta  Ta105  1  0.89697084  0.90148586  0.50298268  1
  Ta  Ta106  1  0.60705053  0.59566391  0.20105162  1
  Ta  Ta107  1  0.80227057  0.79936054  0.60000317  1
  Ta  Ta108  1  0.80073813  0.79650840  0.20058604  1
  Ta  Ta109  1  0.40944514  0.40057404  0.59742092  1
  Ta  Ta110  1  0.80478111  0.80211137  0.40119199  1
  Ta  Ta111  1  0.30280285  0.69928919  0.31057581  1
  Ta  Ta112  1  0.69822549  0.30577276  0.89936323  1
  Ta  Ta113  1  0.50618711  0.50139782  0.69847385  1
  Ta  Ta114  1  0.60543309  0.59610976  0.79912526  1
  Ta  Ta115  1  0.41258094  0.59888294  0.79905922  1
  Ta  Ta116  1  0.19426422  0.59752229  0.60998887  1
  Ta  Ta117  1  0.90543457  0.90088139  0.90270902  1
  Ta  Ta118  1  0.09327282  0.49566418  0.70666669  1
  Ta  Ta119  1  0.49535627  0.08869874  0.89503728  1
  Ta  Ta120  1  0.60830522  0.41055750  0.80305741  1
  Ta  Ta121  1  0.30735357  0.10685741  0.29892255  1
  Ta  Ta122  1  0.79869061  0.60196806  0.19322319  1
  Ta  Ta123  1  0.80126160  0.00570752  0.80404105  1
  Ta  Ta124  1  0.89727589  0.10273687  0.89967123  1
  Ta  Ta125  1  0.19818217  0.80916129  0.40370828  1
  Ta  Ta126  1  0.89068280  0.49980113  0.51145392  1
  Ta  Ta127  1  0.40743286  0.60294526  0.40772761  1
  Ta  Ta128  1  -0.00885454  0.40242475  0.40567088  1
  Ta  Ta129  1  0.79990146  0.20347466  -0.00459406  1
  Ta  Ta130  1  0.90381909  0.69377132  0.09323581  1
  Ta  Ta131  1  0.30323528  0.49581820  0.30378052  1
  Ta  Ta132  1  0.08738264  0.71099520  0.89856586  1
  Ta  Ta133  1  0.50860808  0.69824510  0.30612632  1
  Ta  Ta134  1  0.08404387  0.09789633  0.50971392  1
  Ta  Ta135  1  0.40591566  0.40088244  0.19882322  1
  Ta  Ta136  1  0.69922690  0.10087991  0.29525906  1
  Ta  Ta137  1  -0.01738410  0.20092443  0.61021813  1
  Ta  Ta138  1  -0.00044495  0.00896198  0.19132620  1
  Ta  Ta139  1  0.90636243  0.50736906  0.09368884  1
  Ta  Ta140  1  0.60289221  0.79522862  -0.00540128  1
  Ta  Ta141  1  -0.01635263  0.39835843  0.61208713  1
  Ta  Ta142  1  0.59865253  0.59425200  0.40565031  1
  Ta  Ta143  1  0.60308485  0.79857467  0.79813003  1
  Ta  Ta144  1  0.80491870  0.01389195  -0.00163916  1
  Ta  Ta145  1  0.40764182  0.80400079  -0.00355274  1
  Ta  Ta146  1  0.80245937  0.20331523  0.80411223  1
  Ta  Ta147  1  0.59428978  0.40611624  0.58894452  1
  Ta  Ta148  1  0.50434995  0.69893329  0.89784402  1
  Ta  Ta149  1  0.69508613  0.29927320  0.29852544  1
  Ti  Ti150  1  0.50524588  0.89262901  0.70147342  1
  Ti  Ti151  1  0.19616108  0.80114160  -0.00614971  1
  Ti  Ti152  1  0.79880904  0.59873961  -0.00473996  1
  Ti  Ti153  1  0.79889450  0.19764764  0.39216815  1
  Ti  Ti154  1  -0.00737425  0.39317333  -0.00518481  1
  Ti  Ti155  1  0.09671372  0.30283244  0.89410956  1
  Ti  Ti156  1  0.89918295  0.29832258  0.29940879  1
  Ti  Ti157  1  0.40809794  -0.00916668  0.79018703  1
  Ti  Ti158  1  0.69724006  0.69900757  0.69357225  1
  Ti  Ti159  1  0.40921013  0.59503394  0.59516532  1
  Ti  Ti160  1  0.70151827  0.49901901  0.50320326  1
  Ti  Ti161  1  0.50873962  0.50227732  0.90204643  1
  Ti  Ti162  1  0.20270823  0.39977674  0.80574378  1
  Ti  Ti163  1  0.09884580  0.70153080  0.30706394  1
  Ti  Ti164  1  0.29632367  0.88569988  0.69923803  1
  Ti  Ti165  1  0.69385027  0.30327621  0.09697678  1
  Ti  Ti166  1  -0.01155000  0.39991210  0.79949948  1
  Ti  Ti167  1  0.70216701  0.69579033  0.09639359  1
  Ti  Ti168  1  0.42108904  0.80418655  0.59607713  1
  Ti  Ti169  1  0.30959130  0.08808739  0.69945685  1
  Ti  Ti170  1  0.59661500  0.20305048  0.20173791  1
  Ti  Ti171  1  0.39647756  -0.01041552  -0.00151125  1
  Ti  Ti172  1  0.90413722  0.90409026  0.70246994  1
  Ti  Ti173  1  0.60671517  0.01083975  -0.01378306  1
  Ti  Ti174  1  -0.00081826  0.59789325  0.41141578  1
  Ti  Ti175  1  0.59553282  0.59558804  0.59355430  1
  Ti  Ti176  1  0.58805740  0.00448743  0.21892510  1
  Ti  Ti177  1  0.19195512  0.40476402  0.39346621  1
  Ti  Ti178  1  0.41076544  0.40425819  0.41142583  1
  Ti  Ti179  1  0.89372109  0.10002199  0.51453907  1
  Ti  Ti180  1  0.41127510  0.80000550  0.79994427  1
  Ti  Ti181  1  0.50544672  0.89999911  0.89803794  1
  Ti  Ti182  1  0.70189764  0.90356542  0.30039404  1
  Ti  Ti183  1  0.39871288  0.19305496  0.40868895  1
  Ti  Ti184  1  0.09461453  0.49503115  0.29686482  1
  Ti  Ti185  1  0.89646866  0.09859129  0.28637512  1
  Ti  Ti186  1  0.08551718  0.50211374  0.89675123  1
  Ti  Ti187  1  0.70260026  0.50210604  0.68371480  1
  Ti  Ti188  1  0.19517842  0.00015941  -0.00539924  1
  Ti  Ti189  1  0.60171415  -0.00058842  0.79823554  1
  Ti  Ti190  1  0.20172898  0.19773887  0.80256187  1
  Ti  Ti191  1  0.00834981  0.60814741  0.19036145  1
  Ti  Ti192  1  0.29705301  0.30346364  0.70254873  1
  Ti  Ti193  1  -0.01269366  0.39099830  0.19697346  1
  Ti  Ti194  1  0.90982470  0.50793369  0.90193810  1
  Ti  Ti195  1  0.50432692  0.50078784  0.09450763  1
  Ti  Ti196  1  0.40785973  0.19910696  0.20188290  1
  Ti  Ti197  1  0.50656290  0.30522226  0.10118299  1
  Ti  Ti198  1  0.40303580  0.20016480  0.79812959  1
  Ti  Ti199  1  0.19884427  0.19029372  0.19704818  1
  Mo  Mo200  1  0.10291283  0.10032279  0.89555237  1
  Mo  Mo201  1  0.28669243  0.89230372  0.30476485  1
  Mo  Mo202  1  0.69707454  0.50262231  0.89959247  1
  Mo  Mo203  1  0.09828866  0.89428353  0.89835225  1
  Mo  Mo204  1  -0.00608472  0.00298177  0.60110683  1
  Mo  Mo205  1  0.09467551  0.90509480  0.49967732  1
  Mo  Mo206  1  0.80465223  0.00251944  0.20236346  1
  Mo  Mo207  1  0.19430847  0.80564276  0.60482372  1
  Mo  Mo208  1  0.49623982  0.10370257  0.29322420  1
  Mo  Mo209  1  0.28985152  0.29205226  0.88546843  1
  Mo  Mo210  1  0.49312522  0.09119402  0.71157374  1
  Mo  Mo211  1  0.90000978  0.30613803  0.09991834  1
  Mo  Mo212  1  0.80045640  0.19627739  0.60449533  1
  Mo  Mo213  1  0.60623880  0.40464640  0.39945252  1
  Mo  Mo214  1  0.69772081  0.89697484  0.70339358  1
  Mo  Mo215  1  0.52386537  0.89169754  0.30402728  1
  Mo  Mo216  1  0.19882866  0.40321040  0.61641320  1
  Mo  Mo217  1  -0.00792705  0.19806634  0.20285720  1
  Mo  Mo218  1  0.29716628  0.89725982  0.08280897  1
  Mo  Mo219  1  0.89963901  0.10311746  0.09772901  1
  Mo  Mo220  1  0.79641998  0.60189434  0.60348428  1
  Mo  Mo221  1  0.60255096  0.79755769  0.39958942  1
  Mo  Mo222  1  0.70334007  0.10292042  0.89815513  1
  Mo  Mo223  1  0.19449650  0.80366864  0.80145419  1
  Mo  Mo224  1  0.79222179  0.40881648  0.59812356  1
  Mo  Mo225  1  0.49779588  0.30943689  0.49802849  1
  Mo  Mo226  1  0.59977672  0.40002497  -0.00191554  1
  Mo  Mo227  1  0.00034879  0.81672876  0.80174774  1
  Mo  Mo228  1  0.40001509  -0.01049713  0.61969386  1
  Mo  Mo229  1  0.09547637  0.70069151  0.08859696  1
  Mo  Mo230  1  0.50484066  0.69557721  0.50187077  1
  Mo  Mo231  1  0.69511140  0.50099293  0.29682186  1
  Mo  Mo232  1  0.51280247  0.30224973  0.89493506  1
  Mo  Mo233  1  0.20665032  0.40914183  0.21120834  1
  Mo  Mo234  1  0.89710681  0.30010417  0.90097145  1
  Mo  Mo235  1  0.60231440  -0.00479019  0.38868014  1
  Mo  Mo236  1  0.50795318  0.88827232  0.50182629  1
  Mo  Mo237  1  0.89350866  0.70247776  0.50578352  1
  Mo  Mo238  1  0.60113038  0.80030564  0.60675053  1
  Mo  Mo239  1  0.09890234  0.89869053  0.69876331  1
  Mo  Mo240  1  0.90018348  0.50127675  0.70002455  1
  Mo  Mo241  1  0.30733355  0.09283670  0.49681690  1
  Mo  Mo242  1  0.89476364  0.10371243  0.70587465  1
  Mo  Mo243  1  0.50255273  0.50330100  0.50321199  1
  Mo  Mo244  1  0.00026464  0.79831751  -0.00249557  1
  Mo  Mo245  1  -0.00128693  0.59749946  -0.00024670  1
  Mo  Mo246  1  0.41558555  0.60235389  -0.00676560  1
  Mo  Mo247  1  0.10213964  0.09686684  0.10429842  1
  Mo  Mo248  1  0.89588762  0.30298845  0.70204826  1
  Mo  Mo249  1  -0.00151409  0.58803850  0.80223029  1
