# generated using pymatgen
data_HfZrTaTiMo
_symmetry_space_group_name_H-M   'P 1'
_cell_length_a   16.89502995
_cell_length_b   16.89189731
_cell_length_c   16.88811102
_cell_angle_alpha   90.02320219
_cell_angle_beta   90.02775167
_cell_angle_gamma   90.00126095
_symmetry_Int_Tables_number   1
_chemical_formula_structural   HfZrTaTiMo
_chemical_formula_sum   'Hf50 Zr50 Ta50 Ti50 Mo50'
_cell_volume   4819.68202926
_cell_formula_units_Z   50
loop_
 _symmetry_equiv_pos_site_id
 _symmetry_equiv_pos_as_xyz
  1  'x, y, z'
loop_
 _atom_site_type_symbol
 _atom_site_label
 _atom_site_symmetry_multiplicity
 _atom_site_fract_x
 _atom_site_fract_y
 _atom_site_fract_z
 _atom_site_occupancy
  Hf  Hf0  1  0.39425641  0.40497312  0.40558663  1
  Hf  Hf1  1  0.21101625  0.60449590  0.79805789  1
  Hf  Hf2  1  0.50101324  0.10114602  0.89612577  1
  Hf  Hf3  1  0.79963069  0.00387677  0.80507274  1
  Hf  Hf4  1  0.09599475  0.29779331  0.29141271  1
  Hf  Hf5  1  0.49922676  0.69365273  0.09713788  1
  Hf  Hf6  1  0.31082721  0.10127166  0.89568013  1
  Hf  Hf7  1  0.70401258  0.70042886  0.70351707  1
  Hf  Hf8  1  -0.00121325  -0.00366466  0.39953675  1
  Hf  Hf9  1  0.80144162  -0.00595749  0.60490528  1
  Hf  Hf10  1  0.90471323  0.29452861  0.29219870  1
  Hf  Hf11  1  0.31151373  0.50180789  0.08915307  1
  Hf  Hf12  1  0.09617576  0.69927382  0.69660028  1
  Hf  Hf13  1  0.50407556  0.30559243  0.49387781  1
  Hf  Hf14  1  0.30453335  0.10095762  0.70363270  1
  Hf  Hf15  1  -0.00885377  0.39342841  0.78949968  1
  Hf  Hf16  1  0.00043635  0.19821479  -0.00340313  1
  Hf  Hf17  1  0.89998427  0.89871284  0.08818682  1
  Hf  Hf18  1  0.40355350  -0.00864411  0.59937123  1
  Hf  Hf19  1  0.89470730  0.72034437  0.90971196  1
  Hf  Hf20  1  0.60217930  0.39239523  0.80235420  1
  Hf  Hf21  1  0.11187460  0.90256825  0.51356983  1
  Hf  Hf22  1  0.19978914  0.60567385  0.19256973  1
  Hf  Hf23  1  0.00055017  0.40040643  0.60068434  1
  Hf  Hf24  1  0.00476509  0.80644752  0.40945690  1
  Hf  Hf25  1  0.69359419  0.89424400  0.49989200  1
  Hf  Hf26  1  0.50253099  0.49852572  0.69758910  1
  Hf  Hf27  1  0.70284127  0.50174817  0.70677374  1
  Hf  Hf28  1  0.60057642  0.80342468  0.00102574  1
  Hf  Hf29  1  0.31115375  0.30082579  0.89586760  1
  Hf  Hf30  1  0.30230106  0.29127892  0.30522049  1
  Hf  Hf31  1  0.79532493  0.59968951  0.20088151  1
  Hf  Hf32  1  0.89753831  0.10490984  0.50359162  1
  Hf  Hf33  1  0.09656840  0.29436892  0.89020836  1
  Hf  Hf34  1  0.40561901  -0.00190724  0.20058662  1
  Hf  Hf35  1  0.60082718  0.20343098  0.60337823  1
  Hf  Hf36  1  0.19897614  0.20733084  0.60572678  1
  Hf  Hf37  1  0.59798982  0.19379980  0.40570108  1
  Hf  Hf38  1  -0.00602058  0.40891425  0.40283513  1
  Hf  Hf39  1  0.39347802  0.80626775  0.78540935  1
  Hf  Hf40  1  0.29753025  0.49647053  0.69724200  1
  Hf  Hf41  1  0.50024736  0.09594519  0.70440317  1
  Hf  Hf42  1  0.19883799  0.19868476  -0.00220922  1
  Hf  Hf43  1  0.29910617  0.09638007  0.50054999  1
  Hf  Hf44  1  0.70422945  0.50546251  0.91150919  1
  Hf  Hf45  1  0.30373348  0.09924761  0.09727624  1
  Hf  Hf46  1  0.50821471  0.50004345  0.30652966  1
  Hf  Hf47  1  -0.00652818  0.39856199  -0.00480984  1
  Hf  Hf48  1  0.07223357  0.90593103  0.90093989  1
  Hf  Hf49  1  -0.00530590  0.59597671  0.19431883  1
  Zr  Zr50  1  0.50864941  0.69968527  0.70300039  1
  Zr  Zr51  1  0.79772932  0.40008707  0.19687943  1
  Zr  Zr52  1  0.80232148  -0.00347168  0.39491446  1
  Zr  Zr53  1  0.70698944  0.29669781  0.90040495  1
  Zr  Zr54  1  0.68941363  0.29879464  0.29943400  1
  Zr  Zr55  1  0.00580947  0.17727110  0.38092920  1
  Zr  Zr56  1  0.70140137  0.69534979  0.09097188  1
  Zr  Zr57  1  0.09464531  0.71417253  0.90169568  1
  Zr  Zr58  1  0.09382467  0.09835342  0.70897672  1
  Zr  Zr59  1  -0.00763951  0.60230935  0.00100816  1
  Zr  Zr60  1  0.90610604  0.89397683  0.72118248  1
  Zr  Zr61  1  0.68209608  0.08094604  0.50520767  1
  Zr  Zr62  1  0.88559918  0.50126047  0.08807213  1
  Zr  Zr63  1  0.90309213  0.70187267  0.29753896  1
  Zr  Zr64  1  0.90242495  0.69474090  0.51135474  1
  Zr  Zr65  1  0.79742235  0.79728457  0.39675107  1
  Zr  Zr66  1  0.19743544  0.59913911  0.00394398  1
  Zr  Zr67  1  0.30786738  0.29962731  0.09571485  1
  Zr  Zr68  1  0.39659771  0.60989874  0.59626422  1
  Zr  Zr69  1  0.79701303  0.19616884  0.19173182  1
  Zr  Zr70  1  0.40629247  0.40625203  0.20035635  1
  Zr  Zr71  1  0.20740469  0.79847281  0.19503404  1
  Zr  Zr72  1  0.40238642  0.61038239  0.40811196  1
  Zr  Zr73  1  -0.00624888  0.01971268  0.21243648  1
  Zr  Zr74  1  0.19651869  0.00288971  0.39854429  1
  Zr  Zr75  1  0.50493775  0.69934863  0.90084694  1
  Zr  Zr76  1  -0.00941885  -0.00158137  0.59954447  1
  Zr  Zr77  1  0.39625930  0.39557546  0.59784705  1
  Zr  Zr78  1  0.30962208  0.70249297  0.91309283  1
  Zr  Zr79  1  0.09900092  0.90118049  0.70686454  1
  Zr  Zr80  1  0.79735435  0.00147140  0.19692981  1
  Zr  Zr81  1  0.51286757  0.90619198  0.48688490  1
  Zr  Zr82  1  0.20052883  0.39684244  0.19222970  1
  Zr  Zr83  1  0.79910851  0.38853371  0.60465880  1
  Zr  Zr84  1  0.09510984  0.90627544  0.09911295  1
  Zr  Zr85  1  0.10117262  0.70482687  0.29769753  1
  Zr  Zr86  1  -0.00722408  0.59452817  0.80613203  1
  Zr  Zr87  1  0.50140270  0.90598023  0.90006281  1
  Zr  Zr88  1  0.19845353  0.60672529  0.40603805  1
  Zr  Zr89  1  0.10609335  0.49487194  0.89612252  1
  Zr  Zr90  1  0.90379032  0.29048308  0.49768151  1
  Zr  Zr91  1  0.50363048  0.29750337  0.10370523  1
  Zr  Zr92  1  0.29509453  0.50576539  0.30063513  1
  Zr  Zr93  1  0.00046689  0.59064823  0.40668579  1
  Zr  Zr94  1  0.39744659  0.80361149  0.59259430  1
  Zr  Zr95  1  0.21219505  0.80971333  0.80275109  1
  Zr  Zr96  1  0.80360344  0.59087532  0.39943027  1
  Zr  Zr97  1  0.69319974  0.49247134  0.49716974  1
  Zr  Zr98  1  0.40423543  0.80450861  0.19923118  1
  Zr  Zr99  1  0.18990396  0.40068244  0.41377058  1
  Ta  Ta100  1  0.59672521  -0.00155864  0.19569132  1
  Ta  Ta101  1  0.19697070  0.00197379  -0.00796021  1
  Ta  Ta102  1  0.21478906  0.79734107  0.60260789  1
  Ta  Ta103  1  0.79876829  0.59754615  0.59971159  1
  Ta  Ta104  1  0.41280259  0.20253291  -0.00429229  1
  Ta  Ta105  1  0.59765218  0.40102684  0.00185276  1
  Ta  Ta106  1  0.69920994  0.90101706  0.09854841  1
  Ta  Ta107  1  0.21056011  0.80279602  0.40890738  1
  Ta  Ta108  1  0.60138793  0.60161603  0.59344017  1
  Ta  Ta109  1  0.60539357  0.40444850  0.19204173  1
  Ta  Ta110  1  0.79495601  0.79833063  0.19639806  1
  Ta  Ta111  1  0.40006904  0.59470145  0.80142910  1
  Ta  Ta112  1  0.70583355  0.90025379  0.90655470  1
  Ta  Ta113  1  0.69823522  0.09884339  0.70394549  1
  Ta  Ta114  1  0.68721717  0.89231011  0.29295425  1
  Ta  Ta115  1  0.20034125  0.39210247  0.79178543  1
  Ta  Ta116  1  0.90088397  0.89484868  0.29369819  1
  Ta  Ta117  1  0.60363001  0.59956198  0.20101530  1
  Ta  Ta118  1  0.60443719  0.20335376  0.00012136  1
  Ta  Ta119  1  0.60543437  0.60831816  0.39798420  1
  Ta  Ta120  1  0.30533713  0.10041997  0.29976274  1
  Ta  Ta121  1  0.19873727  0.20035103  0.79850231  1
  Ta  Ta122  1  0.69603356  0.70396705  0.50326420  1
  Ta  Ta123  1  0.60207448  0.20137539  0.80101399  1
  Ta  Ta124  1  0.19753106  0.19295762  0.19871631  1
  Ta  Ta125  1  0.69740230  0.89885200  0.70257757  1
  Ta  Ta126  1  0.09302204  0.49352155  0.28764757  1
  Ta  Ta127  1  0.80182724  0.39667068  0.40095484  1
  Ta  Ta128  1  0.68920302  0.09704146  0.29529950  1
  Ta  Ta129  1  0.09834892  0.09871069  0.09752976  1
  Ta  Ta130  1  -0.00510400  0.80141286  0.60116547  1
  Ta  Ta131  1  0.40541900  0.19839463  0.59502599  1
  Ta  Ta132  1  0.70177890  0.70005692  0.90077732  1
  Ta  Ta133  1  0.69630423  0.49731315  0.30176683  1
  Ta  Ta134  1  0.30417669  0.90193953  0.30530968  1
  Ta  Ta135  1  0.50286016  0.29584391  0.29931343  1
  Ta  Ta136  1  0.90254826  0.10366828  0.89797324  1
  Ta  Ta137  1  0.89183794  0.29310734  0.89529819  1
  Ta  Ta138  1  0.19927597  0.39513515  -0.00317720  1
  Ta  Ta139  1  0.29924161  0.90693104  0.09421406  1
  Ta  Ta140  1  0.79074010  0.20036604  0.60301024  1
  Ta  Ta141  1  0.89481680  0.50360045  0.69830888  1
  Ta  Ta142  1  0.50996583  0.71142590  0.29987072  1
  Ta  Ta143  1  0.89731530  0.69888040  0.70454233  1
  Ta  Ta144  1  0.60485531  0.39109050  0.60360187  1
  Ta  Ta145  1  0.78907570  0.19807288  0.40325727  1
  Ta  Ta146  1  0.10374753  0.89865253  0.29532649  1
  Ta  Ta147  1  0.50161292  0.09997267  0.29995700  1
  Ta  Ta148  1  0.60847290  -0.00012751  0.80399987  1
  Ta  Ta149  1  0.20188187  0.00055536  0.80953298  1
  Ti  Ti150  1  0.39478223  -0.01681878  0.79463297  1
  Ti  Ti151  1  0.10514370  0.69890676  0.51390624  1
  Ti  Ti152  1  0.30439318  0.48935356  0.90017068  1
  Ti  Ti153  1  0.09429765  0.28781540  0.49886719  1
  Ti  Ti154  1  0.79248644  0.38938291  0.00616158  1
  Ti  Ti155  1  0.40330574  -0.00100701  0.00314920  1
  Ti  Ti156  1  0.60227660  0.80815565  0.80112235  1
  Ti  Ti157  1  0.70560853  0.10681441  0.90329739  1
  Ti  Ti158  1  0.80678997  0.59858665  0.80929817  1
  Ti  Ti159  1  0.80028313  0.00548869  -0.00318806  1
  Ti  Ti160  1  0.31146127  0.70015852  0.09257332  1
  Ti  Ti161  1  0.09059531  0.71233528  0.09169391  1
  Ti  Ti162  1  0.40425857  -0.00153208  0.39777240  1
  Ti  Ti163  1  0.40561571  0.19201706  0.40557152  1
  Ti  Ti164  1  0.09623007  0.48982913  0.10081333  1
  Ti  Ti165  1  0.39868600  0.81434962  0.00085598  1
  Ti  Ti166  1  0.60458074  0.00504700  0.00101327  1
  Ti  Ti167  1  0.90135193  0.29461680  0.09743848  1
  Ti  Ti168  1  0.20229209  0.81138652  -0.00065404  1
  Ti  Ti169  1  0.50701968  0.50465422  0.09364886  1
  Ti  Ti170  1  0.28537433  0.50675989  0.51172107  1
  Ti  Ti171  1  0.10089106  0.10066795  0.51248844  1
  Ti  Ti172  1  0.79425507  0.80473756  0.80675767  1
  Ti  Ti173  1  0.79882799  0.20588236  0.78926689  1
  Ti  Ti174  1  0.29780607  0.29342766  0.49784988  1
  Ti  Ti175  1  0.40363687  0.19467866  0.20137844  1
  Ti  Ti176  1  0.50725251  0.10321038  0.10109828  1
  Ti  Ti177  1  0.80476654  0.80284104  0.60145279  1
  Ti  Ti178  1  0.40418975  0.60374789  0.20499253  1
  Ti  Ti179  1  -0.00488808  0.80031931  0.19518909  1
  Ti  Ti180  1  0.19264614  0.38952692  0.60514021  1
  Ti  Ti181  1  0.90153825  0.10312281  0.09051086  1
  Ti  Ti182  1  0.41082028  0.40193935  0.80806914  1
  Ti  Ti183  1  0.10040066  0.51473958  0.52204713  1
  Ti  Ti184  1  0.69470805  0.10486688  0.09538694  1
  Ti  Ti185  1  0.50688556  0.90068636  0.10180504  1
  Ti  Ti186  1  0.41464825  0.58389456  -0.01535135  1
  Ti  Ti187  1  0.30844382  0.29641994  0.70636586  1
  Ti  Ti188  1  0.50883248  0.49822623  0.49925841  1
  Ti  Ti189  1  0.19503463  0.19358941  0.39778788  1
  Ti  Ti190  1  0.10340569  0.50391571  0.69599564  1
  Ti  Ti191  1  0.49371145  0.29505708  0.70604618  1
  Ti  Ti192  1  0.51073741  0.71295894  0.49089651  1
  Ti  Ti193  1  -0.00216850  0.21121394  0.61840414  1
  Ti  Ti194  1  0.59636624  0.59416966  0.80887139  1
  Ti  Ti195  1  0.59762867  0.80321953  0.60678112  1
  Ti  Ti196  1  0.30940273  0.70864525  0.30649952  1
  Ti  Ti197  1  0.20406386  0.00208502  0.19958754  1
  Ti  Ti198  1  0.09092191  0.29863654  0.10453340  1
  Ti  Ti199  1  0.90003508  0.10802961  0.70709617  1
  Mo  Mo200  1  0.89769337  0.49036735  0.29581212  1
  Mo  Mo201  1  0.80311323  0.40080125  0.80093001  1
  Mo  Mo202  1  0.10215642  0.29997992  0.69883646  1
  Mo  Mo203  1  0.00186281  0.19952921  0.18792177  1
  Mo  Mo204  1  0.80133262  0.19523614  0.00090504  1
  Mo  Mo205  1  0.89577784  0.49730335  0.50977857  1
  Mo  Mo206  1  0.49191543  0.09985084  0.49684135  1
  Mo  Mo207  1  0.40095600  0.80458092  0.39546033  1
  Mo  Mo208  1  0.69336215  0.69868205  0.29707575  1
  Mo  Mo209  1  0.59963097  0.39995447  0.39576102  1
  Mo  Mo210  1  0.59552992  0.19206236  0.19627900  1
  Mo  Mo211  1  0.88352369  0.48467942  0.89499211  1
  Mo  Mo212  1  0.51347977  0.90194685  0.70412266  1
  Mo  Mo213  1  0.59863578  -0.00427365  0.61727329  1
  Mo  Mo214  1  0.40564865  0.20737434  0.79617401  1
  Mo  Mo215  1  0.30182145  0.69477748  0.69838507  1
  Mo  Mo216  1  0.50368850  0.49506404  0.89785286  1
  Mo  Mo217  1  0.11708204  0.09558724  0.28724850  1
  Mo  Mo218  1  0.60173084  0.79643735  0.39323306  1
  Mo  Mo219  1  -0.00824420  0.20070343  0.79863223  1
  Mo  Mo220  1  0.50107556  0.90245772  0.29693528  1
  Mo  Mo221  1  0.50409021  0.29795235  0.90235440  1
  Mo  Mo222  1  0.69993909  0.29883307  0.49945932  1
  Mo  Mo223  1  0.79412638  0.80612969  0.00113712  1
  Mo  Mo224  1  0.69215645  0.49915507  0.09742889  1
  Mo  Mo225  1  -0.00361316  0.59794695  0.60706597  1
  Mo  Mo226  1  0.79748232  0.60752511  -0.00528678  1
  Mo  Mo227  1  0.89088844  0.90854830  0.90566012  1
  Mo  Mo228  1  0.20533636  0.00155667  0.60402253  1
  Mo  Mo229  1  0.09964124  0.09906214  0.89898550  1
  Mo  Mo230  1  -0.00378367  0.01031908  -0.00095452  1
  Mo  Mo231  1  -0.00306836  0.40010340  0.19320412  1
  Mo  Mo232  1  0.89889551  0.89350123  0.50044909  1
  Mo  Mo233  1  0.87959572  0.10208286  0.30360317  1
  Mo  Mo234  1  0.89581663  0.29433942  0.70231159  1
  Mo  Mo235  1  0.59534511  -0.00282402  0.37994830  1
  Mo  Mo236  1  0.70015430  0.29370354  0.70328976  1
  Mo  Mo237  1  0.40962707  0.40379427  -0.00928143  1
  Mo  Mo238  1  -0.00433396  0.01313431  0.80794163  1
  Mo  Mo239  1  0.60142410  0.80059437  0.19650953  1
  Mo  Mo240  1  0.28960956  0.91278461  0.69231743  1
  Mo  Mo241  1  -0.00650513  0.79240675  0.79830449  1
  Mo  Mo242  1  0.29804013  0.70519237  0.49832311  1
  Mo  Mo243  1  0.69579130  0.29804737  0.09451834  1
  Mo  Mo244  1  0.19918007  0.60610346  0.60277586  1
  Mo  Mo245  1  0.30514005  0.90884359  0.91095047  1
  Mo  Mo246  1  0.59998990  0.59452587  0.00189634  1
  Mo  Mo247  1  0.30362147  0.90013827  0.49431293  1
  Mo  Mo248  1  0.89596326  0.70752452  0.10010289  1
  Mo  Mo249  1  -0.00538263  0.80291272  0.00823573  1
