# generated using pymatgen
data_HfZrTaTiMo
_symmetry_space_group_name_H-M   'P 1'
_cell_length_a   16.88359816
_cell_length_b   16.87787559
_cell_length_c   16.87843720
_cell_angle_alpha   90.01650669
_cell_angle_beta   89.98299995
_cell_angle_gamma   90.02271276
_symmetry_Int_Tables_number   1
_chemical_formula_structural   HfZrTaTiMo
_chemical_formula_sum   'Hf50 Zr50 Ta50 Ti50 Mo50'
_cell_volume   4809.66634006
_cell_formula_units_Z   50
loop_
 _symmetry_equiv_pos_site_id
 _symmetry_equiv_pos_as_xyz
  1  'x, y, z'
loop_
 _atom_site_type_symbol
 _atom_site_label
 _atom_site_symmetry_multiplicity
 _atom_site_fract_x
 _atom_site_fract_y
 _atom_site_fract_z
 _atom_site_occupancy
  Hf  Hf0  1  0.60234155  0.20285445  0.20099542  1
  Hf  Hf1  1  0.79749164  0.60197052  0.80479011  1
  Hf  Hf2  1  0.40175504  0.40959790  0.61050234  1
  Hf  Hf3  1  0.90058816  0.89764359  0.30172878  1
  Hf  Hf4  1  0.20248415  -0.00035999  0.00156839  1
  Hf  Hf5  1  0.78702601  0.80581282  0.20317947  1
  Hf  Hf6  1  0.00988046  0.61764312  0.58450933  1
  Hf  Hf7  1  0.50344668  0.09687163  0.10646290  1
  Hf  Hf8  1  0.10015867  0.89428811  0.89515278  1
  Hf  Hf9  1  0.69995988  0.51194550  0.29745935  1
  Hf  Hf10  1  0.69600505  0.50184772  0.69312445  1
  Hf  Hf11  1  0.20333108  0.39807622  0.20546282  1
  Hf  Hf12  1  0.69865057  0.69768971  0.49041412  1
  Hf  Hf13  1  0.69539305  0.09613869  0.90223459  1
  Hf  Hf14  1  0.90166983  0.29648738  0.10074360  1
  Hf  Hf15  1  0.19728388  0.39127084  0.39267200  1
  Hf  Hf16  1  0.20352690  0.79473786  0.00409723  1
  Hf  Hf17  1  0.78890431  -0.00646711  0.40053186  1
  Hf  Hf18  1  0.00173796  0.39736774  0.79622905  1
  Hf  Hf19  1  0.90310147  0.09320551  0.69198582  1
  Hf  Hf20  1  -0.00091357  0.39933032  0.20527743  1
  Hf  Hf21  1  0.21388100  -0.00222490  0.21015084  1
  Hf  Hf22  1  0.80498724  0.20420957  0.39819699  1
  Hf  Hf23  1  0.89096853  0.89824853  0.90489244  1
  Hf  Hf24  1  0.59955120  -0.00121826  0.60144707  1
  Hf  Hf25  1  -0.01035385  0.39237879  0.39729059  1
  Hf  Hf26  1  0.40220272  0.39733687  0.21009505  1
  Hf  Hf27  1  0.29818424  0.29862787  0.49947441  1
  Hf  Hf28  1  0.79816127  0.19737687  0.19665322  1
  Hf  Hf29  1  0.48735311  0.89441880  0.50025063  1
  Hf  Hf30  1  0.30268321  0.49422330  0.89845050  1
  Hf  Hf31  1  0.20369787  0.60623962  0.00202047  1
  Hf  Hf32  1  -0.00603320  0.00054908  0.80442049  1
  Hf  Hf33  1  0.79929556  0.39494773  0.20902885  1
  Hf  Hf34  1  0.10573510  0.70745770  0.30016009  1
  Hf  Hf35  1  0.88994594  0.69853076  0.10500283  1
  Hf  Hf36  1  0.20157299  0.79057874  0.59495912  1
  Hf  Hf37  1  0.41137785  0.60145443  -0.00343802  1
  Hf  Hf38  1  0.10249910  0.90448423  0.70547153  1
  Hf  Hf39  1  0.00016625  0.60172573  0.00588396  1
  Hf  Hf40  1  0.90236087  0.70691891  0.89876415  1
  Hf  Hf41  1  0.30583533  0.10716614  0.09844254  1
  Hf  Hf42  1  0.30150566  0.49999016  0.10147738  1
  Hf  Hf43  1  0.91139852  0.09491974  0.29004494  1
  Hf  Hf44  1  0.89879831  0.90154108  0.49955740  1
  Hf  Hf45  1  0.40444572  0.59520728  0.79276697  1
  Hf  Hf46  1  0.69104900  0.29621593  0.49408972  1
  Hf  Hf47  1  0.69651706  0.49789515  0.89654276  1
  Hf  Hf48  1  0.19755496  0.19892907  0.60015460  1
  Hf  Hf49  1  0.40237624  0.18917220  0.60541999  1
  Zr  Zr50  1  0.09860903  0.49844536  0.49827157  1
  Zr  Zr51  1  0.80309551  0.38607198  0.59113498  1
  Zr  Zr52  1  0.70220996  0.50424769  0.49780143  1
  Zr  Zr53  1  0.39448364  0.19722892  0.40012662  1
  Zr  Zr54  1  0.50681339  0.89494329  0.90179530  1
  Zr  Zr55  1  0.00322452  0.20334870  0.79750198  1
  Zr  Zr56  1  0.21045700  0.60271291  0.79029922  1
  Zr  Zr57  1  0.30554132  0.30067609  0.70555581  1
  Zr  Zr58  1  0.59071248  0.40302271  -0.00644826  1
  Zr  Zr59  1  0.60435749  0.18992058  0.61359849  1
  Zr  Zr60  1  0.40524843  0.19894822  0.80732844  1
  Zr  Zr61  1  0.10496280  0.90252209  0.30824010  1
  Zr  Zr62  1  0.89568558  0.70565483  0.69881008  1
  Zr  Zr63  1  0.59370387  0.61624880  -0.01031729  1
  Zr  Zr64  1  0.00177098  0.80587072  0.59343831  1
  Zr  Zr65  1  0.40358246  0.60581430  0.20938698  1
  Zr  Zr66  1  0.40480173  0.39312530  -0.00419854  1
  Zr  Zr67  1  0.39883957  0.40510574  0.39512164  1
  Zr  Zr68  1  0.69719422  0.69767874  0.69946144  1
  Zr  Zr69  1  0.50178137  0.49842117  0.49907373  1
  Zr  Zr70  1  0.19806135  0.39294281  0.79836775  1
  Zr  Zr71  1  0.40215673  0.60670600  0.40083015  1
  Zr  Zr72  1  0.09821941  0.50469039  0.89993276  1
  Zr  Zr73  1  0.68474210  0.10151047  0.30399881  1
  Zr  Zr74  1  0.40842495  0.00720214  -0.00557122  1
  Zr  Zr75  1  -0.00549554  0.19438291  0.00096839  1
  Zr  Zr76  1  0.59759189  0.81150667  0.19268260  1
  Zr  Zr77  1  0.10622563  0.09550726  0.89916716  1
  Zr  Zr78  1  0.09658009  0.70523814  0.71003586  1
  Zr  Zr79  1  0.78775155  0.00285699  0.59806608  1
  Zr  Zr80  1  0.31564622  0.89643304  0.09915356  1
  Zr  Zr81  1  0.49761138  0.09512742  0.49471284  1
  Zr  Zr82  1  0.20194941  0.61348009  0.40428876  1
  Zr  Zr83  1  0.70162986  0.50653500  0.10305177  1
  Zr  Zr84  1  0.30859941  0.89686343  0.89244579  1
  Zr  Zr85  1  0.09993894  0.09959409  0.48816605  1
  Zr  Zr86  1  0.59707413  0.79806090  0.59065589  1
  Zr  Zr87  1  0.79950973  0.39625140  0.79704745  1
  Zr  Zr88  1  0.10234051  0.29446692  0.10217369  1
  Zr  Zr89  1  0.90465940  0.50437993  0.68812311  1
  Zr  Zr90  1  0.20514821  -0.00433433  0.59039528  1
  Zr  Zr91  1  0.79273464  0.19730972  0.79434506  1
  Zr  Zr92  1  0.49502658  0.89340625  0.70295182  1
  Zr  Zr93  1  0.21176022  0.20456768  0.21614918  1
  Zr  Zr94  1  0.09033882  0.09921280  0.11836162  1
  Zr  Zr95  1  -0.00048204  0.79731562  0.19841405  1
  Zr  Zr96  1  0.78001854  -0.00168995  0.19191754  1
  Zr  Zr97  1  0.10032792  0.90061725  0.10828688  1
  Zr  Zr98  1  0.59520427  0.20641695  -0.00159350  1
  Zr  Zr99  1  0.89626643  0.50421778  0.49763945  1
  Ta  Ta100  1  0.80073767  0.19691909  0.59657637  1
  Ta  Ta101  1  0.49387483  0.70427405  0.69833731  1
  Ta  Ta102  1  0.50475490  0.29948454  0.50294448  1
  Ta  Ta103  1  0.29728178  0.09010551  0.70241043  1
  Ta  Ta104  1  -0.00108714  0.60978907  0.39592232  1
  Ta  Ta105  1  0.50640713  0.29347515  0.30828126  1
  Ta  Ta106  1  0.50793922  0.50697608  0.11245362  1
  Ta  Ta107  1  0.40549824  0.00534992  0.79461821  1
  Ta  Ta108  1  0.40726364  0.80240466  0.20627992  1
  Ta  Ta109  1  0.79372179  0.19672167  0.00463344  1
  Ta  Ta110  1  0.00007232  0.80116386  0.00344229  1
  Ta  Ta111  1  0.19971345  0.39393116  0.00088318  1
  Ta  Ta112  1  0.90460130  0.29742433  0.69163533  1
  Ta  Ta113  1  -0.00079646  0.20154551  0.59466816  1
  Ta  Ta114  1  0.09932977  0.50134070  0.68976424  1
  Ta  Ta115  1  0.40377606  0.19987492  0.20993500  1
  Ta  Ta116  1  -0.00891577  -0.00110027  0.00601006  1
  Ta  Ta117  1  0.60169310  0.00726232  0.79188912  1
  Ta  Ta118  1  0.50947194  0.30260360  0.70651295  1
  Ta  Ta119  1  0.19943973  0.19977072  0.79822160  1
  Ta  Ta120  1  0.89842180  0.49753055  0.90764970  1
  Ta  Ta121  1  0.59644617  -0.00861971  0.39816346  1
  Ta  Ta122  1  0.09628436  0.50911634  0.29751794  1
  Ta  Ta123  1  0.60241863  0.39874211  0.39073710  1
  Ta  Ta124  1  0.89458603  0.90195739  0.09824464  1
  Ta  Ta125  1  0.39529459  0.60423766  0.60447192  1
  Ta  Ta126  1  -0.00042994  0.40312934  0.00309763  1
  Ta  Ta127  1  0.59927204  0.39834783  0.20601189  1
  Ta  Ta128  1  0.58533556  0.60282577  0.59851739  1
  Ta  Ta129  1  0.79184097  0.80668192  0.59336413  1
  Ta  Ta130  1  0.89810795  0.51217661  0.29670157  1
  Ta  Ta131  1  0.69966129  0.30401023  0.09833310  1
  Ta  Ta132  1  0.79272274  -0.00290031  0.79989157  1
  Ta  Ta133  1  0.30799348  0.89714042  0.69699582  1
  Ta  Ta134  1  0.31333453  0.70785641  0.89691781  1
  Ta  Ta135  1  0.79657903  0.60346265  -0.00247799  1
  Ta  Ta136  1  0.89214395  0.70087592  0.30319623  1
  Ta  Ta137  1  0.69781025  0.89515438  0.70715776  1
  Ta  Ta138  1  0.89586293  0.89753637  0.70230520  1
  Ta  Ta139  1  0.69539160  0.69885620  0.10140583  1
  Ta  Ta140  1  0.89617039  0.30171760  0.90463681  1
  Ta  Ta141  1  0.10120729  0.09480276  0.69702886  1
  Ta  Ta142  1  0.39717877  0.79501593  0.39207266  1
  Ta  Ta143  1  0.10229254  0.50178807  0.10484342  1
  Ta  Ta144  1  0.09718208  0.70790373  0.89669339  1
  Ta  Ta145  1  0.20281506  0.60639455  0.19993556  1
  Ta  Ta146  1  0.29258033  0.50426918  0.50847486  1
  Ta  Ta147  1  0.40563298  0.00125237  0.21193038  1
  Ta  Ta148  1  0.19633129  0.39935353  0.60360410  1
  Ta  Ta149  1  0.89030495  0.09816280  0.90402375  1
  Ti  Ti150  1  0.39583040  -0.00258378  0.39622640  1
  Ti  Ti151  1  0.50965254  0.70272254  0.29804717  1
  Ti  Ti152  1  0.80121059  0.39885020  0.00072091  1
  Ti  Ti153  1  0.30591764  0.29702745  0.09916772  1
  Ti  Ti154  1  0.80344542  0.60440452  0.39602307  1
  Ti  Ti155  1  0.80260599  0.39096200  0.39143348  1
  Ti  Ti156  1  0.09723942  0.09967438  0.30342171  1
  Ti  Ti157  1  -0.00181596  0.59834544  0.80061830  1
  Ti  Ti158  1  0.10161152  0.89859748  0.49277250  1
  Ti  Ti159  1  0.69419208  0.29986858  0.70266813  1
  Ti  Ti160  1  0.10240192  0.70033236  0.10445875  1
  Ti  Ti161  1  0.21246009  0.79620975  0.79703623  1
  Ti  Ti162  1  0.21883252  0.79900731  0.20849516  1
  Ti  Ti163  1  0.50040689  0.90394299  0.30040316  1
  Ti  Ti164  1  0.69923081  0.69920938  0.29966583  1
  Ti  Ti165  1  0.69517474  0.89935606  0.90251504  1
  Ti  Ti166  1  0.78441228  0.79717387  0.00019207  1
  Ti  Ti167  1  0.00030930  0.60146417  0.20089338  1
  Ti  Ti168  1  0.00019614  -0.00211690  0.40191988  1
  Ti  Ti169  1  0.58938256  0.59673333  0.79958556  1
  Ti  Ti170  1  0.60152045  0.78749199  0.81190597  1
  Ti  Ti171  1  0.40230351  0.20781624  -0.00846613  1
  Ti  Ti172  1  0.30537835  0.70273531  0.50477100  1
  Ti  Ti173  1  0.31174102  0.70255568  0.10274350  1
  Ti  Ti174  1  -0.00788361  0.20434144  0.40090860  1
  Ti  Ti175  1  0.50999225  0.10123602  0.89632555  1
  Ti  Ti176  1  0.59622579  0.40036736  0.60284582  1
  Ti  Ti177  1  0.60045973  0.80442785  0.39693126  1
  Ti  Ti178  1  0.21383722  -0.00164785  0.40231506  1
  Ti  Ti179  1  0.69507532  0.30087562  0.89652019  1
  Ti  Ti180  1  0.79110657  0.80198545  0.80364008  1
  Ti  Ti181  1  0.09560918  0.29781353  0.50002405  1
  Ti  Ti182  1  0.79574078  0.00501771  0.00664210  1
  Ti  Ti183  1  0.30680152  0.89493976  0.49887369  1
  Ti  Ti184  1  0.00187052  0.79123177  0.40687029  1
  Ti  Ti185  1  0.42792420  0.78763965  0.00886515  1
  Ti  Ti186  1  0.88665485  0.70521373  0.49511277  1
  Ti  Ti187  1  0.30039865  0.10082997  0.31139123  1
  Ti  Ti188  1  0.41446609  0.40567888  0.80200271  1
  Ti  Ti189  1  0.29143430  0.50848830  0.30380139  1
  Ti  Ti190  1  0.29676543  0.09967150  0.89279971  1
  Ti  Ti191  1  0.09924144  0.29972069  0.90433637  1
  Ti  Ti192  1  0.49828604  0.30029361  0.10656563  1
  Ti  Ti193  1  0.09297750  0.28462340  0.30248960  1
  Ti  Ti194  1  0.90541570  0.09621060  0.50122978  1
  Ti  Ti195  1  0.89631480  0.50347439  0.10252550  1
  Ti  Ti196  1  0.69236601  0.10416845  0.49313659  1
  Ti  Ti197  1  0.60588976  -0.00710282  0.01511715  1
  Ti  Ti198  1  0.58947324  0.60117555  0.39554319  1
  Ti  Ti199  1  0.21021772  0.20794224  -0.00966591  1
  Mo  Mo200  1  0.49653038  0.69982250  0.49495248  1
  Mo  Mo201  1  -0.00391322  -0.00212691  0.19856886  1
  Mo  Mo202  1  0.59615830  0.20273608  0.40185956  1
  Mo  Mo203  1  0.79480687  0.79704264  0.39750936  1
  Mo  Mo204  1  0.50273818  0.70166025  0.10876172  1
  Mo  Mo205  1  0.30973061  0.90062766  0.30800263  1
  Mo  Mo206  1  0.29970347  0.29640007  0.90289531  1
  Mo  Mo207  1  0.50282840  0.90334002  0.10395273  1
  Mo  Mo208  1  0.50528260  0.50147858  0.69828769  1
  Mo  Mo209  1  0.70242356  0.09533592  0.70368854  1
  Mo  Mo210  1  0.50005311  0.70244919  0.88833271  1
  Mo  Mo211  1  0.09653037  0.29734509  0.69228755  1
  Mo  Mo212  1  -0.00268829  0.19926964  0.20793198  1
  Mo  Mo213  1  0.90296068  0.29402177  0.29962247  1
  Mo  Mo214  1  0.10515536  0.70837037  0.49018677  1
  Mo  Mo215  1  -0.00792119  0.80606213  0.80586378  1
  Mo  Mo216  1  0.50327448  0.49804762  0.89032333  1
  Mo  Mo217  1  0.29995968  0.09054112  0.49922389  1
  Mo  Mo218  1  0.89366032  0.09379362  0.09591095  1
  Mo  Mo219  1  0.39498604  0.79295790  0.59655627  1
  Mo  Mo220  1  0.00268655  0.00216037  0.59784424  1
  Mo  Mo221  1  0.79535499  0.61218895  0.59341165  1
  Mo  Mo222  1  0.69425092  0.89548131  0.49817878  1
  Mo  Mo223  1  0.49763850  0.09558739  0.70368678  1
  Mo  Mo224  1  0.59960340  0.60801576  0.20247180  1
  Mo  Mo225  1  0.20520748  0.59831282  0.59926057  1
  Mo  Mo226  1  0.49661852  0.09506814  0.30104223  1
  Mo  Mo227  1  0.39487162  -0.00369214  0.60218016  1
  Mo  Mo228  1  0.51077080  0.49858394  0.29874061  1
  Mo  Mo229  1  0.69911017  0.30378835  0.29982577  1
  Mo  Mo230  1  0.50246107  0.30060492  0.88807167  1
  Mo  Mo231  1  0.79936689  0.60578491  0.20028868  1
  Mo  Mo232  1  0.29473797  0.50241927  0.69337114  1
  Mo  Mo233  1  0.59899846  0.39729051  0.79628588  1
  Mo  Mo234  1  0.30546312  0.29750689  0.30388645  1
  Mo  Mo235  1  0.21177074  0.80662573  0.40665006  1
  Mo  Mo236  1  0.70032129  0.70402265  0.90029634  1
  Mo  Mo237  1  0.30049663  0.70832367  0.29688419  1
  Mo  Mo238  1  0.60005296  0.20099256  0.80256773  1
  Mo  Mo239  1  0.00786736  0.38707034  0.59918459  1
  Mo  Mo240  1  0.19511737  0.19754379  0.40236949  1
  Mo  Mo241  1  0.60580876  0.80230147  -0.00061108  1
  Mo  Mo242  1  0.20885303  0.00153539  0.79633465  1
  Mo  Mo243  1  0.69586140  0.09952427  0.09508349  1
  Mo  Mo244  1  0.69957126  0.89758546  0.08556361  1
  Mo  Mo245  1  0.69080285  0.89707024  0.30978546  1
  Mo  Mo246  1  0.40066497  0.79492170  0.79639962  1
  Mo  Mo247  1  0.90104809  0.29147596  0.49912200  1
  Mo  Mo248  1  0.59231531  -0.00392949  0.20104679  1
  Mo  Mo249  1  0.30601881  0.70412975  0.69688589  1
