# generated using pymatgen
data_HfZrTaTiMo
_symmetry_space_group_name_H-M   'P 1'
_cell_length_a   16.87866638
_cell_length_b   16.88570471
_cell_length_c   16.88408043
_cell_angle_alpha   89.99875829
_cell_angle_beta   89.96891802
_cell_angle_gamma   89.98989872
_symmetry_Int_Tables_number   1
_chemical_formula_structural   HfZrTaTiMo
_chemical_formula_sum   'Hf50 Zr50 Ta50 Ti50 Mo50'
_cell_volume   4812.10018888
_cell_formula_units_Z   50
loop_
 _symmetry_equiv_pos_site_id
 _symmetry_equiv_pos_as_xyz
  1  'x, y, z'
loop_
 _atom_site_type_symbol
 _atom_site_label
 _atom_site_symmetry_multiplicity
 _atom_site_fract_x
 _atom_site_fract_y
 _atom_site_fract_z
 _atom_site_occupancy
  Hf  Hf0  1  0.70624742  0.89913814  0.69614842  1
  Hf  Hf1  1  0.60359969  0.00856419  0.39952893  1
  Hf  Hf2  1  -0.00582975  0.40467203  0.19027539  1
  Hf  Hf3  1  0.19503546  0.00945575  0.00464484  1
  Hf  Hf4  1  0.29558417  0.90888864  0.68880187  1
  Hf  Hf5  1  0.79739915  0.78738377  0.19804385  1
  Hf  Hf6  1  0.70245646  0.89509715  0.89744574  1
  Hf  Hf7  1  0.30387328  0.49986498  0.69910193  1
  Hf  Hf8  1  0.09523927  0.70862881  0.89265405  1
  Hf  Hf9  1  0.20001829  0.40232158  0.00353956  1
  Hf  Hf10  1  0.39463900  0.19698781  0.19655902  1
  Hf  Hf11  1  0.10733306  0.50454351  0.29478207  1
  Hf  Hf12  1  0.40567038  0.60714398  0.59432036  1
  Hf  Hf13  1  0.49322188  0.89745539  0.30125222  1
  Hf  Hf14  1  0.40982822  0.39781283  0.59712559  1
  Hf  Hf15  1  0.60433482  0.79860208  0.20059328  1
  Hf  Hf16  1  0.59875394  0.40030674  0.60453972  1
  Hf  Hf17  1  0.60433716  0.60418274  0.59398447  1
  Hf  Hf18  1  0.09799388  0.10781054  0.89933064  1
  Hf  Hf19  1  0.49716749  0.70365749  0.90170396  1
  Hf  Hf20  1  0.20469839  0.39764315  0.40184872  1
  Hf  Hf21  1  0.19775017  0.60566953  0.79352806  1
  Hf  Hf22  1  0.40259067  0.39509623  0.00157172  1
  Hf  Hf23  1  -0.00578568  0.80365692  -0.00780141  1
  Hf  Hf24  1  0.30361225  0.49735941  0.89496897  1
  Hf  Hf25  1  0.89548606  0.10280595  0.89855066  1
  Hf  Hf26  1  0.60456836  0.78030140  0.40646060  1
  Hf  Hf27  1  0.79457346  -0.00937774  0.00046408  1
  Hf  Hf28  1  0.39629018  0.59738066  0.00463206  1
  Hf  Hf29  1  0.49160955  0.90926291  0.91198175  1
  Hf  Hf30  1  0.39423559  0.80563277  0.79586088  1
  Hf  Hf31  1  0.49398290  0.30077928  0.30449869  1
  Hf  Hf32  1  0.90359838  0.29522347  0.69428521  1
  Hf  Hf33  1  0.00287126  0.60028881  0.19310598  1
  Hf  Hf34  1  0.70565801  0.90500457  0.51204696  1
  Hf  Hf35  1  0.19950822  0.59658038  0.00748287  1
  Hf  Hf36  1  0.81051574  0.40307493  0.00662969  1
  Hf  Hf37  1  0.50347620  0.90312205  0.50186814  1
  Hf  Hf38  1  0.09161437  0.49836027  0.89554015  1
  Hf  Hf39  1  0.29348930  0.70831402  0.90466526  1
  Hf  Hf40  1  0.69292207  0.10057392  0.69636081  1
  Hf  Hf41  1  0.60429210  0.60263312  0.21555156  1
  Hf  Hf42  1  -0.01140998  0.59988577  0.00396353  1
  Hf  Hf43  1  0.69838803  0.29484160  0.50063526  1
  Hf  Hf44  1  0.79717467  0.40101253  0.79461554  1
  Hf  Hf45  1  0.20072810  0.39733575  0.79763463  1
  Hf  Hf46  1  0.19752134  0.00283625  0.80085128  1
  Hf  Hf47  1  0.60046015  0.00065983  0.19548247  1
  Hf  Hf48  1  0.38753878  0.79785075  0.40592205  1
  Hf  Hf49  1  0.20639737  0.20195013  0.59690599  1
  Zr  Zr50  1  0.30879352  0.09981609  0.50186624  1
  Zr  Zr51  1  0.79641136  0.60362083  0.40497623  1
  Zr  Zr52  1  0.20052898  0.79670959  0.20972610  1
  Zr  Zr53  1  0.48689774  0.10185530  0.31037459  1
  Zr  Zr54  1  0.59396976  0.39953801  -0.00626430  1
  Zr  Zr55  1  0.90471589  0.29177784  0.49761028  1
  Zr  Zr56  1  0.90093878  0.29554630  0.90218372  1
  Zr  Zr57  1  0.11048838  0.70547887  0.09492684  1
  Zr  Zr58  1  0.10443811  0.89676383  0.50418776  1
  Zr  Zr59  1  0.08817885  0.30596010  0.49604016  1
  Zr  Zr60  1  0.89319890  0.10512013  0.09567018  1
  Zr  Zr61  1  0.78977425  0.00110897  0.20348601  1
  Zr  Zr62  1  0.80726756  0.39901331  0.39830540  1
  Zr  Zr63  1  0.01465740  0.00251475  0.18974950  1
  Zr  Zr64  1  0.50140230  0.69871333  0.10133318  1
  Zr  Zr65  1  0.59542153  0.00449324  0.80446763  1
  Zr  Zr66  1  0.20828980  0.19775445  0.39900362  1
  Zr  Zr67  1  0.00329182  0.79408238  0.20117491  1
  Zr  Zr68  1  0.30391730  0.49998704  0.49234975  1
  Zr  Zr69  1  0.59611037  0.39746633  0.19968905  1
  Zr  Zr70  1  0.89950775  0.09260755  0.70114856  1
  Zr  Zr71  1  0.60507293  0.59896694  0.79930368  1
  Zr  Zr72  1  0.38341837  0.00619647  0.19748766  1
  Zr  Zr73  1  0.69518120  0.10741809  0.90598692  1
  Zr  Zr74  1  0.69377134  0.29213275  0.90197666  1
  Zr  Zr75  1  0.80312831  0.40418656  0.60118456  1
  Zr  Zr76  1  0.09936349  0.30004284  0.29752366  1
  Zr  Zr77  1  0.90000869  0.89757950  0.68933298  1
  Zr  Zr78  1  0.50135554  0.90419088  0.69458549  1
  Zr  Zr79  1  0.59709468  0.40955416  0.40762907  1
  Zr  Zr80  1  0.89800575  0.89676325  0.09923804  1
  Zr  Zr81  1  0.80971535  0.39517827  0.20106729  1
  Zr  Zr82  1  0.39787628  0.59890854  0.19816775  1
  Zr  Zr83  1  0.89546214  0.09193956  0.50891352  1
  Zr  Zr84  1  0.70067997  0.89568100  0.30648837  1
  Zr  Zr85  1  0.90397429  0.09928248  0.30028390  1
  Zr  Zr86  1  0.60859404  0.79119882  0.79765608  1
  Zr  Zr87  1  0.19685176  0.61333756  0.59338043  1
  Zr  Zr88  1  0.90939803  0.89643149  0.30819150  1
  Zr  Zr89  1  0.20754112  0.17929773  0.19500386  1
  Zr  Zr90  1  0.01993965  0.17630965  0.60088720  1
  Zr  Zr91  1  0.80577702  0.79464785  0.40881858  1
  Zr  Zr92  1  0.09937899  0.30288137  0.70113804  1
  Zr  Zr93  1  0.10587352  0.30222371  0.10086184  1
  Zr  Zr94  1  0.70190977  0.50114892  0.10291473  1
  Zr  Zr95  1  0.29309869  0.90154077  0.09645946  1
  Zr  Zr96  1  0.40962375  0.60260716  0.40451752  1
  Zr  Zr97  1  0.20214789  0.39942136  0.59727885  1
  Zr  Zr98  1  0.49316723  0.10631357  0.69503852  1
  Zr  Zr99  1  0.60788552  0.80544210  0.00963328  1
  Ta  Ta100  1  0.49237732  0.28931675  0.49599095  1
  Ta  Ta101  1  0.00510181  0.19944279  0.79908268  1
  Ta  Ta102  1  0.29355884  0.69189644  0.29911935  1
  Ta  Ta103  1  0.69812489  0.29564962  0.29842440  1
  Ta  Ta104  1  0.69826380  0.09953778  0.50664274  1
  Ta  Ta105  1  0.49905987  0.09688271  0.08897955  1
  Ta  Ta106  1  0.30424191  0.10469037  0.70069825  1
  Ta  Ta107  1  0.70173638  0.28730286  0.09818235  1
  Ta  Ta108  1  0.10449750  0.89897685  0.31167567  1
  Ta  Ta109  1  0.08963893  0.50738290  0.69713534  1
  Ta  Ta110  1  0.39574095  0.79596510  0.59173631  1
  Ta  Ta111  1  0.91079037  0.69384296  0.30731248  1
  Ta  Ta112  1  0.31306194  0.29275903  0.70178689  1
  Ta  Ta113  1  0.00371835  -0.00232015  -0.00783476  1
  Ta  Ta114  1  -0.00548423  0.40327964  0.79616179  1
  Ta  Ta115  1  0.29992933  0.29487748  0.89637318  1
  Ta  Ta116  1  0.49746826  0.70228662  0.69815524  1
  Ta  Ta117  1  0.69262964  0.10603851  0.09343358  1
  Ta  Ta118  1  0.79966154  -0.00212224  0.80019234  1
  Ta  Ta119  1  0.00381293  -0.00494342  0.41261782  1
  Ta  Ta120  1  0.80282215  0.60460725  -0.00651348  1
  Ta  Ta121  1  0.60770269  0.60018721  -0.00691958  1
  Ta  Ta122  1  0.90016259  0.70535963  0.70222640  1
  Ta  Ta123  1  0.19543035  0.80978477  0.79581369  1
  Ta  Ta124  1  0.00260699  0.20135254  0.00660952  1
  Ta  Ta125  1  0.79939928  0.60956433  0.80111717  1
  Ta  Ta126  1  0.09824098  0.30012497  0.90062018  1
  Ta  Ta127  1  0.09023181  0.50738804  0.49666545  1
  Ta  Ta128  1  0.60196224  0.78836564  0.59859636  1
  Ta  Ta129  1  0.80108372  0.00265349  0.40560125  1
  Ta  Ta130  1  0.29623183  0.90320837  0.90364178  1
  Ta  Ta131  1  0.60067075  0.19341607  0.20354066  1
  Ta  Ta132  1  0.19284078  0.60954526  0.40067720  1
  Ta  Ta133  1  0.70485794  0.50021968  0.30196708  1
  Ta  Ta134  1  0.70527655  0.50577513  0.69964248  1
  Ta  Ta135  1  0.60047706  0.19603001  0.40054728  1
  Ta  Ta136  1  0.41032892  0.39496100  0.80030444  1
  Ta  Ta137  1  0.39200991  0.79760834  0.20123926  1
  Ta  Ta138  1  0.10756009  0.08616828  0.30635027  1
  Ta  Ta139  1  0.59907023  0.39589885  0.79444599  1
  Ta  Ta140  1  0.09074225  0.71161129  0.69808732  1
  Ta  Ta141  1  -0.00157863  0.60809244  0.59949939  1
  Ta  Ta142  1  0.29825427  0.49805932  0.29768403  1
  Ta  Ta143  1  0.09387118  0.90009679  0.69645931  1
  Ta  Ta144  1  0.00339742  0.19769695  0.19643951  1
  Ta  Ta145  1  0.40128802  0.60293839  0.79691008  1
  Ta  Ta146  1  0.39208215  0.80078047  0.00945453  1
  Ta  Ta147  1  0.80323007  0.78784601  -0.00578089  1
  Ta  Ta148  1  0.39766154  0.20249205  -0.00057663  1
  Ta  Ta149  1  0.79169573  0.19206286  0.39409830  1
  Ti  Ti150  1  0.79735543  0.20161531  0.20207033  1
  Ti  Ti151  1  0.89760869  0.51193973  0.69747547  1
  Ti  Ti152  1  0.39494982  0.00536244  0.80322945  1
  Ti  Ti153  1  0.39949579  0.40047179  0.19467570  1
  Ti  Ti154  1  0.80966077  0.60097116  0.19587597  1
  Ti  Ti155  1  -0.00236234  0.79799114  0.59021535  1
  Ti  Ti156  1  0.20105517  0.79264837  0.40786946  1
  Ti  Ti157  1  -0.00725596  0.60537633  0.79662782  1
  Ti  Ti158  1  0.28802498  0.90766711  0.30725124  1
  Ti  Ti159  1  0.20346963  0.19944548  0.00156494  1
  Ti  Ti160  1  0.70348202  0.69121253  0.09738093  1
  Ti  Ti161  1  0.89920546  0.89360086  0.88563368  1
  Ti  Ti162  1  0.50232337  0.10705495  0.90941949  1
  Ti  Ti163  1  0.00492763  0.18738544  0.39872183  1
  Ti  Ti164  1  0.20101081  0.19894544  0.79632857  1
  Ti  Ti165  1  0.30514697  0.10360005  0.90251309  1
  Ti  Ti166  1  -0.00342305  0.40313024  0.00599161  1
  Ti  Ti167  1  0.10576548  0.89724714  0.09510707  1
  Ti  Ti168  1  0.90330204  0.50970507  0.30276927  1
  Ti  Ti169  1  0.70626688  0.50432773  0.50511292  1
  Ti  Ti170  1  0.50472233  0.50259270  0.09973710  1
  Ti  Ti171  1  0.00486970  -0.00312674  0.79984148  1
  Ti  Ti172  1  0.28703704  0.49888400  0.11611941  1
  Ti  Ti173  1  0.90392231  0.28986892  0.30174341  1
  Ti  Ti174  1  0.49280810  0.49400530  0.30574164  1
  Ti  Ti175  1  0.30688794  0.30707054  0.30049145  1
  Ti  Ti176  1  0.50639751  0.28843962  0.09616341  1
  Ti  Ti177  1  -0.00532707  0.40818519  0.39524706  1
  Ti  Ti178  1  0.89900730  0.50249809  0.89362706  1
  Ti  Ti179  1  0.90677995  0.51062937  0.50066265  1
  Ti  Ti180  1  0.18680327  0.01498395  0.60005718  1
  Ti  Ti181  1  0.79236362  0.20370325  0.79095719  1
  Ti  Ti182  1  0.49951662  0.50103708  0.89503813  1
  Ti  Ti183  1  0.50150141  0.50462348  0.70346361  1
  Ti  Ti184  1  0.79300080  0.20089305  0.60279971  1
  Ti  Ti185  1  0.40476833  0.20234322  0.80783128  1
  Ti  Ti186  1  0.60079858  0.60046058  0.40479024  1
  Ti  Ti187  1  0.70258099  0.50042125  0.89685034  1
  Ti  Ti188  1  0.29790260  0.30157535  0.10187744  1
  Ti  Ti189  1  0.29989964  0.70517352  0.69897631  1
  Ti  Ti190  1  -0.00267767  0.41212996  0.60200838  1
  Ti  Ti191  1  0.90878830  0.69754960  0.50012840  1
  Ti  Ti192  1  0.39126259  -0.00431072  0.40564268  1
  Ti  Ti193  1  0.49456492  0.70320724  0.30116928  1
  Ti  Ti194  1  0.79603717  0.78063362  0.59798328  1
  Ti  Ti195  1  0.40260875  0.00133782  0.59331108  1
  Ti  Ti196  1  0.59320507  0.19961035  0.59593151  1
  Ti  Ti197  1  0.20480906  0.79621418  0.59557783  1
  Ti  Ti198  1  0.49289503  0.90785273  0.09710707  1
  Ti  Ti199  1  0.50363709  0.29119748  0.70429954  1
  Mo  Mo200  1  0.09993358  0.70119354  0.31171191  1
  Mo  Mo201  1  0.09754195  0.90420979  0.89566099  1
  Mo  Mo202  1  0.40242291  0.20361420  0.60145710  1
  Mo  Mo203  1  0.80260901  0.20349136  0.00936465  1
  Mo  Mo204  1  0.58956654  0.20661326  0.80129258  1
  Mo  Mo205  1  0.00068782  0.80450010  0.79421557  1
  Mo  Mo206  1  0.00434406  -0.00979868  0.59969298  1
  Mo  Mo207  1  0.30209797  0.10411932  0.08580624  1
  Mo  Mo208  1  0.90247048  0.89679011  0.50475762  1
  Mo  Mo209  1  0.19555309  -0.00479059  0.20425790  1
  Mo  Mo210  1  0.20052955  0.59876492  0.20414360  1
  Mo  Mo211  1  0.70004688  0.10612982  0.29962964  1
  Mo  Mo212  1  0.10503294  0.09202697  0.49206155  1
  Mo  Mo213  1  0.20900364  0.39991838  0.20264854  1
  Mo  Mo214  1  0.39992497  0.39901814  0.39834407  1
  Mo  Mo215  1  0.49507654  0.29652165  0.89455622  1
  Mo  Mo216  1  0.50106090  0.70365567  0.50245970  1
  Mo  Mo217  1  0.39853150  0.20369857  0.40072238  1
  Mo  Mo218  1  0.70621921  0.68818195  0.29999959  1
  Mo  Mo219  1  0.69220239  0.29659638  0.70015220  1
  Mo  Mo220  1  0.00629849  0.79449892  0.40517976  1
  Mo  Mo221  1  0.59681642  0.00508974  0.59432874  1
  Mo  Mo222  1  0.80688525  0.79682224  0.80068729  1
  Mo  Mo223  1  0.31667515  0.29780017  0.49735753  1
  Mo  Mo224  1  0.29381966  0.70446270  0.49689446  1
  Mo  Mo225  1  0.30059423  0.70248035  0.10358591  1
  Mo  Mo226  1  0.90047444  0.29477082  0.10284506  1
  Mo  Mo227  1  0.59067527  0.20080347  0.00462658  1
  Mo  Mo228  1  0.89832841  0.50405871  0.09465317  1
  Mo  Mo229  1  0.19741646  0.80990320  -0.00984362  1
  Mo  Mo230  1  0.39548479  0.00755931  -0.00479407  1
  Mo  Mo231  1  0.70561831  0.69730949  0.90152370  1
  Mo  Mo232  1  0.10110629  0.49790440  0.09985011  1
  Mo  Mo233  1  0.79574038  0.00313471  0.60107442  1
  Mo  Mo234  1  0.70870846  0.69802765  0.69788214  1
  Mo  Mo235  1  0.89852889  0.70212995  0.89083949  1
  Mo  Mo236  1  0.00012813  0.60108203  0.40236419  1
  Mo  Mo237  1  0.10664349  0.09437710  0.70767838  1
  Mo  Mo238  1  0.80881863  0.60329583  0.60416906  1
  Mo  Mo239  1  0.50264260  0.10101093  0.50222112  1
  Mo  Mo240  1  0.89265040  0.69712419  0.09896013  1
  Mo  Mo241  1  0.29705478  0.90182115  0.50640588  1
  Mo  Mo242  1  0.50518567  0.49912711  0.49941679  1
  Mo  Mo243  1  0.09509347  0.70476784  0.50225770  1
  Mo  Mo244  1  0.29642965  0.08767468  0.30943218  1
  Mo  Mo245  1  0.09772328  0.10178964  0.09475172  1
  Mo  Mo246  1  0.59657017  0.00263184  0.00562411  1
  Mo  Mo247  1  0.69985670  0.90060670  0.09552462  1
  Mo  Mo248  1  0.20268377  -0.00523418  0.40337167  1
  Mo  Mo249  1  0.70281537  0.69566576  0.50542995  1
