# generated using pymatgen
data_HfZrTaTiMo
_symmetry_space_group_name_H-M   'P 1'
_cell_length_a   16.88355921
_cell_length_b   16.87739763
_cell_length_c   16.88655755
_cell_angle_alpha   89.97163085
_cell_angle_beta   90.03366449
_cell_angle_gamma   89.99391853
_symmetry_Int_Tables_number   1
_chemical_formula_structural   HfZrTaTiMo
_chemical_formula_sum   'Hf50 Zr50 Ta50 Ti50 Mo50'
_cell_volume   4811.83228368
_cell_formula_units_Z   50
loop_
 _symmetry_equiv_pos_site_id
 _symmetry_equiv_pos_as_xyz
  1  'x, y, z'
loop_
 _atom_site_type_symbol
 _atom_site_label
 _atom_site_symmetry_multiplicity
 _atom_site_fract_x
 _atom_site_fract_y
 _atom_site_fract_z
 _atom_site_occupancy
  Hf  Hf0  1  0.79300262  0.18813823  0.19029933  1
  Hf  Hf1  1  0.09575015  0.30059084  0.71131263  1
  Hf  Hf2  1  0.29327435  0.08170937  0.89598420  1
  Hf  Hf3  1  0.50081473  0.09124927  0.89887553  1
  Hf  Hf4  1  0.60264082  0.40984047  0.40480934  1
  Hf  Hf5  1  0.09725859  0.09669081  0.90286878  1
  Hf  Hf6  1  0.29628973  0.50803710  0.29460759  1
  Hf  Hf7  1  0.59819269  0.19837923  0.19729666  1
  Hf  Hf8  1  0.29187162  0.70066809  0.10960940  1
  Hf  Hf9  1  0.60737965  0.79777792  0.38614124  1
  Hf  Hf10  1  0.39919189  0.19399308  0.00312192  1
  Hf  Hf11  1  0.80663109  0.20728675  0.59949266  1
  Hf  Hf12  1  0.29255335  0.89505247  0.29627452  1
  Hf  Hf13  1  0.29283447  0.30324005  0.29130503  1
  Hf  Hf14  1  0.89946538  0.10688353  0.90196276  1
  Hf  Hf15  1  0.09485247  0.09504700  0.09232746  1
  Hf  Hf16  1  0.50541469  0.09382060  0.30273562  1
  Hf  Hf17  1  0.59264659  0.78592020  -0.00120551  1
  Hf  Hf18  1  0.39527221  -0.00121172  0.19260276  1
  Hf  Hf19  1  -0.00199485  0.60489244  0.60055793  1
  Hf  Hf20  1  0.10683486  0.49717975  0.29275815  1
  Hf  Hf21  1  -0.00223374  0.19967823  0.19783593  1
  Hf  Hf22  1  0.19351521  0.80334828  0.59436636  1
  Hf  Hf23  1  0.70910397  0.69451204  0.10265356  1
  Hf  Hf24  1  0.19162506  -0.00839030  0.59306030  1
  Hf  Hf25  1  0.51010401  0.30513985  0.90421476  1
  Hf  Hf26  1  0.70375265  0.10626545  0.69204598  1
  Hf  Hf27  1  0.49981435  0.90204551  0.90231513  1
  Hf  Hf28  1  0.19001710  0.59653878  0.00099108  1
  Hf  Hf29  1  0.50325847  0.30962902  0.51142667  1
  Hf  Hf30  1  0.40612051  0.61066871  0.81254593  1
  Hf  Hf31  1  0.80938179  0.40714461  -0.01079783  1
  Hf  Hf32  1  0.19909953  0.40148496  0.60349969  1
  Hf  Hf33  1  0.29118900  0.30094118  0.10533160  1
  Hf  Hf34  1  0.39836819  0.00065170  0.39821175  1
  Hf  Hf35  1  0.90164610  0.08646343  0.50356075  1
  Hf  Hf36  1  0.80282819  -0.00502975  0.79832647  1
  Hf  Hf37  1  0.50716206  0.49382669  0.70064666  1
  Hf  Hf38  1  0.10124717  0.30027973  0.49549169  1
  Hf  Hf39  1  0.51002883  0.49519214  0.90068740  1
  Hf  Hf40  1  0.90037499  0.50039513  0.70710135  1
  Hf  Hf41  1  0.60418426  0.20116115  0.79825318  1
  Hf  Hf42  1  0.00448644  0.80536358  0.58606283  1
  Hf  Hf43  1  0.39812809  0.80981454  0.59852662  1
  Hf  Hf44  1  0.80744210  0.79783638  0.79612588  1
  Hf  Hf45  1  0.60711387  -0.00644458  0.78962381  1
  Hf  Hf46  1  0.70081570  0.89952251  0.90492183  1
  Hf  Hf47  1  0.89425467  0.50339393  0.29226639  1
  Hf  Hf48  1  0.89920706  0.69933821  0.10249795  1
  Hf  Hf49  1  0.80861168  0.40326476  0.42233038  1
  Zr  Zr50  1  -0.00261126  0.39881106  0.39965028  1
  Zr  Zr51  1  0.29106185  0.09629960  0.49224496  1
  Zr  Zr52  1  0.50444260  0.70714165  0.70302197  1
  Zr  Zr53  1  0.70684016  0.50369755  0.10107073  1
  Zr  Zr54  1  0.60086487  0.19965910  0.01221610  1
  Zr  Zr55  1  0.39992619  0.20193715  0.39875943  1
  Zr  Zr56  1  0.90679412  0.90730463  0.68498104  1
  Zr  Zr57  1  0.09740301  0.89878582  0.09761252  1
  Zr  Zr58  1  0.10117620  0.71086060  0.10187516  1
  Zr  Zr59  1  0.40450052  0.39628478  0.01153086  1
  Zr  Zr60  1  0.19389546  0.60581828  0.80674515  1
  Zr  Zr61  1  0.89148739  0.30309185  0.29170302  1
  Zr  Zr62  1  0.89967040  0.89864005  0.09088655  1
  Zr  Zr63  1  0.79751508  0.60658936  0.80312968  1
  Zr  Zr64  1  -0.01764920  0.39831831  0.59461103  1
  Zr  Zr65  1  0.29734240  0.70738482  0.70512521  1
  Zr  Zr66  1  -0.00393978  0.20195342  0.59989471  1
  Zr  Zr67  1  0.50601595  0.90243491  0.49314938  1
  Zr  Zr68  1  0.19934209  0.20114442  0.59907080  1
  Zr  Zr69  1  0.70835180  0.50217815  0.29186853  1
  Zr  Zr70  1  0.70453091  0.70144883  0.49767233  1
  Zr  Zr71  1  0.70057843  0.90235596  0.09209490  1
  Zr  Zr72  1  0.88696469  0.70236867  0.49604417  1
  Zr  Zr73  1  -0.00097514  0.59856998  -0.00620072  1
  Zr  Zr74  1  0.69692759  0.09011626  0.31075036  1
  Zr  Zr75  1  -0.00166876  0.60073651  0.40582389  1
  Zr  Zr76  1  0.70195960  0.30701432  0.29900628  1
  Zr  Zr77  1  0.89964413  0.09342618  0.30566066  1
  Zr  Zr78  1  0.30029538  0.49287411  0.90412131  1
  Zr  Zr79  1  0.28749348  0.88910168  0.09151799  1
  Zr  Zr80  1  0.40252306  0.59834116  0.59953340  1
  Zr  Zr81  1  0.51006963  0.30708506  0.69518675  1
  Zr  Zr82  1  0.30167381  0.69726439  0.48951075  1
  Zr  Zr83  1  0.09488523  0.09391605  0.70837475  1
  Zr  Zr84  1  0.70679446  0.09823738  0.91429416  1
  Zr  Zr85  1  0.09975323  0.09488058  0.30261329  1
  Zr  Zr86  1  0.40692425  0.60791332  0.00682055  1
  Zr  Zr87  1  0.30372861  0.49393616  0.70360567  1
  Zr  Zr88  1  0.50614338  0.70015908  0.49985596  1
  Zr  Zr89  1  0.59861258  0.79358155  0.20213674  1
  Zr  Zr90  1  0.10255450  0.70069708  0.29267355  1
  Zr  Zr91  1  0.40079955  0.19940542  0.59958580  1
  Zr  Zr92  1  0.68996373  0.29943876  0.51687940  1
  Zr  Zr93  1  0.19147152  0.60354525  0.59931567  1
  Zr  Zr94  1  0.70183216  0.31186299  0.09722101  1
  Zr  Zr95  1  0.00445200  0.40136570  -0.00118303  1
  Zr  Zr96  1  0.29816990  0.91059301  0.71953580  1
  Zr  Zr97  1  0.40313284  0.40670931  0.39940430  1
  Zr  Zr98  1  0.40433398  0.19588126  0.19152808  1
  Zr  Zr99  1  0.30015483  0.09570400  0.70848104  1
  Ta  Ta100  1  0.61166231  0.59875990  0.60761080  1
  Ta  Ta101  1  0.80630363  0.79036019  -0.01495541  1
  Ta  Ta102  1  0.60436510  0.60244663  -0.00622117  1
  Ta  Ta103  1  0.29734717  0.29663684  0.89956293  1
  Ta  Ta104  1  0.39816671  0.80248091  0.81499920  1
  Ta  Ta105  1  0.61049099  0.60524835  0.80569388  1
  Ta  Ta106  1  0.60941437  0.80986398  0.60797408  1
  Ta  Ta107  1  0.89698381  0.29621170  0.09218495  1
  Ta  Ta108  1  -0.00213637  0.80122568  0.80314861  1
  Ta  Ta109  1  0.19082753  0.80449194  0.81113237  1
  Ta  Ta110  1  0.09388555  0.70779858  0.70362481  1
  Ta  Ta111  1  0.49999683  0.09619931  0.69822515  1
  Ta  Ta112  1  0.19002131  0.80192382  0.40417112  1
  Ta  Ta113  1  0.89706946  0.09440621  0.08867053  1
  Ta  Ta114  1  -0.00143220  0.79921890  -0.01970241  1
  Ta  Ta115  1  0.00039559  0.59210637  0.19006134  1
  Ta  Ta116  1  -0.00287177  0.80451030  0.39901643  1
  Ta  Ta117  1  0.70139139  0.90276166  0.49560745  1
  Ta  Ta118  1  0.29860066  0.49849755  0.49515567  1
  Ta  Ta119  1  0.40189768  0.20023709  0.80325656  1
  Ta  Ta120  1  -0.00383251  -0.01024083  0.80943466  1
  Ta  Ta121  1  0.19193339  0.39861738  0.00125439  1
  Ta  Ta122  1  0.40466448  -0.00126906  0.59910004  1
  Ta  Ta123  1  0.70923633  0.29881398  0.90048958  1
  Ta  Ta124  1  0.00117160  0.40186563  0.18648903  1
  Ta  Ta125  1  0.39496545  -0.00617279  0.00234149  1
  Ta  Ta126  1  0.29666171  0.69898002  0.29643769  1
  Ta  Ta127  1  0.50565894  0.30215502  0.29969084  1
  Ta  Ta128  1  0.40322341  0.79777318  0.38808606  1
  Ta  Ta129  1  0.19548018  0.20321228  0.39535042  1
  Ta  Ta130  1  0.79645677  0.80377179  0.21178652  1
  Ta  Ta131  1  0.19821086  0.20308584  -0.00196352  1
  Ta  Ta132  1  0.60124995  0.60016078  0.39265486  1
  Ta  Ta133  1  0.59440308  0.60627687  0.20236019  1
  Ta  Ta134  1  0.60456010  -0.00260868  0.59861219  1
  Ta  Ta135  1  0.10253347  0.49927844  0.50050150  1
  Ta  Ta136  1  0.09334491  0.09158588  0.49038377  1
  Ta  Ta137  1  0.28980200  0.49890217  0.11137417  1
  Ta  Ta138  1  0.90308679  0.10092531  0.70675088  1
  Ta  Ta139  1  0.89411522  0.69591833  0.29776850  1
  Ta  Ta140  1  0.09161644  0.49777674  0.70860459  1
  Ta  Ta141  1  0.30451293  0.30179314  0.70701836  1
  Ta  Ta142  1  0.80102970  -0.00698130  0.20193125  1
  Ta  Ta143  1  0.50336242  0.90421853  0.29603825  1
  Ta  Ta144  1  -0.00712287  -0.00591225  0.20228085  1
  Ta  Ta145  1  0.60254957  0.19803631  0.40810263  1
  Ta  Ta146  1  0.40796169  0.79399705  0.20042616  1
  Ta  Ta147  1  0.79804540  0.19750041  0.41062717  1
  Ta  Ta148  1  -0.00498862  0.20439259  0.40191702  1
  Ta  Ta149  1  0.19554096  0.00004005  0.19870510  1
  Ti  Ti150  1  0.79878461  -0.01086351  0.39960703  1
  Ti  Ti151  1  0.79915732  0.80712648  0.60221576  1
  Ti  Ti152  1  0.09628767  0.90228873  0.70464038  1
  Ti  Ti153  1  0.70056719  0.30470422  0.70197858  1
  Ti  Ti154  1  0.79760495  0.40115074  0.80392078  1
  Ti  Ti155  1  0.09974824  0.29367887  0.89827306  1
  Ti  Ti156  1  0.80355209  0.60011717  0.60823572  1
  Ti  Ti157  1  0.29663527  0.90158370  0.48911454  1
  Ti  Ti158  1  0.40950144  0.60164904  0.39473614  1
  Ti  Ti159  1  0.28831247  0.10195044  0.29363627  1
  Ti  Ti160  1  0.51275515  0.09890436  0.50394763  1
  Ti  Ti161  1  0.28414686  0.09742173  0.09638548  1
  Ti  Ti162  1  0.62163397  0.40927506  0.80238273  1
  Ti  Ti163  1  0.80253922  0.80898973  0.38948648  1
  Ti  Ti164  1  -0.00718915  0.39146344  0.81095915  1
  Ti  Ti165  1  0.51062294  0.08117591  0.09484011  1
  Ti  Ti166  1  0.50814477  0.50139387  0.09782116  1
  Ti  Ti167  1  0.50106300  0.89990451  0.09820262  1
  Ti  Ti168  1  -0.00227131  0.20902071  -0.00264777  1
  Ti  Ti169  1  0.20062742  0.39947961  0.39961992  1
  Ti  Ti170  1  0.10491208  0.29919475  0.29141443  1
  Ti  Ti171  1  0.50232591  0.50032315  0.50943150  1
  Ti  Ti172  1  0.30060816  0.30679413  0.50132798  1
  Ti  Ti173  1  0.90349141  0.50487783  0.89234840  1
  Ti  Ti174  1  0.40851002  0.40154074  0.19759554  1
  Ti  Ti175  1  0.10597775  0.90740977  0.90924467  1
  Ti  Ti176  1  -0.00430875  0.61607625  0.80022081  1
  Ti  Ti177  1  0.79829252  0.40485418  0.60703757  1
  Ti  Ti178  1  0.49683098  0.90220277  0.70475627  1
  Ti  Ti179  1  0.09526773  0.49714221  0.88978784  1
  Ti  Ti180  1  0.29222247  0.71245716  0.91154107  1
  Ti  Ti181  1  0.70320929  0.70357744  0.69660054  1
  Ti  Ti182  1  0.10137740  0.90171615  0.29984255  1
  Ti  Ti183  1  0.70686582  0.51167221  0.50526922  1
  Ti  Ti184  1  0.58937310  0.40185711  0.19541775  1
  Ti  Ti185  1  0.19845621  0.39712206  0.80602677  1
  Ti  Ti186  1  -0.00473811  -0.01841205  0.40294534  1
  Ti  Ti187  1  0.40074899  0.39305310  0.80235258  1
  Ti  Ti188  1  0.60595882  0.79652448  0.79978197  1
  Ti  Ti189  1  0.10448584  0.29671198  0.10494717  1
  Ti  Ti190  1  0.20333396  0.20181484  0.80496261  1
  Ti  Ti191  1  0.19460701  0.60316494  0.40365984  1
  Ti  Ti192  1  0.89549753  0.29315234  0.72094620  1
  Ti  Ti193  1  0.80258011  0.60113062  -0.01164479  1
  Ti  Ti194  1  0.79411224  -0.00424042  0.59519878  1
  Ti  Ti195  1  0.50196549  0.50267757  0.29593630  1
  Ti  Ti196  1  0.60772582  -0.00541625  0.19908072  1
  Ti  Ti197  1  0.40913348  0.60383309  0.19912746  1
  Ti  Ti198  1  -0.01065103  0.80706733  0.21307526  1
  Ti  Ti199  1  0.40422688  0.79586602  0.00184617  1
  Mo  Mo200  1  0.09836772  0.70395039  0.89479573  1
  Mo  Mo201  1  0.09673090  0.90350449  0.48779327  1
  Mo  Mo202  1  0.70851061  0.69400005  0.30037690  1
  Mo  Mo203  1  0.10186776  0.49623434  0.10131278  1
  Mo  Mo204  1  0.60638989  0.40681346  -0.00202833  1
  Mo  Mo205  1  0.89871986  0.89648347  0.30033159  1
  Mo  Mo206  1  0.70129453  0.49941730  0.89979747  1
  Mo  Mo207  1  0.89135559  0.50629742  0.50873593  1
  Mo  Mo208  1  0.90294531  0.69856436  0.89727613  1
  Mo  Mo209  1  0.38988863  0.40247180  0.59839836  1
  Mo  Mo210  1  0.70094655  0.90220407  0.30064600  1
  Mo  Mo211  1  0.19218819  0.39978941  0.19589530  1
  Mo  Mo212  1  0.90235175  0.70461905  0.69801948  1
  Mo  Mo213  1  0.80314324  0.20384316  0.00059633  1
  Mo  Mo214  1  0.30128326  0.89568935  0.90665651  1
  Mo  Mo215  1  0.70457056  0.08801744  0.10376213  1
  Mo  Mo216  1  0.19771443  0.80148275  0.21173850  1
  Mo  Mo217  1  0.81517381  0.40506622  0.18319350  1
  Mo  Mo218  1  0.19342377  0.79825669  -0.01093554  1
  Mo  Mo219  1  -0.00435716  0.20104926  0.80497526  1
  Mo  Mo220  1  0.89579916  0.29229491  0.49731539  1
  Mo  Mo221  1  0.50477031  0.70283177  0.89887234  1
  Mo  Mo222  1  0.90108738  0.50207624  0.09756016  1
  Mo  Mo223  1  0.49340570  0.69427445  0.29999758  1
  Mo  Mo224  1  -0.00453674  -0.00577081  -0.00271102  1
  Mo  Mo225  1  0.70573611  0.50130500  0.70256230  1
  Mo  Mo226  1  0.59663274  -0.00693346  0.00619331  1
  Mo  Mo227  1  0.59935194  0.18595401  0.60019290  1
  Mo  Mo228  1  0.18457035  -0.01009402  0.80513155  1
  Mo  Mo229  1  0.70004371  0.70045924  0.89992146  1
  Mo  Mo230  1  0.41058531  -0.00311514  0.79879183  1
  Mo  Mo231  1  0.70301874  0.89766503  0.69300630  1
  Mo  Mo232  1  0.70265572  0.09418731  0.50106810  1
  Mo  Mo233  1  0.61632467  0.42181140  0.60393981  1
  Mo  Mo234  1  0.00196971  -0.00046447  0.59692434  1
  Mo  Mo235  1  0.49749382  0.69382703  0.10229993  1
  Mo  Mo236  1  0.90113140  0.90214795  0.90007965  1
  Mo  Mo237  1  0.80174381  0.00089556  0.00175089  1
  Mo  Mo238  1  0.89855854  0.29693593  0.89690677  1
  Mo  Mo239  1  0.60226001  -0.00190025  0.40468562  1
  Mo  Mo240  1  0.79542668  0.59989859  0.39650096  1
  Mo  Mo241  1  0.19662944  -0.00105742  0.39445455  1
  Mo  Mo242  1  0.20107094  0.00073662  0.00137746  1
  Mo  Mo243  1  0.50021175  0.31129861  0.10711392  1
  Mo  Mo244  1  0.80466657  0.60683119  0.19948719  1
  Mo  Mo245  1  0.19824956  0.59908646  0.19889061  1
  Mo  Mo246  1  0.10037962  0.70116617  0.49580778  1
  Mo  Mo247  1  0.79920566  0.20603675  0.79930332  1
  Mo  Mo248  1  0.89130560  0.89995916  0.49372733  1
  Mo  Mo249  1  0.19432801  0.19637577  0.19743044  1
