# generated using pymatgen
data_HfZrTaTiMo
_symmetry_space_group_name_H-M   'P 1'
_cell_length_a   16.88501716
_cell_length_b   16.88786548
_cell_length_c   16.88884496
_cell_angle_alpha   90.04197013
_cell_angle_beta   90.04339055
_cell_angle_gamma   90.03107232
_symmetry_Int_Tables_number   1
_chemical_formula_structural   HfZrTaTiMo
_chemical_formula_sum   'Hf50 Zr50 Ta50 Ti50 Mo50'
_cell_volume   4815.88281957
_cell_formula_units_Z   50
loop_
 _symmetry_equiv_pos_site_id
 _symmetry_equiv_pos_as_xyz
  1  'x, y, z'
loop_
 _atom_site_type_symbol
 _atom_site_label
 _atom_site_symmetry_multiplicity
 _atom_site_fract_x
 _atom_site_fract_y
 _atom_site_fract_z
 _atom_site_occupancy
  Hf  Hf0  1  0.39698462  0.20267874  -0.00233569  1
  Hf  Hf1  1  0.10166641  0.70007406  0.28883106  1
  Hf  Hf2  1  0.09745743  0.89746300  0.70534972  1
  Hf  Hf3  1  0.88918734  0.51185235  0.50175794  1
  Hf  Hf4  1  0.78996732  0.38681786  0.59228956  1
  Hf  Hf5  1  -0.00738429  0.40611778  0.39133445  1
  Hf  Hf6  1  0.30358800  0.51364050  0.10016518  1
  Hf  Hf7  1  0.11234922  0.08169222  0.90466983  1
  Hf  Hf8  1  0.70236374  0.89681433  0.30282645  1
  Hf  Hf9  1  0.30382411  0.29542934  0.50659007  1
  Hf  Hf10  1  0.79061807  0.19585844  0.59975773  1
  Hf  Hf11  1  0.69633967  0.89745613  0.49182378  1
  Hf  Hf12  1  0.00499952  -0.00726659  0.19681779  1
  Hf  Hf13  1  0.88983535  0.09984230  0.29818956  1
  Hf  Hf14  1  0.89791588  0.69896578  0.70107923  1
  Hf  Hf15  1  0.29696064  0.08472015  0.09337875  1
  Hf  Hf16  1  0.70186949  0.29956034  0.90621864  1
  Hf  Hf17  1  0.77445561  0.19278789  0.17736687  1
  Hf  Hf18  1  0.09578076  0.70017104  0.51307873  1
  Hf  Hf19  1  0.89247848  0.89691574  0.30184422  1
  Hf  Hf20  1  0.58354549  0.80070451  0.38761354  1
  Hf  Hf21  1  0.80019121  -0.00336085  -0.00177676  1
  Hf  Hf22  1  0.49385249  0.50584754  0.09613938  1
  Hf  Hf23  1  0.01330993  -0.00213719  0.39446727  1
  Hf  Hf24  1  0.00137356  0.19771856  0.39910907  1
  Hf  Hf25  1  0.10459589  0.91339897  0.51518193  1
  Hf  Hf26  1  0.20398657  0.40428413  0.00158831  1
  Hf  Hf27  1  0.20356890  0.40213305  0.60261275  1
  Hf  Hf28  1  0.29519749  0.70907412  0.91368746  1
  Hf  Hf29  1  0.88946129  0.90015876  0.49858098  1
  Hf  Hf30  1  0.20762168  0.20867646  -0.00424498  1
  Hf  Hf31  1  0.70556180  0.70299805  0.49357635  1
  Hf  Hf32  1  0.09636506  0.50961106  0.50405451  1
  Hf  Hf33  1  -0.00754347  0.60353821  0.38925037  1
  Hf  Hf34  1  0.49331091  0.09313290  0.10474277  1
  Hf  Hf35  1  0.30264792  0.09578508  0.69821240  1
  Hf  Hf36  1  0.60596765  0.40687525  0.20343099  1
  Hf  Hf37  1  0.49519547  0.69988347  0.50565621  1
  Hf  Hf38  1  0.90521467  0.31191853  0.90028953  1
  Hf  Hf39  1  0.89493417  0.50525383  0.69914928  1
  Hf  Hf40  1  0.90242831  0.08690320  0.70030365  1
  Hf  Hf41  1  0.60082479  0.59675036  -0.00750007  1
  Hf  Hf42  1  0.40426160  0.19848209  0.80626892  1
  Hf  Hf43  1  0.29518241  0.89722185  0.90401634  1
  Hf  Hf44  1  0.09461601  0.30677975  0.09527844  1
  Hf  Hf45  1  0.19907835  0.40774763  0.80009828  1
  Hf  Hf46  1  0.00542934  0.18861147  0.80260575  1
  Hf  Hf47  1  0.29066164  0.09239928  0.49730633  1
  Hf  Hf48  1  0.31258602  0.51575146  0.90343320  1
  Hf  Hf49  1  0.89206562  0.69872805  0.90838596  1
  Zr  Zr50  1  0.00433959  0.80498814  -0.00385196  1
  Zr  Zr51  1  0.69951510  0.30106675  0.30087965  1
  Zr  Zr52  1  0.89464838  0.29765401  0.09211262  1
  Zr  Zr53  1  0.70165966  0.09178380  0.89380296  1
  Zr  Zr54  1  0.59210897  0.59341151  0.39401841  1
  Zr  Zr55  1  0.60872490  0.59759972  0.20172327  1
  Zr  Zr56  1  0.69343056  0.89132376  0.89426104  1
  Zr  Zr57  1  0.40528086  0.39785924  -0.00639983  1
  Zr  Zr58  1  0.59511617  -0.00527359  0.20576836  1
  Zr  Zr59  1  0.59347873  0.40840793  0.81027729  1
  Zr  Zr60  1  0.40055866  0.80488061  0.20590034  1
  Zr  Zr61  1  0.19575835  0.61342506  0.80358070  1
  Zr  Zr62  1  0.70185031  0.50314935  0.49885309  1
  Zr  Zr63  1  0.29017082  0.29190161  0.30467436  1
  Zr  Zr64  1  0.30184058  0.90338229  0.50079584  1
  Zr  Zr65  1  -0.00192409  0.40929324  0.19964148  1
  Zr  Zr66  1  0.08893030  0.50636038  0.69854255  1
  Zr  Zr67  1  0.20425532  0.40950319  0.39909108  1
  Zr  Zr68  1  0.10506175  0.29293937  0.49354163  1
  Zr  Zr69  1  0.90109016  0.08983835  0.50180339  1
  Zr  Zr70  1  0.49432628  0.70782473  0.90666591  1
  Zr  Zr71  1  -0.00430072  0.39399293  0.59415219  1
  Zr  Zr72  1  0.40807987  0.19533668  0.40522233  1
  Zr  Zr73  1  0.19585494  -0.01053771  0.20224532  1
  Zr  Zr74  1  0.59502775  -0.00780974  0.00154755  1
  Zr  Zr75  1  0.90055911  0.09758375  0.09350770  1
  Zr  Zr76  1  -0.00645894  0.79406280  0.39847513  1
  Zr  Zr77  1  0.49922109  0.30202021  0.70097159  1
  Zr  Zr78  1  0.20205240  0.60456965  0.40101784  1
  Zr  Zr79  1  0.39995816  0.80419054  0.79203074  1
  Zr  Zr80  1  0.90513266  0.29944227  0.70428521  1
  Zr  Zr81  1  0.78732653  0.79837007  0.60975955  1
  Zr  Zr82  1  0.70656885  0.70630514  0.29225206  1
  Zr  Zr83  1  0.20072455  0.19900803  0.80091892  1
  Zr  Zr84  1  0.31044244  0.50573166  0.70361594  1
  Zr  Zr85  1  0.40766691  0.40473322  0.40271419  1
  Zr  Zr86  1  0.00255507  0.61247793  0.80851532  1
  Zr  Zr87  1  0.69553073  0.08652423  0.49497146  1
  Zr  Zr88  1  0.89048137  0.29832483  0.29416194  1
  Zr  Zr89  1  0.39227278  0.20011191  0.19933490  1
  Zr  Zr90  1  0.49736761  0.70224567  0.10143050  1
  Zr  Zr91  1  0.90354962  0.51070155  0.08668555  1
  Zr  Zr92  1  0.12136133  0.10968450  0.30654457  1
  Zr  Zr93  1  0.70127350  0.49988765  0.69766066  1
  Zr  Zr94  1  0.80397902  0.19140340  0.80465468  1
  Zr  Zr95  1  0.19520644  0.80702858  0.39658034  1
  Zr  Zr96  1  0.60203621  0.61635455  0.61225846  1
  Zr  Zr97  1  0.62030118  0.19384025  0.01912765  1
  Zr  Zr98  1  0.00156297  0.19107439  -0.00937798  1
  Zr  Zr99  1  0.51006330  0.30251807  0.10322648  1
  Ta  Ta100  1  0.40755810  -0.00541496  0.60545375  1
  Ta  Ta101  1  0.30364940  0.51014274  0.29384927  1
  Ta  Ta102  1  -0.00171716  -0.00785268  0.81067245  1
  Ta  Ta103  1  0.59575344  -0.00668913  0.60566696  1
  Ta  Ta104  1  0.89987711  0.89877316  0.70704927  1
  Ta  Ta105  1  0.30433551  0.90821144  0.30512310  1
  Ta  Ta106  1  0.70666711  0.50418045  0.90108181  1
  Ta  Ta107  1  0.79494845  -0.00473609  0.19421483  1
  Ta  Ta108  1  -0.00588126  0.80186966  0.60285413  1
  Ta  Ta109  1  0.30645664  0.70145832  0.50555855  1
  Ta  Ta110  1  0.68954049  0.29759253  0.70005159  1
  Ta  Ta111  1  0.79641106  0.79911807  0.80097075  1
  Ta  Ta112  1  0.09906909  0.29802173  0.70310000  1
  Ta  Ta113  1  0.09259150  0.31571639  0.89509894  1
  Ta  Ta114  1  0.39368434  0.39785095  0.20164197  1
  Ta  Ta115  1  0.30137375  0.89506536  0.09398824  1
  Ta  Ta116  1  0.49757682  0.50314043  0.69969632  1
  Ta  Ta117  1  0.00594352  0.80457788  0.19264539  1
  Ta  Ta118  1  0.78959227  0.20127814  0.40732908  1
  Ta  Ta119  1  0.01038734  0.19628623  0.19852824  1
  Ta  Ta120  1  0.79045371  -0.00627410  0.61115562  1
  Ta  Ta121  1  0.10488906  0.30130298  0.29494042  1
  Ta  Ta122  1  0.20642659  0.79633095  0.60920725  1
  Ta  Ta123  1  0.69971745  0.88509636  0.10453306  1
  Ta  Ta124  1  0.79700093  0.40464304  -0.00087788  1
  Ta  Ta125  1  0.50425559  0.30046660  0.30076907  1
  Ta  Ta126  1  0.40378064  0.40273264  0.60089778  1
  Ta  Ta127  1  0.71017690  0.70270265  0.09232790  1
  Ta  Ta128  1  0.59817195  0.60591230  0.80254326  1
  Ta  Ta129  1  0.59910454  0.19546781  0.59775433  1
  Ta  Ta130  1  0.60049879  0.39817756  0.40442767  1
  Ta  Ta131  1  0.30401432  0.70051242  0.29873432  1
  Ta  Ta132  1  0.72197028  0.49535988  0.31243618  1
  Ta  Ta133  1  0.89840143  0.50204691  0.89819006  1
  Ta  Ta134  1  0.50510518  0.09571694  0.70144018  1
  Ta  Ta135  1  0.10483318  0.09414284  0.09423303  1
  Ta  Ta136  1  0.39961105  0.80062854  0.39935819  1
  Ta  Ta137  1  0.31184095  0.51371015  0.50751982  1
  Ta  Ta138  1  0.10337598  0.69733826  0.09185458  1
  Ta  Ta139  1  0.09131024  0.50579307  0.91278196  1
  Ta  Ta140  1  0.40798846  -0.00413243  0.79859775  1
  Ta  Ta141  1  0.20016887  0.80178182  0.19524104  1
  Ta  Ta142  1  0.09853123  0.08467611  0.69003311  1
  Ta  Ta143  1  0.30340792  0.08505761  0.90187313  1
  Ta  Ta144  1  0.40529536  0.80237753  0.60483286  1
  Ta  Ta145  1  0.30478441  0.30006558  0.69942458  1
  Ta  Ta146  1  0.89834307  0.70067093  0.09480090  1
  Ta  Ta147  1  0.59644342  0.19747200  0.40162086  1
  Ta  Ta148  1  0.19520231  0.19521475  0.60386551  1
  Ta  Ta149  1  0.10720853  0.50320517  0.28724591  1
  Ti  Ti150  1  0.30283290  0.09044512  0.30800726  1
  Ti  Ti151  1  0.20550619  0.40092199  0.19487586  1
  Ti  Ti152  1  0.49092298  0.49988747  0.29323061  1
  Ti  Ti153  1  0.10064788  0.51249866  0.09546039  1
  Ti  Ti154  1  0.50913053  0.30027067  0.90493359  1
  Ti  Ti155  1  0.80727768  0.59780476  0.20045054  1
  Ti  Ti156  1  0.20404019  0.60679488  0.60673764  1
  Ti  Ti157  1  0.40109018  0.60177755  0.39897902  1
  Ti  Ti158  1  -0.00534716  0.60483209  0.19911007  1
  Ti  Ti159  1  0.78767464  0.60753373  0.79960680  1
  Ti  Ti160  1  0.89526160  0.29545437  0.49351832  1
  Ti  Ti161  1  0.89588388  0.89314626  0.09588682  1
  Ti  Ti162  1  0.29642413  0.90157494  0.69862232  1
  Ti  Ti163  1  0.49334948  0.69345114  0.29179404  1
  Ti  Ti164  1  0.59868557  0.19644568  0.80034856  1
  Ti  Ti165  1  0.69283488  0.09127357  0.70612096  1
  Ti  Ti166  1  0.70047080  0.09391091  0.30471177  1
  Ti  Ti167  1  0.70120416  0.70561292  0.90416022  1
  Ti  Ti168  1  0.30266866  0.70114230  0.09494028  1
  Ti  Ti169  1  0.79638011  0.39982918  0.79940012  1
  Ti  Ti170  1  0.70503676  0.50293849  0.09346108  1
  Ti  Ti171  1  0.20220863  0.20420925  0.18567697  1
  Ti  Ti172  1  0.50909886  0.30304323  0.50582060  1
  Ti  Ti173  1  0.30746758  0.69988255  0.69775017  1
  Ti  Ti174  1  0.49893453  0.89915992  0.50294903  1
  Ti  Ti175  1  0.48935598  0.09247767  0.30099878  1
  Ti  Ti176  1  0.69099555  0.90315780  0.70748559  1
  Ti  Ti177  1  0.50343271  0.09475223  0.89745260  1
  Ti  Ti178  1  0.41412852  0.60698453  0.79881996  1
  Ti  Ti179  1  0.30517629  0.31023431  0.88793581  1
  Ti  Ti180  1  0.20403621  -0.00589085  0.79711333  1
  Ti  Ti181  1  0.80842359  0.79614318  0.19541170  1
  Ti  Ti182  1  0.49826157  0.09095286  0.50432612  1
  Ti  Ti183  1  0.80069572  0.40774392  0.19568693  1
  Ti  Ti184  1  0.50209614  0.50167268  0.51247513  1
  Ti  Ti185  1  0.59755701  0.80119364  0.00635527  1
  Ti  Ti186  1  0.59991727  0.19235328  0.20632531  1
  Ti  Ti187  1  0.00612081  0.19253163  0.59664175  1
  Ti  Ti188  1  0.00349872  -0.01075130  -0.00240738  1
  Ti  Ti189  1  0.11309701  0.88421044  0.89396691  1
  Ti  Ti190  1  0.40624737  0.19553593  0.60160853  1
  Ti  Ti191  1  0.81669845  0.62004405  0.38847114  1
  Ti  Ti192  1  0.49521544  0.89615012  0.10487586  1
  Ti  Ti193  1  0.58619837  -0.00212912  0.39623001  1
  Ti  Ti194  1  0.20334413  0.60614062  0.19569388  1
  Ti  Ti195  1  0.89416128  0.89600338  0.89365951  1
  Ti  Ti196  1  0.59623370  0.79008598  0.78259294  1
  Ti  Ti197  1  0.50307379  0.89598364  0.89324331  1
  Ti  Ti198  1  0.40586832  -0.00915275  -0.00542198  1
  Ti  Ti199  1  0.09537309  0.71193673  0.70403754  1
  Mo  Mo200  1  0.79502674  0.00377816  0.39177890  1
  Mo  Mo201  1  0.29505445  0.30837828  0.10365094  1
  Mo  Mo202  1  0.10226292  0.09822541  0.50936482  1
  Mo  Mo203  1  0.49840576  0.70253089  0.70089102  1
  Mo  Mo204  1  0.79920717  0.60593800  0.60089614  1
  Mo  Mo205  1  0.69720317  0.07775279  0.10342919  1
  Mo  Mo206  1  0.59364130  0.39601606  0.59664823  1
  Mo  Mo207  1  0.79401019  0.60104626  -0.00317683  1
  Mo  Mo208  1  0.50455138  0.89985782  0.69726669  1
  Mo  Mo209  1  0.59772370  0.79888797  0.19519453  1
  Mo  Mo210  1  0.10366108  0.70588418  0.90341757  1
  Mo  Mo211  1  0.40136201  0.81011225  0.00579658  1
  Mo  Mo212  1  0.60848374  0.40665582  0.00141875  1
  Mo  Mo213  1  0.59426068  0.80853720  0.60397602  1
  Mo  Mo214  1  0.19910366  0.79916460  0.00842404  1
  Mo  Mo215  1  0.68774453  0.29311438  0.49939532  1
  Mo  Mo216  1  -0.00332607  0.80528214  0.80246188  1
  Mo  Mo217  1  0.19614485  0.60354124  0.00475772  1
  Mo  Mo218  1  -0.00747306  -0.00732558  0.60640148  1
  Mo  Mo219  1  0.90289019  0.70246165  0.27691669  1
  Mo  Mo220  1  0.20587292  -0.00286508  0.61029290  1
  Mo  Mo221  1  0.40751041  -0.00278435  0.40296261  1
  Mo  Mo222  1  0.80344736  0.79413642  0.39613598  1
  Mo  Mo223  1  0.10402034  0.89644405  0.09522155  1
  Mo  Mo224  1  0.40159024  0.60641988  0.00016650  1
  Mo  Mo225  1  0.90483955  0.08228100  0.89881356  1
  Mo  Mo226  1  0.89337636  0.50710604  0.29533446  1
  Mo  Mo227  1  0.00249136  0.60633812  0.00200322  1
  Mo  Mo228  1  0.20375865  0.00040704  0.39971179  1
  Mo  Mo229  1  0.40250648  0.60315612  0.60358256  1
  Mo  Mo230  1  0.80077335  0.80160947  0.00095824  1
  Mo  Mo231  1  0.50251615  0.50717475  0.89520291  1
  Mo  Mo232  1  0.39539706  0.60324627  0.20459210  1
  Mo  Mo233  1  0.20030395  0.79964365  0.79189465  1
  Mo  Mo234  1  0.19681454  -0.01094049  -0.00004197  1
  Mo  Mo235  1  0.70069913  0.32450100  0.09720963  1
  Mo  Mo236  1  0.80136318  0.20220660  -0.00026025  1
  Mo  Mo237  1  0.00112262  0.40827900  0.80287312  1
  Mo  Mo238  1  0.79937750  0.39167540  0.40307809  1
  Mo  Mo239  1  0.80041566  -0.01075421  0.79720660  1
  Mo  Mo240  1  -0.00085978  0.41127482  -0.00186654  1
  Mo  Mo241  1  0.69907251  0.70392497  0.71147990  1
  Mo  Mo242  1  -0.00520668  0.61158425  0.60072951  1
  Mo  Mo243  1  0.59328141  -0.00127175  0.79499200  1
  Mo  Mo244  1  0.20151978  0.19748118  0.40891324  1
  Mo  Mo245  1  0.49293584  0.90569815  0.30536901  1
  Mo  Mo246  1  0.89743255  0.69895939  0.51249592  1
  Mo  Mo247  1  0.10387940  0.89369263  0.29606377  1
  Mo  Mo248  1  0.40299620  0.39945492  0.79835403  1
  Mo  Mo249  1  0.39542279  -0.00386988  0.20442760  1
