# generated using pymatgen
data_HfZrTaTiMo
_symmetry_space_group_name_H-M   'P 1'
_cell_length_a   16.88753468
_cell_length_b   16.89305496
_cell_length_c   16.87882701
_cell_angle_alpha   90.00412878
_cell_angle_beta   89.98302431
_cell_angle_gamma   89.99057345
_symmetry_Int_Tables_number   1
_chemical_formula_structural   HfZrTaTiMo
_chemical_formula_sum   'Hf50 Zr50 Ta50 Ti50 Mo50'
_cell_volume   4815.22610851
_cell_formula_units_Z   50
loop_
 _symmetry_equiv_pos_site_id
 _symmetry_equiv_pos_as_xyz
  1  'x, y, z'
loop_
 _atom_site_type_symbol
 _atom_site_label
 _atom_site_symmetry_multiplicity
 _atom_site_fract_x
 _atom_site_fract_y
 _atom_site_fract_z
 _atom_site_occupancy
  Hf  Hf0  1  0.30091885  0.70346676  0.90085501  1
  Hf  Hf1  1  0.50398112  0.69633542  0.30075484  1
  Hf  Hf2  1  0.20513183  0.39690833  0.39874792  1
  Hf  Hf3  1  0.41400711  0.59694562  -0.00889872  1
  Hf  Hf4  1  0.69660208  0.28948372  0.30003540  1
  Hf  Hf5  1  -0.00193513  0.40253008  -0.00373188  1
  Hf  Hf6  1  0.29868282  0.10586544  0.10255715  1
  Hf  Hf7  1  0.60094931  0.40098423  0.20344912  1
  Hf  Hf8  1  0.50732091  0.91481133  0.89189264  1
  Hf  Hf9  1  0.30036580  0.89249733  0.08852594  1
  Hf  Hf10  1  0.29701914  0.29785290  0.70376091  1
  Hf  Hf11  1  0.10482364  0.70688102  0.50797357  1
  Hf  Hf12  1  0.49926839  0.09724265  0.70610626  1
  Hf  Hf13  1  0.20225454  0.20591040  -0.00609737  1
  Hf  Hf14  1  0.80901552  0.19416156  0.40192073  1
  Hf  Hf15  1  0.79350355  0.79569026  -0.00725324  1
  Hf  Hf16  1  0.20973678  0.60078391  0.20834621  1
  Hf  Hf17  1  0.70432490  0.70032039  0.30033257  1
  Hf  Hf18  1  0.80157005  0.40385917  0.00312930  1
  Hf  Hf19  1  0.30414098  0.09857772  0.70079483  1
  Hf  Hf20  1  0.19115300  -0.01050243  0.40633136  1
  Hf  Hf21  1  0.50686763  0.30244084  0.70222700  1
  Hf  Hf22  1  0.50917838  0.29584266  0.49866550  1
  Hf  Hf23  1  0.10030210  0.10075484  0.29695781  1
  Hf  Hf24  1  0.79513660  -0.00613369  0.01094622  1
  Hf  Hf25  1  0.00368545  0.20215944  0.40925037  1
  Hf  Hf26  1  0.79822453  0.39981173  0.40475131  1
  Hf  Hf27  1  0.19680598  0.39674442  -0.00674039  1
  Hf  Hf28  1  0.89215986  0.50141909  0.69286574  1
  Hf  Hf29  1  0.69551778  0.09772004  0.50254090  1
  Hf  Hf30  1  0.39789093  0.39841935  0.59785620  1
  Hf  Hf31  1  0.08236178  0.90196987  0.90973580  1
  Hf  Hf32  1  0.60148217  0.60176020  0.79989656  1
  Hf  Hf33  1  0.40619398  0.59908149  0.79639509  1
  Hf  Hf34  1  0.29248026  0.50709189  0.90155443  1
  Hf  Hf35  1  0.00403252  0.40720399  0.79963567  1
  Hf  Hf36  1  0.90067447  0.90147989  0.89015687  1
  Hf  Hf37  1  0.49128333  0.51060826  0.30728725  1
  Hf  Hf38  1  -0.00930574  0.00458671  0.19772238  1
  Hf  Hf39  1  0.40406890  0.81665205  0.78334491  1
  Hf  Hf40  1  0.80763131  0.59464722  0.19181398  1
  Hf  Hf41  1  0.20575793  0.79680464  0.20547026  1
  Hf  Hf42  1  0.08988095  0.49948415  0.29752882  1
  Hf  Hf43  1  0.09922421  0.50881774  0.09707640  1
  Hf  Hf44  1  0.40723703  0.80739795  0.59483807  1
  Hf  Hf45  1  0.40708749  0.40456399  0.80723018  1
  Hf  Hf46  1  0.61108617  0.80541826  0.40790405  1
  Hf  Hf47  1  0.28896102  0.70503413  0.69430820  1
  Hf  Hf48  1  0.50445830  0.90027757  0.09528640  1
  Hf  Hf49  1  0.60711172  0.80517065  -0.00250438  1
  Zr  Zr50  1  -0.00315984  0.19874864  0.79512085  1
  Zr  Zr51  1  0.50208370  0.89277597  0.30556662  1
  Zr  Zr52  1  0.10004003  0.09917788  0.09884159  1
  Zr  Zr53  1  0.69358084  0.28766561  0.10307284  1
  Zr  Zr54  1  0.50541892  0.29517893  0.30082085  1
  Zr  Zr55  1  0.19493638  0.20940461  0.41034257  1
  Zr  Zr56  1  0.19461738  -0.00047982  0.79770004  1
  Zr  Zr57  1  0.09270869  0.70175303  0.10136189  1
  Zr  Zr58  1  0.58550796  0.40294404  -0.01213242  1
  Zr  Zr59  1  0.89721457  0.69954479  0.50728609  1
  Zr  Zr60  1  0.88867931  0.50918693  0.90040722  1
  Zr  Zr61  1  0.90556509  0.70303397  0.29543139  1
  Zr  Zr62  1  0.51362970  0.70303877  0.69115014  1
  Zr  Zr63  1  -0.00375439  -0.00197251  0.40775641  1
  Zr  Zr64  1  0.50427301  0.09901778  0.50867847  1
  Zr  Zr65  1  0.40108930  -0.01354364  0.41146447  1
  Zr  Zr66  1  0.30569500  0.50079881  0.09953426  1
  Zr  Zr67  1  0.80434841  0.20918769  0.60670683  1
  Zr  Zr68  1  0.20535675  0.39599753  0.20469342  1
  Zr  Zr69  1  0.39980626  0.59863100  0.60367511  1
  Zr  Zr70  1  0.69790586  0.29879053  0.89987447  1
  Zr  Zr71  1  0.30983498  0.10397423  0.89628933  1
  Zr  Zr72  1  0.39999115  0.00006783  0.20608302  1
  Zr  Zr73  1  0.89365697  0.29238840  0.09850689  1
  Zr  Zr74  1  0.69765167  0.09071330  0.69883981  1
  Zr  Zr75  1  0.69470354  0.09532598  0.90305857  1
  Zr  Zr76  1  0.79229395  0.80832305  0.18704045  1
  Zr  Zr77  1  0.79032181  0.61601157  0.79341345  1
  Zr  Zr78  1  0.29464551  0.09428618  0.51357060  1
  Zr  Zr79  1  0.30445949  0.50855632  0.49420559  1
  Zr  Zr80  1  0.29765017  0.09900303  0.30610037  1
  Zr  Zr81  1  0.92070643  0.88895748  0.08672957  1
  Zr  Zr82  1  0.30833780  0.90232450  0.90019717  1
  Zr  Zr83  1  0.40669784  0.01289944  0.00481388  1
  Zr  Zr84  1  0.90147696  0.30187412  0.29975803  1
  Zr  Zr85  1  0.50785844  0.69529698  0.49602015  1
  Zr  Zr86  1  0.49377397  0.50035212  0.10809741  1
  Zr  Zr87  1  0.89939281  0.09003062  0.51178083  1
  Zr  Zr88  1  0.69889841  0.50521755  0.09413231  1
  Zr  Zr89  1  0.00361007  0.60008781  0.79734040  1
  Zr  Zr90  1  0.19135797  0.20219928  0.80066927  1
  Zr  Zr91  1  0.09110750  0.88852994  0.29175947  1
  Zr  Zr92  1  0.19354911  0.80244623  0.80177722  1
  Zr  Zr93  1  0.89536217  0.49867467  0.50786858  1
  Zr  Zr94  1  0.39542795  0.80077049  0.20292012  1
  Zr  Zr95  1  0.00569842  0.20436377  0.59691847  1
  Zr  Zr96  1  0.09088325  0.89646889  0.68838686  1
  Zr  Zr97  1  0.89500609  0.89460992  0.29805104  1
  Zr  Zr98  1  0.31688146  0.69113404  0.31662785  1
  Zr  Zr99  1  0.00109944  0.59842175  0.40493221  1
  Ta  Ta100  1  0.19398724  0.59419727  0.60190938  1
  Ta  Ta101  1  0.39366975  0.20642820  0.40412288  1
  Ta  Ta102  1  0.70064933  0.90601937  0.88996529  1
  Ta  Ta103  1  0.70170125  0.90044449  0.70074247  1
  Ta  Ta104  1  0.69569265  0.69586244  0.09637316  1
  Ta  Ta105  1  0.09950748  0.89634970  0.09548565  1
  Ta  Ta106  1  0.60599209  -0.00232341  0.20213188  1
  Ta  Ta107  1  0.69230756  0.10082455  0.10255179  1
  Ta  Ta108  1  0.69914156  0.50218166  0.89444512  1
  Ta  Ta109  1  0.20460568  -0.01146038  0.20032477  1
  Ta  Ta110  1  0.09415917  0.29774219  0.10266166  1
  Ta  Ta111  1  0.89761287  0.70509508  0.89876414  1
  Ta  Ta112  1  0.20198004  0.21057366  0.20388302  1
  Ta  Ta113  1  0.19386819  0.40479000  0.80067658  1
  Ta  Ta114  1  0.90053669  0.09441642  0.89970816  1
  Ta  Ta115  1  0.69612649  0.10035626  0.29853785  1
  Ta  Ta116  1  0.80228002  0.20085380  0.79635247  1
  Ta  Ta117  1  0.50811541  0.10486515  0.30676622  1
  Ta  Ta118  1  -0.00095618  0.80583136  0.41302764  1
  Ta  Ta119  1  0.61239942  0.39770382  0.59763104  1
  Ta  Ta120  1  0.49188647  0.29469300  0.10060609  1
  Ta  Ta121  1  0.09656238  0.70239471  0.69369943  1
  Ta  Ta122  1  0.40160810  -0.01737871  0.61154654  1
  Ta  Ta123  1  -0.00226152  0.20010294  -0.00313934  1
  Ta  Ta124  1  0.19879378  0.40206056  0.59959987  1
  Ta  Ta125  1  0.60611093  -0.00431847  0.39920277  1
  Ta  Ta126  1  0.50903578  0.49932417  0.50262866  1
  Ta  Ta127  1  0.39756016  0.20262585  0.20483448  1
  Ta  Ta128  1  -0.00317056  0.19934572  0.20058447  1
  Ta  Ta129  1  0.60124600  0.60621566  -0.01105121  1
  Ta  Ta130  1  0.50229744  0.70154533  0.10016037  1
  Ta  Ta131  1  0.60514034  0.40446254  0.40401547  1
  Ta  Ta132  1  0.30617957  0.69591969  0.08830453  1
  Ta  Ta133  1  0.89985852  0.89744477  0.69873908  1
  Ta  Ta134  1  0.60240919  0.20543175  0.80084193  1
  Ta  Ta135  1  0.50061660  0.71355388  0.89777926  1
  Ta  Ta136  1  0.79346868  -0.00545926  0.39583639  1
  Ta  Ta137  1  0.80167652  0.40620644  0.20145923  1
  Ta  Ta138  1  0.19534723  0.00034660  0.00026518  1
  Ta  Ta139  1  0.70070555  0.50356459  0.30303297  1
  Ta  Ta140  1  0.51493705  0.49525094  0.69503143  1
  Ta  Ta141  1  0.10176460  0.30838932  0.69701685  1
  Ta  Ta142  1  0.79724359  0.80383799  0.59797048  1
  Ta  Ta143  1  0.50443462  0.10243006  0.89521269  1
  Ta  Ta144  1  0.79429479  0.39429114  0.79298325  1
  Ta  Ta145  1  0.28797894  0.88875349  0.50774307  1
  Ta  Ta146  1  0.39736276  0.39550958  0.40127855  1
  Ta  Ta147  1  0.60956136  0.80193647  0.79857843  1
  Ta  Ta148  1  -0.00931381  0.40475666  0.19132658  1
  Ta  Ta149  1  0.19850965  0.59809932  0.40031293  1
  Ti  Ti150  1  0.09934408  0.69275356  0.90519430  1
  Ti  Ti151  1  -0.00142189  0.39336931  0.41038599  1
  Ti  Ti152  1  0.40055455  0.38833455  -0.01375193  1
  Ti  Ti153  1  0.89855692  0.10141506  0.09487363  1
  Ti  Ti154  1  0.29344900  0.50075160  0.70288230  1
  Ti  Ti155  1  0.40570036  0.21322757  0.81551670  1
  Ti  Ti156  1  0.79668817  0.59889828  0.40220523  1
  Ti  Ti157  1  0.69897346  0.50384220  0.50403968  1
  Ti  Ti158  1  0.90680298  0.08538305  0.70337797  1
  Ti  Ti159  1  0.69634608  0.71172592  0.68841443  1
  Ti  Ti160  1  0.69750713  0.29309337  0.49654051  1
  Ti  Ti161  1  0.09158875  0.69786498  0.29998224  1
  Ti  Ti162  1  0.80548004  0.18566132  0.20426051  1
  Ti  Ti163  1  -0.00490243  0.59798149  -0.00437097  1
  Ti  Ti164  1  0.90428501  0.69423288  0.09250944  1
  Ti  Ti165  1  0.08721337  0.09314225  0.90019720  1
  Ti  Ti166  1  0.18747026  0.59451114  0.79656785  1
  Ti  Ti167  1  0.60876824  0.20562756  0.60907106  1
  Ti  Ti168  1  0.19367775  0.79759771  -0.00248342  1
  Ti  Ti169  1  0.00705317  0.59713648  0.60646173  1
  Ti  Ti170  1  0.39552671  0.20590380  0.59450228  1
  Ti  Ti171  1  0.09191672  0.30335100  0.29488755  1
  Ti  Ti172  1  0.60235762  0.60130560  0.19763135  1
  Ti  Ti173  1  0.79422977  0.00110643  0.20203774  1
  Ti  Ti174  1  0.09642368  0.09066716  0.68766663  1
  Ti  Ti175  1  0.80186617  0.19351235  -0.00499823  1
  Ti  Ti176  1  0.30812781  0.29777283  0.09706948  1
  Ti  Ti177  1  0.89630604  0.29570641  0.89596742  1
  Ti  Ti178  1  0.09418868  0.29992890  0.89752150  1
  Ti  Ti179  1  0.58589820  0.19996102  -0.00263528  1
  Ti  Ti180  1  0.69714431  0.90369679  0.51050408  1
  Ti  Ti181  1  0.19887720  0.79825855  0.39888498  1
  Ti  Ti182  1  0.79789647  0.80835839  0.40994195  1
  Ti  Ti183  1  0.80140361  0.00113835  0.79692479  1
  Ti  Ti184  1  0.29948006  0.70210431  0.49914458  1
  Ti  Ti185  1  0.61155568  0.59794089  0.40627296  1
  Ti  Ti186  1  0.90023534  0.70979086  0.69620693  1
  Ti  Ti187  1  0.10084162  0.49849133  0.50197843  1
  Ti  Ti188  1  0.90089629  0.50048936  0.30008389  1
  Ti  Ti189  1  0.39099017  0.39478460  0.21431599  1
  Ti  Ti190  1  0.00507698  0.39994260  0.59803539  1
  Ti  Ti191  1  0.60975373  0.80651185  0.19814967  1
  Ti  Ti192  1  0.90184240  0.30924614  0.69934990  1
  Ti  Ti193  1  0.80348853  -0.01079960  0.59931152  1
  Ti  Ti194  1  0.19076290  0.20659098  0.59376008  1
  Ti  Ti195  1  -0.00174601  0.79224084  0.79891047  1
  Ti  Ti196  1  0.79313464  0.39037837  0.59866636  1
  Ti  Ti197  1  0.69933008  0.49489919  0.69827858  1
  Ti  Ti198  1  0.50671600  0.10786707  0.10566017  1
  Ti  Ti199  1  0.78548648  0.60839807  0.59886320  1
  Mo  Mo200  1  -0.00678622  0.59644897  0.19794934  1
  Mo  Mo201  1  0.40581466  0.59690778  0.40869316  1
  Mo  Mo202  1  0.29020718  0.90418057  0.69199150  1
  Mo  Mo203  1  0.10193361  0.08304931  0.51726645  1
  Mo  Mo204  1  0.61433260  0.59039260  0.59951241  1
  Mo  Mo205  1  0.90286320  0.30775565  0.50473890  1
  Mo  Mo206  1  0.40379838  0.60497953  0.19223675  1
  Mo  Mo207  1  0.50919199  0.90119733  0.50515444  1
  Mo  Mo208  1  0.40560142  0.20658910  0.00536510  1
  Mo  Mo209  1  0.70089434  0.30119651  0.70178133  1
  Mo  Mo210  1  0.20036073  0.60506747  -0.00355908  1
  Mo  Mo211  1  0.69826793  0.70385154  0.89838174  1
  Mo  Mo212  1  0.51911808  0.90484365  0.69710972  1
  Mo  Mo213  1  -0.00910268  0.79777078  0.60228174  1
  Mo  Mo214  1  0.09661756  0.89117913  0.50269883  1
  Mo  Mo215  1  0.59355166  0.19166385  0.19829249  1
  Mo  Mo216  1  0.19863850  -0.00677878  0.60071896  1
  Mo  Mo217  1  0.29326717  0.89076579  0.31431386  1
  Mo  Mo218  1  0.79542573  0.60787544  -0.00291186  1
  Mo  Mo219  1  0.70630973  0.69758807  0.50043468  1
  Mo  Mo220  1  0.89291392  0.09696845  0.29413840  1
  Mo  Mo221  1  0.90328694  0.50516322  0.09909673  1
  Mo  Mo222  1  0.60606198  0.40308512  0.79403574  1
  Mo  Mo223  1  0.50437815  0.50163684  0.89312706  1
  Mo  Mo224  1  0.10345745  0.50732579  0.89972329  1
  Mo  Mo225  1  0.30150072  0.30587208  0.89950994  1
  Mo  Mo226  1  -0.00608279  0.00391866  0.79601692  1
  Mo  Mo227  1  0.00126315  0.79289366  0.19510721  1
  Mo  Mo228  1  -0.00223731  0.01413143  -0.00053112  1
  Mo  Mo229  1  0.50068523  0.29607437  0.90030328  1
  Mo  Mo230  1  0.00012723  -0.00601201  0.60047729  1
  Mo  Mo231  1  0.69454398  0.90661876  0.10035212  1
  Mo  Mo232  1  0.40936349  0.79372732  -0.00227800  1
  Mo  Mo233  1  0.39607996  0.79922391  0.41246722  1
  Mo  Mo234  1  0.89154549  0.89699063  0.50449188  1
  Mo  Mo235  1  0.30056019  0.30001501  0.50615849  1
  Mo  Mo236  1  0.59741927  -0.00724838  0.59861906  1
  Mo  Mo237  1  0.30702435  0.49822871  0.30435402  1
  Mo  Mo238  1  0.19991817  0.79609168  0.59832446  1
  Mo  Mo239  1  0.09908730  0.31739944  0.50522708  1
  Mo  Mo240  1  0.60977597  0.80643900  0.59917225  1
  Mo  Mo241  1  0.40621535  0.00343832  0.79301898  1
  Mo  Mo242  1  0.60376805  0.19442500  0.40118662  1
  Mo  Mo243  1  0.70131138  0.90548494  0.30047073  1
  Mo  Mo244  1  0.10172505  0.50099930  0.69442637  1
  Mo  Mo245  1  0.60187692  0.00717290  0.00460433  1
  Mo  Mo246  1  0.79834869  0.80371608  0.79161205  1
  Mo  Mo247  1  0.60340587  0.00136154  0.79741156  1
  Mo  Mo248  1  -0.00043305  0.78207737  -0.00950833  1
  Mo  Mo249  1  0.30624856  0.29804830  0.30242734  1
