# generated using pymatgen
data_HfZrTaTiMo
_symmetry_space_group_name_H-M   'P 1'
_cell_length_a   16.88785028
_cell_length_b   16.88770348
_cell_length_c   16.89927446
_cell_angle_alpha   89.97331681
_cell_angle_beta   89.99870225
_cell_angle_gamma   89.98846155
_symmetry_Int_Tables_number   1
_chemical_formula_structural   HfZrTaTiMo
_chemical_formula_sum   'Hf50 Zr50 Ta50 Ti50 Mo50'
_cell_volume   4819.62189142
_cell_formula_units_Z   50
loop_
 _symmetry_equiv_pos_site_id
 _symmetry_equiv_pos_as_xyz
  1  'x, y, z'
loop_
 _atom_site_type_symbol
 _atom_site_label
 _atom_site_symmetry_multiplicity
 _atom_site_fract_x
 _atom_site_fract_y
 _atom_site_fract_z
 _atom_site_occupancy
  Hf  Hf0  1  0.00439585  0.39504295  0.58235470  1
  Hf  Hf1  1  0.30142526  0.09741788  0.50519745  1
  Hf  Hf2  1  0.39844145  0.19815331  0.80154130  1
  Hf  Hf3  1  0.10542610  0.10317790  0.28880554  1
  Hf  Hf4  1  0.71000911  0.10576589  0.10195606  1
  Hf  Hf5  1  0.50606060  0.29528332  0.49394672  1
  Hf  Hf6  1  0.10246609  0.10155387  0.69962287  1
  Hf  Hf7  1  0.89557057  0.90083511  0.91650794  1
  Hf  Hf8  1  0.70447423  0.09926700  0.90124922  1
  Hf  Hf9  1  0.71492018  0.89199335  0.09167993  1
  Hf  Hf10  1  0.39460649  0.19807861  0.38803510  1
  Hf  Hf11  1  0.70626100  0.89967426  0.89394564  1
  Hf  Hf12  1  0.30844194  0.70406282  0.71672818  1
  Hf  Hf13  1  0.80415088  0.00423017  0.40054794  1
  Hf  Hf14  1  0.39558013  0.80571673  0.59848092  1
  Hf  Hf15  1  0.20397595  0.00469064  0.81049440  1
  Hf  Hf16  1  0.48693645  0.10794738  0.10179664  1
  Hf  Hf17  1  0.69596348  0.29410688  0.49065025  1
  Hf  Hf18  1  0.00212800  0.40397433  0.19592910  1
  Hf  Hf19  1  0.10207009  0.70519731  0.30709047  1
  Hf  Hf20  1  0.09756598  0.89882634  0.49298454  1
  Hf  Hf21  1  0.19874712  0.19910970  0.40196227  1
  Hf  Hf22  1  -0.00158334  0.60422913  -0.00631119  1
  Hf  Hf23  1  0.91098701  0.30236882  0.90366287  1
  Hf  Hf24  1  0.20461389  0.59592864  0.59870332  1
  Hf  Hf25  1  0.30101141  0.30271947  0.09646768  1
  Hf  Hf26  1  0.59161744  0.60793049  0.00423757  1
  Hf  Hf27  1  0.50701918  0.09906548  0.49399340  1
  Hf  Hf28  1  0.10155850  0.29590498  0.90996103  1
  Hf  Hf29  1  0.20102472  0.60478927  0.19372086  1
  Hf  Hf30  1  0.80146378  0.79370493  0.60452089  1
  Hf  Hf31  1  0.80282911  0.00461199  0.59776700  1
  Hf  Hf32  1  0.49160039  0.49303728  0.10066867  1
  Hf  Hf33  1  -0.00279430  0.40141826  0.40323766  1
  Hf  Hf34  1  0.39110120  0.80634846  0.40463143  1
  Hf  Hf35  1  0.59041208  0.59881233  0.79251398  1
  Hf  Hf36  1  0.10000782  0.68965019  0.70587884  1
  Hf  Hf37  1  0.00517404  -0.00114327  0.81029617  1
  Hf  Hf38  1  0.38884849  0.80284497  0.19927279  1
  Hf  Hf39  1  -0.00520862  0.00921914  0.59573052  1
  Hf  Hf40  1  0.79681721  0.40333768  0.59271171  1
  Hf  Hf41  1  0.40587012  0.19422652  0.60974876  1
  Hf  Hf42  1  0.90034809  0.29751550  0.09868272  1
  Hf  Hf43  1  0.20692912  0.80061588  0.40891613  1
  Hf  Hf44  1  0.49162968  0.30636683  0.10390421  1
  Hf  Hf45  1  0.80651790  0.19153594  0.59963555  1
  Hf  Hf46  1  0.30546664  0.50394340  0.30257086  1
  Hf  Hf47  1  0.20877621  0.79590159  0.59749876  1
  Hf  Hf48  1  0.00584360  0.60744828  0.18671535  1
  Hf  Hf49  1  -0.00021765  0.79110902  0.81075775  1
  Zr  Zr50  1  0.10501569  0.50770764  0.30492930  1
  Zr  Zr51  1  0.58957050  0.80560611  -0.00379978  1
  Zr  Zr52  1  0.49809302  0.90229187  0.29756368  1
  Zr  Zr53  1  0.60603017  -0.00369740  0.19990028  1
  Zr  Zr54  1  0.90476187  0.30127613  0.70174094  1
  Zr  Zr55  1  0.01033002  0.79616378  0.01142638  1
  Zr  Zr56  1  0.90023137  0.70208693  0.30402373  1
  Zr  Zr57  1  0.90301071  0.89470418  0.70180699  1
  Zr  Zr58  1  0.69227130  0.49616160  0.90711579  1
  Zr  Zr59  1  -0.00776828  0.18129080  0.80827830  1
  Zr  Zr60  1  0.89076179  0.50885959  0.30234051  1
  Zr  Zr61  1  0.59495183  0.39576280  0.79525252  1
  Zr  Zr62  1  0.20528528  0.59130387  0.80181474  1
  Zr  Zr63  1  0.20044863  0.40132507  0.80042944  1
  Zr  Zr64  1  0.88323460  0.29712407  0.29777459  1
  Zr  Zr65  1  0.09401954  0.30422128  0.70856515  1
  Zr  Zr66  1  0.49361209  0.50223255  0.49443538  1
  Zr  Zr67  1  0.80114171  -0.00306268  0.20643220  1
  Zr  Zr68  1  0.87971573  0.71147462  0.10148658  1
  Zr  Zr69  1  0.10247172  0.30020939  0.29295466  1
  Zr  Zr70  1  0.49999792  0.10189901  0.29665877  1
  Zr  Zr71  1  0.81502662  0.60135584  0.81197993  1
  Zr  Zr72  1  0.40237507  0.39650119  0.79586857  1
  Zr  Zr73  1  0.91807106  0.50267894  0.70041713  1
  Zr  Zr74  1  0.69962126  0.70896451  0.89830025  1
  Zr  Zr75  1  0.00790586  0.79579872  0.59917979  1
  Zr  Zr76  1  0.70063269  0.30536443  0.10057982  1
  Zr  Zr77  1  0.70273969  0.89401430  0.50267439  1
  Zr  Zr78  1  0.81472485  0.01752144  0.79324242  1
  Zr  Zr79  1  0.70555895  0.50905230  0.69288405  1
  Zr  Zr80  1  0.28976590  0.11569981  0.10106105  1
  Zr  Zr81  1  0.50077476  0.69293106  0.50166239  1
  Zr  Zr82  1  0.39365205  0.80640300  -0.00165395  1
  Zr  Zr83  1  0.30704698  0.49869618  0.91700666  1
  Zr  Zr84  1  0.80209327  0.39917257  0.80349174  1
  Zr  Zr85  1  0.00231133  0.00620808  0.39694720  1
  Zr  Zr86  1  0.50172290  0.90814190  0.50333700  1
  Zr  Zr87  1  0.59165306  -0.00195139  -0.00133246  1
  Zr  Zr88  1  0.60302218  0.00368470  0.61009535  1
  Zr  Zr89  1  0.30500375  0.30149436  0.50234319  1
  Zr  Zr90  1  0.89086291  0.49787963  0.09590473  1
  Zr  Zr91  1  0.49305895  0.69160117  0.30245729  1
  Zr  Zr92  1  0.60559392  0.79926138  0.39867375  1
  Zr  Zr93  1  0.58914495  0.00075736  0.79891575  1
  Zr  Zr94  1  -0.00073999  0.19939839  0.40768592  1
  Zr  Zr95  1  0.68989848  0.49386104  0.09951237  1
  Zr  Zr96  1  0.20331567  -0.00694826  0.60066078  1
  Zr  Zr97  1  0.70768244  0.69769659  0.29869069  1
  Zr  Zr98  1  0.48281684  0.70282512  0.88926356  1
  Zr  Zr99  1  0.59843349  0.20441659  -0.00534271  1
  Ta  Ta100  1  0.48822050  0.90504414  0.10302042  1
  Ta  Ta101  1  0.19523182  -0.00165825  0.19491270  1
  Ta  Ta102  1  0.38581199  -0.00173696  0.39406174  1
  Ta  Ta103  1  0.60017565  0.20746819  0.20243245  1
  Ta  Ta104  1  0.60156909  0.40260570  0.39213391  1
  Ta  Ta105  1  0.90951438  0.68589328  0.69484078  1
  Ta  Ta106  1  0.00128865  0.19543828  0.19016224  1
  Ta  Ta107  1  0.29726902  0.29307962  0.91126947  1
  Ta  Ta108  1  0.10770080  0.29386526  0.09534441  1
  Ta  Ta109  1  0.49851741  0.49480013  0.29220524  1
  Ta  Ta110  1  0.90027487  0.69621463  0.49807048  1
  Ta  Ta111  1  0.90370011  0.09652301  0.09528748  1
  Ta  Ta112  1  0.89717412  0.10762322  0.29047280  1
  Ta  Ta113  1  0.40164251  0.40010630  0.60108747  1
  Ta  Ta114  1  0.11521398  0.70318901  0.90290175  1
  Ta  Ta115  1  0.11191894  0.49565764  0.09007350  1
  Ta  Ta116  1  0.20337382  0.39855739  0.40266677  1
  Ta  Ta117  1  0.19955766  0.40103308  0.59640891  1
  Ta  Ta118  1  0.70770989  0.68481686  0.50496802  1
  Ta  Ta119  1  0.59894894  0.59955755  0.20095542  1
  Ta  Ta120  1  0.70525714  0.11722416  0.30051684  1
  Ta  Ta121  1  0.20332962  0.00147505  0.39566296  1
  Ta  Ta122  1  0.00694192  0.80544668  0.19678885  1
  Ta  Ta123  1  0.49384173  0.70169133  0.10580826  1
  Ta  Ta124  1  0.38280067  0.00213178  0.20016472  1
  Ta  Ta125  1  0.30442070  0.49516704  0.09996079  1
  Ta  Ta126  1  0.59891634  0.40372180  0.59798692  1
  Ta  Ta127  1  0.61038018  0.58760007  0.39623164  1
  Ta  Ta128  1  0.60197085  0.80032387  0.19600634  1
  Ta  Ta129  1  0.20261349  0.40122017  0.19783437  1
  Ta  Ta130  1  0.10578298  0.50455218  0.49626102  1
  Ta  Ta131  1  0.29482131  0.29658926  0.69878442  1
  Ta  Ta132  1  0.20338770  0.19331971  0.80765732  1
  Ta  Ta133  1  0.00233707  0.19773251  0.58672608  1
  Ta  Ta134  1  0.60225919  0.79265693  0.61143098  1
  Ta  Ta135  1  0.59121296  0.19986161  0.79770476  1
  Ta  Ta136  1  0.49508091  0.49690117  0.91282822  1
  Ta  Ta137  1  0.10830453  0.89580557  0.90965896  1
  Ta  Ta138  1  0.00628687  -0.00250857  0.19347805  1
  Ta  Ta139  1  0.48786529  0.10271936  0.90259773  1
  Ta  Ta140  1  0.90418831  0.88919175  0.49074673  1
  Ta  Ta141  1  0.29687734  0.69513379  0.30360729  1
  Ta  Ta142  1  0.61607648  0.00146003  0.39033338  1
  Ta  Ta143  1  0.19468261  0.00408354  0.00222057  1
  Ta  Ta144  1  0.38743168  0.00150288  -0.00393313  1
  Ta  Ta145  1  0.90201942  0.90408380  0.10053653  1
  Ta  Ta146  1  0.80826458  0.19874130  -0.00649704  1
  Ta  Ta147  1  0.19218553  0.20420768  0.59888496  1
  Ta  Ta148  1  0.90489134  0.89201735  0.29852318  1
  Ta  Ta149  1  0.40054785  0.39675290  0.39305067  1
  Ti  Ti150  1  0.69748787  0.10868581  0.70698915  1
  Ti  Ti151  1  0.59964572  0.59846030  0.60092973  1
  Ti  Ti152  1  0.80021183  0.39861544  -0.00717426  1
  Ti  Ti153  1  0.69547743  0.11090809  0.48926615  1
  Ti  Ti154  1  0.49494751  0.70675804  0.70346899  1
  Ti  Ti155  1  0.10064841  0.49995464  0.90339808  1
  Ti  Ti156  1  0.69929156  0.88997886  0.71062739  1
  Ti  Ti157  1  0.30400388  0.49218670  0.69359152  1
  Ti  Ti158  1  0.29325727  0.89350584  0.89744671  1
  Ti  Ti159  1  0.89201735  0.51574568  0.50356968  1
  Ti  Ti160  1  0.30992100  0.67740394  0.48958066  1
  Ti  Ti161  1  0.69895724  0.29792661  0.89772850  1
  Ti  Ti162  1  0.39733143  0.60167599  0.19562747  1
  Ti  Ti163  1  0.78861486  0.40450016  0.20731993  1
  Ti  Ti164  1  0.40186675  -0.00169516  0.60972911  1
  Ti  Ti165  1  0.30103308  0.69781305  0.09319065  1
  Ti  Ti166  1  -0.00172290  0.59958540  0.40558740  1
  Ti  Ti167  1  0.30100607  0.29704189  0.28469792  1
  Ti  Ti168  1  0.80008739  0.79999088  0.40010604  1
  Ti  Ti169  1  0.09221381  0.50092447  0.69811321  1
  Ti  Ti170  1  0.00372149  0.40707384  0.00107852  1
  Ti  Ti171  1  0.09966225  0.89641437  0.29895540  1
  Ti  Ti172  1  0.80201884  0.60329805  -0.00636338  1
  Ti  Ti173  1  0.30199333  0.89667915  0.71183734  1
  Ti  Ti174  1  0.78520940  0.41814012  0.40202529  1
  Ti  Ti175  1  0.30263199  0.50045263  0.49382654  1
  Ti  Ti176  1  0.59937564  0.19612010  0.60924323  1
  Ti  Ti177  1  0.78903484  0.59533535  0.19823431  1
  Ti  Ti178  1  0.69923170  0.70506637  0.10081206  1
  Ti  Ti179  1  0.70283692  0.69841760  0.70182325  1
  Ti  Ti180  1  0.49135443  0.30416324  0.91116769  1
  Ti  Ti181  1  0.49951181  0.30391733  0.29255707  1
  Ti  Ti182  1  0.80988453  0.79035250  0.80094559  1
  Ti  Ti183  1  0.19259979  0.80005480  0.18755681  1
  Ti  Ti184  1  0.39790380  0.00050394  0.80571797  1
  Ti  Ti185  1  0.88618751  0.29612139  0.48980052  1
  Ti  Ti186  1  0.20158583  0.60547735  0.00420567  1
  Ti  Ti187  1  0.69817951  0.29600612  0.69908177  1
  Ti  Ti188  1  0.40303375  0.59423576  0.60933329  1
  Ti  Ti189  1  0.29782923  0.70405163  0.89966246  1
  Ti  Ti190  1  0.69798689  0.29743583  0.30177362  1
  Ti  Ti191  1  0.10879178  0.89210173  0.71144905  1
  Ti  Ti192  1  0.28905788  0.90244940  0.09573170  1
  Ti  Ti193  1  0.29922102  0.10002261  0.70191110  1
  Ti  Ti194  1  0.50223016  0.30061693  0.69452349  1
  Ti  Ti195  1  0.40461765  0.58465085  0.79406048  1
  Ti  Ti196  1  0.28673997  0.90068902  0.29480519  1
  Ti  Ti197  1  0.49645274  0.89261377  0.71048022  1
  Ti  Ti198  1  0.80399999  0.19925808  0.80161994  1
  Ti  Ti199  1  0.09708360  0.69164781  0.49555234  1
  Mo  Mo200  1  0.00600443  0.59693332  0.58626054  1
  Mo  Mo201  1  0.10188246  0.09732405  0.91133527  1
  Mo  Mo202  1  0.00800526  0.00036433  0.00614380  1
  Mo  Mo203  1  0.19576598  0.19600151  -0.00328649  1
  Mo  Mo204  1  0.19847784  0.39967220  0.00330317  1
  Mo  Mo205  1  0.11273156  0.69993454  0.09782461  1
  Mo  Mo206  1  0.69429749  0.49918215  0.49880363  1
  Mo  Mo207  1  0.29817658  0.09927923  0.90185028  1
  Mo  Mo208  1  0.79816685  0.19649715  0.39979272  1
  Mo  Mo209  1  0.80145944  0.20160944  0.19705874  1
  Mo  Mo210  1  0.59662462  0.39792306  0.21107875  1
  Mo  Mo211  1  0.20498369  0.60049336  0.40481901  1
  Mo  Mo212  1  0.90806825  0.49645287  0.90614894  1
  Mo  Mo213  1  0.39535446  0.60562947  0.00856937  1
  Mo  Mo214  1  0.59548123  0.80107914  0.78800029  1
  Mo  Mo215  1  0.80542176  0.60355345  0.60053361  1
  Mo  Mo216  1  0.39859088  0.20210669  0.20505871  1
  Mo  Mo217  1  0.00956346  0.60082734  0.81129921  1
  Mo  Mo218  1  0.49724188  0.50090313  0.69053813  1
  Mo  Mo219  1  0.20070331  0.80507837  0.80386239  1
  Mo  Mo220  1  0.00160590  0.79741381  0.39745544  1
  Mo  Mo221  1  0.39736228  0.39635765  -0.00026634  1
  Mo  Mo222  1  0.40174133  0.59413564  0.39471581  1
  Mo  Mo223  1  0.00257487  0.19148567  0.00656397  1
  Mo  Mo224  1  0.29499964  0.09559810  0.29473809  1
  Mo  Mo225  1  0.59448862  0.39715440  -0.00941182  1
  Mo  Mo226  1  0.00436018  0.41567729  0.81712061  1
  Mo  Mo227  1  0.10663892  0.30717888  0.49926623  1
  Mo  Mo228  1  0.79937411  0.80535106  0.20376002  1
  Mo  Mo229  1  0.49681532  0.10033156  0.70657920  1
  Mo  Mo230  1  0.80019153  0.79921016  -0.00278046  1
  Mo  Mo231  1  0.09659125  0.09927991  0.09816531  1
  Mo  Mo232  1  0.39571008  0.19950172  -0.00719167  1
  Mo  Mo233  1  0.39543112  0.39808998  0.20649069  1
  Mo  Mo234  1  0.48516959  0.90854495  0.89791160  1
  Mo  Mo235  1  0.80722696  0.00484847  0.00248405  1
  Mo  Mo236  1  0.19707698  0.20408406  0.19735880  1
  Mo  Mo237  1  0.90273622  0.09735409  0.91844123  1
  Mo  Mo238  1  0.90362120  0.10470670  0.68875123  1
  Mo  Mo239  1  0.20567557  0.80209346  0.00109129  1
  Mo  Mo240  1  0.79792849  0.59808192  0.40820725  1
  Mo  Mo241  1  0.39749374  0.81413811  0.79986146  1
  Mo  Mo242  1  0.60023626  0.20412438  0.38869318  1
  Mo  Mo243  1  0.90352310  0.70057582  0.90053516  1
  Mo  Mo244  1  0.69505867  0.49813105  0.29745944  1
  Mo  Mo245  1  0.70830054  0.89229651  0.29835162  1
  Mo  Mo246  1  0.89701508  0.10186607  0.49215920  1
  Mo  Mo247  1  0.30014249  0.91049671  0.50178839  1
  Mo  Mo248  1  0.10338371  0.90192556  0.10256253  1
  Mo  Mo249  1  0.10623046  0.10193333  0.50086357  1
