# generated using pymatgen
data_HfZrTaTiMo
_symmetry_space_group_name_H-M   'P 1'
_cell_length_a   16.88722516
_cell_length_b   16.88960376
_cell_length_c   16.88557458
_cell_angle_alpha   89.99685270
_cell_angle_beta   90.02635499
_cell_angle_gamma   90.06995894
_symmetry_Int_Tables_number   1
_chemical_formula_structural   HfZrTaTiMo
_chemical_formula_sum   'Hf50 Zr50 Ta50 Ti50 Mo50'
_cell_volume   4816.07485153
_cell_formula_units_Z   50
loop_
 _symmetry_equiv_pos_site_id
 _symmetry_equiv_pos_as_xyz
  1  'x, y, z'
loop_
 _atom_site_type_symbol
 _atom_site_label
 _atom_site_symmetry_multiplicity
 _atom_site_fract_x
 _atom_site_fract_y
 _atom_site_fract_z
 _atom_site_occupancy
  Hf  Hf0  1  0.20504497  0.59213547  0.80604869  1
  Hf  Hf1  1  0.90103353  0.10465932  0.50695609  1
  Hf  Hf2  1  0.70476002  0.30989645  0.90900595  1
  Hf  Hf3  1  0.19264181  0.20147107  0.19863302  1
  Hf  Hf4  1  0.20446095  0.59975770  0.19833734  1
  Hf  Hf5  1  0.09044441  0.50346452  0.30078967  1
  Hf  Hf6  1  0.49778799  0.69727650  0.48855371  1
  Hf  Hf7  1  0.50457287  0.49324471  0.10377437  1
  Hf  Hf8  1  0.79193727  0.40403506  0.60219824  1
  Hf  Hf9  1  0.41007255  -0.00487063  0.79961547  1
  Hf  Hf10  1  0.49110164  0.09579946  0.50150180  1
  Hf  Hf11  1  0.10325473  0.90020618  0.29901560  1
  Hf  Hf12  1  0.89729943  0.90017331  0.49915204  1
  Hf  Hf13  1  0.20344371  0.39592993  0.40290364  1
  Hf  Hf14  1  0.19959941  0.19688886  0.79809879  1
  Hf  Hf15  1  0.89287433  0.49919169  0.09956227  1
  Hf  Hf16  1  0.60919425  0.40695653  0.40226209  1
  Hf  Hf17  1  0.50434257  0.89136896  0.91007709  1
  Hf  Hf18  1  0.49897418  0.69817024  0.10174918  1
  Hf  Hf19  1  -0.00275887  0.79768514  0.60343232  1
  Hf  Hf20  1  0.10081276  0.69902611  0.30523288  1
  Hf  Hf21  1  0.60322211  0.79533400  0.59708672  1
  Hf  Hf22  1  0.30617859  0.09542161  0.69578794  1
  Hf  Hf23  1  0.61475072  0.59902766  0.00352249  1
  Hf  Hf24  1  0.49558294  0.30855749  0.70697201  1
  Hf  Hf25  1  0.09558148  0.89658496  0.09669767  1
  Hf  Hf26  1  0.39470239  0.40890805  0.39647187  1
  Hf  Hf27  1  0.60762159  0.40634962  0.60659219  1
  Hf  Hf28  1  0.89346874  0.89213796  0.09824975  1
  Hf  Hf29  1  0.38470846  0.20366670  0.40747993  1
  Hf  Hf30  1  0.19429810  0.19955535  0.40076826  1
  Hf  Hf31  1  0.89341354  0.68787744  0.70160737  1
  Hf  Hf32  1  -0.00072103  0.19925237  0.00367490  1
  Hf  Hf33  1  0.89684187  0.69278737  0.49707927  1
  Hf  Hf34  1  0.11062440  0.69167434  0.69398808  1
  Hf  Hf35  1  -0.00276203  0.79526380  0.80550161  1
  Hf  Hf36  1  0.89699136  0.09642507  0.69832589  1
  Hf  Hf37  1  -0.00499985  0.41024419  -0.01074657  1
  Hf  Hf38  1  0.89323911  0.11321526  0.29544382  1
  Hf  Hf39  1  0.79484679  0.21528068  0.40829727  1
  Hf  Hf40  1  0.89707256  0.50307936  0.29387044  1
  Hf  Hf41  1  0.00722441  0.58530057  0.80825845  1
  Hf  Hf42  1  0.50292368  0.69599723  0.89551396  1
  Hf  Hf43  1  0.79469846  -0.00541604  0.80319372  1
  Hf  Hf44  1  0.20283824  0.00249715  0.19720113  1
  Hf  Hf45  1  0.89519665  0.09924236  0.89593489  1
  Hf  Hf46  1  0.60758357  0.40471188  0.20532353  1
  Hf  Hf47  1  0.79070550  0.21298170  0.60529720  1
  Hf  Hf48  1  0.49445129  0.30849351  0.50391959  1
  Hf  Hf49  1  0.19922649  -0.00594882  -0.00169289  1
  Zr  Zr50  1  0.60172214  0.20721309  0.40210925  1
  Zr  Zr51  1  0.21499616  0.81697434  0.40491629  1
  Zr  Zr52  1  0.69904869  0.89208939  0.90605995  1
  Zr  Zr53  1  0.09659562  0.30615103  0.89610207  1
  Zr  Zr54  1  0.89824375  0.30338727  0.71104657  1
  Zr  Zr55  1  0.88926691  0.30084235  0.90046701  1
  Zr  Zr56  1  0.00027986  0.00820928  0.19788202  1
  Zr  Zr57  1  0.79085701  -0.00272012  0.19593147  1
  Zr  Zr58  1  0.90214395  0.69705830  0.30148552  1
  Zr  Zr59  1  0.89857583  0.30574294  0.28425472  1
  Zr  Zr60  1  0.89128520  0.69509351  0.09950281  1
  Zr  Zr61  1  0.50923542  0.49847724  0.89792234  1
  Zr  Zr62  1  -0.00401618  0.39996172  0.40414579  1
  Zr  Zr63  1  0.60693781  0.21446630  0.60164802  1
  Zr  Zr64  1  0.59982922  0.19169374  -0.00226979  1
  Zr  Zr65  1  0.10667750  0.69219203  0.49882886  1
  Zr  Zr66  1  0.20127110  0.20902968  0.00785323  1
  Zr  Zr67  1  0.58749741  -0.02181896  0.59864326  1
  Zr  Zr68  1  0.78880593  0.79826695  0.59956522  1
  Zr  Zr69  1  0.50126414  0.29860084  0.29370698  1
  Zr  Zr70  1  0.39355289  0.38906241  0.00166570  1
  Zr  Zr71  1  0.30918854  0.70199043  0.89966710  1
  Zr  Zr72  1  0.90084975  0.88688986  0.29848878  1
  Zr  Zr73  1  0.30190022  0.09676789  0.29884611  1
  Zr  Zr74  1  0.69636975  0.09253580  0.50630146  1
  Zr  Zr75  1  0.10585165  0.90921593  0.50885585  1
  Zr  Zr76  1  0.00232933  0.79253623  -0.00638938  1
  Zr  Zr77  1  0.00921781  0.01406879  0.39723699  1
  Zr  Zr78  1  0.30172487  0.70096623  0.50470814  1
  Zr  Zr79  1  0.78673155  -0.01039163  0.39539490  1
  Zr  Zr80  1  0.30164618  0.30344427  0.70095133  1
  Zr  Zr81  1  0.09557166  0.90812829  0.70392631  1
  Zr  Zr82  1  0.19242959  0.41024203  0.79802267  1
  Zr  Zr83  1  0.41267059  0.81594149  0.59883819  1
  Zr  Zr84  1  0.00561675  0.19540885  0.79316085  1
  Zr  Zr85  1  0.60732085  0.59968206  0.59879294  1
  Zr  Zr86  1  0.49703228  0.10354913  0.69406489  1
  Zr  Zr87  1  0.60717514  0.80118082  0.39591564  1
  Zr  Zr88  1  0.30521919  0.10114691  0.90423079  1
  Zr  Zr89  1  0.20025863  0.39664623  0.20061404  1
  Zr  Zr90  1  0.39578722  0.20508550  0.18951361  1
  Zr  Zr91  1  0.69028285  0.11097244  0.28585570  1
  Zr  Zr92  1  0.30586556  0.70323991  0.09670780  1
  Zr  Zr93  1  0.19866007  0.19609691  0.59170979  1
  Zr  Zr94  1  0.39380203  -0.01373436  0.40645815  1
  Zr  Zr95  1  0.39468286  0.58623310  -0.00436710  1
  Zr  Zr96  1  0.00159057  0.40663146  0.60563758  1
  Zr  Zr97  1  0.60394602  0.19886894  0.80621791  1
  Zr  Zr98  1  0.20040559  0.80448103  0.80434259  1
  Zr  Zr99  1  0.31032457  0.70697484  0.30187835  1
  Ta  Ta100  1  0.39518032  0.40873010  0.80554649  1
  Ta  Ta101  1  0.39894075  0.58916100  0.20622641  1
  Ta  Ta102  1  0.60405540  0.79492168  0.79324405  1
  Ta  Ta103  1  0.29794835  0.50573532  0.50420152  1
  Ta  Ta104  1  0.50786720  0.29983845  0.09758192  1
  Ta  Ta105  1  0.40529271  -0.00303054  0.19300579  1
  Ta  Ta106  1  0.50540227  0.10047626  0.10448886  1
  Ta  Ta107  1  0.09645318  0.30115058  0.50679922  1
  Ta  Ta108  1  0.20072422  0.80166920  -0.00171124  1
  Ta  Ta109  1  0.89827763  0.89803802  0.90061303  1
  Ta  Ta110  1  0.50011140  0.09559397  0.29465539  1
  Ta  Ta111  1  0.19951973  -0.00248879  0.80267348  1
  Ta  Ta112  1  0.09553619  0.08879256  0.89737557  1
  Ta  Ta113  1  0.89517304  0.50408904  0.70353088  1
  Ta  Ta114  1  0.50020183  0.50740357  0.70796572  1
  Ta  Ta115  1  0.40458196  0.80312270  0.79508010  1
  Ta  Ta116  1  0.89792525  0.50907067  0.50025476  1
  Ta  Ta117  1  0.00591217  0.20263771  0.40265776  1
  Ta  Ta118  1  0.19851121  0.59056426  -0.00060391  1
  Ta  Ta119  1  0.70036899  0.09606714  0.70318896  1
  Ta  Ta120  1  0.60284471  0.79413553  0.20050009  1
  Ta  Ta121  1  0.39723969  0.41068026  0.60128636  1
  Ta  Ta122  1  0.40404439  0.59712357  0.60005398  1
  Ta  Ta123  1  0.79905600  0.79519384  0.80109624  1
  Ta  Ta124  1  0.79493954  0.40571060  0.39927040  1
  Ta  Ta125  1  0.09661191  0.49976883  0.10019062  1
  Ta  Ta126  1  0.70375391  0.30107594  0.10080243  1
  Ta  Ta127  1  0.20249939  0.80218811  0.19168128  1
  Ta  Ta128  1  0.49840760  0.89642350  0.29259112  1
  Ta  Ta129  1  0.77828783  0.60071471  0.20066477  1
  Ta  Ta130  1  0.89269614  0.10661779  0.09979266  1
  Ta  Ta131  1  0.10472590  0.50840288  0.50211337  1
  Ta  Ta132  1  0.50625277  0.89803887  0.09862748  1
  Ta  Ta133  1  0.79530833  0.00191415  0.00290691  1
  Ta  Ta134  1  0.69457619  0.89500564  0.09783759  1
  Ta  Ta135  1  0.59923839  0.00073192  0.80571242  1
  Ta  Ta136  1  0.40759949  0.20493261  0.81659928  1
  Ta  Ta137  1  0.41055483  0.00346715  0.00339215  1
  Ta  Ta138  1  0.40119719  0.59403601  0.39604061  1
  Ta  Ta139  1  0.30815508  0.69683389  0.69887600  1
  Ta  Ta140  1  0.49906277  0.69280169  0.70647974  1
  Ta  Ta141  1  0.70560507  0.49160611  0.09461176  1
  Ta  Ta142  1  -0.00655960  -0.00129189  -0.00374449  1
  Ta  Ta143  1  0.30027544  0.49105643  0.10583333  1
  Ta  Ta144  1  0.61187430  0.40872245  0.79867115  1
  Ta  Ta145  1  0.59645811  -0.00960276  0.39419694  1
  Ta  Ta146  1  0.88922234  0.30269817  0.09880636  1
  Ta  Ta147  1  0.79139887  0.60124739  0.39543126  1
  Ta  Ta148  1  0.30713377  0.89852386  0.90445197  1
  Ta  Ta149  1  0.30801502  0.10064004  0.09468396  1
  Ti  Ti150  1  0.38832505  0.20761407  0.59179260  1
  Ti  Ti151  1  0.60938181  0.59994411  0.38847844  1
  Ti  Ti152  1  0.90499027  0.30210435  0.50685443  1
  Ti  Ti153  1  0.00648685  0.79171954  0.19661435  1
  Ti  Ti154  1  0.60730008  0.78855983  0.00619278  1
  Ti  Ti155  1  0.50315796  0.50491752  0.29700856  1
  Ti  Ti156  1  0.30485546  0.50763302  0.69861647  1
  Ti  Ti157  1  0.70777431  0.51046609  0.50009021  1
  Ti  Ti158  1  0.50163934  0.69556132  0.29483425  1
  Ti  Ti159  1  0.00216421  0.60381711  0.19239451  1
  Ti  Ti160  1  0.78855406  0.18750520  0.00232809  1
  Ti  Ti161  1  0.00147767  0.00521413  0.60058490  1
  Ti  Ti162  1  0.08904282  0.30346502  0.29677804  1
  Ti  Ti163  1  0.10411596  0.69705795  0.09527548  1
  Ti  Ti164  1  0.30167079  0.90585664  0.69815394  1
  Ti  Ti165  1  0.50019054  0.50505672  0.49962860  1
  Ti  Ti166  1  0.79689296  0.41307858  0.80338581  1
  Ti  Ti167  1  0.08816627  0.31249693  0.10298006  1
  Ti  Ti168  1  0.20133041  0.40695974  0.60013805  1
  Ti  Ti169  1  0.89972370  0.90240941  0.70471527  1
  Ti  Ti170  1  0.79245417  0.58990677  0.80788043  1
  Ti  Ti171  1  0.78428308  0.79404811  0.39847959  1
  Ti  Ti172  1  0.20725354  0.80698713  0.60413636  1
  Ti  Ti173  1  0.30036771  0.29972180  0.90051893  1
  Ti  Ti174  1  0.31015437  0.89764635  0.09341934  1
  Ti  Ti175  1  0.70310949  0.68641570  0.70557593  1
  Ti  Ti176  1  0.09708357  0.09815945  0.09481719  1
  Ti  Ti177  1  0.20128442  0.40436774  0.00075370  1
  Ti  Ti178  1  0.78179878  0.79255762  0.20650145  1
  Ti  Ti179  1  0.00489071  0.79988544  0.40592145  1
  Ti  Ti180  1  0.00163835  0.59725237  -0.00533339  1
  Ti  Ti181  1  0.10672657  0.69556221  0.90488163  1
  Ti  Ti182  1  0.30482253  0.30655910  0.29094980  1
  Ti  Ti183  1  0.20219536  0.01157201  0.41181882  1
  Ti  Ti184  1  0.69728519  0.89860171  0.70474307  1
  Ti  Ti185  1  0.00314673  0.59386604  0.60129726  1
  Ti  Ti186  1  0.59981863  -0.00562097  0.19802122  1
  Ti  Ti187  1  0.30645490  0.89755778  0.29025090  1
  Ti  Ti188  1  0.09840203  0.09279200  0.69578843  1
  Ti  Ti189  1  0.09574577  0.30411406  0.69582986  1
  Ti  Ti190  1  0.00391640  0.19994905  0.19669175  1
  Ti  Ti191  1  0.21106076  0.59154919  0.39400180  1
  Ti  Ti192  1  0.70799102  0.30091225  0.28708689  1
  Ti  Ti193  1  0.79357499  0.78981923  -0.00135503  1
  Ti  Ti194  1  0.50548186  0.30700302  0.90439700  1
  Ti  Ti195  1  0.40471997  0.80305339  0.19750799  1
  Ti  Ti196  1  0.60659899  0.00726494  0.00016186  1
  Ti  Ti197  1  0.88952130  0.68908156  0.90247413  1
  Ti  Ti198  1  0.79228325  -0.00969201  0.60109290  1
  Ti  Ti199  1  0.70285915  0.69371941  0.89514892  1
  Mo  Mo200  1  0.29557936  0.09129771  0.50664473  1
  Mo  Mo201  1  0.09712189  0.10559542  0.50532336  1
  Mo  Mo202  1  0.79550644  0.20362133  0.18758044  1
  Mo  Mo203  1  0.09942952  0.10688426  0.30078723  1
  Mo  Mo204  1  0.59757651  0.60006844  0.20272964  1
  Mo  Mo205  1  -0.00027886  0.39995426  0.19025613  1
  Mo  Mo206  1  0.70085864  0.50194348  0.29833410  1
  Mo  Mo207  1  0.79927253  0.59570809  0.59834099  1
  Mo  Mo208  1  0.29521809  0.31679786  0.50598424  1
  Mo  Mo209  1  0.70697194  0.50070680  0.90369800  1
  Mo  Mo210  1  0.70105204  0.09341289  0.89860446  1
  Mo  Mo211  1  0.78891938  0.19246968  0.79843411  1
  Mo  Mo212  1  0.60934370  0.60179710  0.80009111  1
  Mo  Mo213  1  0.79619972  0.40245346  0.19851040  1
  Mo  Mo214  1  0.39577440  -0.00519455  0.60046283  1
  Mo  Mo215  1  0.39981705  0.59822969  0.79338660  1
  Mo  Mo216  1  0.40758707  0.19983955  -0.00203840  1
  Mo  Mo217  1  0.00442611  0.20024157  0.59755268  1
  Mo  Mo218  1  0.70148275  0.31488741  0.49560465  1
  Mo  Mo219  1  0.40673405  0.80023769  0.39098736  1
  Mo  Mo220  1  0.79954604  0.40516080  0.00068437  1
  Mo  Mo221  1  0.70322283  0.50586992  0.70839363  1
  Mo  Mo222  1  0.09845309  0.90401726  0.90192776  1
  Mo  Mo223  1  0.20915839  0.59267727  0.60498469  1
  Mo  Mo224  1  0.40215033  0.40203535  0.20009433  1
  Mo  Mo225  1  -0.00200181  0.59791287  0.40598582  1
  Mo  Mo226  1  0.40306483  0.80971136  0.00161357  1
  Mo  Mo227  1  0.69960839  0.89662336  0.49460880  1
  Mo  Mo228  1  0.59954607  0.20349330  0.19366584  1
  Mo  Mo229  1  -0.00493065  0.40918137  0.79578446  1
  Mo  Mo230  1  0.10029658  0.50242241  0.91130786  1
  Mo  Mo231  1  0.69837014  0.70152617  0.10054715  1
  Mo  Mo232  1  0.29918077  0.30004801  0.09778686  1
  Mo  Mo233  1  0.70305030  0.30446873  0.71734975  1
  Mo  Mo234  1  0.50149225  0.09389598  0.90645581  1
  Mo  Mo235  1  0.49905308  0.89479446  0.48416058  1
  Mo  Mo236  1  0.89473956  0.50537963  0.89890091  1
  Mo  Mo237  1  0.30180523  0.50132571  0.30059282  1
  Mo  Mo238  1  0.60434700  0.39707844  0.00180977  1
  Mo  Mo239  1  0.70200906  0.69279247  0.49185774  1
  Mo  Mo240  1  0.79792498  0.60003729  -0.00438200  1
  Mo  Mo241  1  0.69174068  0.89325476  0.29114522  1
  Mo  Mo242  1  0.10127025  0.50206073  0.69084829  1
  Mo  Mo243  1  0.69407041  0.69551113  0.29624342  1
  Mo  Mo244  1  0.69644743  0.09411810  0.09615981  1
  Mo  Mo245  1  0.50774991  0.89232128  0.71517875  1
  Mo  Mo246  1  0.30029922  0.90641953  0.51411696  1
  Mo  Mo247  1  0.29631534  0.49341667  0.90345518  1
  Mo  Mo248  1  0.20401397  0.00241261  0.60524781  1
  Mo  Mo249  1  -0.00213600  -0.00365109  0.80209188  1
