# generated using pymatgen
data_HfZrTaTiMo
_symmetry_space_group_name_H-M   'P 1'
_cell_length_a   16.87840457
_cell_length_b   16.88286201
_cell_length_c   16.88514479
_cell_angle_alpha   90.01334318
_cell_angle_beta   90.01175224
_cell_angle_gamma   90.00223498
_symmetry_Int_Tables_number   1
_chemical_formula_structural   HfZrTaTiMo
_chemical_formula_sum   'Hf50 Zr50 Ta50 Ti50 Mo50'
_cell_volume   4811.51928858
_cell_formula_units_Z   50
loop_
 _symmetry_equiv_pos_site_id
 _symmetry_equiv_pos_as_xyz
  1  'x, y, z'
loop_
 _atom_site_type_symbol
 _atom_site_label
 _atom_site_symmetry_multiplicity
 _atom_site_fract_x
 _atom_site_fract_y
 _atom_site_fract_z
 _atom_site_occupancy
  Hf  Hf0  1  0.09542974  0.49537153  0.49877414  1
  Hf  Hf1  1  0.59022826  0.19691411  0.39857190  1
  Hf  Hf2  1  0.79760904  0.40030512  0.40007986  1
  Hf  Hf3  1  0.59679853  0.80615671  0.60477582  1
  Hf  Hf4  1  0.70519621  0.90372374  0.88843312  1
  Hf  Hf5  1  0.79201265  0.20170408  0.80583144  1
  Hf  Hf6  1  0.89825655  0.69232175  0.69560941  1
  Hf  Hf7  1  0.29472998  0.10280522  0.09975213  1
  Hf  Hf8  1  0.10138792  0.90133447  0.49972676  1
  Hf  Hf9  1  0.39342112  0.19951124  0.80674513  1
  Hf  Hf10  1  0.78976137  0.38087329  0.59307629  1
  Hf  Hf11  1  0.79609683  0.79889793  0.59898049  1
  Hf  Hf12  1  0.29576618  0.10573241  0.29662411  1
  Hf  Hf13  1  0.70228291  0.29961548  0.09779933  1
  Hf  Hf14  1  0.39963836  0.40047982  0.39792746  1
  Hf  Hf15  1  0.39985408  0.80376358  0.80225421  1
  Hf  Hf16  1  0.59229403  0.79587652  0.39555025  1
  Hf  Hf17  1  0.20178358  0.20390075  -0.00759394  1
  Hf  Hf18  1  0.89713296  0.90782258  0.10898762  1
  Hf  Hf19  1  -0.00091394  0.59086824  0.81507166  1
  Hf  Hf20  1  0.39285398  0.59502251  0.01156858  1
  Hf  Hf21  1  0.70394791  0.10571794  0.50172733  1
  Hf  Hf22  1  0.80263021  0.19351039  0.20318858  1
  Hf  Hf23  1  0.20528476  0.59882290  0.40363188  1
  Hf  Hf24  1  0.50177203  0.29602566  0.09685564  1
  Hf  Hf25  1  0.11092586  0.49834188  0.70740776  1
  Hf  Hf26  1  0.30478470  0.69859666  0.30045547  1
  Hf  Hf27  1  0.30437316  0.48639876  0.69775776  1
  Hf  Hf28  1  0.40566631  0.40114606  0.20574551  1
  Hf  Hf29  1  0.10901194  0.50053984  0.09451358  1
  Hf  Hf30  1  -0.00497237  0.60584285  0.40042526  1
  Hf  Hf31  1  0.59471946  0.59389056  0.21108921  1
  Hf  Hf32  1  0.59578063  -0.00020212  0.59576076  1
  Hf  Hf33  1  0.69232021  0.50335120  0.49228778  1
  Hf  Hf34  1  0.30155649  0.29957318  0.10601591  1
  Hf  Hf35  1  0.40458229  0.20357530  0.59670590  1
  Hf  Hf36  1  0.29807740  0.09692259  0.69874075  1
  Hf  Hf37  1  0.40009492  0.80107000  0.00101809  1
  Hf  Hf38  1  0.69381854  0.30467660  0.29931080  1
  Hf  Hf39  1  0.40399835  0.59534468  0.20114009  1
  Hf  Hf40  1  0.70020236  0.50438549  0.90869483  1
  Hf  Hf41  1  0.19829148  0.20325470  0.60271722  1
  Hf  Hf42  1  0.09835160  0.90978136  0.10228610  1
  Hf  Hf43  1  0.40914075  0.80151699  0.59797733  1
  Hf  Hf44  1  0.00012853  0.39500104  0.59646217  1
  Hf  Hf45  1  0.79907822  -0.00432120  0.60229070  1
  Hf  Hf46  1  0.09698066  0.68909339  0.70029223  1
  Hf  Hf47  1  0.29952624  0.90801281  0.50365306  1
  Hf  Hf48  1  0.70193055  0.90673127  0.29643420  1
  Hf  Hf49  1  0.20210583  0.78835074  0.59756448  1
  Zr  Zr50  1  0.80196466  0.20567332  0.39817049  1
  Zr  Zr51  1  0.00043081  0.78945063  0.00547608  1
  Zr  Zr52  1  0.89432897  0.89290970  0.71343963  1
  Zr  Zr53  1  0.00617313  0.00472794  0.60731032  1
  Zr  Zr54  1  0.69646471  0.69143847  0.50283802  1
  Zr  Zr55  1  0.89342478  0.50613691  0.09369278  1
  Zr  Zr56  1  0.00124559  0.19827397  0.20438083  1
  Zr  Zr57  1  0.39643569  -0.00339835  0.20400746  1
  Zr  Zr58  1  0.60324029  0.00220375  0.00454605  1
  Zr  Zr59  1  0.60910407  0.39401096  0.79353133  1
  Zr  Zr60  1  -0.00027376  0.00399586  0.80617601  1
  Zr  Zr61  1  0.10317378  0.89488905  0.70123781  1
  Zr  Zr62  1  0.29146085  0.49886259  0.88699879  1
  Zr  Zr63  1  0.29747562  0.69268169  0.89991897  1
  Zr  Zr64  1  0.30065007  0.68633671  0.70149030  1
  Zr  Zr65  1  0.40475304  0.20234462  0.39852523  1
  Zr  Zr66  1  0.20311999  0.39748543  -0.00376744  1
  Zr  Zr67  1  0.11334948  0.89260719  0.91189983  1
  Zr  Zr68  1  0.10232053  0.49502904  0.29802751  1
  Zr  Zr69  1  -0.00268063  0.00646930  -0.00461517  1
  Zr  Zr70  1  0.90205229  0.71068537  0.29784999  1
  Zr  Zr71  1  0.59772527  0.39550442  0.60113083  1
  Zr  Zr72  1  0.20059743  0.80402483  0.39474096  1
  Zr  Zr73  1  0.40716339  0.00911743  0.40116881  1
  Zr  Zr74  1  0.89984455  0.10361127  0.49806996  1
  Zr  Zr75  1  0.10509589  0.30659618  0.70704223  1
  Zr  Zr76  1  0.90304277  0.50100457  0.69012808  1
  Zr  Zr77  1  0.19683364  0.01333879  0.80840098  1
  Zr  Zr78  1  0.29881667  0.90616845  0.70095140  1
  Zr  Zr79  1  0.89969452  0.29429576  0.08966416  1
  Zr  Zr80  1  0.49720318  0.49599695  0.89353377  1
  Zr  Zr81  1  0.00097492  0.39711467  0.19642177  1
  Zr  Zr82  1  0.89846794  0.29451209  0.70222169  1
  Zr  Zr83  1  0.00480546  0.60848765  0.19384965  1
  Zr  Zr84  1  0.80543382  0.59750114  0.81108315  1
  Zr  Zr85  1  0.59677132  0.80263358  0.00436170  1
  Zr  Zr86  1  0.69613366  0.70120849  0.89796737  1
  Zr  Zr87  1  0.60644917  0.18722599  -0.00835609  1
  Zr  Zr88  1  0.00383786  0.00148198  0.38825515  1
  Zr  Zr89  1  0.50561028  0.10642137  0.70840236  1
  Zr  Zr90  1  0.19871530  0.79969046  0.19875535  1
  Zr  Zr91  1  0.70073877  0.10156116  0.70429330  1
  Zr  Zr92  1  0.59993258  0.18698235  0.20333724  1
  Zr  Zr93  1  0.28874720  0.90929534  0.08464653  1
  Zr  Zr94  1  0.39971150  0.80084390  0.19812544  1
  Zr  Zr95  1  0.58745459  0.60268727  0.60754824  1
  Zr  Zr96  1  0.79700463  0.79616886  0.39793580  1
  Zr  Zr97  1  0.79664698  0.80397589  0.00531773  1
  Zr  Zr98  1  0.71036486  0.51231393  0.69288426  1
  Zr  Zr99  1  0.90286965  0.89527091  0.48891995  1
  Ta  Ta100  1  0.19806038  0.79228824  0.80478618  1
  Ta  Ta101  1  0.29423449  0.49674400  0.29574528  1
  Ta  Ta102  1  0.40599271  0.59608556  0.39451901  1
  Ta  Ta103  1  0.60004631  0.39848423  -0.00064101  1
  Ta  Ta104  1  0.89932777  0.49859767  0.30240733  1
  Ta  Ta105  1  0.09841405  0.29874712  0.49198794  1
  Ta  Ta106  1  0.79313868  0.00700211  0.00311497  1
  Ta  Ta107  1  0.48976256  0.09878147  0.09850136  1
  Ta  Ta108  1  0.10623930  0.10320911  0.49724639  1
  Ta  Ta109  1  0.19945705  0.20387662  0.39903381  1
  Ta  Ta110  1  0.69944515  0.90164720  0.71375173  1
  Ta  Ta111  1  0.00398312  0.19455685  0.80231907  1
  Ta  Ta112  1  0.69768189  0.49929604  0.10056509  1
  Ta  Ta113  1  0.19150527  0.20747414  0.20306339  1
  Ta  Ta114  1  0.49658195  0.69772058  0.70470218  1
  Ta  Ta115  1  0.49888492  0.90906193  0.89529872  1
  Ta  Ta116  1  0.80199059  0.39664175  0.80671866  1
  Ta  Ta117  1  0.79092346  0.79969821  0.19658676  1
  Ta  Ta118  1  0.90367198  0.29497050  0.90327590  1
  Ta  Ta119  1  0.50063396  0.29826952  0.89748043  1
  Ta  Ta120  1  0.20476922  0.59336214  0.58930441  1
  Ta  Ta121  1  0.89874115  0.90822267  0.29183831  1
  Ta  Ta122  1  0.00184084  0.40255674  -0.00995637  1
  Ta  Ta123  1  0.79669509  0.40520172  0.20281073  1
  Ta  Ta124  1  0.79933372  0.39938927  -0.00528959  1
  Ta  Ta125  1  0.89622411  0.10372389  0.70372318  1
  Ta  Ta126  1  0.20449593  0.39780272  0.40218276  1
  Ta  Ta127  1  0.69870744  0.69306178  0.10400673  1
  Ta  Ta128  1  0.59539080  0.00882016  0.39582669  1
  Ta  Ta129  1  0.79758792  0.59768610  0.39341563  1
  Ta  Ta130  1  0.40365287  0.80380601  0.39427531  1
  Ta  Ta131  1  0.39937850  0.00903016  -0.01231081  1
  Ta  Ta132  1  0.20091211  0.00140981  0.39430051  1
  Ta  Ta133  1  0.49603949  0.49966318  0.49680849  1
  Ta  Ta134  1  0.10913055  0.68421086  0.90437364  1
  Ta  Ta135  1  0.00024482  0.78820132  0.81138550  1
  Ta  Ta136  1  -0.00348523  0.79100701  0.59374247  1
  Ta  Ta137  1  0.89968001  0.10020953  0.09781848  1
  Ta  Ta138  1  0.20893223  0.60320831  0.18778738  1
  Ta  Ta139  1  0.50595976  0.90271477  0.29500592  1
  Ta  Ta140  1  0.50177341  0.90645851  0.10029755  1
  Ta  Ta141  1  0.59415474  0.59928733  0.00755187  1
  Ta  Ta142  1  0.79252279  0.59766629  0.20688151  1
  Ta  Ta143  1  0.10202748  0.10204487  0.29958212  1
  Ta  Ta144  1  0.39901460  0.39616597  -0.00332235  1
  Ta  Ta145  1  0.40788720  0.00591797  0.59762064  1
  Ta  Ta146  1  0.50337695  0.49271546  0.09804061  1
  Ta  Ta147  1  0.89729468  0.50375335  0.49922716  1
  Ta  Ta148  1  0.29942316  0.30428142  0.50293604  1
  Ta  Ta149  1  0.00450816  0.19693215  0.60241853  1
  Ti  Ti150  1  0.29249571  0.30275154  0.29737209  1
  Ti  Ti151  1  0.50333446  0.70024557  0.10338646  1
  Ti  Ti152  1  0.60070584  0.80005809  0.19842009  1
  Ti  Ti153  1  0.48779970  0.49314096  0.69808976  1
  Ti  Ti154  1  0.71080847  0.08902403  0.30278288  1
  Ti  Ti155  1  0.50095015  0.90421447  0.49398216  1
  Ti  Ti156  1  0.39715291  0.19909571  -0.00832871  1
  Ti  Ti157  1  0.29516119  0.10003841  0.50244041  1
  Ti  Ti158  1  0.09936388  0.29922181  0.09652531  1
  Ti  Ti159  1  0.50061932  0.91096944  0.71201344  1
  Ti  Ti160  1  0.89316639  0.10937006  0.90721616  1
  Ti  Ti161  1  0.70031134  0.29742330  0.90341694  1
  Ti  Ti162  1  0.89459483  0.69832263  0.90821882  1
  Ti  Ti163  1  0.70185202  0.70479065  0.70664078  1
  Ti  Ti164  1  0.09190935  0.69835689  0.49939209  1
  Ti  Ti165  1  0.59153819  0.40340327  0.39125196  1
  Ti  Ti166  1  0.49409096  0.30318213  0.70566527  1
  Ti  Ti167  1  0.89101545  0.69632346  0.10058875  1
  Ti  Ti168  1  -0.00401043  0.40314908  0.81008186  1
  Ti  Ti169  1  0.59524749  0.60055672  0.79698057  1
  Ti  Ti170  1  0.09901991  0.10079664  0.10056083  1
  Ti  Ti171  1  0.59391922  0.79941699  0.79695033  1
  Ti  Ti172  1  0.90621510  0.30793338  0.30478605  1
  Ti  Ti173  1  0.40477699  0.59788809  0.79816955  1
  Ti  Ti174  1  0.09836633  0.11056786  0.90661272  1
  Ti  Ti175  1  0.69897358  0.90724234  0.49004356  1
  Ti  Ti176  1  0.39680525  0.59175612  0.59129363  1
  Ti  Ti177  1  0.90760359  0.29657760  0.49573946  1
  Ti  Ti178  1  0.50097861  0.30649309  0.50075359  1
  Ti  Ti179  1  0.20714646  0.39821503  0.59348581  1
  Ti  Ti180  1  0.89287842  0.89751784  0.89766918  1
  Ti  Ti181  1  0.19328702  -0.00212582  0.21152617  1
  Ti  Ti182  1  0.20027918  0.77696321  0.01085530  1
  Ti  Ti183  1  0.60892317  0.21374458  0.60101354  1
  Ti  Ti184  1  0.00156379  0.59702838  -0.00291332  1
  Ti  Ti185  1  0.40987980  0.20303288  0.21163271  1
  Ti  Ti186  1  0.09974551  0.70447406  0.29991757  1
  Ti  Ti187  1  0.10132212  0.30564488  0.30636793  1
  Ti  Ti188  1  0.00320990  0.19918944  0.39543758  1
  Ti  Ti189  1  0.31049067  0.69766529  0.49652007  1
  Ti  Ti190  1  0.00634742  0.80373677  0.20192104  1
  Ti  Ti191  1  0.49655750  0.69200678  0.49475027  1
  Ti  Ti192  1  0.59896805  0.01539981  0.81344519  1
  Ti  Ti193  1  0.29785957  0.90744155  0.89991093  1
  Ti  Ti194  1  0.59733736  0.40447483  0.20405671  1
  Ti  Ti195  1  0.09697407  0.30253355  0.89589811  1
  Ti  Ti196  1  0.50104420  0.69792671  0.89727034  1
  Ti  Ti197  1  0.20384666  0.20666458  0.80342793  1
  Ti  Ti198  1  0.69411097  0.69627631  0.29949688  1
  Ti  Ti199  1  0.60393697  0.00494773  0.19399668  1
  Mo  Mo200  1  0.19721982  0.59478975  0.79725429  1
  Mo  Mo201  1  0.29823634  0.10333388  0.90178352  1
  Mo  Mo202  1  0.40290150  0.39510634  0.59642739  1
  Mo  Mo203  1  -0.00022005  0.00791862  0.19898382  1
  Mo  Mo204  1  0.80626819  0.60578399  0.58512404  1
  Mo  Mo205  1  0.20175248  0.01688824  -0.00193984  1
  Mo  Mo206  1  0.09710768  0.49695021  0.90074873  1
  Mo  Mo207  1  0.29954989  0.90310147  0.30877676  1
  Mo  Mo208  1  0.09827150  0.11000888  0.70234916  1
  Mo  Mo209  1  0.20006364  0.59681091  0.00457633  1
  Mo  Mo210  1  0.20216668  0.01073314  0.59165830  1
  Mo  Mo211  1  0.70553687  0.09857155  0.90165542  1
  Mo  Mo212  1  0.80469872  0.79736206  0.80111326  1
  Mo  Mo213  1  0.59188521  0.59872772  0.39513209  1
  Mo  Mo214  1  0.00529897  0.20212222  -0.00518877  1
  Mo  Mo215  1  0.50856676  0.10262970  0.51095378  1
  Mo  Mo216  1  0.50066066  0.70482784  0.30209084  1
  Mo  Mo217  1  0.40099403  0.38837924  0.79707864  1
  Mo  Mo218  1  0.71139000  0.09580665  0.10309250  1
  Mo  Mo219  1  -0.00511810  0.39535978  0.40094929  1
  Mo  Mo220  1  0.59799544  0.20648079  0.80425531  1
  Mo  Mo221  1  0.79492112  0.60087625  0.00964336  1
  Mo  Mo222  1  0.00642548  0.80006911  0.39586786  1
  Mo  Mo223  1  0.30393789  0.49430723  0.10399559  1
  Mo  Mo224  1  0.90338903  0.69461907  0.50069766  1
  Mo  Mo225  1  0.30028853  0.69511280  0.09967211  1
  Mo  Mo226  1  0.00344520  0.60050856  0.59036806  1
  Mo  Mo227  1  0.09694606  0.90370762  0.29526765  1
  Mo  Mo228  1  0.68887821  0.29935760  0.49614670  1
  Mo  Mo229  1  0.80233855  0.19890812  -0.00203580  1
  Mo  Mo230  1  0.50264931  0.30281718  0.29686378  1
  Mo  Mo231  1  0.09993329  0.69582058  0.09669485  1
  Mo  Mo232  1  0.80145884  0.00581746  0.80818589  1
  Mo  Mo233  1  0.90364284  0.09530562  0.29499982  1
  Mo  Mo234  1  0.70050386  0.49835113  0.29812448  1
  Mo  Mo235  1  0.50253674  0.49962434  0.30465839  1
  Mo  Mo236  1  0.80075889  0.00203802  0.19789403  1
  Mo  Mo237  1  0.69909210  0.29346086  0.70363822  1
  Mo  Mo238  1  0.79676761  0.00068456  0.39376835  1
  Mo  Mo239  1  0.20482175  0.38890362  0.80223433  1
  Mo  Mo240  1  0.50269851  0.09494624  0.29022350  1
  Mo  Mo241  1  0.40208093  0.00065780  0.80418130  1
  Mo  Mo242  1  0.69708257  0.89977891  0.10925937  1
  Mo  Mo243  1  0.20280028  0.39475843  0.20502514  1
  Mo  Mo244  1  0.89850986  0.49077210  0.90647164  1
  Mo  Mo245  1  0.80574637  0.20151448  0.60100465  1
  Mo  Mo246  1  0.49726255  0.10144075  0.90244787  1
  Mo  Mo247  1  0.30535909  0.30107491  0.89755649  1
  Mo  Mo248  1  0.30111475  0.30260013  0.69952653  1
  Mo  Mo249  1  0.30208774  0.49793812  0.49863094  1
