# generated using pymatgen
data_HfZrTaTiMo
_symmetry_space_group_name_H-M   'P 1'
_cell_length_a   16.89202771
_cell_length_b   16.88770095
_cell_length_c   16.89484516
_cell_angle_alpha   89.94779709
_cell_angle_beta   89.98629705
_cell_angle_gamma   90.05310364
_symmetry_Int_Tables_number   1
_chemical_formula_structural   HfZrTaTiMo
_chemical_formula_sum   'Hf50 Zr50 Ta50 Ti50 Mo50'
_cell_volume   4819.54624217
_cell_formula_units_Z   50
loop_
 _symmetry_equiv_pos_site_id
 _symmetry_equiv_pos_as_xyz
  1  'x, y, z'
loop_
 _atom_site_type_symbol
 _atom_site_label
 _atom_site_symmetry_multiplicity
 _atom_site_fract_x
 _atom_site_fract_y
 _atom_site_fract_z
 _atom_site_occupancy
  Hf  Hf0  1  0.71275123  0.70549639  0.90350242  1
  Hf  Hf1  1  0.29819861  0.10304002  0.90269663  1
  Hf  Hf2  1  0.11168823  0.10407927  0.28939161  1
  Hf  Hf3  1  0.88579888  0.10402670  0.70123430  1
  Hf  Hf4  1  -0.00070988  0.60274578  0.00319033  1
  Hf  Hf5  1  0.49612526  0.10233218  0.10691268  1
  Hf  Hf6  1  0.89975145  0.51181456  0.89383178  1
  Hf  Hf7  1  0.70502498  0.30399098  0.29290817  1
  Hf  Hf8  1  0.50214186  0.49929880  0.69700538  1
  Hf  Hf9  1  0.09795375  0.30624749  0.69074627  1
  Hf  Hf10  1  0.60345917  0.39088457  0.80659499  1
  Hf  Hf11  1  -0.00292275  0.19569693  0.59132174  1
  Hf  Hf12  1  0.70183260  0.90158935  0.09876000  1
  Hf  Hf13  1  0.20547254  0.20422560  0.00767919  1
  Hf  Hf14  1  0.50390275  0.49541808  0.49886425  1
  Hf  Hf15  1  0.60195084  0.80744862  0.39765879  1
  Hf  Hf16  1  0.69790953  0.49078900  0.28713644  1
  Hf  Hf17  1  0.59576074  0.19908282  0.20712320  1
  Hf  Hf18  1  0.60388568  0.80560230  -0.00199842  1
  Hf  Hf19  1  0.49396425  0.10472801  0.89897207  1
  Hf  Hf20  1  0.00240676  0.80454560  0.19469305  1
  Hf  Hf21  1  0.19061500  0.80905006  -0.00327447  1
  Hf  Hf22  1  0.90784837  0.50976548  0.69890885  1
  Hf  Hf23  1  0.39468792  0.00135551  0.00586124  1
  Hf  Hf24  1  -0.00235323  0.58986519  0.40487002  1
  Hf  Hf25  1  0.60151610  0.38568014  0.59228312  1
  Hf  Hf26  1  0.60277178  0.01153753  0.39343723  1
  Hf  Hf27  1  0.09155849  0.89618643  0.70397061  1
  Hf  Hf28  1  0.70748927  0.28448735  0.70077641  1
  Hf  Hf29  1  0.49405979  0.28989259  0.70281039  1
  Hf  Hf30  1  0.79866814  0.00585072  0.19257094  1
  Hf  Hf31  1  0.79747096  0.39655939  0.80667249  1
  Hf  Hf32  1  0.29126796  0.69269124  0.89891109  1
  Hf  Hf33  1  0.10474011  0.69852539  0.10053111  1
  Hf  Hf34  1  0.69901693  0.68904765  0.29410450  1
  Hf  Hf35  1  0.29648233  0.69997176  0.10427777  1
  Hf  Hf36  1  0.29832940  0.70684196  0.49153206  1
  Hf  Hf37  1  0.09516011  0.29525030  0.90090255  1
  Hf  Hf38  1  0.40382469  0.59371602  0.20089715  1
  Hf  Hf39  1  0.29538783  0.50536439  0.09842093  1
  Hf  Hf40  1  0.61109787  0.00925296  0.60075256  1
  Hf  Hf41  1  0.89796685  0.89812042  0.50438074  1
  Hf  Hf42  1  0.10470819  0.31366283  0.49728149  1
  Hf  Hf43  1  0.79064951  -0.00402219  0.80834828  1
  Hf  Hf44  1  0.30840354  0.10077571  0.30414101  1
  Hf  Hf45  1  0.09941586  0.69859342  0.49653740  1
  Hf  Hf46  1  0.80113476  0.79396390  0.39811432  1
  Hf  Hf47  1  0.59950077  0.20636942  -0.00064867  1
  Hf  Hf48  1  0.50873578  0.69991362  0.69075337  1
  Hf  Hf49  1  0.39931580  -0.00397453  0.21237257  1
  Zr  Zr50  1  0.69587821  0.50678191  0.69303578  1
  Zr  Zr51  1  0.20319197  0.39786981  0.00043966  1
  Zr  Zr52  1  -0.00414207  0.40702793  0.00424013  1
  Zr  Zr53  1  0.87983196  0.08454687  0.49603484  1
  Zr  Zr54  1  0.29939495  0.48878017  0.30328513  1
  Zr  Zr55  1  0.09787532  0.48829003  0.30273718  1
  Zr  Zr56  1  0.69559626  0.51056948  0.90821965  1
  Zr  Zr57  1  0.40593929  0.39295579  0.00616290  1
  Zr  Zr58  1  0.69582847  0.69347536  0.10135394  1
  Zr  Zr59  1  0.19125073  -0.00268135  0.80790324  1
  Zr  Zr60  1  0.49581070  0.90361608  0.69749707  1
  Zr  Zr61  1  0.70183611  0.31027257  0.10756380  1
  Zr  Zr62  1  0.20101766  0.79955453  0.60464277  1
  Zr  Zr63  1  0.39400698  0.59853902  0.59832814  1
  Zr  Zr64  1  0.89772341  0.29241890  0.90724969  1
  Zr  Zr65  1  0.00495206  0.00435597  0.39853745  1
  Zr  Zr66  1  0.50066473  0.69877822  0.29671537  1
  Zr  Zr67  1  0.30131086  0.89840159  0.70158050  1
  Zr  Zr68  1  0.20392942  0.19827898  0.41191943  1
  Zr  Zr69  1  -0.00436828  0.78914038  0.60554470  1
  Zr  Zr70  1  0.90013495  0.29775121  0.69766039  1
  Zr  Zr71  1  0.79929725  0.39800102  0.58783780  1
  Zr  Zr72  1  0.09672457  0.50201551  0.69509360  1
  Zr  Zr73  1  0.61028584  0.00560356  0.79924035  1
  Zr  Zr74  1  -0.01329138  -0.00738751  0.81085495  1
  Zr  Zr75  1  -0.00427533  0.20109504  0.39813799  1
  Zr  Zr76  1  0.49615832  0.11059535  0.69635203  1
  Zr  Zr77  1  -0.00051260  0.00011338  0.19239163  1
  Zr  Zr78  1  0.29983065  0.89821830  0.89790806  1
  Zr  Zr79  1  0.90241785  0.69515294  0.29933746  1
  Zr  Zr80  1  0.40056220  0.79990374  0.00605842  1
  Zr  Zr81  1  0.89719084  0.90526225  0.30361145  1
  Zr  Zr82  1  0.61773682  0.80934470  0.79408917  1
  Zr  Zr83  1  0.50437928  0.90349378  0.10481687  1
  Zr  Zr84  1  0.71641370  0.91343459  0.49908274  1
  Zr  Zr85  1  0.09602371  0.10036581  0.70005314  1
  Zr  Zr86  1  0.20062759  0.59764278  0.59834619  1
  Zr  Zr87  1  0.39629369  0.59365224  0.40003483  1
  Zr  Zr88  1  0.19915806  0.40023763  0.80063350  1
  Zr  Zr89  1  0.69673306  0.69306193  0.50376681  1
  Zr  Zr90  1  0.80910172  0.60529965  0.59694568  1
  Zr  Zr91  1  0.09358946  0.29231787  0.10706215  1
  Zr  Zr92  1  0.50319473  0.50397532  0.90222594  1
  Zr  Zr93  1  0.50428591  0.70202590  0.49771651  1
  Zr  Zr94  1  0.30651860  0.10461787  0.70111638  1
  Zr  Zr95  1  0.90456367  0.11217092  0.08710016  1
  Zr  Zr96  1  0.30188115  0.29260185  0.30293712  1
  Zr  Zr97  1  0.08970781  0.09728975  0.91933591  1
  Zr  Zr98  1  0.29962121  0.50883264  0.89888255  1
  Zr  Zr99  1  0.50452435  0.69821277  0.90143059  1
  Ta  Ta100  1  0.40506293  0.39009952  0.19285670  1
  Ta  Ta101  1  0.00016826  0.40290085  0.80411970  1
  Ta  Ta102  1  0.90394778  0.70886544  0.89811260  1
  Ta  Ta103  1  0.20775561  -0.00509393  0.40087694  1
  Ta  Ta104  1  0.80170068  0.39765681  0.40053130  1
  Ta  Ta105  1  0.50428666  0.48420785  0.30044316  1
  Ta  Ta106  1  0.50114936  0.90530564  0.89771075  1
  Ta  Ta107  1  0.90017058  0.70713378  0.09507542  1
  Ta  Ta108  1  0.61522605  0.19592840  0.81139917  1
  Ta  Ta109  1  0.80259748  -0.00568576  -0.00571283  1
  Ta  Ta110  1  0.20010399  0.00155012  0.59184312  1
  Ta  Ta111  1  0.60207257  0.80685693  0.20599005  1
  Ta  Ta112  1  0.60940334  0.80886239  0.60043230  1
  Ta  Ta113  1  0.50922911  0.69481796  0.10641129  1
  Ta  Ta114  1  0.29283918  0.10195260  0.11393779  1
  Ta  Ta115  1  0.80604909  0.59991171  0.00742967  1
  Ta  Ta116  1  0.49353303  0.10150562  0.49339618  1
  Ta  Ta117  1  0.78972831  0.20098212  0.39657346  1
  Ta  Ta118  1  0.60189087  0.58793805  0.39584108  1
  Ta  Ta119  1  -0.00175867  0.59628628  0.19806426  1
  Ta  Ta120  1  0.20356874  0.39190255  0.19604468  1
  Ta  Ta121  1  0.89911788  0.49073308  0.29817259  1
  Ta  Ta122  1  0.10492456  0.50334238  0.10447512  1
  Ta  Ta123  1  0.80943259  0.59287328  0.19313131  1
  Ta  Ta124  1  0.10000379  0.30330512  0.30026573  1
  Ta  Ta125  1  -0.00227063  0.19977795  0.80162820  1
  Ta  Ta126  1  0.19802763  0.20291142  0.79777449  1
  Ta  Ta127  1  0.89035629  0.89044599  0.70261205  1
  Ta  Ta128  1  0.80068530  0.80009609  0.19484816  1
  Ta  Ta129  1  -0.00292293  -0.00347571  0.60181459  1
  Ta  Ta130  1  0.69586598  0.49942130  0.10422047  1
  Ta  Ta131  1  0.40064769  0.80353229  0.59416474  1
  Ta  Ta132  1  0.20565932  0.20050243  0.59861398  1
  Ta  Ta133  1  0.10798210  0.90320123  0.29968702  1
  Ta  Ta134  1  0.30067526  0.29931040  0.69857546  1
  Ta  Ta135  1  0.60675112  0.61020397  0.79298556  1
  Ta  Ta136  1  0.40058733  0.60185286  0.79333551  1
  Ta  Ta137  1  0.39547741  0.81224289  0.39357520  1
  Ta  Ta138  1  0.10132167  0.90132897  0.49841254  1
  Ta  Ta139  1  0.28952709  0.90688110  0.10957103  1
  Ta  Ta140  1  0.29326723  0.70448695  0.29889519  1
  Ta  Ta141  1  0.80102355  0.40739253  0.00703081  1
  Ta  Ta142  1  0.29990254  0.49550622  0.70061081  1
  Ta  Ta143  1  0.09386648  0.69979061  0.89674678  1
  Ta  Ta144  1  0.39349301  0.39513407  0.59460422  1
  Ta  Ta145  1  0.39641629  0.20720450  0.01131104  1
  Ta  Ta146  1  0.88996498  0.10988772  0.29322892  1
  Ta  Ta147  1  0.49657802  0.90723702  0.49892153  1
  Ta  Ta148  1  0.00730691  0.80131443  0.39749141  1
  Ta  Ta149  1  0.20022171  0.59498840  0.39963361  1
  Ti  Ti150  1  0.40464235  0.79496864  0.79776463  1
  Ti  Ti151  1  0.61096309  0.00532357  -0.00953503  1
  Ti  Ti152  1  0.89835006  0.30258617  0.29376092  1
  Ti  Ti153  1  0.60362575  0.38933815  0.40134699  1
  Ti  Ti154  1  0.60306180  0.00640391  0.20971643  1
  Ti  Ti155  1  -0.00989208  -0.02141883  -0.00019233  1
  Ti  Ti156  1  0.39194881  0.20677753  0.58599894  1
  Ti  Ti157  1  0.10385840  0.49272171  0.49818515  1
  Ti  Ti158  1  0.89446835  0.29647019  0.10456272  1
  Ti  Ti159  1  0.78714351  0.20313438  -0.00445301  1
  Ti  Ti160  1  0.49326452  0.29387772  0.89510678  1
  Ti  Ti161  1  0.49651668  0.29131384  0.49290523  1
  Ti  Ti162  1  0.39969612  0.39991874  0.79776400  1
  Ti  Ti163  1  -0.01148197  0.41082976  0.58357210  1
  Ti  Ti164  1  0.70184209  0.10476440  0.10032299  1
  Ti  Ti165  1  0.30524124  0.29510895  0.89130140  1
  Ti  Ti166  1  -0.00487485  0.40216731  0.19652188  1
  Ti  Ti167  1  0.29780306  0.69819717  0.70758301  1
  Ti  Ti168  1  0.30824416  0.09647734  0.49596952  1
  Ti  Ti169  1  0.80219594  0.58897998  0.39949536  1
  Ti  Ti170  1  0.18861782  0.79645672  0.80211877  1
  Ti  Ti171  1  0.60238409  0.19707615  0.39891436  1
  Ti  Ti172  1  0.39939442  0.80344470  0.20588646  1
  Ti  Ti173  1  0.60762202  0.19631291  0.58684630  1
  Ti  Ti174  1  0.10533854  0.09692735  0.10149807  1
  Ti  Ti175  1  0.20073586  0.80598789  0.39419642  1
  Ti  Ti176  1  0.39464797  0.39109330  0.41025422  1
  Ti  Ti177  1  0.89540334  0.10743079  0.90440182  1
  Ti  Ti178  1  0.70543764  0.90422177  0.29677488  1
  Ti  Ti179  1  0.20033151  0.80688154  0.20614388  1
  Ti  Ti180  1  0.59921274  0.39458741  0.00180839  1
  Ti  Ti181  1  0.40087946  0.00072018  0.80212565  1
  Ti  Ti182  1  0.19710500  0.59755415  0.20897144  1
  Ti  Ti183  1  0.10513361  0.51645436  0.89558129  1
  Ti  Ti184  1  0.30195747  0.90296529  0.49555524  1
  Ti  Ti185  1  0.10390934  0.70180849  0.30127048  1
  Ti  Ti186  1  0.49286004  0.29515744  0.30320678  1
  Ti  Ti187  1  0.51547251  0.50123178  0.10427538  1
  Ti  Ti188  1  0.80042120  0.61521779  0.79165005  1
  Ti  Ti189  1  -0.00357130  0.20000165  0.20185948  1
  Ti  Ti190  1  0.78838730  0.19629616  0.58139809  1
  Ti  Ti191  1  0.10490590  0.90984353  0.09846780  1
  Ti  Ti192  1  0.89836548  0.30140498  0.49005384  1
  Ti  Ti193  1  0.10268812  0.09440727  0.50226454  1
  Ti  Ti194  1  0.69674608  0.49895615  0.49543567  1
  Ti  Ti195  1  0.39659826  -0.00063662  0.59401962  1
  Ti  Ti196  1  0.40874342  0.60167909  0.00508254  1
  Ti  Ti197  1  0.08709210  0.68745989  0.71207211  1
  Ti  Ti198  1  0.90323567  0.69771187  0.50005024  1
  Ti  Ti199  1  0.49859281  0.90577780  0.30577630  1
  Mo  Mo200  1  0.20062671  -0.00114522  0.20313736  1
  Mo  Mo201  1  0.30374632  0.29438614  0.11040086  1
  Mo  Mo202  1  0.90186736  0.50442590  0.10204157  1
  Mo  Mo203  1  0.79524911  0.19242345  0.81465601  1
  Mo  Mo204  1  0.80613519  0.80196987  0.00150106  1
  Mo  Mo205  1  0.89365571  0.88663001  0.90235863  1
  Mo  Mo206  1  0.60359980  0.59999391  0.00496848  1
  Mo  Mo207  1  0.40248803  0.20054637  0.20202492  1
  Mo  Mo208  1  0.60442771  0.59840645  0.59649228  1
  Mo  Mo209  1  0.70423243  0.10812376  0.69396469  1
  Mo  Mo210  1  0.49927603  0.29894837  0.10145291  1
  Mo  Mo211  1  0.90104676  0.70119688  0.70946702  1
  Mo  Mo212  1  0.70385060  0.10234267  0.91174496  1
  Mo  Mo213  1  0.30170745  0.30035509  0.50364537  1
  Mo  Mo214  1  0.00063452  0.20199676  0.00339327  1
  Mo  Mo215  1  0.81824065  0.40020391  0.19711613  1
  Mo  Mo216  1  0.79266595  0.00910636  0.38126631  1
  Mo  Mo217  1  0.20056924  0.60529248  0.79718612  1
  Mo  Mo218  1  0.49984646  0.10406118  0.30401735  1
  Mo  Mo219  1  0.00137553  0.80561694  -0.00090972  1
  Mo  Mo220  1  0.21127053  0.39885091  0.59600705  1
  Mo  Mo221  1  0.40160722  -0.00142682  0.40581251  1
  Mo  Mo222  1  0.80175593  0.20249157  0.19822132  1
  Mo  Mo223  1  -0.00366886  0.79577075  0.80299091  1
  Mo  Mo224  1  0.70161557  0.30265662  0.90751052  1
  Mo  Mo225  1  0.29219203  0.48790176  0.50000371  1
  Mo  Mo226  1  0.00151567  0.60197371  0.80434347  1
  Mo  Mo227  1  0.59805924  0.58932841  0.20165495  1
  Mo  Mo228  1  0.00119466  0.59833935  0.59446782  1
  Mo  Mo229  1  -0.00690899  0.39541846  0.39725766  1
  Mo  Mo230  1  0.89620323  0.89404286  0.09326890  1
  Mo  Mo231  1  0.69529240  0.10635811  0.49549330  1
  Mo  Mo232  1  0.80629784  0.80041559  0.80061902  1
  Mo  Mo233  1  0.79970074  0.00011093  0.61616843  1
  Mo  Mo234  1  0.08935968  0.89119223  0.90383721  1
  Mo  Mo235  1  0.70187175  0.10664251  0.29596621  1
  Mo  Mo236  1  0.40910242  0.19913179  0.40441124  1
  Mo  Mo237  1  0.79891346  0.79663474  0.60661181  1
  Mo  Mo238  1  0.39566313  0.20760289  0.80769385  1
  Mo  Mo239  1  0.20085838  0.39956831  0.40032074  1
  Mo  Mo240  1  0.70700740  0.70696170  0.69729902  1
  Mo  Mo241  1  0.29632723  0.89574401  0.30159320  1
  Mo  Mo242  1  0.19020657  0.60451747  0.00089678  1
  Mo  Mo243  1  0.19985982  0.20058922  0.20112567  1
  Mo  Mo244  1  0.69646154  0.29745650  0.48832107  1
  Mo  Mo245  1  0.71101004  0.89932171  0.69309659  1
  Mo  Mo246  1  0.70220278  0.90261482  0.90766325  1
  Mo  Mo247  1  0.89915070  0.49790006  0.49043469  1
  Mo  Mo248  1  0.19821582  0.00100387  0.01215999  1
  Mo  Mo249  1  0.58231609  0.39506512  0.19967726  1
