# generated using pymatgen
data_HfZrTaTiMo
_symmetry_space_group_name_H-M   'P 1'
_cell_length_a   16.88765624
_cell_length_b   16.88335769
_cell_length_c   16.88643222
_cell_angle_alpha   90.02282527
_cell_angle_beta   89.98531887
_cell_angle_gamma   90.03887440
_symmetry_Int_Tables_number   1
_chemical_formula_structural   HfZrTaTiMo
_chemical_formula_sum   'Hf50 Zr50 Ta50 Ti50 Mo50'
_cell_volume   4814.66366195
_cell_formula_units_Z   50
loop_
 _symmetry_equiv_pos_site_id
 _symmetry_equiv_pos_as_xyz
  1  'x, y, z'
loop_
 _atom_site_type_symbol
 _atom_site_label
 _atom_site_symmetry_multiplicity
 _atom_site_fract_x
 _atom_site_fract_y
 _atom_site_fract_z
 _atom_site_occupancy
  Hf  Hf0  1  0.20463828  0.60133349  0.79038844  1
  Hf  Hf1  1  0.29601446  0.49723282  0.09807601  1
  Hf  Hf2  1  0.20007466  0.79885045  0.00944739  1
  Hf  Hf3  1  0.19562009  0.80938767  0.78572984  1
  Hf  Hf4  1  0.69988138  0.90132708  0.50263258  1
  Hf  Hf5  1  0.89865194  0.49661696  0.09235126  1
  Hf  Hf6  1  0.30020124  0.09838409  0.29755347  1
  Hf  Hf7  1  0.71003557  0.89713972  0.29229630  1
  Hf  Hf8  1  0.30574460  0.89971085  0.50485389  1
  Hf  Hf9  1  0.80412405  0.39480257  0.60486848  1
  Hf  Hf10  1  0.69661625  0.90928780  0.90463745  1
  Hf  Hf11  1  0.00422158  0.39600629  0.39518619  1
  Hf  Hf12  1  0.00300547  0.38669468  0.20153506  1
  Hf  Hf13  1  0.69557527  0.49504834  0.89431632  1
  Hf  Hf14  1  0.49174709  0.69833418  0.89963842  1
  Hf  Hf15  1  0.20658389  0.39885086  0.80371175  1
  Hf  Hf16  1  0.80231009  0.19425939  0.60550320  1
  Hf  Hf17  1  0.00952257  0.60071859  0.19358115  1
  Hf  Hf18  1  0.50831286  0.50327381  0.29899882  1
  Hf  Hf19  1  0.90350496  0.70043412  0.49872556  1
  Hf  Hf20  1  0.69040202  0.69747771  0.49765929  1
  Hf  Hf21  1  0.70111444  0.90497141  0.69841222  1
  Hf  Hf22  1  0.40008538  -0.00190914  0.20043285  1
  Hf  Hf23  1  0.00594215  0.39423545  -0.00676132  1
  Hf  Hf24  1  0.89686100  0.11226840  0.91126291  1
  Hf  Hf25  1  0.80169821  0.38972139  0.39400744  1
  Hf  Hf26  1  0.39315448  0.60451299  0.59483028  1
  Hf  Hf27  1  0.79211018  0.39366018  0.19632963  1
  Hf  Hf28  1  0.10409048  0.29915899  0.50323205  1
  Hf  Hf29  1  0.49917878  0.09687259  0.50119372  1
  Hf  Hf30  1  0.00497201  0.80814255  0.60209702  1
  Hf  Hf31  1  0.10373294  0.09275256  0.30101272  1
  Hf  Hf32  1  0.09623037  0.70553881  0.90465106  1
  Hf  Hf33  1  0.10554726  0.29360156  0.70083812  1
  Hf  Hf34  1  0.30994197  0.70390565  0.88252673  1
  Hf  Hf35  1  0.20187817  0.19690565  0.19364476  1
  Hf  Hf36  1  0.39699407  0.39575039  0.79932024  1
  Hf  Hf37  1  0.39277692  0.20770362  0.40487409  1
  Hf  Hf38  1  0.00897685  0.80190410  0.19027036  1
  Hf  Hf39  1  0.68980570  0.29670722  0.70579935  1
  Hf  Hf40  1  0.21230336  0.18814357  0.59384140  1
  Hf  Hf41  1  0.59374078  0.39257971  0.00328452  1
  Hf  Hf42  1  0.69309785  0.70197922  0.70158593  1
  Hf  Hf43  1  0.80195462  0.00737132  0.80178922  1
  Hf  Hf44  1  0.00207345  0.19853102  0.19345390  1
  Hf  Hf45  1  0.80376949  0.80619480  0.00007943  1
  Hf  Hf46  1  0.79421936  0.59049034  0.39488667  1
  Hf  Hf47  1  0.40111143  0.78900945  0.40207552  1
  Hf  Hf48  1  0.49769626  0.49901341  0.10362813  1
  Hf  Hf49  1  0.69090199  0.49602110  0.70556064  1
  Zr  Zr50  1  0.59868506  0.20148408  0.40114696  1
  Zr  Zr51  1  0.00272739  0.19979547  0.80338145  1
  Zr  Zr52  1  0.10743674  0.50769921  0.50381582  1
  Zr  Zr53  1  0.49833607  0.10794693  0.29156470  1
  Zr  Zr54  1  0.00106163  0.00112193  0.59482828  1
  Zr  Zr55  1  0.69700219  0.70054517  0.89908260  1
  Zr  Zr56  1  0.57832827  0.80153782  0.59848432  1
  Zr  Zr57  1  0.69160621  0.69320191  0.29700435  1
  Zr  Zr58  1  0.90254215  0.49780623  0.29341624  1
  Zr  Zr59  1  0.39144797  0.80148624  0.01433486  1
  Zr  Zr60  1  0.60506081  -0.00010583  0.19345632  1
  Zr  Zr61  1  0.90246701  0.29190669  0.50466889  1
  Zr  Zr62  1  0.20095234  -0.00323241  0.60739960  1
  Zr  Zr63  1  0.29952706  0.90955130  0.89712103  1
  Zr  Zr64  1  0.00067060  0.59949568  0.40031613  1
  Zr  Zr65  1  0.58807186  0.20145343  -0.00158426  1
  Zr  Zr66  1  0.20486270  0.80005574  0.40147564  1
  Zr  Zr67  1  0.48664251  0.92311484  0.90705389  1
  Zr  Zr68  1  0.89994079  0.70100624  0.09484857  1
  Zr  Zr69  1  0.50283518  0.69331858  0.10724749  1
  Zr  Zr70  1  0.46947793  0.70694020  0.71158679  1
  Zr  Zr71  1  0.09944672  0.90363294  0.90124654  1
  Zr  Zr72  1  -0.00146680  0.60236017  0.79814439  1
  Zr  Zr73  1  0.89276098  0.70901084  0.29140122  1
  Zr  Zr74  1  -0.00318694  -0.00317200  0.00503023  1
  Zr  Zr75  1  0.58536469  0.39613333  0.60200334  1
  Zr  Zr76  1  0.11029509  0.50028049  0.09842153  1
  Zr  Zr77  1  0.21332854  0.40319287  0.60049873  1
  Zr  Zr78  1  0.10826747  0.90483902  0.29583413  1
  Zr  Zr79  1  0.39692988  0.38435272  -0.00757260  1
  Zr  Zr80  1  0.49549642  0.50108124  0.48928808  1
  Zr  Zr81  1  0.89534524  0.28765667  0.07741599  1
  Zr  Zr82  1  0.40132197  0.20503379  0.59899145  1
  Zr  Zr83  1  0.69843497  0.29816537  0.89583049  1
  Zr  Zr84  1  0.59663236  0.01477397  0.79985038  1
  Zr  Zr85  1  0.58807593  0.81132653  0.79920675  1
  Zr  Zr86  1  0.60057375  0.80858857  0.00741472  1
  Zr  Zr87  1  0.38671022  0.60417419  0.21004513  1
  Zr  Zr88  1  0.80439102  0.59771564  0.60413341  1
  Zr  Zr89  1  0.69112114  0.49770354  0.49714643  1
  Zr  Zr90  1  0.21435167  0.19646407  -0.00812803  1
  Zr  Zr91  1  -0.00285159  0.20144821  0.39053840  1
  Zr  Zr92  1  0.80711147  0.60490794  0.80004716  1
  Zr  Zr93  1  0.80535401  0.20076644  0.19848211  1
  Zr  Zr94  1  0.80081322  0.00025381  0.00999032  1
  Zr  Zr95  1  0.10889786  0.50191686  0.90750970  1
  Zr  Zr96  1  0.80951902  0.80149644  0.60251532  1
  Zr  Zr97  1  0.59926254  -0.00572278  0.40006313  1
  Zr  Zr98  1  0.11105907  0.69481471  0.30114533  1
  Zr  Zr99  1  -0.00286439  0.00512173  0.19014768  1
  Ta  Ta100  1  0.11680542  0.49937719  0.30006865  1
  Ta  Ta101  1  0.89588701  0.09254050  0.30177205  1
  Ta  Ta102  1  0.58343298  0.60475522  0.60223891  1
  Ta  Ta103  1  0.20844621  0.39660504  0.20459746  1
  Ta  Ta104  1  0.10140798  0.69864873  0.69134103  1
  Ta  Ta105  1  0.00141011  0.39658776  0.79995993  1
  Ta  Ta106  1  0.49823311  0.10693214  0.70601311  1
  Ta  Ta107  1  0.49787046  0.90635989  0.10207176  1
  Ta  Ta108  1  0.70546972  0.09912817  0.49906391  1
  Ta  Ta109  1  0.79481046  0.59696313  -0.00001816  1
  Ta  Ta110  1  0.59582108  0.00530596  0.60555470  1
  Ta  Ta111  1  0.80247778  0.80551146  0.40207713  1
  Ta  Ta112  1  0.59570035  0.80267077  0.20111027  1
  Ta  Ta113  1  0.90393315  0.09910097  0.70095503  1
  Ta  Ta114  1  0.58737969  0.59747751  0.79808322  1
  Ta  Ta115  1  0.11411149  0.30287309  0.09290729  1
  Ta  Ta116  1  0.20776669  0.20134565  0.40652991  1
  Ta  Ta117  1  0.19929982  0.80228727  0.60281492  1
  Ta  Ta118  1  0.39974226  0.00572205  0.60706215  1
  Ta  Ta119  1  0.00135009  0.00010502  0.80313983  1
  Ta  Ta120  1  0.19897577  0.01324171  0.00326843  1
  Ta  Ta121  1  0.90835477  0.49563172  0.70124352  1
  Ta  Ta122  1  0.30307365  0.29102672  0.70388405  1
  Ta  Ta123  1  0.39448451  0.79858966  0.20692000  1
  Ta  Ta124  1  0.79884844  0.19778501  0.79497674  1
  Ta  Ta125  1  0.10525038  0.69864059  0.50381496  1
  Ta  Ta126  1  0.78986559  0.59219524  0.19519982  1
  Ta  Ta127  1  0.70089860  0.70182618  0.10529903  1
  Ta  Ta128  1  0.70999839  0.09935428  0.30183022  1
  Ta  Ta129  1  -0.00284666  0.81014878  0.40314991  1
  Ta  Ta130  1  0.69880922  0.29198711  0.49850042  1
  Ta  Ta131  1  -0.00441580  0.80410747  0.79553837  1
  Ta  Ta132  1  0.90164761  0.90795096  0.70149252  1
  Ta  Ta133  1  0.10549941  0.09489892  0.70955476  1
  Ta  Ta134  1  0.60165861  0.59705674  -0.00026974  1
  Ta  Ta135  1  0.69791567  0.29227384  0.30003682  1
  Ta  Ta136  1  0.49592611  0.89530808  0.29990741  1
  Ta  Ta137  1  0.59235197  0.79855753  0.39898262  1
  Ta  Ta138  1  0.49917298  0.30397108  0.29487967  1
  Ta  Ta139  1  0.89760668  0.29867941  0.89884546  1
  Ta  Ta140  1  0.81264875  0.80344523  0.80085574  1
  Ta  Ta141  1  0.49619376  0.50191793  0.89889341  1
  Ta  Ta142  1  0.10864174  0.29659242  0.90109424  1
  Ta  Ta143  1  0.81247393  0.39419331  0.79497260  1
  Ta  Ta144  1  0.70379638  0.10370972  0.09855204  1
  Ta  Ta145  1  0.20567648  0.00644108  0.40924709  1
  Ta  Ta146  1  0.80651967  -0.00302998  0.40425306  1
  Ta  Ta147  1  0.21269440  0.39866865  0.39956806  1
  Ta  Ta148  1  0.39483025  0.39841846  0.20660717  1
  Ta  Ta149  1  0.89736991  0.49493426  0.90242112  1
  Ti  Ti150  1  0.49565287  0.09756198  0.09249665  1
  Ti  Ti151  1  0.78994139  0.39651207  0.00090627  1
  Ti  Ti152  1  0.30362130  0.29622672  0.29506283  1
  Ti  Ti153  1  0.09906309  0.90458555  0.49195043  1
  Ti  Ti154  1  0.90002360  0.90443890  0.30073120  1
  Ti  Ti155  1  0.29037797  0.69581284  0.50498197  1
  Ti  Ti156  1  0.30504977  0.50666593  0.69610466  1
  Ti  Ti157  1  0.38834070  0.60236913  0.40030257  1
  Ti  Ti158  1  0.29614826  0.90963751  0.10453202  1
  Ti  Ti159  1  0.30882032  0.10048394  0.10107728  1
  Ti  Ti160  1  0.80241211  0.00528182  0.59775417  1
  Ti  Ti161  1  0.88515861  0.89695179  0.11825337  1
  Ti  Ti162  1  0.11150287  0.90585420  0.10233857  1
  Ti  Ti163  1  0.30038643  0.50343294  0.90660022  1
  Ti  Ti164  1  0.40242499  0.19891013  -0.00856164  1
  Ti  Ti165  1  0.39554650  0.60142657  0.00190825  1
  Ti  Ti166  1  0.20899455  0.18895363  0.80371651  1
  Ti  Ti167  1  0.00145927  0.19294040  0.60514618  1
  Ti  Ti168  1  0.39424642  0.39651510  0.59511309  1
  Ti  Ti169  1  0.11318887  0.29891327  0.30042142  1
  Ti  Ti170  1  0.69475756  0.10626002  0.90539796  1
  Ti  Ti171  1  0.50325761  0.29452602  0.71164892  1
  Ti  Ti172  1  0.49127810  0.90103050  0.50296783  1
  Ti  Ti173  1  0.39053049  0.40030673  0.39736261  1
  Ti  Ti174  1  0.60172806  0.19334865  0.60338292  1
  Ti  Ti175  1  -0.00165993  0.39533008  0.60901073  1
  Ti  Ti176  1  0.31379521  0.08917960  0.89367901  1
  Ti  Ti177  1  0.50036485  0.30559272  0.49267008  1
  Ti  Ti178  1  -0.00172786  0.60273811  0.60534424  1
  Ti  Ti179  1  0.39734047  -0.00096911  0.40002902  1
  Ti  Ti180  1  0.60452775  0.20349820  0.19523143  1
  Ti  Ti181  1  0.00086931  0.60301152  0.00096238  1
  Ti  Ti182  1  0.20827788  0.61704570  0.00915792  1
  Ti  Ti183  1  0.29643179  0.90166076  0.29696167  1
  Ti  Ti184  1  0.01948592  0.18849784  0.00346701  1
  Ti  Ti185  1  0.40196379  0.19807910  0.80689690  1
  Ti  Ti186  1  0.49215949  0.50057148  0.70406240  1
  Ti  Ti187  1  0.09713873  0.09933283  0.49423185  1
  Ti  Ti188  1  0.60755941  0.39661192  0.39191233  1
  Ti  Ti189  1  0.90499976  0.49676372  0.50489215  1
  Ti  Ti190  1  0.09953986  0.50197090  0.69510900  1
  Ti  Ti191  1  0.49059393  0.29345673  0.11394128  1
  Ti  Ti192  1  0.69211850  0.50266975  0.10110420  1
  Ti  Ti193  1  0.60537232  0.39412676  0.19874059  1
  Ti  Ti194  1  0.90151436  0.09674733  0.49297631  1
  Ti  Ti195  1  0.21122494  0.78646280  0.19346255  1
  Ti  Ti196  1  0.30455988  0.29756519  0.10145154  1
  Ti  Ti197  1  0.31029652  0.90301174  0.70280902  1
  Ti  Ti198  1  0.50488532  0.69382975  0.30390639  1
  Ti  Ti199  1  0.90650265  0.70534104  0.90592738  1
  Mo  Mo200  1  0.29745147  0.69758395  0.30225515  1
  Mo  Mo201  1  0.30304878  0.30652303  0.49973623  1
  Mo  Mo202  1  0.29336311  0.70595281  0.69244333  1
  Mo  Mo203  1  0.09552980  0.90329134  0.70300638  1
  Mo  Mo204  1  0.39406117  0.58263760  0.80060674  1
  Mo  Mo205  1  0.79631756  0.80083084  0.20032588  1
  Mo  Mo206  1  0.90008098  0.10066619  0.10040341  1
  Mo  Mo207  1  0.49832162  0.29829300  0.88720422  1
  Mo  Mo208  1  0.20612683  0.00191908  0.19308238  1
  Mo  Mo209  1  0.59682388  0.01078381  0.00698950  1
  Mo  Mo210  1  0.29928427  0.69615394  0.10679348  1
  Mo  Mo211  1  0.89565683  0.29277644  0.30251450  1
  Mo  Mo212  1  0.60340656  0.59825203  0.19579776  1
  Mo  Mo213  1  0.90669842  0.29642845  0.70454973  1
  Mo  Mo214  1  0.90224554  0.89725299  0.89393667  1
  Mo  Mo215  1  0.10504219  0.09900226  0.89806899  1
  Mo  Mo216  1  0.39739884  0.01073645  0.78960312  1
  Mo  Mo217  1  0.30291595  0.50242092  0.49488103  1
  Mo  Mo218  1  0.49535325  0.69725273  0.49366599  1
  Mo  Mo219  1  0.89938830  0.90306506  0.49679853  1
  Mo  Mo220  1  0.59328996  0.60280787  0.39987963  1
  Mo  Mo221  1  0.90969661  0.70310458  0.70011115  1
  Mo  Mo222  1  0.30306594  0.10147952  0.70788557  1
  Mo  Mo223  1  0.20116033  0.60524396  0.60191186  1
  Mo  Mo224  1  0.49085199  0.10707512  0.90103247  1
  Mo  Mo225  1  0.30177260  0.29013611  0.89168235  1
  Mo  Mo226  1  0.39458437  0.00935538  0.01202603  1
  Mo  Mo227  1  0.38863935  0.80344450  0.59741836  1
  Mo  Mo228  1  0.39957319  0.20472361  0.19512778  1
  Mo  Mo229  1  0.59615191  0.19842871  0.79982225  1
  Mo  Mo230  1  0.20087339  0.00830654  0.80111712  1
  Mo  Mo231  1  0.48806261  0.91075035  0.69669183  1
  Mo  Mo232  1  -0.00143960  -0.00215683  0.40130697  1
  Mo  Mo233  1  0.69617060  0.89893316  0.10376000  1
  Mo  Mo234  1  0.30530265  0.09277369  0.49668345  1
  Mo  Mo235  1  0.20240359  0.59563493  0.20398824  1
  Mo  Mo236  1  0.58569682  0.40132531  0.80211632  1
  Mo  Mo237  1  0.20695225  0.38957421  -0.00114499  1
  Mo  Mo238  1  0.79712738  0.19178093  0.40111287  1
  Mo  Mo239  1  0.80202091  0.00333874  0.20316590  1
  Mo  Mo240  1  0.39489232  0.82035735  0.79518642  1
  Mo  Mo241  1  0.10762214  0.10141443  0.09704618  1
  Mo  Mo242  1  0.78685044  0.19930920  -0.00391338  1
  Mo  Mo243  1  0.21166465  0.59472652  0.40379518  1
  Mo  Mo244  1  0.30057541  0.49604912  0.30505678  1
  Mo  Mo245  1  0.69980281  0.10188821  0.69182422  1
  Mo  Mo246  1  0.69268006  0.49078735  0.29273679  1
  Mo  Mo247  1  0.69169717  0.29614174  0.10383957  1
  Mo  Mo248  1  0.10441422  0.70127136  0.09613447  1
  Mo  Mo249  1  -0.00092129  0.80492232  0.00239768  1
