# generated using pymatgen
data_HfZrTaTiMo
_symmetry_space_group_name_H-M   'P 1'
_cell_length_a   16.87804961
_cell_length_b   16.88982006
_cell_length_c   16.88858274
_cell_angle_alpha   89.95605387
_cell_angle_beta   89.97436959
_cell_angle_gamma   89.97785533
_symmetry_Int_Tables_number   1
_chemical_formula_structural   HfZrTaTiMo
_chemical_formula_sum   'Hf50 Zr50 Ta50 Ti50 Mo50'
_cell_volume   4814.37908911
_cell_formula_units_Z   50
loop_
 _symmetry_equiv_pos_site_id
 _symmetry_equiv_pos_as_xyz
  1  'x, y, z'
loop_
 _atom_site_type_symbol
 _atom_site_label
 _atom_site_symmetry_multiplicity
 _atom_site_fract_x
 _atom_site_fract_y
 _atom_site_fract_z
 _atom_site_occupancy
  Hf  Hf0  1  0.79512582  0.21059397  0.00036676  1
  Hf  Hf1  1  0.90290652  0.49628390  0.10679800  1
  Hf  Hf2  1  0.88917423  0.09763374  0.30012090  1
  Hf  Hf3  1  0.09847666  0.49527698  0.90431864  1
  Hf  Hf4  1  0.49260725  0.70327376  0.70371283  1
  Hf  Hf5  1  0.50372925  0.30424767  0.49549345  1
  Hf  Hf6  1  0.00365328  0.00383739  0.00690806  1
  Hf  Hf7  1  0.30776429  0.90076714  0.10615952  1
  Hf  Hf8  1  0.30602390  0.70319902  0.10566059  1
  Hf  Hf9  1  0.59698216  0.59118179  0.80435807  1
  Hf  Hf10  1  0.19206827  0.79859233  0.19965725  1
  Hf  Hf11  1  0.80494113  0.39333094  0.80077307  1
  Hf  Hf12  1  0.80123169  0.00028402  0.59960904  1
  Hf  Hf13  1  0.50013232  0.29528179  0.89839667  1
  Hf  Hf14  1  0.79536791  0.20824072  0.39665389  1
  Hf  Hf15  1  0.90385298  0.50188695  0.90121776  1
  Hf  Hf16  1  0.09473641  0.49744261  0.10513897  1
  Hf  Hf17  1  0.29831278  0.70288278  0.30272626  1
  Hf  Hf18  1  0.80303804  0.59659768  0.39240884  1
  Hf  Hf19  1  0.39874182  0.59622566  0.59165516  1
  Hf  Hf20  1  0.19660233  0.59458182  0.79562012  1
  Hf  Hf21  1  0.00160756  0.19866728  0.19586082  1
  Hf  Hf22  1  0.79087272  0.78754439  0.19940253  1
  Hf  Hf23  1  0.49603712  0.91014909  0.49254508  1
  Hf  Hf24  1  0.29501167  0.10753353  0.69471723  1
  Hf  Hf25  1  0.89296569  0.09623733  0.90249335  1
  Hf  Hf26  1  0.59268262  0.19465880  0.59715391  1
  Hf  Hf27  1  0.30617306  0.09530153  0.10022905  1
  Hf  Hf28  1  0.09537861  0.89199809  0.49065784  1
  Hf  Hf29  1  0.39474111  -0.00123851  0.80779791  1
  Hf  Hf30  1  0.09184592  0.31379029  0.30249224  1
  Hf  Hf31  1  0.30405468  0.29662701  0.30851778  1
  Hf  Hf32  1  0.18797058  0.01962454  0.58614951  1
  Hf  Hf33  1  0.92257577  0.49424617  0.29890069  1
  Hf  Hf34  1  0.49973619  0.30225673  0.30578231  1
  Hf  Hf35  1  0.20228882  0.40153023  0.20176968  1
  Hf  Hf36  1  0.69820064  0.89653097  0.30858074  1
  Hf  Hf37  1  0.20156930  0.80261891  0.79434504  1
  Hf  Hf38  1  0.79539256  -0.00582164  0.19976601  1
  Hf  Hf39  1  0.39925594  0.40357550  0.20146724  1
  Hf  Hf40  1  0.68543481  0.30227639  0.69583513  1
  Hf  Hf41  1  0.09388256  0.88833409  0.90573640  1
  Hf  Hf42  1  0.59532617  0.19748461  0.01213655  1
  Hf  Hf43  1  0.19610016  0.19335692  0.40860136  1
  Hf  Hf44  1  0.70395004  0.49693076  0.50464745  1
  Hf  Hf45  1  0.49446836  0.91246973  0.09894814  1
  Hf  Hf46  1  0.71293328  0.68960706  0.70183307  1
  Hf  Hf47  1  0.09464093  0.89960073  0.69006725  1
  Hf  Hf48  1  0.90078868  0.88918657  0.89957676  1
  Hf  Hf49  1  0.29832258  0.69960517  0.89913847  1
  Zr  Zr50  1  0.30150802  0.90362749  0.49197191  1
  Zr  Zr51  1  0.80449799  0.20531879  0.79896316  1
  Zr  Zr52  1  0.30044728  0.90663781  0.68860000  1
  Zr  Zr53  1  0.49410834  0.71733314  0.10981811  1
  Zr  Zr54  1  0.70153273  0.10628162  0.70235930  1
  Zr  Zr55  1  0.09534196  0.70031753  0.90300309  1
  Zr  Zr56  1  0.89448260  0.88736720  0.49322228  1
  Zr  Zr57  1  0.20117954  0.00481615  0.39313569  1
  Zr  Zr58  1  0.59351842  0.60489651  0.59122026  1
  Zr  Zr59  1  0.60715411  0.80673698  0.79366529  1
  Zr  Zr60  1  0.30100146  0.50277474  0.09625232  1
  Zr  Zr61  1  0.19509280  0.00021018  0.00300928  1
  Zr  Zr62  1  0.89831559  0.89315919  0.30615129  1
  Zr  Zr63  1  0.71207053  0.50233057  0.89904474  1
  Zr  Zr64  1  0.60619350  0.79813193  0.00246332  1
  Zr  Zr65  1  0.59596082  0.78719785  0.39997620  1
  Zr  Zr66  1  0.09236172  0.09906248  0.30102195  1
  Zr  Zr67  1  0.41410406  0.60338096  0.40086867  1
  Zr  Zr68  1  0.60417070  0.39933873  0.20229549  1
  Zr  Zr69  1  0.60331588  0.80354092  0.59942849  1
  Zr  Zr70  1  0.19119661  0.40717871  0.59253134  1
  Zr  Zr71  1  0.19185479  0.00786937  0.80384158  1
  Zr  Zr72  1  0.00892462  0.19224955  0.79969624  1
  Zr  Zr73  1  0.40056964  0.58464397  0.79791008  1
  Zr  Zr74  1  0.89584812  0.10398859  0.10199789  1
  Zr  Zr75  1  0.40609458  0.20609688  0.60779651  1
  Zr  Zr76  1  0.29802919  0.30055259  0.49822886  1
  Zr  Zr77  1  0.90701836  0.50229199  0.69841777  1
  Zr  Zr78  1  0.70522625  0.90215846  0.49260224  1
  Zr  Zr79  1  0.60340176  0.60446272  0.00323354  1
  Zr  Zr80  1  -0.01133012  0.20409885  0.41110077  1
  Zr  Zr81  1  0.70420550  0.89969988  0.89847750  1
  Zr  Zr82  1  0.71361766  0.49978746  0.09958967  1
  Zr  Zr83  1  0.69952763  0.09889336  0.10170015  1
  Zr  Zr84  1  0.80387306  0.79358982  0.01206562  1
  Zr  Zr85  1  0.39840909  0.40446093  0.59821739  1
  Zr  Zr86  1  0.49584148  0.70944981  0.89651407  1
  Zr  Zr87  1  0.59112106  0.01214451  0.20901288  1
  Zr  Zr88  1  0.89945104  0.69218046  0.69135045  1
  Zr  Zr89  1  0.80827856  0.39036218  0.59842855  1
  Zr  Zr90  1  0.29756108  0.29845916  0.90633195  1
  Zr  Zr91  1  0.60872118  0.39103931  0.00588595  1
  Zr  Zr92  1  0.20557450  0.19606095  0.19884981  1
  Zr  Zr93  1  0.09140286  0.69765844  0.49217807  1
  Zr  Zr94  1  0.40440286  0.59515742  -0.00257237  1
  Zr  Zr95  1  0.60604093  0.60696123  0.20605126  1
  Zr  Zr96  1  0.40179735  0.79532648  0.59157123  1
  Zr  Zr97  1  0.10493317  0.29980503  0.90116654  1
  Zr  Zr98  1  0.39798168  0.39568541  0.79119874  1
  Zr  Zr99  1  0.00209497  0.00148869  0.79727819  1
  Ta  Ta100  1  0.40721659  0.19558624  0.20097145  1
  Ta  Ta101  1  0.60085296  0.00044204  0.79759060  1
  Ta  Ta102  1  0.19348536  0.59876074  0.59358662  1
  Ta  Ta103  1  0.70425368  0.50081260  0.69619220  1
  Ta  Ta104  1  0.30187612  0.90010836  0.30034712  1
  Ta  Ta105  1  0.09231125  0.89183672  0.30415869  1
  Ta  Ta106  1  0.10013057  0.29980045  0.69574083  1
  Ta  Ta107  1  0.79759900  -0.00576758  0.79524766  1
  Ta  Ta108  1  -0.00561847  0.00841649  0.59301345  1
  Ta  Ta109  1  0.90346148  0.30144801  0.10369974  1
  Ta  Ta110  1  0.29602927  0.50803338  0.30440584  1
  Ta  Ta111  1  0.90841296  0.50275272  0.49838616  1
  Ta  Ta112  1  0.79647683  -0.00810202  0.00366006  1
  Ta  Ta113  1  0.28886566  0.69971577  0.49135457  1
  Ta  Ta114  1  0.80067079  0.38945090  0.20764471  1
  Ta  Ta115  1  0.40086082  0.19906303  0.00822000  1
  Ta  Ta116  1  0.09565763  0.69455439  0.69100399  1
  Ta  Ta117  1  0.60340898  0.20390049  0.20631090  1
  Ta  Ta118  1  0.09486795  0.70266602  0.30688490  1
  Ta  Ta119  1  0.59847729  0.00439218  0.60083748  1
  Ta  Ta120  1  0.90847325  0.70129071  0.30320183  1
  Ta  Ta121  1  0.29486553  0.69516232  0.69352570  1
  Ta  Ta122  1  0.60154552  0.19589862  0.39518907  1
  Ta  Ta123  1  0.10246574  0.29786407  0.09688594  1
  Ta  Ta124  1  0.90067431  0.10085637  0.69597886  1
  Ta  Ta125  1  -0.00504552  0.60531144  0.00675605  1
  Ta  Ta126  1  0.59566599  0.01439827  0.39870501  1
  Ta  Ta127  1  0.31891087  0.10391577  0.49210274  1
  Ta  Ta128  1  0.00093763  0.19703455  0.59656989  1
  Ta  Ta129  1  0.19682997  0.40127419  0.79237535  1
  Ta  Ta130  1  0.71813439  0.69744878  0.89120246  1
  Ta  Ta131  1  -0.00091272  0.39555077  0.00269442  1
  Ta  Ta132  1  0.19234522  0.60228147  0.20654546  1
  Ta  Ta133  1  0.80717333  0.39457460  0.39846216  1
  Ta  Ta134  1  0.40115270  0.41356657  0.39766003  1
  Ta  Ta135  1  0.29011114  0.50136043  0.69248485  1
  Ta  Ta136  1  0.69320821  0.09613035  0.90110395  1
  Ta  Ta137  1  0.00464289  -0.00537992  0.19898682  1
  Ta  Ta138  1  0.71402796  0.69671115  0.49981190  1
  Ta  Ta139  1  0.50027127  0.09642678  0.90779593  1
  Ta  Ta140  1  -0.00249584  0.79357480  0.79096296  1
  Ta  Ta141  1  0.70173901  0.10273346  0.49681504  1
  Ta  Ta142  1  0.69573632  0.30134069  0.49780852  1
  Ta  Ta143  1  0.49904407  0.90869858  0.69957812  1
  Ta  Ta144  1  0.60202330  0.59966169  0.39470391  1
  Ta  Ta145  1  -0.00822303  0.00458568  0.40713981  1
  Ta  Ta146  1  0.19421997  -0.00207570  0.20081117  1
  Ta  Ta147  1  0.40007356  0.19809313  0.80118586  1
  Ta  Ta148  1  0.30147266  0.10514695  0.90697328  1
  Ta  Ta149  1  0.19779631  0.79318091  0.59588613  1
  Ti  Ti150  1  0.28985263  0.50951651  0.49014128  1
  Ti  Ti151  1  0.08807566  0.50647406  0.48262394  1
  Ti  Ti152  1  0.68970065  0.29193444  0.89106696  1
  Ti  Ti153  1  0.20131609  0.79940510  0.00484195  1
  Ti  Ti154  1  -0.00415880  0.79758123  0.59925325  1
  Ti  Ti155  1  0.19192621  0.60685697  0.00916577  1
  Ti  Ti156  1  0.39998068  0.01029173  0.21532069  1
  Ti  Ti157  1  0.39327210  0.81551296  -0.01386599  1
  Ti  Ti158  1  0.70580899  0.49678737  0.29975278  1
  Ti  Ti159  1  0.80192154  0.60358747  0.20343295  1
  Ti  Ti160  1  0.49162024  0.30209266  0.10122111  1
  Ti  Ti161  1  0.19505246  0.41121744  0.39660203  1
  Ti  Ti162  1  0.29643921  0.49211399  0.90425217  1
  Ti  Ti163  1  0.59782212  0.40046211  0.79817501  1
  Ti  Ti164  1  0.50245389  0.10173415  0.71376556  1
  Ti  Ti165  1  0.90567219  0.30483670  0.29723837  1
  Ti  Ti166  1  0.01078156  0.19472647  0.00260240  1
  Ti  Ti167  1  0.68614917  0.90023182  0.10474056  1
  Ti  Ti168  1  0.49525331  0.89852689  0.29850125  1
  Ti  Ti169  1  0.39241324  0.81167913  0.80079252  1
  Ti  Ti170  1  0.81093467  0.20349790  0.59165133  1
  Ti  Ti171  1  0.40190761  0.79814694  0.39813282  1
  Ti  Ti172  1  0.80934823  0.61370770  0.01072008  1
  Ti  Ti173  1  0.49875663  0.70914708  0.29177152  1
  Ti  Ti174  1  0.60823550  0.40303898  0.39365770  1
  Ti  Ti175  1  0.91704138  0.29978626  0.69965589  1
  Ti  Ti176  1  0.51091657  0.49265836  0.49534361  1
  Ti  Ti177  1  0.40765289  0.59278073  0.20723272  1
  Ti  Ti178  1  0.50341214  0.91059867  0.90382930  1
  Ti  Ti179  1  -0.00619782  0.78142335  0.01788173  1
  Ti  Ti180  1  0.79689092  0.80353855  0.60564774  1
  Ti  Ti181  1  0.49993269  0.49600865  0.09769719  1
  Ti  Ti182  1  0.90189183  0.69228286  0.49874858  1
  Ti  Ti183  1  0.51296227  0.48650605  0.68942039  1
  Ti  Ti184  1  0.49539783  0.48236423  0.91151558  1
  Ti  Ti185  1  0.89767264  0.89711091  0.70174277  1
  Ti  Ti186  1  0.19600554  0.19537555  0.79845668  1
  Ti  Ti187  1  0.00094888  0.39607179  0.59038629  1
  Ti  Ti188  1  0.09753201  0.30244217  0.49966824  1
  Ti  Ti189  1  0.90629812  0.89398101  0.10699181  1
  Ti  Ti190  1  0.28627155  0.29777170  0.69748972  1
  Ti  Ti191  1  0.00817933  0.61292934  0.19766944  1
  Ti  Ti192  1  0.09045576  0.49688080  0.69719545  1
  Ti  Ti193  1  0.41101276  0.01371297  0.59814045  1
  Ti  Ti194  1  0.89578340  0.69831165  0.88977136  1
  Ti  Ti195  1  0.00258487  0.60119714  0.80092376  1
  Ti  Ti196  1  0.09233243  0.89060363  0.10456997  1
  Ti  Ti197  1  0.91290559  0.30114196  0.90189534  1
  Ti  Ti198  1  0.20476887  0.39367267  0.00867606  1
  Ti  Ti199  1  0.80325096  0.38804028  0.00084121  1
  Mo  Mo200  1  0.69949946  0.30291215  0.30458341  1
  Mo  Mo201  1  0.79677983  0.21267422  0.20436312  1
  Mo  Mo202  1  -0.00095385  0.60040815  0.39610644  1
  Mo  Mo203  1  0.59677390  0.80502390  0.20328050  1
  Mo  Mo204  1  0.19189854  0.20320256  0.59760402  1
  Mo  Mo205  1  0.10864555  0.10897792  0.91344634  1
  Mo  Mo206  1  0.30661271  0.09797093  0.30057539  1
  Mo  Mo207  1  0.00448862  0.39533010  0.80071880  1
  Mo  Mo208  1  0.50333616  0.49933748  0.30396413  1
  Mo  Mo209  1  0.69789130  0.10447792  0.30245942  1
  Mo  Mo210  1  0.30342794  0.29638746  0.10090112  1
  Mo  Mo211  1  -0.00060443  0.79988923  0.19938294  1
  Mo  Mo212  1  0.10283162  0.50722930  0.30123872  1
  Mo  Mo213  1  0.40119181  0.00327651  -0.00630341  1
  Mo  Mo214  1  0.19584855  0.59715121  0.39724146  1
  Mo  Mo215  1  0.79914569  0.77945399  0.39740609  1
  Mo  Mo216  1  0.49606668  0.10374815  0.10282745  1
  Mo  Mo217  1  0.29643447  0.89901338  0.90533924  1
  Mo  Mo218  1  0.08744871  0.10159703  0.49732800  1
  Mo  Mo219  1  0.89193094  0.10237915  0.50441670  1
  Mo  Mo220  1  0.90007791  0.30345308  0.50359651  1
  Mo  Mo221  1  0.70058481  0.90633739  0.69742145  1
  Mo  Mo222  1  0.70362242  0.69584397  0.10387238  1
  Mo  Mo223  1  0.00451031  0.59382333  0.59367494  1
  Mo  Mo224  1  0.90407894  0.69238142  0.11251447  1
  Mo  Mo225  1  0.79369837  0.01484665  0.39930028  1
  Mo  Mo226  1  0.50217556  0.09990903  0.49610639  1
  Mo  Mo227  1  0.70353099  0.69524309  0.30237489  1
  Mo  Mo228  1  0.49988509  0.70024257  0.49479244  1
  Mo  Mo229  1  0.59978324  0.00143641  -0.00444084  1
  Mo  Mo230  1  -0.00576547  0.79619422  0.39914246  1
  Mo  Mo231  1  0.50453832  0.29996516  0.70640341  1
  Mo  Mo232  1  0.10273806  0.09902611  0.10420172  1
  Mo  Mo233  1  0.80871597  0.80151060  0.79237278  1
  Mo  Mo234  1  0.49748442  0.10903452  0.30289637  1
  Mo  Mo235  1  0.19944151  0.80017397  0.39535232  1
  Mo  Mo236  1  0.80325048  0.59505372  0.79879280  1
  Mo  Mo237  1  0.20322127  0.19812683  0.00624622  1
  Mo  Mo238  1  0.70938227  0.29606422  0.10953394  1
  Mo  Mo239  1  0.59166760  0.19389934  0.80468204  1
  Mo  Mo240  1  0.80363474  0.59342973  0.59203644  1
  Mo  Mo241  1  0.09734135  0.10846448  0.68933594  1
  Mo  Mo242  1  0.40391902  0.00660763  0.38946078  1
  Mo  Mo243  1  0.00247251  0.39229376  0.19462489  1
  Mo  Mo244  1  0.39937597  0.81199559  0.21206842  1
  Mo  Mo245  1  -0.00037571  0.40056393  0.40710634  1
  Mo  Mo246  1  0.10069369  0.69763367  0.10152724  1
  Mo  Mo247  1  0.39967840  0.39359890  0.00566041  1
  Mo  Mo248  1  0.40534326  0.19643324  0.39794291  1
  Mo  Mo249  1  0.60229585  0.39859728  0.59838378  1
