# generated using pymatgen
data_HfZrTaTiMo
_symmetry_space_group_name_H-M   'P 1'
_cell_length_a   16.88028871
_cell_length_b   16.88195056
_cell_length_c   16.88894190
_cell_angle_alpha   89.97693900
_cell_angle_beta   90.01864872
_cell_angle_gamma   89.98668706
_symmetry_Int_Tables_number   1
_chemical_formula_structural   HfZrTaTiMo
_chemical_formula_sum   'Hf50 Zr50 Ta50 Ti50 Mo50'
_cell_volume   4812.87814256
_cell_formula_units_Z   50
loop_
 _symmetry_equiv_pos_site_id
 _symmetry_equiv_pos_as_xyz
  1  'x, y, z'
loop_
 _atom_site_type_symbol
 _atom_site_label
 _atom_site_symmetry_multiplicity
 _atom_site_fract_x
 _atom_site_fract_y
 _atom_site_fract_z
 _atom_site_occupancy
  Hf  Hf0  1  -0.00168100  0.19751736  0.38248219  1
  Hf  Hf1  1  0.29658160  0.10353908  0.89575454  1
  Hf  Hf2  1  0.60060414  -0.00007716  0.39683593  1
  Hf  Hf3  1  0.40610452  0.00874633  0.20644379  1
  Hf  Hf4  1  0.20156265  0.80617456  0.00132834  1
  Hf  Hf5  1  0.79617677  0.39912490  0.81004067  1
  Hf  Hf6  1  0.61074156  0.20086040  -0.00406238  1
  Hf  Hf7  1  0.39082044  0.40326117  0.20213497  1
  Hf  Hf8  1  0.49877292  0.90587314  0.90341256  1
  Hf  Hf9  1  0.09789591  0.51092276  0.70473411  1
  Hf  Hf10  1  0.50565944  0.30358471  0.10576616  1
  Hf  Hf11  1  0.50782041  0.30046130  0.30524802  1
  Hf  Hf12  1  0.39956192  0.00279304  0.79420889  1
  Hf  Hf13  1  0.00547233  0.40816581  0.39085818  1
  Hf  Hf14  1  0.89523347  0.70050893  0.69060017  1
  Hf  Hf15  1  0.70200228  0.89379691  0.70337085  1
  Hf  Hf16  1  0.59622263  0.79446462  0.19006000  1
  Hf  Hf17  1  0.11225924  0.08785445  0.70345326  1
  Hf  Hf18  1  0.19996090  0.40355101  0.59492017  1
  Hf  Hf19  1  0.39818877  0.40824205  0.00890595  1
  Hf  Hf20  1  0.19878670  0.59930543  0.01885015  1
  Hf  Hf21  1  0.91264672  0.89250408  0.29595750  1
  Hf  Hf22  1  0.50448282  0.09117534  0.08591791  1
  Hf  Hf23  1  0.40061431  0.00775046  0.39495312  1
  Hf  Hf24  1  0.10778481  0.29980807  0.48893966  1
  Hf  Hf25  1  0.40302763  0.60186766  0.00374568  1
  Hf  Hf26  1  0.39157230  0.19357741  0.39398995  1
  Hf  Hf27  1  0.89615581  0.09638647  0.90173863  1
  Hf  Hf28  1  0.58756447  0.78709018  0.80232856  1
  Hf  Hf29  1  0.00335053  0.00195556  0.00098570  1
  Hf  Hf30  1  0.79399156  0.80171868  0.19203081  1
  Hf  Hf31  1  0.60741886  0.39809124  0.00022594  1
  Hf  Hf32  1  0.10178111  0.29787371  0.70054560  1
  Hf  Hf33  1  0.49530952  0.30073809  0.89437989  1
  Hf  Hf34  1  0.89996717  0.09603522  0.70841670  1
  Hf  Hf35  1  0.10557337  0.29549740  0.90867550  1
  Hf  Hf36  1  0.59461750  0.60049423  0.60762599  1
  Hf  Hf37  1  0.89723830  0.30649448  0.49160177  1
  Hf  Hf38  1  0.69733490  0.70315027  0.48842892  1
  Hf  Hf39  1  0.69669270  0.68969297  0.09601158  1
  Hf  Hf40  1  -0.00113933  0.59990987  0.40229942  1
  Hf  Hf41  1  0.39941005  0.19682915  0.60105842  1
  Hf  Hf42  1  0.21189153  0.39232152  0.01343155  1
  Hf  Hf43  1  0.78832858  0.40233127  0.59812950  1
  Hf  Hf44  1  0.00288195  0.40892579  0.59471055  1
  Hf  Hf45  1  0.90577139  0.70597729  0.10038962  1
  Hf  Hf46  1  0.29863450  0.90271829  0.29619280  1
  Hf  Hf47  1  0.08753221  0.71307468  0.29478710  1
  Hf  Hf48  1  0.59641876  0.79654419  0.60541963  1
  Hf  Hf49  1  0.89842541  0.50656053  0.70133586  1
  Zr  Zr50  1  0.49442411  0.30744425  0.49924453  1
  Zr  Zr51  1  0.69971003  0.87606726  0.31617129  1
  Zr  Zr52  1  0.00639498  0.19584106  0.59748105  1
  Zr  Zr53  1  0.80277955  -0.00957100  0.59383824  1
  Zr  Zr54  1  -0.01491268  0.80295635  0.57711307  1
  Zr  Zr55  1  0.28794060  0.69311641  0.89098068  1
  Zr  Zr56  1  0.19847944  0.80487511  0.19792335  1
  Zr  Zr57  1  0.10298908  0.50024719  0.90439455  1
  Zr  Zr58  1  0.39837043  0.79661182  -0.00529818  1
  Zr  Zr59  1  0.39693058  0.59542966  0.19831179  1
  Zr  Zr60  1  0.10639844  0.90588407  0.49564081  1
  Zr  Zr61  1  0.20401317  -0.00461902  0.00214263  1
  Zr  Zr62  1  0.19955905  0.80027701  0.39999475  1
  Zr  Zr63  1  0.00342295  0.00191550  0.39322565  1
  Zr  Zr64  1  0.19718198  0.80476289  0.79486977  1
  Zr  Zr65  1  0.80357517  0.78982527  0.81810156  1
  Zr  Zr66  1  0.90159602  0.89412064  0.70712182  1
  Zr  Zr67  1  0.19360022  0.58928846  0.39240592  1
  Zr  Zr68  1  0.19635029  0.60473864  0.59221206  1
  Zr  Zr69  1  0.79063518  0.20116317  0.59468519  1
  Zr  Zr70  1  0.20704807  0.20484338  0.19264700  1
  Zr  Zr71  1  0.29926829  0.50362669  0.89137533  1
  Zr  Zr72  1  0.90367069  0.09739996  0.50031173  1
  Zr  Zr73  1  0.80415082  0.39687143  0.00682667  1
  Zr  Zr74  1  0.89601716  0.29930552  0.70379457  1
  Zr  Zr75  1  0.60574791  0.18660953  0.20037239  1
  Zr  Zr76  1  0.30926854  0.49358034  0.50170497  1
  Zr  Zr77  1  0.79488353  0.19554831  0.40166892  1
  Zr  Zr78  1  0.20617806  0.39558621  0.79609810  1
  Zr  Zr79  1  0.39269032  0.59527294  0.39174472  1
  Zr  Zr80  1  0.09072511  0.70378903  0.69699470  1
  Zr  Zr81  1  0.69044885  0.90031743  0.90824639  1
  Zr  Zr82  1  -0.00054731  0.59149741  0.20149946  1
  Zr  Zr83  1  0.90937904  0.09924988  0.11162526  1
  Zr  Zr84  1  0.80849653  0.40472319  0.19976119  1
  Zr  Zr85  1  -0.00834823  0.61130879  0.81617912  1
  Zr  Zr86  1  0.50657230  0.69926770  0.29925297  1
  Zr  Zr87  1  0.41161080  0.61231847  0.78975991  1
  Zr  Zr88  1  0.40214086  0.00602667  0.59888178  1
  Zr  Zr89  1  0.79641099  -0.00177914  0.20221916  1
  Zr  Zr90  1  0.60744415  0.20264053  0.59590674  1
  Zr  Zr91  1  0.49536615  0.69694729  0.49533295  1
  Zr  Zr92  1  0.69509986  0.51010964  0.90417191  1
  Zr  Zr93  1  0.70422594  0.29935157  0.30219291  1
  Zr  Zr94  1  0.49712804  0.89279198  0.49644638  1
  Zr  Zr95  1  0.60840856  -0.00772885  0.19597214  1
  Zr  Zr96  1  0.70744959  0.09762822  0.71027689  1
  Zr  Zr97  1  0.38552210  0.20663993  0.01047200  1
  Zr  Zr98  1  0.39651405  0.19733212  0.20726019  1
  Zr  Zr99  1  -0.00042459  0.19945499  0.80692428  1
  Ta  Ta100  1  0.50292466  0.49996241  0.89586820  1
  Ta  Ta101  1  0.80123423  0.59588451  0.20211887  1
  Ta  Ta102  1  0.09089178  0.90398406  0.10855670  1
  Ta  Ta103  1  0.79913061  0.60215548  0.80720010  1
  Ta  Ta104  1  0.20832536  0.19882589  0.59548337  1
  Ta  Ta105  1  0.09822535  0.09745552  0.27647604  1
  Ta  Ta106  1  0.60819692  0.40333307  0.40315080  1
  Ta  Ta107  1  0.20132217  0.19566317  0.39009895  1
  Ta  Ta108  1  0.69930489  0.68995613  0.30298113  1
  Ta  Ta109  1  0.79320089  -0.00287287  0.01150757  1
  Ta  Ta110  1  0.80085150  0.19850100  0.00484199  1
  Ta  Ta111  1  0.90388957  0.49822839  0.90997288  1
  Ta  Ta112  1  0.69872434  0.09460798  0.90357770  1
  Ta  Ta113  1  0.70095851  0.89171513  0.50095699  1
  Ta  Ta114  1  -0.00352588  0.40027447  0.80865889  1
  Ta  Ta115  1  0.50114677  0.49659004  0.49819271  1
  Ta  Ta116  1  0.69580767  0.50734976  0.49724227  1
  Ta  Ta117  1  0.00088691  0.59787832  0.00725828  1
  Ta  Ta118  1  0.00658806  -0.00662503  0.60318836  1
  Ta  Ta119  1  0.10058792  0.30065230  0.29206370  1
  Ta  Ta120  1  0.09407280  0.48705848  0.10251416  1
  Ta  Ta121  1  0.80131170  -0.00100295  0.39850917  1
  Ta  Ta122  1  0.70774106  0.29400732  0.10581070  1
  Ta  Ta123  1  0.19999977  0.80380601  0.60061866  1
  Ta  Ta124  1  0.69721195  0.50531134  0.70467355  1
  Ta  Ta125  1  0.29931023  0.30175319  0.49455795  1
  Ta  Ta126  1  0.49978265  0.10135180  0.89854929  1
  Ta  Ta127  1  0.20226447  0.40494275  0.20658579  1
  Ta  Ta128  1  0.30248388  0.50866306  0.69898519  1
  Ta  Ta129  1  0.89406325  0.70384686  0.30212620  1
  Ta  Ta130  1  0.59279863  0.00667406  0.79547886  1
  Ta  Ta131  1  0.51395942  0.50013578  0.30188728  1
  Ta  Ta132  1  0.59926539  0.19959762  0.80065938  1
  Ta  Ta133  1  0.30364446  0.70421301  0.11034391  1
  Ta  Ta134  1  0.50954955  0.10646597  0.49520693  1
  Ta  Ta135  1  0.09622367  0.29898976  0.10245462  1
  Ta  Ta136  1  0.61251927  0.40684565  0.20292027  1
  Ta  Ta137  1  0.60139082  0.40302900  0.60017783  1
  Ta  Ta138  1  0.39468064  0.80342171  0.79361049  1
  Ta  Ta139  1  0.10856753  0.09981955  0.89947860  1
  Ta  Ta140  1  0.49798702  0.89935994  0.09472603  1
  Ta  Ta141  1  0.89367478  0.50539273  0.50001478  1
  Ta  Ta142  1  0.50100413  0.30448127  0.70104242  1
  Ta  Ta143  1  0.09953175  0.90156530  0.89865049  1
  Ta  Ta144  1  0.51353075  0.50505079  0.10701694  1
  Ta  Ta145  1  0.28987014  0.90871865  0.69556192  1
  Ta  Ta146  1  0.00510377  0.19709996  0.00607417  1
  Ta  Ta147  1  0.79443395  0.60264907  0.59717746  1
  Ta  Ta148  1  0.30169349  0.70598418  0.50224011  1
  Ta  Ta149  1  0.59982252  0.00312314  0.60090267  1
  Ti  Ti150  1  0.59507591  0.60598507  0.79826094  1
  Ti  Ti151  1  0.30279398  0.29524171  0.89627665  1
  Ti  Ti152  1  0.90935997  0.29677264  0.10386338  1
  Ti  Ti153  1  0.79118520  0.20870391  0.81721666  1
  Ti  Ti154  1  0.19904647  0.59282257  0.20239452  1
  Ti  Ti155  1  0.09717718  0.70400007  0.90835463  1
  Ti  Ti156  1  -0.00112747  0.80026867  0.81226767  1
  Ti  Ti157  1  0.40031503  0.40183091  0.79536087  1
  Ti  Ti158  1  0.89585564  0.50213024  0.30158752  1
  Ti  Ti159  1  0.09396430  0.70875252  0.10156356  1
  Ti  Ti160  1  0.79998755  -0.01011016  0.81269484  1
  Ti  Ti161  1  0.09468624  0.70178226  0.49733524  1
  Ti  Ti162  1  0.10886987  0.09787097  0.50030570  1
  Ti  Ti163  1  0.39409542  0.80018111  0.39650895  1
  Ti  Ti164  1  0.29357133  0.09374431  0.10213596  1
  Ti  Ti165  1  0.79656298  0.40617533  0.39676187  1
  Ti  Ti166  1  0.39204071  -0.00296460  -0.00393280  1
  Ti  Ti167  1  0.19865731  0.00755240  0.38632227  1
  Ti  Ti168  1  0.28926414  0.09468478  0.49960733  1
  Ti  Ti169  1  0.69796201  0.69448710  0.90864936  1
  Ti  Ti170  1  0.81054635  0.19808037  0.20636370  1
  Ti  Ti171  1  0.70161923  0.10044069  0.30524141  1
  Ti  Ti172  1  0.49573598  0.88924269  0.29595899  1
  Ti  Ti173  1  0.20853872  0.20246744  0.79351382  1
  Ti  Ti174  1  0.30924850  0.30642932  0.69157670  1
  Ti  Ti175  1  0.82286097  0.79982686  0.41813663  1
  Ti  Ti176  1  0.58502070  0.60693079  -0.00118337  1
  Ti  Ti177  1  0.70535347  0.69821703  0.70121602  1
  Ti  Ti178  1  0.00679791  -0.00835528  0.80164754  1
  Ti  Ti179  1  0.90629242  0.89415921  0.91288721  1
  Ti  Ti180  1  0.69487967  0.30303170  0.70695555  1
  Ti  Ti181  1  0.39173347  0.79609605  0.61065161  1
  Ti  Ti182  1  0.60296244  0.39748611  0.80128112  1
  Ti  Ti183  1  0.90620729  0.30123241  0.91130167  1
  Ti  Ti184  1  0.79870240  0.59673634  0.39683185  1
  Ti  Ti185  1  -0.00396570  0.39861977  0.20251558  1
  Ti  Ti186  1  0.59150065  0.79193662  0.00204601  1
  Ti  Ti187  1  0.79811527  0.80368326  0.00439732  1
  Ti  Ti188  1  0.29724064  0.90291947  0.50289949  1
  Ti  Ti189  1  0.39363858  0.40152141  0.38696601  1
  Ti  Ti190  1  0.40478859  0.19590144  0.78853337  1
  Ti  Ti191  1  0.30032982  0.70429702  0.29436777  1
  Ti  Ti192  1  0.40151549  0.60441213  0.60448614  1
  Ti  Ti193  1  0.81208428  0.59893179  0.00226226  1
  Ti  Ti194  1  0.29196462  0.09551017  0.69698926  1
  Ti  Ti195  1  0.49839856  0.49046157  0.69791601  1
  Ti  Ti196  1  0.90953834  0.89660360  0.10071131  1
  Ti  Ti197  1  0.69916193  0.50705051  0.10224304  1
  Ti  Ti198  1  0.49635962  0.90057582  0.69818427  1
  Ti  Ti199  1  0.30927348  0.90039773  0.10862046  1
  Mo  Mo200  1  0.89273531  0.68868212  0.49550164  1
  Mo  Mo201  1  0.89948384  0.90608373  0.49382677  1
  Mo  Mo202  1  0.29882709  0.30427023  0.10796691  1
  Mo  Mo203  1  0.20152622  0.00085296  0.59737560  1
  Mo  Mo204  1  0.09960401  0.49330929  0.29290648  1
  Mo  Mo205  1  0.00460413  -0.00002298  0.19768158  1
  Mo  Mo206  1  0.10390216  0.10356720  0.09447474  1
  Mo  Mo207  1  0.50157849  0.69829635  0.90001880  1
  Mo  Mo208  1  0.09632872  0.90015403  0.70115889  1
  Mo  Mo209  1  0.29216406  0.50742936  0.10783144  1
  Mo  Mo210  1  0.20000018  0.60515953  0.78914752  1
  Mo  Mo211  1  0.49473558  0.70738946  0.69660362  1
  Mo  Mo212  1  0.90455614  0.50292826  0.09867400  1
  Mo  Mo213  1  -0.00272556  0.80194855  0.19597000  1
  Mo  Mo214  1  0.00066572  0.39502831  0.00553840  1
  Mo  Mo215  1  0.51148903  0.10514643  0.30806278  1
  Mo  Mo216  1  0.79223729  0.79425894  0.59226189  1
  Mo  Mo217  1  0.90291512  0.30176088  0.29439670  1
  Mo  Mo218  1  0.69211382  0.89423344  0.08954764  1
  Mo  Mo219  1  0.20104955  0.00141962  0.19560003  1
  Mo  Mo220  1  0.29998073  0.90480894  0.88841893  1
  Mo  Mo221  1  0.10131673  0.90902179  0.29279485  1
  Mo  Mo222  1  0.20181492  -0.00313448  0.80128429  1
  Mo  Mo223  1  0.59200918  0.79874108  0.39889457  1
  Mo  Mo224  1  0.00259938  0.20629850  0.19805611  1
  Mo  Mo225  1  -0.00789947  0.60047476  0.58559750  1
  Mo  Mo226  1  0.69903922  0.31728984  0.49708595  1
  Mo  Mo227  1  0.70500750  0.50421138  0.30438321  1
  Mo  Mo228  1  0.70062141  0.29403439  0.90051269  1
  Mo  Mo229  1  0.89802468  0.10018637  0.29518443  1
  Mo  Mo230  1  0.49931060  0.69913676  0.09764623  1
  Mo  Mo231  1  0.20129804  0.39427489  0.39466474  1
  Mo  Mo232  1  0.40157993  0.80356671  0.19652455  1
  Mo  Mo233  1  -0.00182413  0.79645829  0.39604968  1
  Mo  Mo234  1  0.89754583  0.69948825  0.91560165  1
  Mo  Mo235  1  0.00601159  0.80306069  -0.00110795  1
  Mo  Mo236  1  0.70983040  0.10091114  0.09669168  1
  Mo  Mo237  1  0.19679742  0.19756505  0.00213494  1
  Mo  Mo238  1  0.09396680  0.50025394  0.49881429  1
  Mo  Mo239  1  0.60025571  0.00336912  -0.00365311  1
  Mo  Mo240  1  0.69515077  0.08368338  0.49599631  1
  Mo  Mo241  1  0.60701468  0.59610569  0.20013327  1
  Mo  Mo242  1  0.29204623  0.49719880  0.30121317  1
  Mo  Mo243  1  0.29976710  0.70552967  0.69004126  1
  Mo  Mo244  1  0.60260789  0.59302328  0.39978585  1
  Mo  Mo245  1  0.40310626  0.40166232  0.60965118  1
  Mo  Mo246  1  0.29247212  0.30438120  0.30748321  1
  Mo  Mo247  1  0.28807785  0.09536563  0.29925057  1
  Mo  Mo248  1  0.50460919  0.10648096  0.70101479  1
  Mo  Mo249  1  0.60210564  0.19735453  0.40221884  1
