# generated using pymatgen
data_HfZrTaTiMo
_symmetry_space_group_name_H-M   'P 1'
_cell_length_a   16.88174664
_cell_length_b   16.88407794
_cell_length_c   16.89644047
_cell_angle_alpha   90.00533935
_cell_angle_beta   89.96278654
_cell_angle_gamma   89.98839107
_symmetry_Int_Tables_number   1
_chemical_formula_structural   HfZrTaTiMo
_chemical_formula_sum   'Hf50 Zr50 Ta50 Ti50 Mo50'
_cell_volume   4816.03735308
_cell_formula_units_Z   50
loop_
 _symmetry_equiv_pos_site_id
 _symmetry_equiv_pos_as_xyz
  1  'x, y, z'
loop_
 _atom_site_type_symbol
 _atom_site_label
 _atom_site_symmetry_multiplicity
 _atom_site_fract_x
 _atom_site_fract_y
 _atom_site_fract_z
 _atom_site_occupancy
  Hf  Hf0  1  0.40699277  -0.00632504  0.00045964  1
  Hf  Hf1  1  0.80098517  -0.00089008  0.19298979  1
  Hf  Hf2  1  0.29370317  0.69752131  0.10333062  1
  Hf  Hf3  1  0.30159525  0.89130689  0.30023483  1
  Hf  Hf4  1  0.60131526  -0.00813332  0.18657046  1
  Hf  Hf5  1  0.40074040  0.79943198  0.00182392  1
  Hf  Hf6  1  0.80071109  0.19400914  0.00159628  1
  Hf  Hf7  1  0.50318792  0.30061545  0.70056624  1
  Hf  Hf8  1  -0.00449612  0.80167569  0.39165088  1
  Hf  Hf9  1  0.20537566  0.80759986  0.80383182  1
  Hf  Hf10  1  0.90867005  0.50074795  0.70635120  1
  Hf  Hf11  1  0.39594352  0.39987612  0.39886908  1
  Hf  Hf12  1  0.00829044  -0.00595660  0.38696054  1
  Hf  Hf13  1  0.90643351  0.09879075  0.70167104  1
  Hf  Hf14  1  0.29407041  0.30251895  0.29721415  1
  Hf  Hf15  1  0.20833698  -0.00747555  -0.00452642  1
  Hf  Hf16  1  0.00246112  0.59819677  0.59574777  1
  Hf  Hf17  1  0.09162507  0.70190183  0.70599057  1
  Hf  Hf18  1  0.49780247  0.10292969  0.29755972  1
  Hf  Hf19  1  0.90174154  0.10131743  0.29791066  1
  Hf  Hf20  1  0.30460704  0.11324596  0.09610814  1
  Hf  Hf21  1  0.30905920  0.70045277  0.70542838  1
  Hf  Hf22  1  0.69770520  0.50098989  0.09875513  1
  Hf  Hf23  1  0.80387912  0.20118941  0.18973910  1
  Hf  Hf24  1  0.79384952  0.39840870  0.59978871  1
  Hf  Hf25  1  0.41198098  0.40384199  0.80709293  1
  Hf  Hf26  1  0.90990587  0.50037039  0.89890061  1
  Hf  Hf27  1  0.19593684  0.22280396  -0.01383370  1
  Hf  Hf28  1  0.90704226  0.30096753  0.70272000  1
  Hf  Hf29  1  0.39810275  0.00053197  0.19484963  1
  Hf  Hf30  1  0.49320096  0.89133249  0.29875870  1
  Hf  Hf31  1  0.10263790  0.30485018  0.70942449  1
  Hf  Hf32  1  0.80138668  0.61239889  0.80876761  1
  Hf  Hf33  1  0.59269378  0.60282300  0.60101760  1
  Hf  Hf34  1  0.58446242  -0.00740877  0.60078015  1
  Hf  Hf35  1  0.49510101  0.49808720  0.09569557  1
  Hf  Hf36  1  0.11079461  0.09192405  0.49125917  1
  Hf  Hf37  1  0.89662830  0.50073321  0.29826291  1
  Hf  Hf38  1  0.09545308  0.70298476  0.89848535  1
  Hf  Hf39  1  0.79741809  0.79814686  0.39239962  1
  Hf  Hf40  1  0.79514865  0.19560904  0.80055442  1
  Hf  Hf41  1  0.90478957  0.09616168  0.89993840  1
  Hf  Hf42  1  0.30433516  0.09847911  0.71087732  1
  Hf  Hf43  1  0.00507252  -0.00291208  0.59891350  1
  Hf  Hf44  1  0.59450871  -0.00097906  0.80435677  1
  Hf  Hf45  1  0.50415296  0.10975049  0.09143492  1
  Hf  Hf46  1  0.00396817  0.59794063  0.19718005  1
  Hf  Hf47  1  0.59487633  0.61072849  0.20400764  1
  Hf  Hf48  1  0.90145680  0.29705379  0.49116932  1
  Hf  Hf49  1  0.10705914  0.50092450  0.09612286  1
  Zr  Zr50  1  0.60004919  -0.00670981  0.39875580  1
  Zr  Zr51  1  0.69806519  0.89031416  0.69877496  1
  Zr  Zr52  1  0.89923257  0.50165767  0.09721216  1
  Zr  Zr53  1  0.79594591  0.39417427  0.80206401  1
  Zr  Zr54  1  0.70874858  0.88563363  0.09035513  1
  Zr  Zr55  1  0.59607366  0.60626540  0.79752596  1
  Zr  Zr56  1  0.68912740  0.30192993  0.89981993  1
  Zr  Zr57  1  0.20022686  0.79719473  0.39967447  1
  Zr  Zr58  1  0.30615979  0.29658650  0.70420552  1
  Zr  Zr59  1  0.30067336  0.31258934  0.09394050  1
  Zr  Zr60  1  0.00748030  0.19911712  0.59245404  1
  Zr  Zr61  1  0.01226438  0.40413144  0.39024394  1
  Zr  Zr62  1  0.19692060  0.00407214  0.21336940  1
  Zr  Zr63  1  0.30436803  0.49641108  0.91546474  1
  Zr  Zr64  1  0.00057206  0.20621935  0.19299007  1
  Zr  Zr65  1  0.69743920  0.50108585  0.71063699  1
  Zr  Zr66  1  0.01432042  0.40025044  0.59142812  1
  Zr  Zr67  1  0.20555349  0.80249064  0.60491101  1
  Zr  Zr68  1  0.69964898  0.09346853  0.69371508  1
  Zr  Zr69  1  0.20665830  0.59380963  0.39179301  1
  Zr  Zr70  1  0.00451233  -0.00367732  0.19786976  1
  Zr  Zr71  1  0.89342478  0.71323207  0.09592594  1
  Zr  Zr72  1  0.59613071  0.78441882  0.39631627  1
  Zr  Zr73  1  0.69823104  0.10111262  0.29729567  1
  Zr  Zr74  1  0.60712517  0.79029667  0.19838718  1
  Zr  Zr75  1  0.89566810  0.50255814  0.49529123  1
  Zr  Zr76  1  0.39046792  0.00837942  0.39874295  1
  Zr  Zr77  1  0.20303935  -0.01150795  0.61114448  1
  Zr  Zr78  1  0.59871659  0.19575528  0.80331879  1
  Zr  Zr79  1  0.10258026  0.69387435  0.29259766  1
  Zr  Zr80  1  0.49778377  0.50087941  0.30554316  1
  Zr  Zr81  1  0.89818010  0.89399746  0.69506385  1
  Zr  Zr82  1  0.20304689  0.20781608  0.59773551  1
  Zr  Zr83  1  0.48465617  0.10330654  0.69285936  1
  Zr  Zr84  1  0.09826148  0.09864589  0.89824038  1
  Zr  Zr85  1  0.59378573  0.39196287  0.20700105  1
  Zr  Zr86  1  0.69298206  0.29813661  0.09543729  1
  Zr  Zr87  1  0.70319825  0.89146606  0.50947201  1
  Zr  Zr88  1  0.69818196  0.29821523  0.49650879  1
  Zr  Zr89  1  0.10415048  0.10180664  0.09237676  1
  Zr  Zr90  1  0.29773824  0.50229789  0.70631584  1
  Zr  Zr91  1  0.69916512  0.09897016  0.49775967  1
  Zr  Zr92  1  0.19657692  0.38994216  0.82869530  1
  Zr  Zr93  1  0.90101620  0.89288302  0.08917096  1
  Zr  Zr94  1  0.48288819  0.88292759  0.50124278  1
  Zr  Zr95  1  0.59897462  0.40620259  0.60532013  1
  Zr  Zr96  1  0.90076302  0.70475870  0.69555350  1
  Zr  Zr97  1  0.78638923  0.61521001  0.20140624  1
  Zr  Zr98  1  0.30613014  0.10280846  0.50927023  1
  Zr  Zr99  1  0.19962760  0.59862582  0.59971150  1
  Ta  Ta100  1  0.60238801  0.59749629  0.40681770  1
  Ta  Ta101  1  -0.00585280  0.21043010  0.00749426  1
  Ta  Ta102  1  0.79825796  -0.00575562  0.80968458  1
  Ta  Ta103  1  0.79407768  0.00443538  -0.00383027  1
  Ta  Ta104  1  0.20225804  0.80248068  -0.00299298  1
  Ta  Ta105  1  0.79707082  0.60765597  -0.00507409  1
  Ta  Ta106  1  0.39712824  0.20647291  0.39882487  1
  Ta  Ta107  1  0.80227399  0.39992526  0.00130751  1
  Ta  Ta108  1  0.40329096  0.60576454  0.00209652  1
  Ta  Ta109  1  0.00283624  0.39467518  0.19550700  1
  Ta  Ta110  1  0.70049591  0.49786978  0.30459251  1
  Ta  Ta111  1  0.10262457  0.09858725  0.71149451  1
  Ta  Ta112  1  0.19444011  0.80230487  0.19667258  1
  Ta  Ta113  1  0.49447685  0.30032644  0.50205530  1
  Ta  Ta114  1  0.59755966  0.20351433  0.20020491  1
  Ta  Ta115  1  0.10015404  0.89577787  0.49689346  1
  Ta  Ta116  1  0.79915688  0.80118361  0.81072154  1
  Ta  Ta117  1  0.49407797  0.50274582  0.50361171  1
  Ta  Ta118  1  0.59511912  0.40098060  -0.00252427  1
  Ta  Ta119  1  0.09152293  0.89801575  0.90484999  1
  Ta  Ta120  1  0.49683250  0.70276649  0.89787859  1
  Ta  Ta121  1  0.80331732  0.39382281  0.20041600  1
  Ta  Ta122  1  0.69502389  0.50184310  0.90725491  1
  Ta  Ta123  1  0.10721539  0.30122632  0.29647219  1
  Ta  Ta124  1  0.30572517  0.69895001  0.29438554  1
  Ta  Ta125  1  0.00100050  0.60729843  -0.00337078  1
  Ta  Ta126  1  0.31688587  0.69964088  0.50345371  1
  Ta  Ta127  1  0.29982848  0.89350188  0.10418736  1
  Ta  Ta128  1  0.20493565  0.40342907  0.58845046  1
  Ta  Ta129  1  0.00777635  0.19839698  0.39172724  1
  Ta  Ta130  1  0.19781386  0.60386296  -0.00299943  1
  Ta  Ta131  1  0.39651228  0.40304976  0.59825740  1
  Ta  Ta132  1  0.39672283  0.40264032  0.20329118  1
  Ta  Ta133  1  0.80519386  -0.00993471  0.39258089  1
  Ta  Ta134  1  0.30864425  0.50668318  0.49985444  1
  Ta  Ta135  1  0.59145334  0.20940125  0.39467133  1
  Ta  Ta136  1  0.69321695  0.89837400  0.90247017  1
  Ta  Ta137  1  0.09757970  0.49858971  0.71765463  1
  Ta  Ta138  1  0.89873182  0.09659920  0.49322479  1
  Ta  Ta139  1  0.29808147  0.50318779  0.10279298  1
  Ta  Ta140  1  0.09480300  0.70299282  0.49995677  1
  Ta  Ta141  1  0.90135371  0.89701452  0.50077598  1
  Ta  Ta142  1  0.20234264  -0.00691680  0.80304478  1
  Ta  Ta143  1  0.80174468  0.19891648  0.39624514  1
  Ta  Ta144  1  0.59868424  0.40097469  0.40398531  1
  Ta  Ta145  1  0.80042830  0.20076933  0.59946536  1
  Ta  Ta146  1  0.59002462  0.79908644  0.00376991  1
  Ta  Ta147  1  0.39847828  0.59954408  0.20082274  1
  Ta  Ta148  1  0.79340033  0.60467781  0.40195364  1
  Ta  Ta149  1  0.70168508  0.69885398  0.50787437  1
  Ti  Ti150  1  0.31316479  0.90032680  0.89058827  1
  Ti  Ti151  1  0.79242779  0.40158094  0.39785640  1
  Ti  Ti152  1  0.40350998  0.20973126  0.20596137  1
  Ti  Ti153  1  0.70547112  0.70856892  0.69292665  1
  Ti  Ti154  1  0.40204609  0.20173799  0.81605100  1
  Ti  Ti155  1  0.89948230  0.30175351  0.30091066  1
  Ti  Ti156  1  0.59662929  0.79581958  0.79984895  1
  Ti  Ti157  1  0.79486042  0.59831551  0.59563632  1
  Ti  Ti158  1  0.49831500  0.29768462  0.91352986  1
  Ti  Ti159  1  0.50766485  0.50427743  0.90386747  1
  Ti  Ti160  1  0.69311231  0.70747940  0.90789631  1
  Ti  Ti161  1  -0.01464613  0.80338083  0.81660487  1
  Ti  Ti162  1  0.30762642  0.10083056  0.90055725  1
  Ti  Ti163  1  0.30401025  0.69750056  0.89706993  1
  Ti  Ti164  1  0.30128903  0.89291105  0.49590560  1
  Ti  Ti165  1  0.90553402  0.30506095  0.90170821  1
  Ti  Ti166  1  0.09922337  0.70648753  0.09541238  1
  Ti  Ti167  1  0.00487227  0.20569236  0.80823181  1
  Ti  Ti168  1  0.89827285  0.70545002  0.50438589  1
  Ti  Ti169  1  0.59767363  0.60934995  0.00394195  1
  Ti  Ti170  1  0.00344482  0.80752602  0.20409046  1
  Ti  Ti171  1  0.00976195  0.39475092  0.00135982  1
  Ti  Ti172  1  0.48239974  0.88899186  0.71264630  1
  Ti  Ti173  1  0.49530787  0.10938362  0.50371113  1
  Ti  Ti174  1  0.58668916  0.79097156  0.60218335  1
  Ti  Ti175  1  0.10530829  0.50591950  0.49296037  1
  Ti  Ti176  1  0.60244268  0.20276342  0.59856314  1
  Ti  Ti177  1  0.50259294  0.89587965  0.89804113  1
  Ti  Ti178  1  0.49400554  0.29783438  0.09195580  1
  Ti  Ti179  1  0.50242843  0.10110429  0.90808090  1
  Ti  Ti180  1  -0.00006041  -0.00901578  0.80305658  1
  Ti  Ti181  1  0.48724553  0.70371177  0.69950834  1
  Ti  Ti182  1  0.19505870  0.59604300  0.81069924  1
  Ti  Ti183  1  0.20683702  0.18928693  0.38949978  1
  Ti  Ti184  1  0.20243878  0.20161431  0.81051143  1
  Ti  Ti185  1  -0.00505828  -0.00164018  0.00159956  1
  Ti  Ti186  1  0.09067026  0.89262986  0.70558233  1
  Ti  Ti187  1  0.19694683  0.41266410  0.20697741  1
  Ti  Ti188  1  0.41177811  0.78931572  0.19215974  1
  Ti  Ti189  1  0.70112692  0.30001239  0.30137264  1
  Ti  Ti190  1  0.19532181  0.20136284  0.19904625  1
  Ti  Ti191  1  -0.00091709  0.60245605  0.39639647  1
  Ti  Ti192  1  0.40595526  0.60738708  0.39672739  1
  Ti  Ti193  1  0.20523608  0.40903785  0.39665662  1
  Ti  Ti194  1  0.40796444  0.59705315  0.80325803  1
  Ti  Ti195  1  0.89742031  0.70145038  0.29408255  1
  Ti  Ti196  1  0.10128224  0.89286175  0.09285121  1
  Ti  Ti197  1  0.80519909  0.00097897  0.59618051  1
  Ti  Ti198  1  0.39201866  -0.01729332  0.60888980  1
  Ti  Ti199  1  0.11481548  0.29819544  0.48413721  1
  Mo  Mo200  1  0.89794887  0.90245360  0.90093679  1
  Mo  Mo201  1  0.40404300  0.79774634  0.80661190  1
  Mo  Mo202  1  0.20392588  0.60228756  0.19402629  1
  Mo  Mo203  1  0.79969037  0.79792792  -0.02214835  1
  Mo  Mo204  1  0.90354355  0.70160071  0.90253290  1
  Mo  Mo205  1  0.69816078  0.69988064  0.08225018  1
  Mo  Mo206  1  0.40472315  0.59747194  0.60243104  1
  Mo  Mo207  1  0.69129602  0.09982012  0.09276807  1
  Mo  Mo208  1  0.20080032  -0.00367148  0.40057680  1
  Mo  Mo209  1  0.69704044  0.29225570  0.69567814  1
  Mo  Mo210  1  0.40220345  -0.00099872  0.80957335  1
  Mo  Mo211  1  0.00251711  0.59929951  0.80312715  1
  Mo  Mo212  1  0.08292141  0.30222941  0.90339011  1
  Mo  Mo213  1  0.39855194  0.79654374  0.60591031  1
  Mo  Mo214  1  0.89911369  0.89685727  0.29497226  1
  Mo  Mo215  1  0.29779383  0.30901576  0.49308977  1
  Mo  Mo216  1  0.49522796  0.29826572  0.30300904  1
  Mo  Mo217  1  0.09805362  0.50514550  0.90738331  1
  Mo  Mo218  1  0.30139768  0.11346317  0.29420825  1
  Mo  Mo219  1  0.30053866  0.50376926  0.29650468  1
  Mo  Mo220  1  0.49302700  0.50174269  0.70031127  1
  Mo  Mo221  1  0.10094741  0.49602536  0.29445031  1
  Mo  Mo222  1  0.59197172  0.40426521  0.81113544  1
  Mo  Mo223  1  0.49329074  0.69581045  0.30188641  1
  Mo  Mo224  1  0.40149542  0.21294055  0.59137803  1
  Mo  Mo225  1  0.31143286  0.90165654  0.71365567  1
  Mo  Mo226  1  0.10367420  0.89401393  0.29841826  1
  Mo  Mo227  1  0.00267258  0.39933735  0.80884126  1
  Mo  Mo228  1  0.49731479  0.69196028  0.50428872  1
  Mo  Mo229  1  0.39639732  0.78607768  0.39830139  1
  Mo  Mo230  1  0.49643294  0.89491465  0.09778846  1
  Mo  Mo231  1  0.40115237  0.20367217  -0.00791884  1
  Mo  Mo232  1  0.90085348  0.09659503  0.09163402  1
  Mo  Mo233  1  0.69747647  0.50466685  0.49363791  1
  Mo  Mo234  1  0.90055467  0.30867024  0.09478982  1
  Mo  Mo235  1  0.59713995  0.19863612  0.00169393  1
  Mo  Mo236  1  0.19755515  0.40500731  0.00625918  1
  Mo  Mo237  1  0.00259641  0.80150669  0.58799843  1
  Mo  Mo238  1  0.80461936  0.79191937  0.59409697  1
  Mo  Mo239  1  0.49583030  0.69589777  0.09540571  1
  Mo  Mo240  1  0.00634363  0.80046091  -0.00062960  1
  Mo  Mo241  1  0.60082721  -0.00335218  -0.00463041  1
  Mo  Mo242  1  0.69816137  0.69415324  0.31248384  1
  Mo  Mo243  1  0.32068294  0.29876790  0.90429887  1
  Mo  Mo244  1  0.70514568  0.89656990  0.29411386  1
  Mo  Mo245  1  0.69538087  0.08973572  0.90616599  1
  Mo  Mo246  1  0.79870219  0.80460059  0.21740726  1
  Mo  Mo247  1  0.40853311  0.40407385  0.00379148  1
  Mo  Mo248  1  0.10697186  0.11027601  0.30167431  1
  Mo  Mo249  1  0.10270994  0.30964351  0.10314125  1
