# generated using pymatgen
data_HfZrTaTiMo
_symmetry_space_group_name_H-M   'P 1'
_cell_length_a   16.87672000
_cell_length_b   16.88490200
_cell_length_c   16.87777241
_cell_angle_alpha   90.01982760
_cell_angle_beta   89.96792584
_cell_angle_gamma   90.00366369
_symmetry_Int_Tables_number   1
_chemical_formula_structural   HfZrTaTiMo
_chemical_formula_sum   'Hf50 Zr50 Ta50 Ti50 Mo50'
_cell_volume   4809.51873589
_cell_formula_units_Z   50
loop_
 _symmetry_equiv_pos_site_id
 _symmetry_equiv_pos_as_xyz
  1  'x, y, z'
loop_
 _atom_site_type_symbol
 _atom_site_label
 _atom_site_symmetry_multiplicity
 _atom_site_fract_x
 _atom_site_fract_y
 _atom_site_fract_z
 _atom_site_occupancy
  Hf  Hf0  1  0.19968214  0.80262698  0.39493248  1
  Hf  Hf1  1  0.69369811  0.49335753  0.31071652  1
  Hf  Hf2  1  0.59921393  0.20154315  0.00070168  1
  Hf  Hf3  1  0.20265296  0.40825786  0.40001410  1
  Hf  Hf4  1  0.80436688  0.00173615  -0.00090100  1
  Hf  Hf5  1  0.09857807  0.10102392  0.29665164  1
  Hf  Hf6  1  0.58888681  0.59818543  0.21140053  1
  Hf  Hf7  1  0.60477298  0.19261288  0.78835057  1
  Hf  Hf8  1  0.09369495  0.50504135  0.49625664  1
  Hf  Hf9  1  0.91330361  0.89266878  0.89219111  1
  Hf  Hf10  1  0.49749664  0.30170326  0.90082207  1
  Hf  Hf11  1  0.10311214  0.30352669  0.50355280  1
  Hf  Hf12  1  0.40687557  0.40324528  0.40138318  1
  Hf  Hf13  1  0.89744746  0.49653170  0.10247321  1
  Hf  Hf14  1  0.49938848  0.09550188  0.10911108  1
  Hf  Hf15  1  0.49555415  0.70014909  0.10086066  1
  Hf  Hf16  1  0.19311906  0.20040165  0.80325662  1
  Hf  Hf17  1  0.09897120  0.69598286  0.29260548  1
  Hf  Hf18  1  0.70252328  0.89113106  0.70374443  1
  Hf  Hf19  1  0.40006833  0.20039283  0.79432705  1
  Hf  Hf20  1  0.69412554  0.29907446  0.30841042  1
  Hf  Hf21  1  0.59554323  0.79114956  0.39574627  1
  Hf  Hf22  1  0.80236392  0.39060751  0.20850169  1
  Hf  Hf23  1  -0.00542099  0.20442680  0.59771578  1
  Hf  Hf24  1  0.29502382  0.29285951  0.51084771  1
  Hf  Hf25  1  0.81034475  0.79218465  0.00486188  1
  Hf  Hf26  1  0.69404156  0.88769644  0.89720392  1
  Hf  Hf27  1  0.19068238  0.39673699  0.00029122  1
  Hf  Hf28  1  0.40893616  0.61264184  0.38795143  1
  Hf  Hf29  1  0.40332816  0.40479673  0.00627297  1
  Hf  Hf30  1  0.29617580  0.30259761  0.29877919  1
  Hf  Hf31  1  0.90651770  0.09722891  0.49484420  1
  Hf  Hf32  1  0.59637354  0.39460799  0.59455435  1
  Hf  Hf33  1  0.90989863  0.29937863  0.10038722  1
  Hf  Hf34  1  0.80421393  0.19768423  0.79492683  1
  Hf  Hf35  1  0.19658675  0.20320070  0.00434537  1
  Hf  Hf36  1  0.39934915  0.40509908  0.60078443  1
  Hf  Hf37  1  0.20171211  -0.00690642  0.39834935  1
  Hf  Hf38  1  0.20627303  -0.00968693  0.78516230  1
  Hf  Hf39  1  0.90044139  0.90082144  0.30159457  1
  Hf  Hf40  1  0.60578930  0.00411957  0.60673695  1
  Hf  Hf41  1  0.09528374  0.89642867  0.89794408  1
  Hf  Hf42  1  0.70084474  0.70675906  0.89643717  1
  Hf  Hf43  1  0.90079141  0.50101667  0.49870647  1
  Hf  Hf44  1  0.80069191  0.00782214  0.20196300  1
  Hf  Hf45  1  0.09777611  0.70830389  0.88851196  1
  Hf  Hf46  1  0.80266642  0.40113861  0.79211374  1
  Hf  Hf47  1  0.39631194  0.80263191  -0.00924154  1
  Hf  Hf48  1  0.91111377  0.09260670  0.70340839  1
  Hf  Hf49  1  -0.00125521  0.60272729  -0.00321968  1
  Zr  Zr50  1  0.40746416  0.41064003  0.20122627  1
  Zr  Zr51  1  0.49868795  0.89964608  0.49890847  1
  Zr  Zr52  1  0.69161472  0.09972520  0.11118538  1
  Zr  Zr53  1  0.49948942  0.09584869  0.50069604  1
  Zr  Zr54  1  0.29394584  0.88582069  0.11029732  1
  Zr  Zr55  1  0.69578285  0.70086158  0.10491084  1
  Zr  Zr56  1  0.80257507  0.00238974  0.80160378  1
  Zr  Zr57  1  0.80975753  0.18643041  0.00456991  1
  Zr  Zr58  1  0.60430678  0.59775008  0.79374643  1
  Zr  Zr59  1  0.18916704  0.41484982  0.80095346  1
  Zr  Zr60  1  0.79413706  0.00488295  0.39829461  1
  Zr  Zr61  1  0.29291101  0.29337604  0.69439567  1
  Zr  Zr62  1  0.19340969  0.60166700  -0.00815091  1
  Zr  Zr63  1  0.49342068  0.09373396  0.89579558  1
  Zr  Zr64  1  0.29917662  0.70530279  0.28770255  1
  Zr  Zr65  1  0.50462611  0.70622155  0.89647547  1
  Zr  Zr66  1  0.70223461  0.49701103  0.49625262  1
  Zr  Zr67  1  0.39175593  -0.00228589  0.20402802  1
  Zr  Zr68  1  0.30290189  0.69470460  0.09615612  1
  Zr  Zr69  1  0.00127847  0.79613927  0.20308299  1
  Zr  Zr70  1  0.79896042  0.61590796  0.39664865  1
  Zr  Zr71  1  0.29681263  0.69655820  0.68563340  1
  Zr  Zr72  1  0.90787626  0.30409208  0.90408734  1
  Zr  Zr73  1  0.09458815  0.89635689  0.09538720  1
  Zr  Zr74  1  0.70554149  0.30542468  0.90553998  1
  Zr  Zr75  1  0.60034370  0.58896956  -0.00001352  1
  Zr  Zr76  1  0.39801483  0.40591979  0.79137633  1
  Zr  Zr77  1  0.09026783  0.09949236  0.11188628  1
  Zr  Zr78  1  0.90716011  0.50467511  0.29943977  1
  Zr  Zr79  1  0.59591848  -0.00300427  -0.00372886  1
  Zr  Zr80  1  0.39281827  0.80434672  0.79277832  1
  Zr  Zr81  1  0.09891703  0.29923458  0.69866438  1
  Zr  Zr82  1  0.39587463  0.20129479  0.19995522  1
  Zr  Zr83  1  0.90016500  0.70808638  0.70857219  1
  Zr  Zr84  1  0.08836085  0.49951855  0.10337379  1
  Zr  Zr85  1  0.51020995  0.50770855  0.49508172  1
  Zr  Zr86  1  0.19523373  0.19709658  0.40088609  1
  Zr  Zr87  1  0.20675891  0.00416131  0.00711510  1
  Zr  Zr88  1  0.69052118  0.89069681  0.10800768  1
  Zr  Zr89  1  0.30357865  0.09592050  0.89330281  1
  Zr  Zr90  1  0.80605562  0.20312133  0.40168950  1
  Zr  Zr91  1  0.08885050  0.09086909  0.89163915  1
  Zr  Zr92  1  0.79756233  0.59089364  0.80180752  1
  Zr  Zr93  1  0.00797072  0.58723844  0.79618358  1
  Zr  Zr94  1  0.89733307  0.89663420  0.50038481  1
  Zr  Zr95  1  0.90361038  0.89908625  0.10269840  1
  Zr  Zr96  1  0.30722638  0.52272926  0.50769034  1
  Zr  Zr97  1  0.30205546  0.51123577  0.89960367  1
  Zr  Zr98  1  0.60462885  0.40918041  0.80047270  1
  Zr  Zr99  1  0.40363826  0.20109876  0.40115152  1
  Ta  Ta100  1  0.80042390  0.79969205  0.59943775  1
  Ta  Ta101  1  0.69977678  0.89571053  0.50125010  1
  Ta  Ta102  1  0.59587132  0.40375965  0.19861809  1
  Ta  Ta103  1  0.49650968  0.51298152  0.69318934  1
  Ta  Ta104  1  0.30012474  0.30138588  0.90240598  1
  Ta  Ta105  1  0.69905655  0.70588481  0.50580302  1
  Ta  Ta106  1  0.90053603  0.48926548  0.91080423  1
  Ta  Ta107  1  0.10091067  0.89567267  0.50212911  1
  Ta  Ta108  1  0.70067639  0.29586760  0.69013270  1
  Ta  Ta109  1  0.29785543  0.51014748  0.29419340  1
  Ta  Ta110  1  -0.00348544  0.40253057  0.60542935  1
  Ta  Ta111  1  0.19464396  0.59778548  0.19410197  1
  Ta  Ta112  1  0.50085574  0.90420458  0.30142274  1
  Ta  Ta113  1  0.80285877  0.20026915  0.60131081  1
  Ta  Ta114  1  0.50473719  0.30051191  0.10119510  1
  Ta  Ta115  1  0.00281966  0.79574564  0.59605021  1
  Ta  Ta116  1  0.90391242  0.68896553  0.11074090  1
  Ta  Ta117  1  0.39481715  -0.00728081  0.60490741  1
  Ta  Ta118  1  0.39145290  0.19784860  0.00867352  1
  Ta  Ta119  1  0.69259732  0.89695036  0.29838853  1
  Ta  Ta120  1  0.30151396  0.09373100  0.50440642  1
  Ta  Ta121  1  0.80662282  0.19943219  0.20613321  1
  Ta  Ta122  1  0.19757481  0.40230733  0.19890186  1
  Ta  Ta123  1  0.69777807  0.10569728  0.50652639  1
  Ta  Ta124  1  0.00961206  0.38741486  0.20959662  1
  Ta  Ta125  1  0.60094037  0.40583368  0.00724331  1
  Ta  Ta126  1  0.39748407  0.60854876  0.79306492  1
  Ta  Ta127  1  0.19901866  0.41925104  0.60657117  1
  Ta  Ta128  1  0.30291776  0.89905943  0.49967013  1
  Ta  Ta129  1  0.60381473  0.61054943  0.60265863  1
  Ta  Ta130  1  -0.00072477  0.61353526  0.40096550  1
  Ta  Ta131  1  0.91423109  0.10128315  0.29378395  1
  Ta  Ta132  1  0.50494975  0.09357758  0.30466580  1
  Ta  Ta133  1  0.00513395  -0.00739952  0.59825842  1
  Ta  Ta134  1  0.59974665  0.00039598  0.79331318  1
  Ta  Ta135  1  0.79945639  0.00140833  0.60202557  1
  Ta  Ta136  1  0.50338850  0.89351914  0.10456077  1
  Ta  Ta137  1  0.20110915  0.60773641  0.40062554  1
  Ta  Ta138  1  0.29973121  0.09819730  0.68910966  1
  Ta  Ta139  1  0.00226563  0.79784539  0.40094237  1
  Ta  Ta140  1  0.79816970  0.60515208  0.60205850  1
  Ta  Ta141  1  0.39587696  -0.00191433  0.00796102  1
  Ta  Ta142  1  0.29800442  0.09646346  0.30039007  1
  Ta  Ta143  1  0.80915922  0.38827624  0.59832495  1
  Ta  Ta144  1  0.01024724  -0.00646308  0.39805291  1
  Ta  Ta145  1  0.70482157  0.49723003  0.10633885  1
  Ta  Ta146  1  0.09784318  0.89039813  0.69677597  1
  Ta  Ta147  1  0.10007890  0.50383155  0.30103732  1
  Ta  Ta148  1  -0.00121085  0.60432057  0.59879726  1
  Ta  Ta149  1  0.49962599  0.89738115  0.70164400  1
  Ti  Ti150  1  0.90358215  0.70444677  0.89462426  1
  Ti  Ti151  1  0.69699824  0.29587050  0.50159788  1
  Ti  Ti152  1  0.20048643  0.79329758  -0.00397239  1
  Ti  Ti153  1  0.30582556  0.50980035  0.10122158  1
  Ti  Ti154  1  0.90557305  0.89596684  0.70209217  1
  Ti  Ti155  1  0.80017951  0.59730014  -0.00156356  1
  Ti  Ti156  1  0.39711008  0.80143921  0.39807130  1
  Ti  Ti157  1  0.30056669  0.90412908  0.89713801  1
  Ti  Ti158  1  0.20162426  0.80065675  0.59300549  1
  Ti  Ti159  1  0.49950204  0.90281190  0.89292748  1
  Ti  Ti160  1  0.89796465  0.70368263  0.50300190  1
  Ti  Ti161  1  0.10110956  0.09651465  0.50395922  1
  Ti  Ti162  1  0.10020861  0.09501043  0.69408489  1
  Ti  Ti163  1  -0.00135779  0.20303541  0.80204052  1
  Ti  Ti164  1  0.70139469  0.49622350  0.68447573  1
  Ti  Ti165  1  0.41029765  0.19800157  0.59909889  1
  Ti  Ti166  1  0.10285499  0.70131112  0.50155385  1
  Ti  Ti167  1  0.20786502  0.79948425  0.79548698  1
  Ti  Ti168  1  0.49604410  0.70071595  0.50816774  1
  Ti  Ti169  1  0.59817632  0.61247210  0.39626472  1
  Ti  Ti170  1  0.60396641  -0.00182699  0.40167363  1
  Ti  Ti171  1  0.69809868  0.09712379  0.89655626  1
  Ti  Ti172  1  0.49272103  0.50665481  0.89928602  1
  Ti  Ti173  1  0.50700062  0.30337179  0.30263242  1
  Ti  Ti174  1  0.39816327  0.79923364  0.59695472  1
  Ti  Ti175  1  0.79624332  0.60603921  0.21009033  1
  Ti  Ti176  1  0.70096154  0.70930066  0.70383429  1
  Ti  Ti177  1  0.00750129  0.20214060  -0.00041413  1
  Ti  Ti178  1  0.81275566  0.38584710  0.40565383  1
  Ti  Ti179  1  0.79580401  0.79611361  0.39641493  1
  Ti  Ti180  1  0.10206067  0.70227933  0.69910818  1
  Ti  Ti181  1  0.40740753  0.80146700  0.20990643  1
  Ti  Ti182  1  0.79786986  0.78854296  0.21294288  1
  Ti  Ti183  1  0.90064260  0.50022630  0.69362399  1
  Ti  Ti184  1  0.49373105  0.09293709  0.69918997  1
  Ti  Ti185  1  0.19387277  0.20973454  0.19622583  1
  Ti  Ti186  1  -0.01463248  0.01524242  0.00232292  1
  Ti  Ti187  1  0.19955583  -0.00624100  0.59754072  1
  Ti  Ti188  1  0.59346008  0.20471785  0.41056653  1
  Ti  Ti189  1  0.59734739  0.79577279  0.60384439  1
  Ti  Ti190  1  0.68932087  0.10318349  0.30355240  1
  Ti  Ti191  1  -0.00096030  0.39189657  0.39655489  1
  Ti  Ti192  1  0.70028652  0.30221731  0.10362620  1
  Ti  Ti193  1  0.19003472  0.59994999  0.60249046  1
  Ti  Ti194  1  0.59824514  0.20470927  0.20415970  1
  Ti  Ti195  1  0.19814990  -0.01251060  0.20931031  1
  Ti  Ti196  1  0.29979004  0.30311620  0.10089801  1
  Ti  Ti197  1  0.50486267  0.29759245  0.69464591  1
  Ti  Ti198  1  0.00099950  0.21115974  0.39413984  1
  Ti  Ti199  1  0.00206428  0.40096341  0.79832901  1
  Mo  Mo200  1  0.29961477  0.70855457  0.49872113  1
  Mo  Mo201  1  0.41266668  0.61128783  0.60012508  1
  Mo  Mo202  1  0.29432146  0.89711876  0.68579431  1
  Mo  Mo203  1  0.58891618  0.80343491  -0.00157999  1
  Mo  Mo204  1  0.09967794  0.89832746  0.30123658  1
  Mo  Mo205  1  0.30455551  0.89953866  0.30461264  1
  Mo  Mo206  1  0.40076087  0.59901258  -0.00653994  1
  Mo  Mo207  1  0.00660967  -0.00675647  0.78684419  1
  Mo  Mo208  1  0.39449815  -0.00285718  0.39984036  1
  Mo  Mo209  1  0.19162268  0.17951391  0.59871841  1
  Mo  Mo210  1  0.29504381  0.10408906  0.10891101  1
  Mo  Mo211  1  0.50216430  0.49996704  0.09893121  1
  Mo  Mo212  1  0.69941764  0.70484233  0.30224591  1
  Mo  Mo213  1  0.10305260  0.30429257  0.30152976  1
  Mo  Mo214  1  0.19333173  0.79696874  0.19767817  1
  Mo  Mo215  1  0.20148777  0.60483906  0.78991243  1
  Mo  Mo216  1  0.39798577  0.59578906  0.19634937  1
  Mo  Mo217  1  0.70585383  0.09943027  0.69495909  1
  Mo  Mo218  1  0.50136044  0.29590542  0.50342149  1
  Mo  Mo219  1  0.40057046  -0.00499268  0.78938365  1
  Mo  Mo220  1  0.29771243  0.51427425  0.69896484  1
  Mo  Mo221  1  0.49725076  0.70787019  0.29702927  1
  Mo  Mo222  1  -0.00080364  0.78291976  0.00334459  1
  Mo  Mo223  1  0.59663348  -0.00260822  0.21279121  1
  Mo  Mo224  1  -0.00063157  -0.00062244  0.20609553  1
  Mo  Mo225  1  0.09102956  0.49501583  0.89826768  1
  Mo  Mo226  1  0.60261470  0.20002201  0.59987010  1
  Mo  Mo227  1  0.09470888  0.30105847  0.90183849  1
  Mo  Mo228  1  0.00074513  0.20577385  0.20629936  1
  Mo  Mo229  1  0.89905122  0.70438229  0.30099680  1
  Mo  Mo230  1  0.00359987  0.39800680  -0.00063866  1
  Mo  Mo231  1  0.90900582  0.10110393  0.89831865  1
  Mo  Mo232  1  0.00492119  0.79882159  0.79042565  1
  Mo  Mo233  1  0.09481301  0.50346269  0.69213728  1
  Mo  Mo234  1  0.29464446  0.70410947  0.89081728  1
  Mo  Mo235  1  0.59529654  0.80332240  0.79367166  1
  Mo  Mo236  1  0.71424940  0.49695677  0.91706614  1
  Mo  Mo237  1  0.90022545  0.30090251  0.69964041  1
  Mo  Mo238  1  0.90633089  0.30323673  0.49911886  1
  Mo  Mo239  1  0.90410394  0.10605080  0.10490421  1
  Mo  Mo240  1  0.59206040  0.79977581  0.20725763  1
  Mo  Mo241  1  0.50203292  0.50128894  0.30155233  1
  Mo  Mo242  1  0.80511919  0.79927102  0.79811970  1
  Mo  Mo243  1  0.10023277  0.29883927  0.10421791  1
  Mo  Mo244  1  0.90647566  0.29466938  0.30269395  1
  Mo  Mo245  1  -0.00103135  0.59666705  0.20352135  1
  Mo  Mo246  1  0.79603997  0.40168182  0.01031710  1
  Mo  Mo247  1  0.59510274  0.38657351  0.39973229  1
  Mo  Mo248  1  0.50076917  0.70465331  0.69335921  1
  Mo  Mo249  1  0.09929353  0.70195536  0.09686004  1
