# generated using pymatgen
data_HfZrTaTiMo
_symmetry_space_group_name_H-M   'P 1'
_cell_length_a   16.89560647
_cell_length_b   16.88603646
_cell_length_c   16.89013334
_cell_angle_alpha   89.91255458
_cell_angle_beta   90.03169789
_cell_angle_gamma   89.95824720
_symmetry_Int_Tables_number   1
_chemical_formula_structural   HfZrTaTiMo
_chemical_formula_sum   'Hf50 Zr50 Ta50 Ti50 Mo50'
_cell_volume   4818.74448607
_cell_formula_units_Z   50
loop_
 _symmetry_equiv_pos_site_id
 _symmetry_equiv_pos_as_xyz
  1  'x, y, z'
loop_
 _atom_site_type_symbol
 _atom_site_label
 _atom_site_symmetry_multiplicity
 _atom_site_fract_x
 _atom_site_fract_y
 _atom_site_fract_z
 _atom_site_occupancy
  Hf  Hf0  1  -0.00375517  0.20649841  -0.01216465  1
  Hf  Hf1  1  0.09379329  0.10221856  0.10070390  1
  Hf  Hf2  1  0.21014048  0.79934475  0.39031367  1
  Hf  Hf3  1  0.20240296  0.59623650  0.19184569  1
  Hf  Hf4  1  0.30366045  0.71095059  0.89933811  1
  Hf  Hf5  1  0.59799299  0.00101236  0.19863113  1
  Hf  Hf6  1  0.20848922  0.19120267  0.40330346  1
  Hf  Hf7  1  0.59761825  0.60708614  0.61191477  1
  Hf  Hf8  1  0.10444885  0.09677167  0.89811473  1
  Hf  Hf9  1  0.10147323  0.49825609  0.30783829  1
  Hf  Hf10  1  0.50400350  0.70396355  0.09755808  1
  Hf  Hf11  1  0.40905869  0.40017662  0.00298383  1
  Hf  Hf12  1  -0.00293324  -0.00054609  0.60107728  1
  Hf  Hf13  1  0.89850226  0.49075401  0.90455913  1
  Hf  Hf14  1  0.00448238  0.38767014  0.79949677  1
  Hf  Hf15  1  0.20470727  0.60270331  0.79822601  1
  Hf  Hf16  1  -0.00189794  0.80101990  -0.00303638  1
  Hf  Hf17  1  0.70294274  0.70904001  0.29731343  1
  Hf  Hf18  1  0.61077392  0.19564292  0.39384460  1
  Hf  Hf19  1  0.32711861  0.89742728  0.49370226  1
  Hf  Hf20  1  0.48698585  0.29226529  0.29767612  1
  Hf  Hf21  1  0.41411773  0.82073532  -0.00058638  1
  Hf  Hf22  1  -0.00469163  -0.00386329  0.79692484  1
  Hf  Hf23  1  0.20970792  0.79616850  0.60565517  1
  Hf  Hf24  1  0.30309711  0.70871225  0.09533294  1
  Hf  Hf25  1  0.79646483  0.19607811  0.39116868  1
  Hf  Hf26  1  0.31002303  0.70209618  0.49720480  1
  Hf  Hf27  1  0.79732405  0.00907692  0.39339877  1
  Hf  Hf28  1  0.59918111  0.20110390  0.19294648  1
  Hf  Hf29  1  -0.00104192  0.59725173  0.80015205  1
  Hf  Hf30  1  0.79815620  0.59387170  0.18947652  1
  Hf  Hf31  1  0.30120630  0.49035667  0.90377301  1
  Hf  Hf32  1  0.79321947  -0.00070055  0.60789504  1
  Hf  Hf33  1  0.69461797  0.09875072  0.08762066  1
  Hf  Hf34  1  0.49154435  0.09731700  0.49285524  1
  Hf  Hf35  1  0.09961168  0.90182562  0.49888560  1
  Hf  Hf36  1  0.69466687  0.90617764  0.88979093  1
  Hf  Hf37  1  0.69699862  0.49465534  0.50281065  1
  Hf  Hf38  1  0.40176385  0.40509728  0.60177582  1
  Hf  Hf39  1  0.11153800  0.10299000  0.70265197  1
  Hf  Hf40  1  0.21165422  0.01138934  0.58818367  1
  Hf  Hf41  1  0.88451988  0.09736863  0.89078597  1
  Hf  Hf42  1  0.41268660  0.59636541  0.79960521  1
  Hf  Hf43  1  0.10117489  0.69505870  0.50148545  1
  Hf  Hf44  1  0.88446222  0.11026845  0.70158152  1
  Hf  Hf45  1  0.50211411  0.28206203  0.90911962  1
  Hf  Hf46  1  0.89402831  0.71153470  0.50499686  1
  Hf  Hf47  1  0.78930439  0.20268589  -0.01116860  1
  Hf  Hf48  1  0.29742011  0.50072976  0.30188754  1
  Hf  Hf49  1  0.69936069  0.49525250  0.70721968  1
  Zr  Zr50  1  0.00276944  0.20440311  0.61004930  1
  Zr  Zr51  1  0.21103789  0.59547000  0.60226392  1
  Zr  Zr52  1  0.10307633  0.50008183  0.50009040  1
  Zr  Zr53  1  0.00463444  0.80381184  0.39727845  1
  Zr  Zr54  1  0.49792048  0.29806956  0.70830445  1
  Zr  Zr55  1  0.09911586  0.29736589  0.29655762  1
  Zr  Zr56  1  0.38705837  0.19469253  0.59969821  1
  Zr  Zr57  1  -0.00744107  0.40575890  0.19734373  1
  Zr  Zr58  1  0.89869064  0.30728969  0.08848774  1
  Zr  Zr59  1  0.89575530  0.70541609  0.29529231  1
  Zr  Zr60  1  0.50581154  0.29018468  0.50287527  1
  Zr  Zr61  1  0.79490779  0.60066360  0.40359488  1
  Zr  Zr62  1  -0.00115958  0.39490830  0.61351944  1
  Zr  Zr63  1  0.59164201  0.40493517  0.80945938  1
  Zr  Zr64  1  0.30139874  0.30391133  0.10063099  1
  Zr  Zr65  1  0.70834327  0.88617084  0.50242804  1
  Zr  Zr66  1  0.89176792  0.90209252  0.89666464  1
  Zr  Zr67  1  0.89534530  0.28921123  0.50234500  1
  Zr  Zr68  1  0.10672205  0.68822331  0.30370188  1
  Zr  Zr69  1  0.60284072  0.39850801  0.00313291  1
  Zr  Zr70  1  0.79727941  0.60506335  0.61113618  1
  Zr  Zr71  1  0.60569296  0.59329933  -0.00541954  1
  Zr  Zr72  1  0.49624690  0.71891464  0.50704506  1
  Zr  Zr73  1  0.60517880  0.00314685  0.39988779  1
  Zr  Zr74  1  0.30569302  0.90067969  0.70370026  1
  Zr  Zr75  1  0.20320605  0.19121183  0.20156324  1
  Zr  Zr76  1  0.10934176  0.89893846  0.70740950  1
  Zr  Zr77  1  0.89529298  0.89705932  0.10173963  1
  Zr  Zr78  1  0.20358564  0.00434348  0.39290025  1
  Zr  Zr79  1  0.59468333  0.80525418  0.39853524  1
  Zr  Zr80  1  0.58483817  -0.01285887  0.00041144  1
  Zr  Zr81  1  0.50655477  0.10169537  0.70855947  1
  Zr  Zr82  1  0.60478632  0.39299729  0.39813739  1
  Zr  Zr83  1  0.20101756  0.59304374  0.00675782  1
  Zr  Zr84  1  0.79154836  0.79457069  0.79376340  1
  Zr  Zr85  1  0.79648128  0.40516264  0.19333846  1
  Zr  Zr86  1  0.59962947  -0.00774972  0.60478909  1
  Zr  Zr87  1  0.40085325  0.60269684  0.20180715  1
  Zr  Zr88  1  0.89788963  0.49554159  0.50618246  1
  Zr  Zr89  1  0.59754276  0.40151393  0.19516393  1
  Zr  Zr90  1  0.30459714  0.48684389  0.70872063  1
  Zr  Zr91  1  0.20588256  0.19868397  -0.00097565  1
  Zr  Zr92  1  0.00312039  0.21142610  0.79922507  1
  Zr  Zr93  1  0.39997018  0.40545979  0.40420857  1
  Zr  Zr94  1  0.20325436  0.80788908  0.19982500  1
  Zr  Zr95  1  -0.00371474  0.59641725  0.18797708  1
  Zr  Zr96  1  0.10504822  0.70641213  0.90012608  1
  Zr  Zr97  1  0.89280700  0.89507264  0.29789760  1
  Zr  Zr98  1  0.50471372  0.50826527  0.50327690  1
  Zr  Zr99  1  0.10188604  0.29559144  0.49765875  1
  Ta  Ta100  1  0.59465305  0.80719283  0.19527682  1
  Ta  Ta101  1  0.20690276  0.39889253  0.40597382  1
  Ta  Ta102  1  0.39380452  0.19559511  0.80767346  1
  Ta  Ta103  1  0.69662670  0.50252164  0.30173503  1
  Ta  Ta104  1  0.50097395  0.50440178  0.10243860  1
  Ta  Ta105  1  -0.00444265  0.59773458  0.00249205  1
  Ta  Ta106  1  0.10522223  0.49610600  0.70423524  1
  Ta  Ta107  1  -0.00751292  0.39509914  0.39816631  1
  Ta  Ta108  1  0.79055362  0.38244394  0.60925572  1
  Ta  Ta109  1  0.40067352  0.60443240  0.39845942  1
  Ta  Ta110  1  0.09774387  0.90748769  0.10092305  1
  Ta  Ta111  1  -0.00137013  0.80055344  0.60812828  1
  Ta  Ta112  1  0.09808754  0.30624984  0.09255087  1
  Ta  Ta113  1  0.29957390  0.90240858  0.90049752  1
  Ta  Ta114  1  0.10009419  0.49021602  0.90372299  1
  Ta  Ta115  1  -0.00026428  0.00041659  -0.00062088  1
  Ta  Ta116  1  0.70488809  0.89701170  0.29096506  1
  Ta  Ta117  1  0.19723392  0.38909997  0.80487476  1
  Ta  Ta118  1  0.40643769  0.80279450  0.79865362  1
  Ta  Ta119  1  0.49261505  0.90776550  0.30361282  1
  Ta  Ta120  1  0.40135259  0.80636454  0.20270434  1
  Ta  Ta121  1  0.79564051  0.60132280  0.80529906  1
  Ta  Ta122  1  0.40452632  0.59657660  -0.00119602  1
  Ta  Ta123  1  0.20211283  -0.00077582  0.00493266  1
  Ta  Ta124  1  0.30142065  0.30122016  0.29861771  1
  Ta  Ta125  1  0.79960330  0.59951879  0.00064090  1
  Ta  Ta126  1  0.60234486  0.60079270  0.20075833  1
  Ta  Ta127  1  0.69813073  0.70376896  0.09985379  1
  Ta  Ta128  1  0.30815041  0.09361033  0.90654206  1
  Ta  Ta129  1  0.40284761  0.60504879  0.61228278  1
  Ta  Ta130  1  0.20275838  0.00372070  0.19853638  1
  Ta  Ta131  1  -0.00632517  0.00765877  0.39596029  1
  Ta  Ta132  1  0.49198328  0.10029509  0.29578432  1
  Ta  Ta133  1  -0.00069716  0.79941509  0.79751764  1
  Ta  Ta134  1  0.30194825  0.09648982  0.71087647  1
  Ta  Ta135  1  0.79901998  0.00960299  0.19850665  1
  Ta  Ta136  1  0.60191154  0.80328949  -0.00199114  1
  Ta  Ta137  1  -0.00407430  0.00513643  0.20096858  1
  Ta  Ta138  1  0.10145697  0.70165817  0.70278596  1
  Ta  Ta139  1  0.48904963  0.10562859  0.08898893  1
  Ta  Ta140  1  -0.00005877  0.60089461  0.61097091  1
  Ta  Ta141  1  0.49972845  0.09757753  0.90262934  1
  Ta  Ta142  1  0.90109696  0.70114829  0.70324302  1
  Ta  Ta143  1  0.79616617  0.39157796  0.39985744  1
  Ta  Ta144  1  0.50586831  0.70612001  0.89799489  1
  Ta  Ta145  1  0.89686888  0.89959026  0.50160997  1
  Ta  Ta146  1  0.79956768  0.19495026  0.19786875  1
  Ta  Ta147  1  0.89920966  0.10170158  0.49877079  1
  Ta  Ta148  1  0.40786854  -0.00493519  0.80596835  1
  Ta  Ta149  1  0.79228591  0.79225364  -0.00368664  1
  Ti  Ti150  1  0.89442109  0.70542734  0.09706742  1
  Ti  Ti151  1  0.89808748  0.69697975  0.89890157  1
  Ti  Ti152  1  0.20805163  0.19828415  0.59690163  1
  Ti  Ti153  1  0.70591838  0.10840662  0.51268555  1
  Ti  Ti154  1  0.60039364  0.39432023  0.60676695  1
  Ti  Ti155  1  0.09579406  0.48538293  0.08610908  1
  Ti  Ti156  1  0.89714454  0.09967281  0.09408211  1
  Ti  Ti157  1  0.20148973  0.40467812  0.19270250  1
  Ti  Ti158  1  0.20584729  0.20502997  0.80416455  1
  Ti  Ti159  1  0.31127353  0.90694100  0.29879463  1
  Ti  Ti160  1  0.87877033  0.30966613  0.89278527  1
  Ti  Ti161  1  0.30109777  0.29783854  0.70735725  1
  Ti  Ti162  1  0.30257511  0.90950997  0.09744632  1
  Ti  Ti163  1  0.31686079  0.09928470  0.30249951  1
  Ti  Ti164  1  0.61871428  0.20303341  0.61223992  1
  Ti  Ti165  1  0.90076827  0.29540019  0.29984403  1
  Ti  Ti166  1  0.77703760  0.21076405  0.79161225  1
  Ti  Ti167  1  0.19846410  0.81268591  0.00195282  1
  Ti  Ti168  1  0.89331570  0.49344461  0.70837208  1
  Ti  Ti169  1  0.70386733  0.30152903  0.29192502  1
  Ti  Ti170  1  -0.01119551  0.19643314  0.19979316  1
  Ti  Ti171  1  0.59853859  0.59938476  0.80178789  1
  Ti  Ti172  1  0.70047352  0.70898233  0.50899465  1
  Ti  Ti173  1  0.20678818  0.39438043  0.59856007  1
  Ti  Ti174  1  -0.00810292  0.59648463  0.40463132  1
  Ti  Ti175  1  0.30486000  0.29686619  0.49328505  1
  Ti  Ti176  1  0.69977533  0.29828134  0.09054694  1
  Ti  Ti177  1  0.09994795  0.70659380  0.09632699  1
  Ti  Ti178  1  0.59811808  0.60719599  0.39837065  1
  Ti  Ti179  1  0.08792132  0.10262277  0.30048221  1
  Ti  Ti180  1  0.39914375  0.00200680  0.19008855  1
  Ti  Ti181  1  0.40808699  -0.00413645  0.60464550  1
  Ti  Ti182  1  0.69345814  0.70095608  0.89665093  1
  Ti  Ti183  1  0.89446888  0.49749859  0.30722314  1
  Ti  Ti184  1  0.68731549  0.09794275  0.88757689  1
  Ti  Ti185  1  0.08870425  0.10461218  0.49442191  1
  Ti  Ti186  1  0.71149406  0.49080409  0.90063939  1
  Ti  Ti187  1  0.09666974  0.90907094  0.29340865  1
  Ti  Ti188  1  0.79681570  -0.00163073  -0.00112554  1
  Ti  Ti189  1  0.50503266  0.50426348  0.29983539  1
  Ti  Ti190  1  0.30519877  0.30012987  0.90152391  1
  Ti  Ti191  1  0.49814944  0.70518346  0.29940744  1
  Ti  Ti192  1  0.50729587  0.71216511  0.70555162  1
  Ti  Ti193  1  0.89029280  0.89454536  0.69771190  1
  Ti  Ti194  1  0.40162736  0.40516747  0.19477985  1
  Ti  Ti195  1  0.39677531  0.19778620  0.18991221  1
  Ti  Ti196  1  0.00525154  0.80202434  0.19614562  1
  Ti  Ti197  1  0.10501745  0.90070641  0.89990360  1
  Ti  Ti198  1  0.20815699  -0.00148150  0.80722154  1
  Ti  Ti199  1  0.70346799  0.89570707  0.10072775  1
  Mo  Mo200  1  0.69971840  0.09967999  0.28481556  1
  Mo  Mo201  1  0.39820076  0.19691279  0.00054974  1
  Mo  Mo202  1  0.49586062  0.29503809  0.10334386  1
  Mo  Mo203  1  0.59441144  -0.00358986  0.79965996  1
  Mo  Mo204  1  0.30822957  0.09687828  0.50068839  1
  Mo  Mo205  1  0.49633760  0.90319199  0.11258217  1
  Mo  Mo206  1  0.89873086  0.50360836  0.08496559  1
  Mo  Mo207  1  0.49706153  0.90232440  0.50284814  1
  Mo  Mo208  1  0.12903449  0.30051850  0.69707814  1
  Mo  Mo209  1  0.40168348  0.79849321  0.37993496  1
  Mo  Mo210  1  0.69562402  0.69881471  0.70772937  1
  Mo  Mo211  1  0.50214931  0.89946098  0.88910359  1
  Mo  Mo212  1  0.59941819  0.19536492  0.00032414  1
  Mo  Mo213  1  0.69952249  0.50737400  0.09855448  1
  Mo  Mo214  1  0.79210591  0.40017656  -0.00348978  1
  Mo  Mo215  1  0.79773435  0.80406119  0.40144679  1
  Mo  Mo216  1  0.40833316  0.79988180  0.61686813  1
  Mo  Mo217  1  0.60484632  0.80098810  0.61434439  1
  Mo  Mo218  1  0.30301913  0.50485725  0.49957516  1
  Mo  Mo219  1  0.11266847  0.30018633  0.90430012  1
  Mo  Mo220  1  0.30405062  0.09092608  0.10139506  1
  Mo  Mo221  1  0.90205037  0.10355403  0.29319943  1
  Mo  Mo222  1  0.80328722  0.80092419  0.60625717  1
  Mo  Mo223  1  0.69518432  0.29668764  0.89821546  1
  Mo  Mo224  1  0.39726463  0.38907203  0.80661305  1
  Mo  Mo225  1  0.30734926  0.49702979  0.10208120  1
  Mo  Mo226  1  0.69309427  0.89494651  0.70193290  1
  Mo  Mo227  1  0.30778191  0.69907973  0.29883646  1
  Mo  Mo228  1  0.39476486  0.19741674  0.39366472  1
  Mo  Mo229  1  -0.00396806  0.19454554  0.39339559  1
  Mo  Mo230  1  0.60294720  0.19483905  0.80588532  1
  Mo  Mo231  1  0.50289252  0.89447247  0.70091016  1
  Mo  Mo232  1  0.79038207  0.80167800  0.18889427  1
  Mo  Mo233  1  0.59713364  0.79761240  0.80137996  1
  Mo  Mo234  1  0.87999167  0.30099507  0.70844113  1
  Mo  Mo235  1  0.19902088  0.39563437  -0.00108216  1
  Mo  Mo236  1  0.30929984  0.70361839  0.70386675  1
  Mo  Mo237  1  0.69697313  0.09791696  0.71050661  1
  Mo  Mo238  1  0.79509021  0.39832562  0.79968088  1
  Mo  Mo239  1  0.49733968  0.50678266  0.90237163  1
  Mo  Mo240  1  0.39542255  0.00064528  -0.00072875  1
  Mo  Mo241  1  0.78801179  -0.00083227  0.79044598  1
  Mo  Mo242  1  0.21410899  0.59448293  0.40275427  1
  Mo  Mo243  1  0.79161443  0.19915563  0.60106532  1
  Mo  Mo244  1  0.20219579  0.80263327  0.80296045  1
  Mo  Mo245  1  0.00164018  0.39775414  -0.00745700  1
  Mo  Mo246  1  0.70014293  0.29587775  0.50641745  1
  Mo  Mo247  1  0.50312859  0.50162520  0.70305983  1
  Mo  Mo248  1  0.40323383  0.00181548  0.39405229  1
  Mo  Mo249  1  0.69079826  0.30022602  0.70417423  1
