# generated using pymatgen
data_HfZrTaTiMo
_symmetry_space_group_name_H-M   'P 1'
_cell_length_a   16.88778791
_cell_length_b   16.88731816
_cell_length_c   16.88868506
_cell_angle_alpha   90.02831638
_cell_angle_beta   90.01209655
_cell_angle_gamma   90.02064451
_symmetry_Int_Tables_number   1
_chemical_formula_structural   HfZrTaTiMo
_chemical_formula_sum   'Hf50 Zr50 Ta50 Ti50 Mo50'
_cell_volume   4816.47375318
_cell_formula_units_Z   50
loop_
 _symmetry_equiv_pos_site_id
 _symmetry_equiv_pos_as_xyz
  1  'x, y, z'
loop_
 _atom_site_type_symbol
 _atom_site_label
 _atom_site_symmetry_multiplicity
 _atom_site_fract_x
 _atom_site_fract_y
 _atom_site_fract_z
 _atom_site_occupancy
  Hf  Hf0  1  0.10919800  0.90855074  0.69020176  1
  Hf  Hf1  1  0.90110219  0.11135402  0.09941090  1
  Hf  Hf2  1  0.30991459  0.10436009  0.50053151  1
  Hf  Hf3  1  0.50326392  0.89827940  0.30326652  1
  Hf  Hf4  1  0.50226505  0.30435887  0.30464218  1
  Hf  Hf5  1  0.70360545  0.70308830  0.10168962  1
  Hf  Hf6  1  0.80393402  0.00098126  0.20386489  1
  Hf  Hf7  1  0.89241253  0.30563453  0.90554013  1
  Hf  Hf8  1  0.29563305  0.91006721  0.50483320  1
  Hf  Hf9  1  0.39340796  0.60821000  0.41792977  1
  Hf  Hf10  1  0.50343640  0.70318666  0.30316469  1
  Hf  Hf11  1  0.09525132  0.09247645  0.49676629  1
  Hf  Hf12  1  0.30650730  0.69417493  0.70241828  1
  Hf  Hf13  1  0.20520384  0.79731654  0.80465038  1
  Hf  Hf14  1  0.19415300  0.20315543  0.59823458  1
  Hf  Hf15  1  0.80002470  0.59256408  0.20773069  1
  Hf  Hf16  1  0.88888362  0.49045418  0.08022613  1
  Hf  Hf17  1  0.89915921  0.09838877  0.49241199  1
  Hf  Hf18  1  0.69878261  0.49655117  0.90316032  1
  Hf  Hf19  1  -0.00623348  0.59513340  0.19378211  1
  Hf  Hf20  1  0.50041979  0.50139053  0.89468587  1
  Hf  Hf21  1  0.89544532  0.69951959  0.30926170  1
  Hf  Hf22  1  0.89864386  0.29487916  0.29457080  1
  Hf  Hf23  1  0.19647630  0.59915944  -0.00505297  1
  Hf  Hf24  1  0.20224611  0.39652783  0.20704478  1
  Hf  Hf25  1  0.00157373  0.00031482  0.80446432  1
  Hf  Hf26  1  0.00473970  0.59788616  -0.00415346  1
  Hf  Hf27  1  0.19774390  0.79032755  0.59676521  1
  Hf  Hf28  1  0.19310246  0.20019764  0.39329215  1
  Hf  Hf29  1  0.19902683  0.00067902  0.38884911  1
  Hf  Hf30  1  0.00504107  0.80722798  0.80483429  1
  Hf  Hf31  1  0.49839166  0.90357918  0.09318064  1
  Hf  Hf32  1  0.19376826  0.79501756  -0.00270943  1
  Hf  Hf33  1  -0.00648454  0.20378473  0.59787313  1
  Hf  Hf34  1  0.19033792  0.39274971  -0.01064434  1
  Hf  Hf35  1  0.31210813  0.10059661  0.30054568  1
  Hf  Hf36  1  0.79784710  0.79934961  0.60589865  1
  Hf  Hf37  1  0.59971463  0.00141201  0.40303014  1
  Hf  Hf38  1  0.69118040  0.88631544  0.49599303  1
  Hf  Hf39  1  0.30490062  0.29520850  0.50103215  1
  Hf  Hf40  1  0.09159415  0.49438465  0.29976285  1
  Hf  Hf41  1  0.00094312  0.19818762  0.80011145  1
  Hf  Hf42  1  0.30118049  0.09082984  0.09259171  1
  Hf  Hf43  1  0.90138763  0.69488697  0.70626130  1
  Hf  Hf44  1  0.49567861  0.29503415  0.69951830  1
  Hf  Hf45  1  0.60140461  0.00459191  0.19934663  1
  Hf  Hf46  1  0.59694962  0.00224649  0.60147202  1
  Hf  Hf47  1  0.01383367  0.21030749  -0.00471161  1
  Hf  Hf48  1  0.21255732  0.58951668  0.40195143  1
  Hf  Hf49  1  0.30773316  0.90440630  0.90885567  1
  Zr  Zr50  1  0.60157814  0.78959939  -0.00430112  1
  Zr  Zr51  1  0.80380655  -0.01422648  0.38641162  1
  Zr  Zr52  1  0.40898224  0.01473153  0.80198312  1
  Zr  Zr53  1  0.19079525  0.19454250  0.81084812  1
  Zr  Zr54  1  0.60480218  0.20245458  0.40887754  1
  Zr  Zr55  1  0.60404285  0.40677662  0.59930151  1
  Zr  Zr56  1  0.50196681  0.89844548  0.89383473  1
  Zr  Zr57  1  0.49536224  0.29848689  0.49897844  1
  Zr  Zr58  1  0.89503468  0.09957008  0.90611149  1
  Zr  Zr59  1  0.69514226  0.30044529  0.70026231  1
  Zr  Zr60  1  0.39431744  0.41088812  0.60157571  1
  Zr  Zr61  1  0.80065267  0.81405012  0.21269841  1
  Zr  Zr62  1  0.41644271  0.19490030  -0.00565114  1
  Zr  Zr63  1  0.59778500  0.60064077  0.19258767  1
  Zr  Zr64  1  0.38381148  0.42026653  0.39950671  1
  Zr  Zr65  1  0.89775479  0.70454349  0.09478880  1
  Zr  Zr66  1  -0.01262404  -0.00499652  0.59866927  1
  Zr  Zr67  1  0.39742661  0.40169485  0.79678936  1
  Zr  Zr68  1  0.29485541  0.69953344  0.10574323  1
  Zr  Zr69  1  0.69670035  0.90584000  0.89445973  1
  Zr  Zr70  1  0.59864828  0.18294881  0.80336421  1
  Zr  Zr71  1  0.09824682  0.50075741  0.50178305  1
  Zr  Zr72  1  0.50108969  0.50086661  0.30517037  1
  Zr  Zr73  1  0.50555133  0.88812773  0.70404124  1
  Zr  Zr74  1  0.19098094  0.19188660  0.20178148  1
  Zr  Zr75  1  -0.00252597  0.39947487  0.60059907  1
  Zr  Zr76  1  0.79725756  0.40194603  0.79893422  1
  Zr  Zr77  1  0.30023276  0.69822212  0.29036924  1
  Zr  Zr78  1  0.19918090  0.39785423  0.40073980  1
  Zr  Zr79  1  0.51678157  0.71269801  0.50440401  1
  Zr  Zr80  1  0.10383697  0.90850389  0.09155097  1
  Zr  Zr81  1  0.20621685  0.79620220  0.39920054  1
  Zr  Zr82  1  0.59366849  0.39136710  0.00378737  1
  Zr  Zr83  1  0.00469156  0.60078143  0.60063365  1
  Zr  Zr84  1  -0.00010217  0.79740208  0.59814111  1
  Zr  Zr85  1  0.10012754  0.69606951  0.29554087  1
  Zr  Zr86  1  0.00975750  0.40457388  0.80882545  1
  Zr  Zr87  1  0.40448115  0.39574118  0.00178840  1
  Zr  Zr88  1  0.39963625  0.79932037  0.59398179  1
  Zr  Zr89  1  0.00257193  0.00464308  0.20531553  1
  Zr  Zr90  1  0.69616572  0.49829975  0.31203756  1
  Zr  Zr91  1  0.30160086  0.29287373  0.09966998  1
  Zr  Zr92  1  0.79338540  0.39543417  0.19655538  1
  Zr  Zr93  1  0.80154116  0.20777155  0.40592686  1
  Zr  Zr94  1  0.40080574  0.78303779  -0.00053527  1
  Zr  Zr95  1  0.89506164  0.50463895  0.70173096  1
  Zr  Zr96  1  0.79872910  0.79747049  0.80719251  1
  Zr  Zr97  1  0.30367924  0.49971787  0.09814435  1
  Zr  Zr98  1  0.69956966  0.11522041  0.10614561  1
  Zr  Zr99  1  0.19969973  0.00069223  0.80774535  1
  Ta  Ta100  1  0.50335834  0.51178277  0.70180644  1
  Ta  Ta101  1  0.31413240  0.29443819  0.29838953  1
  Ta  Ta102  1  0.79450982  0.00048274  0.00188611  1
  Ta  Ta103  1  0.09923674  0.90275468  0.49449465  1
  Ta  Ta104  1  0.70288449  0.11004215  0.29914792  1
  Ta  Ta105  1  0.08174641  0.29303839  0.29916471  1
  Ta  Ta106  1  0.80210905  0.39990264  0.40594876  1
  Ta  Ta107  1  0.29948186  0.29623157  0.89165464  1
  Ta  Ta108  1  0.39912827  0.80673072  0.20187292  1
  Ta  Ta109  1  0.60022622  0.40029367  0.19252698  1
  Ta  Ta110  1  0.89386346  0.29929790  0.69863542  1
  Ta  Ta111  1  -0.01433951  0.39583010  0.40261917  1
  Ta  Ta112  1  0.00643247  0.79946786  0.19481293  1
  Ta  Ta113  1  0.40935753  0.00220723  0.59743632  1
  Ta  Ta114  1  0.29901109  0.90255851  0.10285217  1
  Ta  Ta115  1  0.39773390  0.80750617  0.40186674  1
  Ta  Ta116  1  0.10423779  0.30298744  0.70367786  1
  Ta  Ta117  1  0.69850571  0.49958756  0.08943650  1
  Ta  Ta118  1  0.60599092  0.60350171  0.80099297  1
  Ta  Ta119  1  0.10242952  0.09743508  0.69123645  1
  Ta  Ta120  1  0.30535735  0.90514108  0.70021048  1
  Ta  Ta121  1  0.70002990  0.90231035  0.09618956  1
  Ta  Ta122  1  0.41021279  0.19413358  0.19700285  1
  Ta  Ta123  1  0.60874534  0.60511886  0.60588710  1
  Ta  Ta124  1  0.58960099  0.60502903  0.00051102  1
  Ta  Ta125  1  0.79392802  0.19442917  0.79742856  1
  Ta  Ta126  1  0.70611641  0.69906989  0.49763023  1
  Ta  Ta127  1  0.29295734  0.50084300  0.89057462  1
  Ta  Ta128  1  0.89194158  0.69718411  0.49536137  1
  Ta  Ta129  1  0.59823918  0.01491835  -0.00417507  1
  Ta  Ta130  1  -0.00106010  0.80393070  0.39815325  1
  Ta  Ta131  1  0.79764749  0.19737565  0.60233326  1
  Ta  Ta132  1  0.50344391  0.10645381  0.30229753  1
  Ta  Ta133  1  0.90174422  0.90223932  0.09248405  1
  Ta  Ta134  1  -0.00834356  0.40058760  0.19623797  1
  Ta  Ta135  1  0.29837740  0.29149178  0.70372608  1
  Ta  Ta136  1  0.89105027  0.90544658  0.70815520  1
  Ta  Ta137  1  0.09653673  0.49325478  0.09898551  1
  Ta  Ta138  1  0.69948538  0.70735428  0.31488007  1
  Ta  Ta139  1  0.50212742  0.69694462  0.70236447  1
  Ta  Ta140  1  0.80181536  0.80431552  -0.00584577  1
  Ta  Ta141  1  0.40468761  -0.00022944  0.20045480  1
  Ta  Ta142  1  0.69406447  0.29933876  0.89901698  1
  Ta  Ta143  1  0.70472523  0.09632910  0.50170485  1
  Ta  Ta144  1  0.29997992  0.10140595  0.69430581  1
  Ta  Ta145  1  0.20048778  0.40143092  0.60703749  1
  Ta  Ta146  1  0.50869524  0.50808391  0.50377802  1
  Ta  Ta147  1  0.09879304  0.69285188  0.89163656  1
  Ta  Ta148  1  0.79493978  -0.00210263  0.60274800  1
  Ta  Ta149  1  0.10608651  0.89420919  0.29531768  1
  Ti  Ti150  1  0.60364669  0.19069021  0.59673926  1
  Ti  Ti151  1  0.51114698  0.28844440  0.11114799  1
  Ti  Ti152  1  0.20561368  0.60110044  0.59670258  1
  Ti  Ti153  1  0.89483477  0.09907439  0.70004617  1
  Ti  Ti154  1  0.59883058  0.19740491  -0.00249564  1
  Ti  Ti155  1  0.89279405  0.29662824  0.09836143  1
  Ti  Ti156  1  0.49566250  0.70068894  0.88515889  1
  Ti  Ti157  1  0.78914848  0.60734298  0.80466547  1
  Ti  Ti158  1  0.40750056  0.40243613  0.19553809  1
  Ti  Ti159  1  0.30525906  0.10009415  0.90654403  1
  Ti  Ti160  1  0.61344815  0.78324355  0.79372372  1
  Ti  Ti161  1  0.50206329  0.29679085  0.88532996  1
  Ti  Ti162  1  0.60094527  0.80269095  0.19976112  1
  Ti  Ti163  1  0.40572390  0.60127739  -0.00071730  1
  Ti  Ti164  1  0.49058971  0.11133187  0.69227119  1
  Ti  Ti165  1  0.29658859  0.50688410  0.70291971  1
  Ti  Ti166  1  -0.01149979  0.59172482  0.40049432  1
  Ti  Ti167  1  0.09955183  0.09605553  0.09648685  1
  Ti  Ti168  1  0.10005446  0.07949530  0.92080464  1
  Ti  Ti169  1  0.88768922  0.50246864  0.50103696  1
  Ti  Ti170  1  0.60424519  0.60219337  0.40794007  1
  Ti  Ti171  1  0.09521353  0.69614598  0.49001786  1
  Ti  Ti172  1  0.40934737  -0.00197249  0.40425606  1
  Ti  Ti173  1  0.09109064  0.30079407  0.49572134  1
  Ti  Ti174  1  0.69406285  0.29831668  0.29467419  1
  Ti  Ti175  1  -0.00123777  -0.00739893  0.38894904  1
  Ti  Ti176  1  0.70468442  0.30751337  0.50642623  1
  Ti  Ti177  1  0.19625269  0.20061433  -0.00289813  1
  Ti  Ti178  1  0.79077861  0.00983556  0.79808984  1
  Ti  Ti179  1  0.11321977  0.50623887  0.71485153  1
  Ti  Ti180  1  0.90941341  0.11555732  0.29842257  1
  Ti  Ti181  1  0.20235741  -0.00173230  0.20548465  1
  Ti  Ti182  1  0.79291982  0.60021208  0.60143064  1
  Ti  Ti183  1  0.69742723  0.90062232  0.70165610  1
  Ti  Ti184  1  0.39663169  0.60211432  0.80448789  1
  Ti  Ti185  1  0.79394525  0.60939924  -0.00917577  1
  Ti  Ti186  1  0.89605170  0.89214165  0.49392370  1
  Ti  Ti187  1  0.70264565  0.50144304  0.50046943  1
  Ti  Ti188  1  0.40967746  0.59866693  0.19187370  1
  Ti  Ti189  1  0.69814055  0.50131814  0.70207403  1
  Ti  Ti190  1  0.00598885  0.39907672  -0.00323326  1
  Ti  Ti191  1  0.10310007  0.68821025  0.70966373  1
  Ti  Ti192  1  0.90433883  0.69672604  0.89707997  1
  Ti  Ti193  1  0.89738787  0.50561756  0.89816551  1
  Ti  Ti194  1  0.78716308  0.20666815  -0.00229351  1
  Ti  Ti195  1  0.00360420  0.79991931  -0.00367098  1
  Ti  Ti196  1  0.90304873  0.90722215  0.90739829  1
  Ti  Ti197  1  0.60414608  0.01254122  0.79740690  1
  Ti  Ti198  1  0.19169020  0.59383066  0.19342355  1
  Ti  Ti199  1  0.09402809  0.30261084  0.10913350  1
  Mo  Mo200  1  0.49675894  0.90290082  0.49731144  1
  Mo  Mo201  1  0.00016025  0.20485120  0.19002056  1
  Mo  Mo202  1  0.69938885  0.69336494  0.90200608  1
  Mo  Mo203  1  0.29705934  0.50649597  0.52326732  1
  Mo  Mo204  1  0.39685228  0.79256538  0.79894214  1
  Mo  Mo205  1  0.79821023  0.20270543  0.20316034  1
  Mo  Mo206  1  0.20175978  0.59768485  0.80053928  1
  Mo  Mo207  1  0.50192829  0.50448811  0.09719254  1
  Mo  Mo208  1  0.20418842  0.40110897  0.79469428  1
  Mo  Mo209  1  0.09647345  0.69788293  0.09829255  1
  Mo  Mo210  1  0.70151087  0.10225415  0.90396051  1
  Mo  Mo211  1  0.89934909  0.49392293  0.30948766  1
  Mo  Mo212  1  0.20702711  0.00359902  0.59930766  1
  Mo  Mo213  1  0.79793794  0.59736019  0.40930488  1
  Mo  Mo214  1  0.40423602  0.19715426  0.39544589  1
  Mo  Mo215  1  0.70088364  0.69386867  0.69890062  1
  Mo  Mo216  1  0.61167193  0.40188180  0.40588419  1
  Mo  Mo217  1  0.09249089  0.09774200  0.29996846  1
  Mo  Mo218  1  0.91632754  0.89194943  0.29708178  1
  Mo  Mo219  1  0.80356454  0.79792952  0.40373990  1
  Mo  Mo220  1  0.40935496  0.60011776  0.60667964  1
  Mo  Mo221  1  0.49771028  0.70124684  0.10862129  1
  Mo  Mo222  1  0.50240741  0.10017179  0.10310840  1
  Mo  Mo223  1  0.89255775  0.30366106  0.50622065  1
  Mo  Mo224  1  0.60293341  0.80156669  0.39587103  1
  Mo  Mo225  1  0.09677055  0.89606756  0.90321531  1
  Mo  Mo226  1  0.00480760  0.59899360  0.80557720  1
  Mo  Mo227  1  0.39764600  0.19622507  0.60307892  1
  Mo  Mo228  1  0.20086863  0.81019569  0.19662645  1
  Mo  Mo229  1  0.69602875  0.29990623  0.09643999  1
  Mo  Mo230  1  0.50348710  0.09789897  0.90307656  1
  Mo  Mo231  1  0.79276918  0.39151034  -0.00119034  1
  Mo  Mo232  1  0.70491326  0.09692083  0.69490934  1
  Mo  Mo233  1  0.20503405  0.00126587  0.00189032  1
  Mo  Mo234  1  0.30311370  0.50154288  0.28012186  1
  Mo  Mo235  1  0.59999011  0.20540694  0.20664930  1
  Mo  Mo236  1  0.10183471  0.49965059  0.89929498  1
  Mo  Mo237  1  0.30631230  0.90354168  0.29522846  1
  Mo  Mo238  1  0.39351587  0.19942426  0.80003967  1
  Mo  Mo239  1  0.29945203  0.69970594  0.50490057  1
  Mo  Mo240  1  0.10255996  0.30055747  0.89734022  1
  Mo  Mo241  1  0.50089337  0.09979906  0.50190227  1
  Mo  Mo242  1  0.79896431  0.40026170  0.59536242  1
  Mo  Mo243  1  0.30314688  0.68962774  0.89461249  1
  Mo  Mo244  1  0.60739622  0.79673970  0.60940033  1
  Mo  Mo245  1  0.59773668  0.40625160  0.79927230  1
  Mo  Mo246  1  -0.00676273  -0.00028621  0.00140704  1
  Mo  Mo247  1  0.40413562  0.00160824  0.00534402  1
  Mo  Mo248  1  -0.00018697  0.20348662  0.40172573  1
  Mo  Mo249  1  0.69083003  0.89840961  0.29522729  1
