# generated using pymatgen
data_HfZrTaTiMo
_symmetry_space_group_name_H-M   'P 1'
_cell_length_a   16.88909011
_cell_length_b   16.88576190
_cell_length_c   16.88329513
_cell_angle_alpha   90.01990942
_cell_angle_beta   90.01566226
_cell_angle_gamma   90.00449219
_symmetry_Int_Tables_number   1
_chemical_formula_structural   HfZrTaTiMo
_chemical_formula_sum   'Hf50 Zr50 Ta50 Ti50 Mo50'
_cell_volume   4814.86463726
_cell_formula_units_Z   50
loop_
 _symmetry_equiv_pos_site_id
 _symmetry_equiv_pos_as_xyz
  1  'x, y, z'
loop_
 _atom_site_type_symbol
 _atom_site_label
 _atom_site_symmetry_multiplicity
 _atom_site_fract_x
 _atom_site_fract_y
 _atom_site_fract_z
 _atom_site_occupancy
  Hf  Hf0  1  0.48411327  0.09482900  0.69016007  1
  Hf  Hf1  1  0.59912382  0.59928523  0.59952762  1
  Hf  Hf2  1  0.90634291  0.10217492  0.69695593  1
  Hf  Hf3  1  0.38907249  0.20282396  -0.00469217  1
  Hf  Hf4  1  0.50201545  0.30456157  0.11225963  1
  Hf  Hf5  1  0.59916298  0.20072398  0.78865280  1
  Hf  Hf6  1  0.48951929  0.69458223  0.90487402  1
  Hf  Hf7  1  0.18815829  0.20856293  0.20387637  1
  Hf  Hf8  1  0.80682248  0.40669194  0.20340727  1
  Hf  Hf9  1  0.80086055  0.39585948  0.79789842  1
  Hf  Hf10  1  0.29665055  0.69599852  0.50788785  1
  Hf  Hf11  1  0.09970643  0.89783493  0.30883217  1
  Hf  Hf12  1  0.39334048  0.19999567  0.20550895  1
  Hf  Hf13  1  0.69562948  0.29610644  0.10136165  1
  Hf  Hf14  1  0.10125888  0.69616849  0.10014501  1
  Hf  Hf15  1  0.09968199  0.09493675  0.30374811  1
  Hf  Hf16  1  0.50543959  0.09600518  0.29403306  1
  Hf  Hf17  1  0.71258996  0.90698446  0.50220698  1
  Hf  Hf18  1  0.90326638  0.30667661  0.31335356  1
  Hf  Hf19  1  0.80776998  0.59720351  0.20458359  1
  Hf  Hf20  1  0.20085759  0.20377179  0.40668345  1
  Hf  Hf21  1  0.00186309  0.20761016  0.00588531  1
  Hf  Hf22  1  0.69922379  0.10063818  0.29590148  1
  Hf  Hf23  1  0.29999239  0.30469816  0.30883595  1
  Hf  Hf24  1  0.70299766  0.90303046  0.29857955  1
  Hf  Hf25  1  0.59350296  0.80297698  0.40021003  1
  Hf  Hf26  1  0.70408272  0.70345384  0.49386925  1
  Hf  Hf27  1  0.90597126  0.30645900  0.49780529  1
  Hf  Hf28  1  0.38209051  0.39794388  0.00504435  1
  Hf  Hf29  1  0.70569116  0.09523514  0.68767776  1
  Hf  Hf30  1  0.28864194  0.10284509  0.88715764  1
  Hf  Hf31  1  0.29847291  0.69420713  0.09227733  1
  Hf  Hf32  1  0.90351439  0.29559575  0.89768436  1
  Hf  Hf33  1  0.10607293  0.10100591  0.50734825  1
  Hf  Hf34  1  0.19932632  0.80338144  0.19496245  1
  Hf  Hf35  1  0.89926196  0.10228173  0.50501514  1
  Hf  Hf36  1  -0.00110826  -0.00030108  0.40638096  1
  Hf  Hf37  1  0.39684877  0.59867356  0.40121500  1
  Hf  Hf38  1  0.50956009  0.09878820  0.10047990  1
  Hf  Hf39  1  0.81182634  0.20550977  0.19336063  1
  Hf  Hf40  1  0.69977429  0.10104459  0.90314375  1
  Hf  Hf41  1  0.89588049  0.69304299  0.71263853  1
  Hf  Hf42  1  0.49251521  0.49426393  0.10555934  1
  Hf  Hf43  1  0.29238344  0.90007452  0.50234485  1
  Hf  Hf44  1  0.70320331  0.50188877  0.70118290  1
  Hf  Hf45  1  0.09725737  0.69775849  0.49438463  1
  Hf  Hf46  1  0.81330652  0.59087016  0.40417461  1
  Hf  Hf47  1  0.49969132  0.49628648  0.50029857  1
  Hf  Hf48  1  0.49608590  0.09432361  0.89058400  1
  Hf  Hf49  1  0.00433877  0.60087810  -0.00538253  1
  Zr  Zr50  1  0.80643654  0.00212737  -0.00240276  1
  Zr  Zr51  1  -0.00086372  0.79095071  0.60628929  1
  Zr  Zr52  1  0.80791519  0.60342395  0.59013613  1
  Zr  Zr53  1  0.90031193  0.89611377  0.10155619  1
  Zr  Zr54  1  0.50655281  0.49278767  0.30187550  1
  Zr  Zr55  1  0.49309459  0.69897033  0.50436613  1
  Zr  Zr56  1  0.29541718  0.10867484  0.69835709  1
  Zr  Zr57  1  0.29918102  0.89787426  0.30555980  1
  Zr  Zr58  1  0.39305366  -0.00620191  0.19530589  1
  Zr  Zr59  1  0.90633810  0.50027102  0.69984582  1
  Zr  Zr60  1  0.59662739  0.20412009  -0.00662355  1
  Zr  Zr61  1  0.48400948  0.30359341  0.88731585  1
  Zr  Zr62  1  0.40577610  0.19949812  0.41504808  1
  Zr  Zr63  1  0.70977640  0.70712377  0.30367747  1
  Zr  Zr64  1  0.29285901  0.10029127  0.09709678  1
  Zr  Zr65  1  0.01737591  0.60469470  0.79935975  1
  Zr  Zr66  1  0.30731158  0.48980455  0.29985143  1
  Zr  Zr67  1  0.60382419  0.60453470  0.19908759  1
  Zr  Zr68  1  0.58922771  0.20338114  0.59187944  1
  Zr  Zr69  1  0.29215083  0.48971424  0.69393467  1
  Zr  Zr70  1  0.59451089  0.20078718  0.40725530  1
  Zr  Zr71  1  0.59234156  0.80132519  0.00088281  1
  Zr  Zr72  1  0.49151485  0.90442609  0.50671749  1
  Zr  Zr73  1  0.29543475  0.68937446  0.69291924  1
  Zr  Zr74  1  0.40173127  0.81115210  0.00527676  1
  Zr  Zr75  1  0.79641663  0.80681519  0.79754273  1
  Zr  Zr76  1  0.89836815  0.89387257  0.30462539  1
  Zr  Zr77  1  0.60589174  0.80567896  0.61443744  1
  Zr  Zr78  1  0.69532259  0.30802922  0.30136342  1
  Zr  Zr79  1  0.89938476  0.50577949  0.89335526  1
  Zr  Zr80  1  0.29220639  0.49009177  0.89039146  1
  Zr  Zr81  1  0.58854175  0.79714164  0.19325401  1
  Zr  Zr82  1  0.59417554  0.60017411  0.79676618  1
  Zr  Zr83  1  0.09692587  0.09934841  0.09879465  1
  Zr  Zr84  1  0.80368223  0.60071022  0.00385835  1
  Zr  Zr85  1  0.49312218  0.49697192  0.90296219  1
  Zr  Zr86  1  0.79994406  -0.00069879  0.79578191  1
  Zr  Zr87  1  0.60072202  0.60461944  0.01191056  1
  Zr  Zr88  1  0.70103354  0.90673679  0.10131884  1
  Zr  Zr89  1  0.40063807  0.80382602  0.80171215  1
  Zr  Zr90  1  0.59512090  0.39615780  0.78868906  1
  Zr  Zr91  1  0.19372447  0.40062388  0.19990070  1
  Zr  Zr92  1  0.80983970  0.39480257  0.00864249  1
  Zr  Zr93  1  0.19720193  0.59029283  0.40025561  1
  Zr  Zr94  1  0.19013643  0.79461413  0.79512321  1
  Zr  Zr95  1  0.29380473  0.69316595  0.90450297  1
  Zr  Zr96  1  0.70496924  0.69893340  0.89607343  1
  Zr  Zr97  1  0.90909655  0.29594214  0.69729365  1
  Zr  Zr98  1  0.80430033  0.41012158  0.58679147  1
  Zr  Zr99  1  0.00780875  0.39087615  0.19744051  1
  Ta  Ta100  1  0.10542041  0.10203442  0.70483455  1
  Ta  Ta101  1  0.40098966  0.00412325  0.40473344  1
  Ta  Ta102  1  0.90424837  0.90581753  0.69662930  1
  Ta  Ta103  1  0.19349189  -0.00657227  0.19569424  1
  Ta  Ta104  1  0.49204432  0.69904107  0.29910028  1
  Ta  Ta105  1  0.30200183  0.09566706  0.51025251  1
  Ta  Ta106  1  0.29049090  0.90691191  0.89574338  1
  Ta  Ta107  1  0.10109511  0.89707646  0.50131755  1
  Ta  Ta108  1  0.50295160  0.30951880  0.29783898  1
  Ta  Ta109  1  0.19194814  -0.00069433  -0.00562969  1
  Ta  Ta110  1  0.00406228  0.00054155  -0.00569222  1
  Ta  Ta111  1  0.70150268  0.30871793  0.49337155  1
  Ta  Ta112  1  0.90592781  0.70274441  0.10660486  1
  Ta  Ta113  1  0.68888664  0.90485364  0.90080806  1
  Ta  Ta114  1  0.00598418  0.59469979  0.59254481  1
  Ta  Ta115  1  0.20086511  0.59553136  0.20077379  1
  Ta  Ta116  1  0.80742323  0.00837238  0.20104690  1
  Ta  Ta117  1  0.29491897  0.49137956  0.50829480  1
  Ta  Ta118  1  0.10900550  0.30014378  0.89459868  1
  Ta  Ta119  1  0.09534552  0.90631494  0.70342197  1
  Ta  Ta120  1  0.01965307  0.40273065  0.79861971  1
  Ta  Ta121  1  0.91293468  0.70235256  0.30545389  1
  Ta  Ta122  1  0.70511064  0.29760013  0.89875926  1
  Ta  Ta123  1  0.69672873  0.10119339  0.10291444  1
  Ta  Ta124  1  0.19476704  -0.00231695  0.60395073  1
  Ta  Ta125  1  0.80443766  0.80278178  0.60415250  1
  Ta  Ta126  1  0.90217547  0.89440059  0.50167323  1
  Ta  Ta127  1  0.39661497  0.59290773  0.79496582  1
  Ta  Ta128  1  0.09845207  0.90429159  0.89496676  1
  Ta  Ta129  1  0.70536530  0.09676653  0.49994902  1
  Ta  Ta130  1  0.39867223  -0.00338057  -0.00866520  1
  Ta  Ta131  1  0.90456469  0.10610281  0.89949394  1
  Ta  Ta132  1  0.49963405  0.90415455  0.29706571  1
  Ta  Ta133  1  0.10449031  0.30607864  0.50642348  1
  Ta  Ta134  1  0.91565408  0.50526696  0.10663829  1
  Ta  Ta135  1  0.72266257  0.71688455  0.10563745  1
  Ta  Ta136  1  0.90535631  0.10440836  0.29967782  1
  Ta  Ta137  1  0.00680978  0.80034140  0.19825414  1
  Ta  Ta138  1  0.00137960  0.20837289  0.20066772  1
  Ta  Ta139  1  0.48988875  0.69546744  0.69761922  1
  Ta  Ta140  1  0.09623270  0.69646022  0.29934446  1
  Ta  Ta141  1  0.00994385  0.40096814  -0.00230098  1
  Ta  Ta142  1  0.70535245  0.29867316  0.69130847  1
  Ta  Ta143  1  0.91100762  0.90210747  0.89256043  1
  Ta  Ta144  1  0.29276804  0.90770498  0.70132658  1
  Ta  Ta145  1  0.39396926  0.59932209  0.19625134  1
  Ta  Ta146  1  0.00274953  0.80114229  -0.00480097  1
  Ta  Ta147  1  0.70049350  0.49586338  0.90083542  1
  Ta  Ta148  1  0.29947417  0.70078148  0.29562543  1
  Ta  Ta149  1  0.29100285  0.09127400  0.30950972  1
  Ti  Ti150  1  0.40327463  0.79750391  0.19352472  1
  Ti  Ti151  1  0.00544105  0.00774353  0.80435541  1
  Ti  Ti152  1  0.80577782  0.00577926  0.39951965  1
  Ti  Ti153  1  0.19096616  0.81287942  0.00082915  1
  Ti  Ti154  1  -0.00081999  -0.00062107  0.19565118  1
  Ti  Ti155  1  0.81102063  0.80155207  -0.01092141  1
  Ti  Ti156  1  0.90064001  0.10319709  0.09717147  1
  Ti  Ti157  1  0.40157449  0.39030549  0.41321199  1
  Ti  Ti158  1  0.19888293  0.58252534  0.00016421  1
  Ti  Ti159  1  0.18841863  0.59183740  0.79347765  1
  Ti  Ti160  1  0.19080537  0.79887381  0.60706540  1
  Ti  Ti161  1  0.00311518  -0.00257940  0.60105159  1
  Ti  Ti162  1  0.48780674  0.49786178  0.69403719  1
  Ti  Ti163  1  0.79781951  0.20534144  0.59357127  1
  Ti  Ti164  1  0.29325649  0.30310872  0.10536928  1
  Ti  Ti165  1  0.29198437  0.29924684  0.51818793  1
  Ti  Ti166  1  0.79991814  0.19976293  0.40237088  1
  Ti  Ti167  1  0.19673475  0.20454468  -0.00639124  1
  Ti  Ti168  1  0.69333917  0.49642086  0.31107020  1
  Ti  Ti169  1  0.79855132  0.20051852  0.79708526  1
  Ti  Ti170  1  0.10713479  0.70167131  0.90592842  1
  Ti  Ti171  1  0.50866606  0.91772992  0.09812309  1
  Ti  Ti172  1  0.59432577  0.80741583  0.79710198  1
  Ti  Ti173  1  0.70247485  0.69718912  0.70355986  1
  Ti  Ti174  1  0.59559036  0.00232499  0.40664076  1
  Ti  Ti175  1  0.01488525  0.20003299  0.80241558  1
  Ti  Ti176  1  0.49331454  0.90368743  0.69902096  1
  Ti  Ti177  1  0.68866865  0.49648789  0.48587478  1
  Ti  Ti178  1  0.39408845  0.80386512  0.60838852  1
  Ti  Ti179  1  0.01088350  0.20425913  0.60158415  1
  Ti  Ti180  1  0.00249211  0.79490100  0.80310567  1
  Ti  Ti181  1  0.59902534  -0.00099639  0.59837860  1
  Ti  Ti182  1  0.69576959  0.49217504  0.10302482  1
  Ti  Ti183  1  0.59692518  0.39375894  0.59761272  1
  Ti  Ti184  1  0.19461706  0.39581899  0.00034401  1
  Ti  Ti185  1  0.10002672  0.50225697  0.10056086  1
  Ti  Ti186  1  0.29276072  0.90462822  0.09242729  1
  Ti  Ti187  1  0.60175132  0.39920880  -0.00371562  1
  Ti  Ti188  1  0.47948751  0.29424535  0.69509727  1
  Ti  Ti189  1  0.39556439  -0.00785958  0.80023707  1
  Ti  Ti190  1  0.91724097  0.50222549  0.30538882  1
  Ti  Ti191  1  0.39935017  0.80021846  0.39627769  1
  Ti  Ti192  1  0.00703149  0.20408017  0.40012942  1
  Ti  Ti193  1  0.11771912  0.29890142  0.69631570  1
  Ti  Ti194  1  0.59925674  -0.00952359  0.79209732  1
  Ti  Ti195  1  0.01382306  0.41041972  0.40841704  1
  Ti  Ti196  1  0.39769911  0.39091226  0.59921196  1
  Ti  Ti197  1  0.19979977  0.79458671  0.39889050  1
  Ti  Ti198  1  0.09630916  0.50355969  0.30288913  1
  Ti  Ti199  1  0.01395711  0.40847730  0.60188685  1
  Mo  Mo200  1  0.18951409  0.59153831  0.59790426  1
  Mo  Mo201  1  0.90351484  0.70315672  0.49433975  1
  Mo  Mo202  1  0.69737168  0.90290637  0.69905994  1
  Mo  Mo203  1  0.10461788  0.49750642  0.69477922  1
  Mo  Mo204  1  0.09619758  0.10269952  0.89805178  1
  Mo  Mo205  1  0.10476989  0.49633284  0.50382227  1
  Mo  Mo206  1  0.50054878  0.90785187  0.89336487  1
  Mo  Mo207  1  0.10451249  0.30022645  0.08613762  1
  Mo  Mo208  1  0.28824002  0.29779467  0.89059281  1
  Mo  Mo209  1  0.09806137  0.90061982  0.09378347  1
  Mo  Mo210  1  0.60017162  0.39918196  0.40387053  1
  Mo  Mo211  1  0.59935566  0.59950587  0.39965668  1
  Mo  Mo212  1  0.80531321  0.19655458  -0.00037434  1
  Mo  Mo213  1  0.49985833  0.31258779  0.50472051  1
  Mo  Mo214  1  0.00580441  0.60122333  0.20204342  1
  Mo  Mo215  1  0.59665091  0.00066328  -0.00320672  1
  Mo  Mo216  1  0.39544779  0.39734543  0.20040328  1
  Mo  Mo217  1  0.91856165  0.49913369  0.49390475  1
  Mo  Mo218  1  0.09721125  0.30014089  0.31893131  1
  Mo  Mo219  1  0.81309021  0.79863819  0.20734916  1
  Mo  Mo220  1  0.39916268  0.59033869  0.60090191  1
  Mo  Mo221  1  0.80892494  -0.00329340  0.59714471  1
  Mo  Mo222  1  0.30244126  0.29812211  0.70202419  1
  Mo  Mo223  1  0.19762408  0.39451968  0.60065949  1
  Mo  Mo224  1  0.09980990  0.69710822  0.69297773  1
  Mo  Mo225  1  0.39072856  0.59153842  0.00403779  1
  Mo  Mo226  1  0.29246440  0.50078150  0.09908348  1
  Mo  Mo227  1  0.49901134  0.08828244  0.50170780  1
  Mo  Mo228  1  0.90702937  0.71132778  0.90408358  1
  Mo  Mo229  1  0.60602599  0.40274659  0.20155523  1
  Mo  Mo230  1  0.60053110  0.20031633  0.20284242  1
  Mo  Mo231  1  0.19845238  0.20116526  0.60187515  1
  Mo  Mo232  1  0.10559456  0.49325092  0.90136839  1
  Mo  Mo233  1  0.60772583  -0.00049908  0.19895949  1
  Mo  Mo234  1  0.19594485  0.39752412  0.40869653  1
  Mo  Mo235  1  0.19717725  0.39113414  0.79548782  1
  Mo  Mo236  1  0.19132139  -0.00045423  0.79830055  1
  Mo  Mo237  1  0.19566579  0.20386392  0.79821427  1
  Mo  Mo238  1  0.81124580  0.79633695  0.40824752  1
  Mo  Mo239  1  0.39307428  0.20463564  0.79519713  1
  Mo  Mo240  1  0.79259151  0.59902313  0.80505634  1
  Mo  Mo241  1  0.39322427  0.39687410  0.78865172  1
  Mo  Mo242  1  0.39066951  -0.00443320  0.60248729  1
  Mo  Mo243  1  0.00162298  0.59607281  0.39859887  1
  Mo  Mo244  1  0.48286253  0.69166498  0.10457357  1
  Mo  Mo245  1  0.80145309  0.40885643  0.39935369  1
  Mo  Mo246  1  0.00339046  0.79645353  0.40284421  1
  Mo  Mo247  1  0.90599363  0.30536078  0.09996475  1
  Mo  Mo248  1  0.20113166  0.00092833  0.40940312  1
  Mo  Mo249  1  0.39425436  0.20577540  0.59754467  1
