# generated using pymatgen
data_HfZrTaTiMo
_symmetry_space_group_name_H-M   'P 1'
_cell_length_a   16.88918089
_cell_length_b   16.87700115
_cell_length_c   16.88114796
_cell_angle_alpha   90.00964448
_cell_angle_beta   90.03514605
_cell_angle_gamma   89.96733117
_symmetry_Int_Tables_number   1
_chemical_formula_structural   HfZrTaTiMo
_chemical_formula_sum   'Hf50 Zr50 Ta50 Ti50 Mo50'
_cell_volume   4811.77913967
_cell_formula_units_Z   50
loop_
 _symmetry_equiv_pos_site_id
 _symmetry_equiv_pos_as_xyz
  1  'x, y, z'
loop_
 _atom_site_type_symbol
 _atom_site_label
 _atom_site_symmetry_multiplicity
 _atom_site_fract_x
 _atom_site_fract_y
 _atom_site_fract_z
 _atom_site_occupancy
  Hf  Hf0  1  0.10164178  0.90340482  0.70116429  1
  Hf  Hf1  1  0.89265344  0.89980860  0.90153693  1
  Hf  Hf2  1  0.89711162  0.70349092  0.11129170  1
  Hf  Hf3  1  0.31068136  0.50026627  0.49780213  1
  Hf  Hf4  1  0.10552623  0.29688962  0.49195369  1
  Hf  Hf5  1  0.69429786  0.70797827  0.50328883  1
  Hf  Hf6  1  0.79508970  0.20060076  0.39268504  1
  Hf  Hf7  1  0.10729821  0.70732830  0.69387524  1
  Hf  Hf8  1  0.29736575  0.30795753  0.89798372  1
  Hf  Hf9  1  -0.01383328  0.01409095  0.80425555  1
  Hf  Hf10  1  0.50785350  0.90151527  0.10499392  1
  Hf  Hf11  1  -0.00003771  0.60841258  0.80145846  1
  Hf  Hf12  1  0.20376041  0.78593065  0.39104787  1
  Hf  Hf13  1  0.20516247  0.40223712  0.39516135  1
  Hf  Hf14  1  0.69641571  0.10176057  0.50981680  1
  Hf  Hf15  1  0.29277586  0.08836453  0.09739639  1
  Hf  Hf16  1  0.09963904  0.50394758  0.49280449  1
  Hf  Hf17  1  0.79144806  -0.00470978  -0.00001968  1
  Hf  Hf18  1  0.40987728  0.59896907  0.00967156  1
  Hf  Hf19  1  0.90238874  0.50122950  0.29240837  1
  Hf  Hf20  1  0.30658016  0.89131145  0.29402939  1
  Hf  Hf21  1  0.89955560  0.69864605  0.29743556  1
  Hf  Hf22  1  0.90257251  0.49664105  0.70378544  1
  Hf  Hf23  1  0.19101943  0.19404473  0.20033257  1
  Hf  Hf24  1  0.41227806  0.80050299  0.79676872  1
  Hf  Hf25  1  0.79654570  0.59946938  0.59479690  1
  Hf  Hf26  1  0.40619639  -0.00678319  0.39996904  1
  Hf  Hf27  1  0.90162869  0.90118158  0.10833001  1
  Hf  Hf28  1  0.89773256  0.48308471  0.90683879  1
  Hf  Hf29  1  0.20343397  0.01504215  0.81145268  1
  Hf  Hf30  1  0.29527863  0.29717014  0.09896791  1
  Hf  Hf31  1  0.79235078  0.59943456  0.00519540  1
  Hf  Hf32  1  0.30599313  0.11062507  0.49781365  1
  Hf  Hf33  1  0.10344926  0.88944692  0.49530740  1
  Hf  Hf34  1  0.40385038  0.19464587  0.20157454  1
  Hf  Hf35  1  -0.00403059  0.80465032  0.80005208  1
  Hf  Hf36  1  0.69386899  0.30339237  0.49574962  1
  Hf  Hf37  1  -0.01471506  0.00229852  0.59679792  1
  Hf  Hf38  1  -0.00411030  0.39429423  0.59440853  1
  Hf  Hf39  1  0.68360314  0.08298580  0.10677059  1
  Hf  Hf40  1  0.79535664  0.60718617  0.80116058  1
  Hf  Hf41  1  -0.00650117  0.80588636  0.60148087  1
  Hf  Hf42  1  0.40850997  0.60323249  0.79769581  1
  Hf  Hf43  1  0.70081934  0.50199167  0.70116948  1
  Hf  Hf44  1  0.31120346  0.10598841  0.69565454  1
  Hf  Hf45  1  -0.00825631  0.20033781  0.59658319  1
  Hf  Hf46  1  0.90175899  0.70413937  0.49349616  1
  Hf  Hf47  1  0.09382765  0.29973921  0.89530160  1
  Hf  Hf48  1  0.50183910  0.70413173  0.48949847  1
  Hf  Hf49  1  -0.00620595  0.19784870  0.39240923  1
  Zr  Zr50  1  0.89511193  0.70568583  0.90565596  1
  Zr  Zr51  1  0.30153034  0.70479812  0.90676123  1
  Zr  Zr52  1  0.69316249  0.89407681  0.89210880  1
  Zr  Zr53  1  0.30400315  0.49510549  0.70818819  1
  Zr  Zr54  1  0.20550687  -0.00091993  0.59436614  1
  Zr  Zr55  1  0.60510550  0.20307889  0.79893804  1
  Zr  Zr56  1  0.09477850  0.10966754  0.70226170  1
  Zr  Zr57  1  0.40766051  0.79772717  0.60137751  1
  Zr  Zr58  1  0.09908908  0.91237381  0.91405463  1
  Zr  Zr59  1  0.00294081  0.59287369  0.00764279  1
  Zr  Zr60  1  0.69461643  0.89878549  0.50595000  1
  Zr  Zr61  1  0.40668090  -0.01639704  0.59885954  1
  Zr  Zr62  1  0.30944621  0.29896306  0.50340441  1
  Zr  Zr63  1  0.20535569  0.59949226  0.20588235  1
  Zr  Zr64  1  0.50166281  0.10273239  0.50262029  1
  Zr  Zr65  1  0.10046609  0.49086936  0.89461429  1
  Zr  Zr66  1  0.89060890  0.09940146  0.28523692  1
  Zr  Zr67  1  0.59372963  0.39439096  0.20765290  1
  Zr  Zr68  1  0.89308632  0.30506628  0.08466580  1
  Zr  Zr69  1  0.70933949  0.29956263  0.69695184  1
  Zr  Zr70  1  0.30665555  0.71026356  0.10441706  1
  Zr  Zr71  1  0.90041320  0.89066657  0.30002776  1
  Zr  Zr72  1  -0.00279996  0.00500857  0.40461404  1
  Zr  Zr73  1  0.10749840  0.70186536  0.09837271  1
  Zr  Zr74  1  0.50871907  0.08714765  0.89889293  1
  Zr  Zr75  1  0.20353301  0.59797253  0.59856296  1
  Zr  Zr76  1  0.49327225  0.30853686  0.89842088  1
  Zr  Zr77  1  0.29060522  0.89045705  0.70233492  1
  Zr  Zr78  1  0.10126240  0.08495308  0.07660205  1
  Zr  Zr79  1  0.40589558  0.00363043  0.20450667  1
  Zr  Zr80  1  0.11708150  0.90151901  0.10126189  1
  Zr  Zr81  1  0.11212190  0.10528876  0.49274029  1
  Zr  Zr82  1  0.01655807  0.00660975  0.20970425  1
  Zr  Zr83  1  0.50830497  0.09245035  0.69800256  1
  Zr  Zr84  1  0.59765182  0.19804333  0.00816325  1
  Zr  Zr85  1  0.69086180  0.50531976  0.30179850  1
  Zr  Zr86  1  0.39211177  0.42040327  0.00811492  1
  Zr  Zr87  1  0.59421855  0.40780432  0.59984120  1
  Zr  Zr88  1  0.59616963  0.41257700  0.01064638  1
  Zr  Zr89  1  0.79271133  0.19381038  -0.00221116  1
  Zr  Zr90  1  0.09999490  0.49386826  0.70497471  1
  Zr  Zr91  1  0.70604270  0.31477827  0.90604468  1
  Zr  Zr92  1  0.00338218  0.20492727  0.18667574  1
  Zr  Zr93  1  0.79832648  0.00100378  0.40229497  1
  Zr  Zr94  1  0.30589022  0.69414887  0.49158681  1
  Zr  Zr95  1  0.30561027  0.89839973  0.90918932  1
  Zr  Zr96  1  0.30714344  0.30774732  0.70532363  1
  Zr  Zr97  1  0.80016495  0.40023127  0.39576809  1
  Zr  Zr98  1  0.78704057  0.39356610  0.19270526  1
  Zr  Zr99  1  0.48986256  0.30275006  0.10236061  1
  Ta  Ta100  1  0.60088113  0.60481260  0.79838370  1
  Ta  Ta101  1  0.59873178  -0.00337829  0.39342829  1
  Ta  Ta102  1  -0.00637737  0.18901778  -0.01361260  1
  Ta  Ta103  1  0.40747108  0.00118980  0.00245770  1
  Ta  Ta104  1  0.69249888  0.89454469  0.69524838  1
  Ta  Ta105  1  0.20140180  0.20937421  0.60879063  1
  Ta  Ta106  1  0.40788690  0.39889792  0.39089912  1
  Ta  Ta107  1  0.40631313  0.20397359  0.38908585  1
  Ta  Ta108  1  0.80457271  0.40163245  0.59382112  1
  Ta  Ta109  1  0.59690041  0.60214757  0.60264465  1
  Ta  Ta110  1  0.49684291  0.50831924  0.30270432  1
  Ta  Ta111  1  0.10381501  0.30117294  0.29879849  1
  Ta  Ta112  1  0.29757632  0.70133278  0.69859557  1
  Ta  Ta113  1  0.40363095  0.20048924  0.80149298  1
  Ta  Ta114  1  0.19908129  0.40247420  0.19618959  1
  Ta  Ta115  1  0.79107522  0.79920482  0.01089928  1
  Ta  Ta116  1  0.59746613  0.20049153  0.20481385  1
  Ta  Ta117  1  0.89498595  0.09263121  0.09642238  1
  Ta  Ta118  1  0.20995750  0.58634359  0.00391487  1
  Ta  Ta119  1  0.20229840  0.60506482  0.80645854  1
  Ta  Ta120  1  0.78335095  0.20277968  0.19432628  1
  Ta  Ta121  1  -0.00396867  0.39504225  0.39227557  1
  Ta  Ta122  1  0.30128685  0.30267823  0.29499477  1
  Ta  Ta123  1  0.79350592  0.79830851  0.39473154  1
  Ta  Ta124  1  0.10657110  0.70482032  0.90989326  1
  Ta  Ta125  1  0.59597166  0.20785156  0.60242996  1
  Ta  Ta126  1  0.20251699  0.19947465  0.80433865  1
  Ta  Ta127  1  0.30057684  0.89805505  0.10175985  1
  Ta  Ta128  1  0.50939726  0.89837707  0.90000455  1
  Ta  Ta129  1  -0.00095865  0.80270503  0.00625710  1
  Ta  Ta130  1  0.80313089  0.19035545  0.80466881  1
  Ta  Ta131  1  0.39724827  0.18767928  -0.00323487  1
  Ta  Ta132  1  0.89161545  0.70539752  0.69271636  1
  Ta  Ta133  1  0.60136753  0.79453366  0.00645808  1
  Ta  Ta134  1  0.09644754  0.69846643  0.49435654  1
  Ta  Ta135  1  0.69463327  0.50423267  0.89992086  1
  Ta  Ta136  1  0.09995311  0.49934604  0.30159940  1
  Ta  Ta137  1  0.69709396  0.70454923  0.29381068  1
  Ta  Ta138  1  0.59546530  0.20626179  0.39110436  1
  Ta  Ta139  1  0.01264780  0.79730751  0.20563695  1
  Ta  Ta140  1  0.49858980  0.30201726  0.49734551  1
  Ta  Ta141  1  0.79672838  0.00209464  0.79092488  1
  Ta  Ta142  1  0.41406933  0.59850190  0.60504003  1
  Ta  Ta143  1  0.01198846  0.39854742  0.19441592  1
  Ta  Ta144  1  0.19700435  0.39605712  0.60152645  1
  Ta  Ta145  1  0.69574933  0.70220892  0.10960920  1
  Ta  Ta146  1  0.59159285  0.40803314  0.79337779  1
  Ta  Ta147  1  0.30648689  0.50771107  0.30455579  1
  Ta  Ta148  1  0.79503770  0.60291220  0.39903765  1
  Ta  Ta149  1  0.19670470  0.40547884  0.01093041  1
  Ti  Ti150  1  0.69342712  0.50086373  0.49315160  1
  Ti  Ti151  1  -0.00350925  0.59591300  0.39875261  1
  Ti  Ti152  1  0.51068967  0.70473610  0.90173742  1
  Ti  Ti153  1  0.41430312  0.40459698  0.60716875  1
  Ti  Ti154  1  0.20168514  0.79271060  0.20923018  1
  Ti  Ti155  1  0.19764817  0.79833563  0.80948906  1
  Ti  Ti156  1  0.19919887  0.19211989  -0.01280087  1
  Ti  Ti157  1  0.59499860  0.60466651  0.00672334  1
  Ti  Ti158  1  0.69300683  0.08684993  0.89520235  1
  Ti  Ti159  1  0.09597484  0.30310126  0.70990405  1
  Ti  Ti160  1  0.69412515  0.50609713  0.10220683  1
  Ti  Ti161  1  0.10400485  0.89645967  0.30438523  1
  Ti  Ti162  1  0.90293588  0.30092486  0.89388739  1
  Ti  Ti163  1  0.89940773  0.30124489  0.28771800  1
  Ti  Ti164  1  0.58774076  0.60891644  0.19737583  1
  Ti  Ti165  1  0.01169961  0.39520234  0.01427118  1
  Ti  Ti166  1  0.50335905  0.88795380  0.29505247  1
  Ti  Ti167  1  0.89979370  0.50055157  0.49474284  1
  Ti  Ti168  1  0.41404996  0.79981232  0.00594711  1
  Ti  Ti169  1  0.69944414  0.09521356  0.69411432  1
  Ti  Ti170  1  0.60153095  0.80266453  0.38679258  1
  Ti  Ti171  1  0.40646114  0.60791114  0.20323536  1
  Ti  Ti172  1  0.29785437  0.49590858  0.89079868  1
  Ti  Ti173  1  0.40438181  -0.00464969  0.80034143  1
  Ti  Ti174  1  0.89744213  0.49516950  0.10160391  1
  Ti  Ti175  1  0.89055555  0.29563538  0.49967686  1
  Ti  Ti176  1  -0.00293627  0.60178156  0.59899680  1
  Ti  Ti177  1  0.89849886  0.29740534  0.70663098  1
  Ti  Ti178  1  0.00792711  0.59280198  0.19482111  1
  Ti  Ti179  1  0.29228046  0.10201577  0.30609033  1
  Ti  Ti180  1  0.69129654  0.09495970  0.29776934  1
  Ti  Ti181  1  0.89282315  0.89019171  0.49716431  1
  Ti  Ti182  1  0.59833833  0.60458130  0.39578995  1
  Ti  Ti183  1  0.20347195  -0.00179575  0.39219207  1
  Ti  Ti184  1  0.50482263  0.50472194  0.89530368  1
  Ti  Ti185  1  0.69334771  0.70269236  0.90101036  1
  Ti  Ti186  1  0.39657138  0.41067555  0.20234872  1
  Ti  Ti187  1  0.88766187  0.10925903  0.69545423  1
  Ti  Ti188  1  0.79411836  0.79946474  0.78780069  1
  Ti  Ti189  1  0.30008680  0.88710348  0.49255329  1
  Ti  Ti190  1  0.69246783  0.89255650  0.11554061  1
  Ti  Ti191  1  0.79922487  0.39926433  0.79975638  1
  Ti  Ti192  1  0.80460844  -0.00536890  0.60552046  1
  Ti  Ti193  1  0.50124424  0.50276762  0.49050706  1
  Ti  Ti194  1  0.09159822  0.69154951  0.30823157  1
  Ti  Ti195  1  0.51506746  0.70671500  0.69915797  1
  Ti  Ti196  1  0.78863255  -0.00876011  0.20582825  1
  Ti  Ti197  1  0.51204708  0.89196143  0.50030769  1
  Ti  Ti198  1  0.79368585  0.59894426  0.19975303  1
  Ti  Ti199  1  0.50797650  0.09746633  0.29867219  1
  Mo  Mo200  1  0.60005781  -0.01190764  0.00048215  1
  Mo  Mo201  1  0.49924231  0.51244158  0.11499088  1
  Mo  Mo202  1  0.40729929  0.59727490  0.39665199  1
  Mo  Mo203  1  0.40944776  0.21210275  0.60426366  1
  Mo  Mo204  1  0.69410206  0.29522872  0.10290632  1
  Mo  Mo205  1  0.49673915  0.30233765  0.69747403  1
  Mo  Mo206  1  0.60715537  -0.00641219  0.79295156  1
  Mo  Mo207  1  0.51613978  0.89913723  0.70854715  1
  Mo  Mo208  1  0.50352475  0.50784888  0.70191364  1
  Mo  Mo209  1  0.50406223  0.70136611  0.29913475  1
  Mo  Mo210  1  0.20037751  0.80307830  0.00307569  1
  Mo  Mo211  1  0.88513279  0.10862224  0.51142435  1
  Mo  Mo212  1  -0.01829847  0.00147228  -0.00091477  1
  Mo  Mo213  1  0.00187478  0.79486901  0.39599227  1
  Mo  Mo214  1  -0.01340024  0.20344268  0.79830406  1
  Mo  Mo215  1  0.69773769  0.70185710  0.69771428  1
  Mo  Mo216  1  0.19841961  0.79477018  0.58928889  1
  Mo  Mo217  1  0.31912910  0.69890913  0.30053369  1
  Mo  Mo218  1  0.79792675  0.20265171  0.60353422  1
  Mo  Mo219  1  0.30188714  0.50264000  0.11457488  1
  Mo  Mo220  1  0.40850633  0.79471619  0.20146796  1
  Mo  Mo221  1  0.31251023  0.10438115  0.89648389  1
  Mo  Mo222  1  0.59935975  -0.00319639  0.21288150  1
  Mo  Mo223  1  0.10342524  0.49820750  0.10562243  1
  Mo  Mo224  1  0.19474544  0.39644199  0.80174657  1
  Mo  Mo225  1  0.49445297  0.30317356  0.30089915  1
  Mo  Mo226  1  0.69442002  0.89733646  0.30026350  1
  Mo  Mo227  1  0.80008365  0.80117020  0.60122191  1
  Mo  Mo228  1  0.88668877  0.90072564  0.70008216  1
  Mo  Mo229  1  0.11359873  0.10528565  0.30892563  1
  Mo  Mo230  1  0.50562255  0.70397512  0.10326545  1
  Mo  Mo231  1  0.10354368  0.29732430  0.09126014  1
  Mo  Mo232  1  -0.00867846  0.39017321  0.79392094  1
  Mo  Mo233  1  0.59978855  0.79813919  0.20349035  1
  Mo  Mo234  1  0.69155930  0.29335578  0.30068939  1
  Mo  Mo235  1  0.09311081  0.10875680  0.89734396  1
  Mo  Mo236  1  0.21945493  0.00135361  -0.00974401  1
  Mo  Mo237  1  0.49868040  0.09596325  0.10041729  1
  Mo  Mo238  1  0.19911310  0.59819504  0.39317558  1
  Mo  Mo239  1  0.89022957  0.09732935  0.89919769  1
  Mo  Mo240  1  0.60298758  -0.00513240  0.59935806  1
  Mo  Mo241  1  0.58964266  0.40306007  0.40177966  1
  Mo  Mo242  1  0.21024060  0.20583604  0.39054207  1
  Mo  Mo243  1  0.40893106  0.80030326  0.39393452  1
  Mo  Mo244  1  0.60172020  0.79158294  0.80234781  1
  Mo  Mo245  1  0.79254781  0.79966379  0.20108960  1
  Mo  Mo246  1  0.79223972  0.40993769  0.00147034  1
  Mo  Mo247  1  0.60028601  0.79773228  0.60832089  1
  Mo  Mo248  1  0.40963001  0.40593609  0.80406182  1
  Mo  Mo249  1  0.20437934  -0.00196592  0.21714689  1
