# generated using pymatgen
data_HfZrTaTiMo
_symmetry_space_group_name_H-M   'P 1'
_cell_length_a   16.89206247
_cell_length_b   16.89121835
_cell_length_c   16.88618973
_cell_angle_alpha   89.99842594
_cell_angle_beta   90.00384482
_cell_angle_gamma   90.01321645
_symmetry_Int_Tables_number   1
_chemical_formula_structural   HfZrTaTiMo
_chemical_formula_sum   'Hf50 Zr50 Ta50 Ti50 Mo50'
_cell_volume   4818.09442403
_cell_formula_units_Z   50
loop_
 _symmetry_equiv_pos_site_id
 _symmetry_equiv_pos_as_xyz
  1  'x, y, z'
loop_
 _atom_site_type_symbol
 _atom_site_label
 _atom_site_symmetry_multiplicity
 _atom_site_fract_x
 _atom_site_fract_y
 _atom_site_fract_z
 _atom_site_occupancy
  Hf  Hf0  1  0.09980651  0.49194704  0.30430467  1
  Hf  Hf1  1  0.79581170  0.00695267  0.20299938  1
  Hf  Hf2  1  0.89582407  0.49341864  0.49405198  1
  Hf  Hf3  1  0.69602669  0.50103984  0.90100892  1
  Hf  Hf4  1  0.80248783  0.60416070  0.39350359  1
  Hf  Hf5  1  -0.01127783  0.20185393  0.21123157  1
  Hf  Hf6  1  0.00336290  0.81694177  0.60353829  1
  Hf  Hf7  1  0.09638638  0.10495218  0.50046063  1
  Hf  Hf8  1  0.79847008  0.19915579  0.39929201  1
  Hf  Hf9  1  0.09762252  0.09722910  0.10166457  1
  Hf  Hf10  1  0.50976600  0.29405189  0.70892366  1
  Hf  Hf11  1  0.89397361  0.49915532  0.10197864  1
  Hf  Hf12  1  0.39207496  0.80530209  0.60259391  1
  Hf  Hf13  1  -0.00394364  0.40561471  -0.00704800  1
  Hf  Hf14  1  0.22597138  0.21957621  0.39941178  1
  Hf  Hf15  1  0.40077519  -0.00837948  0.60039400  1
  Hf  Hf16  1  0.40812661  0.20287411  0.39057162  1
  Hf  Hf17  1  -0.00313985  0.39375220  0.60217444  1
  Hf  Hf18  1  0.60431108  -0.00067207  0.80773494  1
  Hf  Hf19  1  0.10833666  0.69719103  0.69571773  1
  Hf  Hf20  1  0.20554832  0.39140434  0.19788222  1
  Hf  Hf21  1  0.10039817  0.29865496  0.49416352  1
  Hf  Hf22  1  0.59776245  0.39472015  0.00947679  1
  Hf  Hf23  1  0.60822485  0.40915949  0.60961517  1
  Hf  Hf24  1  0.30381499  0.70179951  0.10211655  1
  Hf  Hf25  1  0.49769731  0.69516439  0.30450741  1
  Hf  Hf26  1  0.30115153  0.89435347  0.89938104  1
  Hf  Hf27  1  0.80060138  0.80409402  0.40099243  1
  Hf  Hf28  1  0.50103442  0.69934003  0.09986297  1
  Hf  Hf29  1  0.89253427  0.10303659  0.09754843  1
  Hf  Hf30  1  0.50556334  0.10281820  0.29334638  1
  Hf  Hf31  1  0.40754702  0.81062754  0.20735931  1
  Hf  Hf32  1  0.18025274  0.78969304  0.20141120  1
  Hf  Hf33  1  0.19497506  0.00178070  -0.00115948  1
  Hf  Hf34  1  0.80374432  0.00966992  0.39656750  1
  Hf  Hf35  1  0.20271001  0.39272328  -0.00211815  1
  Hf  Hf36  1  0.40272080  0.40750209  0.60796406  1
  Hf  Hf37  1  0.38137030  0.38539235  0.40144546  1
  Hf  Hf38  1  0.21517993  0.39817123  0.59737100  1
  Hf  Hf39  1  0.91301599  0.71568461  0.29293862  1
  Hf  Hf40  1  0.10114674  0.30120087  0.30516975  1
  Hf  Hf41  1  0.20530810  0.20020897  -0.00361869  1
  Hf  Hf42  1  0.30242997  0.69697932  0.30427142  1
  Hf  Hf43  1  0.69730299  0.49461107  0.48995622  1
  Hf  Hf44  1  0.50019704  0.69957331  0.90022483  1
  Hf  Hf45  1  0.51303443  0.31060380  0.49093768  1
  Hf  Hf46  1  0.68547273  0.70620968  0.89901636  1
  Hf  Hf47  1  -0.00806949  -0.00005517  0.40279917  1
  Hf  Hf48  1  0.29254311  0.89728282  0.09686898  1
  Hf  Hf49  1  0.79906625  0.80878462  0.79999422  1
  Zr  Zr50  1  0.69582344  0.89297932  0.09640212  1
  Zr  Zr51  1  0.40493164  -0.01118880  0.39281789  1
  Zr  Zr52  1  0.10083174  0.70449766  0.50236260  1
  Zr  Zr53  1  0.88696098  0.30551728  0.10261498  1
  Zr  Zr54  1  0.89207083  0.49655571  0.70181486  1
  Zr  Zr55  1  0.79592124  -0.00133402  -0.00314903  1
  Zr  Zr56  1  -0.00262879  0.21024846  -0.00335631  1
  Zr  Zr57  1  0.39611753  0.59773499  -0.00490424  1
  Zr  Zr58  1  0.60098753  0.39175743  0.19749714  1
  Zr  Zr59  1  0.50287807  0.69603340  0.71149179  1
  Zr  Zr60  1  0.50612751  0.88421251  0.90014451  1
  Zr  Zr61  1  0.30636290  0.49863830  0.10347163  1
  Zr  Zr62  1  0.49414204  0.69175258  0.50056234  1
  Zr  Zr63  1  0.69629557  0.89593550  0.29995954  1
  Zr  Zr64  1  0.10487207  0.49581051  0.49462371  1
  Zr  Zr65  1  0.90605672  0.10528442  0.90037198  1
  Zr  Zr66  1  0.89956997  0.10280765  0.69567437  1
  Zr  Zr67  1  0.69413567  0.90575690  0.50158645  1
  Zr  Zr68  1  0.20542410  0.19499272  0.79743491  1
  Zr  Zr69  1  0.69795973  0.90603310  0.69642077  1
  Zr  Zr70  1  0.28267587  0.90069758  0.29349933  1
  Zr  Zr71  1  0.40343700  0.19979855  0.59570172  1
  Zr  Zr72  1  0.50396360  0.11391698  0.09363697  1
  Zr  Zr73  1  0.00740233  0.60216636  0.19870729  1
  Zr  Zr74  1  0.49828132  0.49885208  0.30608116  1
  Zr  Zr75  1  0.80274901  0.80382434  -0.00987466  1
  Zr  Zr76  1  0.30581492  0.09293793  0.49561708  1
  Zr  Zr77  1  0.10927642  0.50378880  0.69817084  1
  Zr  Zr78  1  0.19382797  -0.01172021  0.40682551  1
  Zr  Zr79  1  0.00425253  0.80466078  -0.00644408  1
  Zr  Zr80  1  0.49696320  0.50865730  0.49840921  1
  Zr  Zr81  1  0.79894361  0.60201024  0.19941825  1
  Zr  Zr82  1  0.70451184  0.29732454  0.71143429  1
  Zr  Zr83  1  0.40315498  0.00489849  -0.00487957  1
  Zr  Zr84  1  0.40323988  0.00008020  0.19151400  1
  Zr  Zr85  1  0.61406213  0.19879828  0.58648333  1
  Zr  Zr86  1  -0.00767634  0.39609695  0.80647629  1
  Zr  Zr87  1  0.30384150  0.50361346  0.29857854  1
  Zr  Zr88  1  0.78716039  0.59866464  0.60434424  1
  Zr  Zr89  1  0.20617680  0.19529135  0.60794390  1
  Zr  Zr90  1  0.20825226  0.39621996  0.80094026  1
  Zr  Zr91  1  0.59684744  0.79792940  0.60485906  1
  Zr  Zr92  1  -0.00220982  0.00048487  0.20910913  1
  Zr  Zr93  1  -0.00359600  0.59613170  0.80638361  1
  Zr  Zr94  1  0.90141181  0.70606656  0.50082548  1
  Zr  Zr95  1  0.89899450  0.70185168  0.69738590  1
  Zr  Zr96  1  0.10562721  0.10708792  0.30702021  1
  Zr  Zr97  1  0.40040083  0.19366978  0.80268982  1
  Zr  Zr98  1  -0.00345623  0.80940898  0.80067210  1
  Zr  Zr99  1  0.70355720  0.10342679  0.69868447  1
  Ta  Ta100  1  0.19302965  0.60252287  0.19804459  1
  Ta  Ta101  1  0.69808162  0.10867754  0.90801644  1
  Ta  Ta102  1  0.31017683  0.30067488  0.70599488  1
  Ta  Ta103  1  0.40106047  0.00144910  0.79447007  1
  Ta  Ta104  1  0.89550486  0.29226626  0.70131588  1
  Ta  Ta105  1  0.59621039  -0.00323687  0.19508824  1
  Ta  Ta106  1  0.09644260  0.09708629  0.88896158  1
  Ta  Ta107  1  0.19621033  0.60374176  0.39748466  1
  Ta  Ta108  1  0.69750105  0.29467050  0.90526759  1
  Ta  Ta109  1  0.78563202  0.20258194  0.20133631  1
  Ta  Ta110  1  0.41031376  0.38428195  0.19995699  1
  Ta  Ta111  1  0.79931177  0.39048459  0.59862373  1
  Ta  Ta112  1  0.60755558  0.60106889  0.39373340  1
  Ta  Ta113  1  -0.00325091  -0.00572266  0.79429183  1
  Ta  Ta114  1  0.90168715  0.89275481  0.10793311  1
  Ta  Ta115  1  0.50922612  0.09444589  0.69728964  1
  Ta  Ta116  1  0.20768125  0.19869667  0.19131367  1
  Ta  Ta117  1  0.00112375  0.60270472  0.39572842  1
  Ta  Ta118  1  0.50312795  0.50644118  0.71355390  1
  Ta  Ta119  1  0.78950775  0.60217467  0.80091150  1
  Ta  Ta120  1  0.89828882  0.48833235  0.29911829  1
  Ta  Ta121  1  0.20095764  -0.00457944  0.60369689  1
  Ta  Ta122  1  0.49619065  0.50247508  0.10530094  1
  Ta  Ta123  1  0.69924808  0.70203963  0.10127778  1
  Ta  Ta124  1  0.19692592  0.60047926  -0.00073999  1
  Ta  Ta125  1  0.10811822  0.50342831  0.90142354  1
  Ta  Ta126  1  0.29642766  0.09107066  0.89463427  1
  Ta  Ta127  1  0.51214456  0.09201151  0.49786348  1
  Ta  Ta128  1  0.20331603  0.79578871  0.79741275  1
  Ta  Ta129  1  0.29532301  0.69621542  0.50347120  1
  Ta  Ta130  1  0.80486835  -0.00288094  0.80731513  1
  Ta  Ta131  1  0.69194807  0.70376550  0.49580838  1
  Ta  Ta132  1  -0.00113912  0.20451512  0.60074999  1
  Ta  Ta133  1  0.29902550  0.09867503  0.28572324  1
  Ta  Ta134  1  0.21462155  0.60330036  0.80018994  1
  Ta  Ta135  1  0.00105063  0.59543402  0.59463917  1
  Ta  Ta136  1  0.69586322  0.70535054  0.29624008  1
  Ta  Ta137  1  0.50673238  0.29500756  0.90335254  1
  Ta  Ta138  1  0.10623967  0.69666354  0.89763331  1
  Ta  Ta139  1  0.09608699  0.29379725  0.89275614  1
  Ta  Ta140  1  0.30199905  0.49750578  0.90150502  1
  Ta  Ta141  1  0.40368124  0.39975017  0.80788660  1
  Ta  Ta142  1  -0.00206772  0.59766971  -0.00403933  1
  Ta  Ta143  1  0.31328187  0.29188640  0.09766279  1
  Ta  Ta144  1  0.89827781  0.70586180  0.09861949  1
  Ta  Ta145  1  0.80439689  0.20286678  0.81315339  1
  Ta  Ta146  1  0.50197519  0.50021555  0.90003571  1
  Ta  Ta147  1  0.39660557  0.80547521  0.40762595  1
  Ta  Ta148  1  0.70426515  0.49320091  0.29988959  1
  Ta  Ta149  1  0.59576392  0.80168957  0.20190994  1
  Ti  Ti150  1  0.09734702  0.09541180  0.70453833  1
  Ti  Ti151  1  0.89931281  0.69572625  0.90110395  1
  Ti  Ti152  1  0.29983804  0.70457016  0.90267717  1
  Ti  Ti153  1  0.60307059  0.59768544  0.20050958  1
  Ti  Ti154  1  0.79682411  0.80142116  0.60397736  1
  Ti  Ti155  1  0.79796701  0.01148825  0.59050745  1
  Ti  Ti156  1  0.60992079  0.59933815  0.61288851  1
  Ti  Ti157  1  -0.00131573  0.39655014  0.19838271  1
  Ti  Ti158  1  0.40482825  0.39286063  -0.00184276  1
  Ti  Ti159  1  0.50963542  0.89835738  0.49286923  1
  Ti  Ti160  1  0.09546351  0.90290567  0.10592008  1
  Ti  Ti161  1  0.88888679  0.30639415  0.30343229  1
  Ti  Ti162  1  0.60447035  0.00279304  0.00075246  1
  Ti  Ti163  1  0.39659278  0.19965201  -0.00632608  1
  Ti  Ti164  1  0.19475356  0.80123465  0.40685409  1
  Ti  Ti165  1  0.10798220  0.90739002  0.70417412  1
  Ti  Ti166  1  0.60296779  0.00223247  0.39645986  1
  Ti  Ti167  1  0.69928146  0.30907400  0.30416043  1
  Ti  Ti168  1  0.50845569  0.10725102  0.89885282  1
  Ti  Ti169  1  0.29888671  0.51075826  0.49528422  1
  Ti  Ti170  1  0.50314868  0.89155194  0.08643768  1
  Ti  Ti171  1  0.80166306  0.40012388  0.80805933  1
  Ti  Ti172  1  0.90199454  0.11246159  0.50332106  1
  Ti  Ti173  1  -0.01092032  0.39061355  0.40103826  1
  Ti  Ti174  1  0.09743374  0.29848616  0.10056700  1
  Ti  Ti175  1  0.50485658  0.90005772  0.70604902  1
  Ti  Ti176  1  0.60523897  0.20244850  0.39523667  1
  Ti  Ti177  1  0.60157145  0.59519225  0.00773528  1
  Ti  Ti178  1  0.19317424  0.79635875  -0.00347040  1
  Ti  Ti179  1  0.09678573  0.29410479  0.70579974  1
  Ti  Ti180  1  0.60067695  0.40301922  0.80410297  1
  Ti  Ti181  1  0.80180796  0.59975362  -0.00385495  1
  Ti  Ti182  1  0.70697836  0.30728268  0.49083195  1
  Ti  Ti183  1  0.29250527  0.90572850  0.70879869  1
  Ti  Ti184  1  0.60220252  0.20968034  0.19206714  1
  Ti  Ti185  1  0.00202421  -0.00103153  0.60081739  1
  Ti  Ti186  1  0.08388072  0.88361244  0.30578850  1
  Ti  Ti187  1  0.39115805  0.79697046  0.79164991  1
  Ti  Ti188  1  -0.00193797  -0.00834094  -0.00699038  1
  Ti  Ti189  1  0.79609067  0.39593393  -0.00526574  1
  Ti  Ti190  1  0.89790753  0.90375940  0.50601843  1
  Ti  Ti191  1  0.90205032  0.89112211  0.29327807  1
  Ti  Ti192  1  0.20569473  0.80872512  0.60079255  1
  Ti  Ti193  1  0.69138159  0.10398656  0.29484209  1
  Ti  Ti194  1  0.38272538  0.59895942  0.61536154  1
  Ti  Ti195  1  0.10690514  0.90472990  0.88976827  1
  Ti  Ti196  1  0.09275019  0.69702198  0.09039787  1
  Ti  Ti197  1  0.39180120  0.59672457  0.80040652  1
  Ti  Ti198  1  0.70432222  0.49769518  0.10313688  1
  Ti  Ti199  1  0.10068286  0.49839889  0.09737840  1
  Mo  Mo200  1  0.39954405  0.20007616  0.19690635  1
  Mo  Mo201  1  0.30739390  0.30150591  0.51504587  1
  Mo  Mo202  1  -0.01432953  0.20460977  0.40388695  1
  Mo  Mo203  1  0.59475403  0.79557269  0.39784928  1
  Mo  Mo204  1  0.59944487  0.79531588  0.00726084  1
  Mo  Mo205  1  0.79193653  0.20426880  0.00279905  1
  Mo  Mo206  1  0.29859734  0.70115480  0.70012417  1
  Mo  Mo207  1  0.60153507  0.20294066  0.00174091  1
  Mo  Mo208  1  0.69336329  0.10327092  0.10261405  1
  Mo  Mo209  1  0.20859208  0.59831369  0.59899662  1
  Mo  Mo210  1  0.00247281  0.19872149  0.79284506  1
  Mo  Mo211  1  0.60082190  0.59476547  0.80193897  1
  Mo  Mo212  1  0.20616500  0.40417963  0.40144673  1
  Mo  Mo213  1  0.39205100  0.60665339  0.40600835  1
  Mo  Mo214  1  0.80509130  0.20629902  0.59044315  1
  Mo  Mo215  1  0.49646155  0.29788884  0.09401742  1
  Mo  Mo216  1  0.90582728  0.90752277  0.89833866  1
  Mo  Mo217  1  0.69729195  0.90610670  0.89948714  1
  Mo  Mo218  1  0.40261476  0.59641165  0.20051524  1
  Mo  Mo219  1  0.50958377  0.89861794  0.30662409  1
  Mo  Mo220  1  0.29825211  0.10252749  0.09529891  1
  Mo  Mo221  1  0.19705319  -0.00411628  0.79782899  1
  Mo  Mo222  1  -0.00087387  0.80982959  0.40663482  1
  Mo  Mo223  1  0.69807030  0.10000675  0.49241435  1
  Mo  Mo224  1  0.70093314  0.29447838  0.09556904  1
  Mo  Mo225  1  0.39697889  0.79706548  0.00168519  1
  Mo  Mo226  1  0.79854555  0.79876116  0.19666428  1
  Mo  Mo227  1  0.88680907  0.50546590  0.90581515  1
  Mo  Mo228  1  0.29358749  0.88952508  0.50484521  1
  Mo  Mo229  1  0.30914774  0.50171741  0.70924002  1
  Mo  Mo230  1  0.79390728  0.39805019  0.20336393  1
  Mo  Mo231  1  0.89266935  0.91351386  0.69164811  1
  Mo  Mo232  1  0.30459721  0.29450437  0.28187646  1
  Mo  Mo233  1  0.69924563  0.69995284  0.70340804  1
  Mo  Mo234  1  0.89916904  0.29696548  0.50291475  1
  Mo  Mo235  1  0.60244713  0.19477021  0.80892367  1
  Mo  Mo236  1  0.00185563  0.80174778  0.19028330  1
  Mo  Mo237  1  0.60464025  0.40030575  0.39364944  1
  Mo  Mo238  1  0.30633317  0.08740761  0.70196388  1
  Mo  Mo239  1  0.31067973  0.30073300  0.90394705  1
  Mo  Mo240  1  0.60389943  0.80238962  0.79992021  1
  Mo  Mo241  1  0.89331290  0.11069823  0.29931632  1
  Mo  Mo242  1  0.59218126  0.00127145  0.59804564  1
  Mo  Mo243  1  0.09958332  0.90316898  0.50784882  1
  Mo  Mo244  1  0.10129074  0.69959673  0.31052353  1
  Mo  Mo245  1  0.50569035  0.29435058  0.29715672  1
  Mo  Mo246  1  0.89234091  0.30520226  0.89675751  1
  Mo  Mo247  1  0.19442247  0.00324934  0.19423125  1
  Mo  Mo248  1  0.69797936  0.49638286  0.71064749  1
  Mo  Mo249  1  0.79998324  0.39531095  0.39712448  1
