# generated using pymatgen
data_HfZrTaTiMo
_symmetry_space_group_name_H-M   'P 1'
_cell_length_a   16.89334878
_cell_length_b   16.88981556
_cell_length_c   16.89566106
_cell_angle_alpha   89.99540001
_cell_angle_beta   89.98519985
_cell_angle_gamma   90.00346563
_symmetry_Int_Tables_number   1
_chemical_formula_structural   HfZrTaTiMo
_chemical_formula_sum   'Hf50 Zr50 Ta50 Ti50 Mo50'
_cell_volume   4820.76351644
_cell_formula_units_Z   50
loop_
 _symmetry_equiv_pos_site_id
 _symmetry_equiv_pos_as_xyz
  1  'x, y, z'
loop_
 _atom_site_type_symbol
 _atom_site_label
 _atom_site_symmetry_multiplicity
 _atom_site_fract_x
 _atom_site_fract_y
 _atom_site_fract_z
 _atom_site_occupancy
  Hf  Hf0  1  0.19728662  0.80654339  -0.00673392  1
  Hf  Hf1  1  -0.00191040  0.40857277  0.61441279  1
  Hf  Hf2  1  0.39242077  0.79026115  0.39028731  1
  Hf  Hf3  1  0.40159393  -0.00392727  0.80918339  1
  Hf  Hf4  1  0.90390410  0.30362182  0.09278638  1
  Hf  Hf5  1  0.69322474  0.89707032  0.29365447  1
  Hf  Hf6  1  0.40388788  -0.00257234  0.40307292  1
  Hf  Hf7  1  0.70214723  0.29735660  0.09570258  1
  Hf  Hf8  1  0.70182494  0.31150038  0.30915976  1
  Hf  Hf9  1  0.00240877  0.20646709  0.20618426  1
  Hf  Hf10  1  0.29836763  0.49905437  0.90028046  1
  Hf  Hf11  1  -0.00131345  0.59696537  -0.01125471  1
  Hf  Hf12  1  0.80832275  -0.00158721  0.19161996  1
  Hf  Hf13  1  0.00100929  0.80600592  -0.00324961  1
  Hf  Hf14  1  0.09365824  0.49614986  0.09760194  1
  Hf  Hf15  1  0.70165833  0.68940710  0.28505961  1
  Hf  Hf16  1  0.80265127  0.19011318  0.61225498  1
  Hf  Hf17  1  0.29044616  0.30746644  0.89939579  1
  Hf  Hf18  1  0.80612245  0.39936198  0.60771627  1
  Hf  Hf19  1  0.19892653  0.20770383  0.40177023  1
  Hf  Hf20  1  0.91161468  0.70464811  0.69790733  1
  Hf  Hf21  1  0.38920043  0.20495617  0.59335391  1
  Hf  Hf22  1  0.39103140  0.80510349  0.19383730  1
  Hf  Hf23  1  0.89892299  0.69871587  0.10424422  1
  Hf  Hf24  1  0.81481528  -0.00814070  0.40050717  1
  Hf  Hf25  1  0.20135243  -0.01670577  0.19445461  1
  Hf  Hf26  1  0.90084127  0.29687863  0.50056045  1
  Hf  Hf27  1  0.49919075  0.30302667  0.49669228  1
  Hf  Hf28  1  0.09375246  0.09474543  0.09871657  1
  Hf  Hf29  1  0.09520114  0.69881315  0.10394011  1
  Hf  Hf30  1  0.18287217  0.00594283  0.60662843  1
  Hf  Hf31  1  0.29651972  0.09972505  0.10149960  1
  Hf  Hf32  1  0.60214939  0.39515315  0.60187391  1
  Hf  Hf33  1  0.91430994  0.69512433  0.49175736  1
  Hf  Hf34  1  0.59297437  0.40489245  0.80187712  1
  Hf  Hf35  1  0.60300964  0.60564323  -0.00090506  1
  Hf  Hf36  1  0.59902150  0.20403093  0.20059312  1
  Hf  Hf37  1  0.30298747  0.09850929  0.29784684  1
  Hf  Hf38  1  0.30167322  0.69394965  0.89827614  1
  Hf  Hf39  1  0.09744267  0.29982366  0.50843067  1
  Hf  Hf40  1  0.70215303  0.49418875  0.48640405  1
  Hf  Hf41  1  0.30127323  0.89472731  0.69622886  1
  Hf  Hf42  1  0.70014781  0.28838232  0.71692458  1
  Hf  Hf43  1  0.29318546  0.69565922  0.50300868  1
  Hf  Hf44  1  0.19612762  0.40036178  0.20427061  1
  Hf  Hf45  1  0.80940403  0.80905317  0.59240187  1
  Hf  Hf46  1  0.29766987  0.89540892  0.50169478  1
  Hf  Hf47  1  0.50268542  0.10450612  0.09355174  1
  Hf  Hf48  1  0.29534208  0.09934774  0.70584839  1
  Hf  Hf49  1  0.18920827  -0.01440693  0.80499581  1
  Zr  Zr50  1  0.39907571  0.59659678  0.60652516  1
  Zr  Zr51  1  0.58817268  0.59440917  0.62022141  1
  Zr  Zr52  1  0.80694128  -0.00584158  0.60651083  1
  Zr  Zr53  1  0.49642869  0.69851902  0.50034953  1
  Zr  Zr54  1  0.59851902  0.20184554  0.40324978  1
  Zr  Zr55  1  0.19378674  0.20778118  0.00521823  1
  Zr  Zr56  1  0.50589759  0.29567539  0.90797547  1
  Zr  Zr57  1  0.90053048  0.50515771  0.48195227  1
  Zr  Zr58  1  0.69946363  0.90170642  0.90509538  1
  Zr  Zr59  1  0.42124196  0.60446272  0.79123775  1
  Zr  Zr60  1  0.80433052  0.81598403  0.79180213  1
  Zr  Zr61  1  0.50390874  0.10971917  0.70097455  1
  Zr  Zr62  1  0.19491273  0.21257492  0.20256469  1
  Zr  Zr63  1  0.10745436  0.90148058  0.49186115  1
  Zr  Zr64  1  0.69588156  0.70817016  0.69528321  1
  Zr  Zr65  1  0.80874550  0.40722648  0.20066074  1
  Zr  Zr66  1  0.49067396  0.49799181  0.90848310  1
  Zr  Zr67  1  0.40436370  0.80397779  0.81049817  1
  Zr  Zr68  1  0.49666836  0.49584232  0.49307856  1
  Zr  Zr69  1  0.91224705  0.09586289  0.50285059  1
  Zr  Zr70  1  0.70049670  0.68796258  0.49569034  1
  Zr  Zr71  1  0.80188726  0.19199074  0.20069368  1
  Zr  Zr72  1  0.39484256  0.20137878  0.80413046  1
  Zr  Zr73  1  0.68526198  0.90451525  0.49453195  1
  Zr  Zr74  1  0.50248536  0.90268352  0.29556133  1
  Zr  Zr75  1  0.80877752  0.79975499  0.39743931  1
  Zr  Zr76  1  0.89969695  0.70445557  0.89772598  1
  Zr  Zr77  1  0.01437359  0.80986016  0.79918389  1
  Zr  Zr78  1  0.80197825  0.60401750  0.80593405  1
  Zr  Zr79  1  0.10967919  0.51149488  0.50455654  1
  Zr  Zr80  1  0.60688788  0.40564869  0.00986323  1
  Zr  Zr81  1  0.80918660  0.80702511  0.19512153  1
  Zr  Zr82  1  0.00449512  0.40088226  0.39272186  1
  Zr  Zr83  1  0.39606476  0.19839659  -0.00106627  1
  Zr  Zr84  1  0.81156377  0.59498225  0.60455072  1
  Zr  Zr85  1  -0.00996003  0.19613462  0.80166999  1
  Zr  Zr86  1  0.29587460  0.69669366  0.09875100  1
  Zr  Zr87  1  0.29067517  0.09505351  0.49507402  1
  Zr  Zr88  1  0.09533887  0.09801863  0.90500330  1
  Zr  Zr89  1  0.39338966  -0.01162760  0.00192888  1
  Zr  Zr90  1  0.69524147  0.09066450  0.31214880  1
  Zr  Zr91  1  0.70708882  0.49569501  0.71229876  1
  Zr  Zr92  1  0.60092422  0.00510048  0.19104398  1
  Zr  Zr93  1  0.20495607  0.39554110  0.39896799  1
  Zr  Zr94  1  0.49189315  0.49942054  0.11090263  1
  Zr  Zr95  1  0.10355838  0.08758614  0.30584644  1
  Zr  Zr96  1  0.59124652  0.78914611  0.80729681  1
  Zr  Zr97  1  0.60211622  0.00385072  0.79536700  1
  Zr  Zr98  1  0.59490005  0.79204218  0.39522243  1
  Zr  Zr99  1  0.80573261  0.01598644  0.79458489  1
  Ta  Ta100  1  0.49609129  0.31050198  0.29794725  1
  Ta  Ta101  1  0.39643045  0.40137514  0.39872755  1
  Ta  Ta102  1  0.80256782  0.40894847  -0.00059730  1
  Ta  Ta103  1  0.29929425  0.50388398  0.49864933  1
  Ta  Ta104  1  0.70442117  0.49932099  0.90152260  1
  Ta  Ta105  1  0.29259469  0.50264586  0.69915278  1
  Ta  Ta106  1  0.29825599  0.70164630  0.69990239  1
  Ta  Ta107  1  0.59186404  0.59071252  0.38404571  1
  Ta  Ta108  1  0.10053292  0.50644480  0.30114092  1
  Ta  Ta109  1  0.70769188  0.29995515  0.90091939  1
  Ta  Ta110  1  0.49427682  0.30831702  0.10621070  1
  Ta  Ta111  1  0.59543053  0.00479132  0.59880664  1
  Ta  Ta112  1  0.39512871  0.39873797  0.79070896  1
  Ta  Ta113  1  0.19358086  0.20130141  0.60419139  1
  Ta  Ta114  1  0.89747864  0.29980182  0.30881407  1
  Ta  Ta115  1  0.39534087  0.60035739  0.20535061  1
  Ta  Ta116  1  0.19514163  0.79605594  0.20925807  1
  Ta  Ta117  1  0.19248872  0.79397103  0.60500252  1
  Ta  Ta118  1  0.30351294  0.50503596  0.30327640  1
  Ta  Ta119  1  0.30957035  0.31346768  0.10186442  1
  Ta  Ta120  1  0.49987843  0.69240397  0.28730564  1
  Ta  Ta121  1  0.49294071  0.10457656  0.30182288  1
  Ta  Ta122  1  0.19325460  0.59752133  -0.00432104  1
  Ta  Ta123  1  0.80312351  0.19530269  0.40324223  1
  Ta  Ta124  1  0.09267946  0.31163144  0.90140094  1
  Ta  Ta125  1  0.40570339  -0.00078516  0.60001439  1
  Ta  Ta126  1  0.20030073  0.59975444  0.20379487  1
  Ta  Ta127  1  0.19261754  0.60150086  0.79830622  1
  Ta  Ta128  1  0.20019167  0.60901962  0.39215580  1
  Ta  Ta129  1  0.01066905  0.59962283  0.60503363  1
  Ta  Ta130  1  0.69814420  0.09644955  0.50225747  1
  Ta  Ta131  1  -0.00113564  0.59443776  0.20519015  1
  Ta  Ta132  1  0.80704857  0.19327994  -0.00929541  1
  Ta  Ta133  1  0.19536495  0.79686974  0.80358776  1
  Ta  Ta134  1  0.80462846  0.00365655  -0.00158780  1
  Ta  Ta135  1  0.49930969  0.29728511  0.69991309  1
  Ta  Ta136  1  -0.00286954  0.40463219  0.79811451  1
  Ta  Ta137  1  0.40339815  0.80198203  0.00100799  1
  Ta  Ta138  1  0.70038515  0.70359584  0.10192123  1
  Ta  Ta139  1  0.10013266  0.49458520  0.89778744  1
  Ta  Ta140  1  0.79623367  0.59935351  0.00107061  1
  Ta  Ta141  1  0.28837968  0.09450161  0.90155867  1
  Ta  Ta142  1  0.00011423  -0.00094894  0.78607358  1
  Ta  Ta143  1  0.69667758  0.89729829  0.09068736  1
  Ta  Ta144  1  0.70669998  0.50351315  0.30119011  1
  Ta  Ta145  1  0.90524701  0.68884703  0.29989362  1
  Ta  Ta146  1  0.90757851  0.09897058  0.09274022  1
  Ta  Ta147  1  0.01128662  0.79438048  0.39144926  1
  Ta  Ta148  1  0.00434761  -0.00909721  0.40054382  1
  Ta  Ta149  1  0.00673577  0.19104511  0.61181426  1
  Ti  Ti150  1  0.69793726  0.10094063  0.08239915  1
  Ti  Ti151  1  0.49940597  0.89404328  0.68915834  1
  Ti  Ti152  1  0.00847717  0.59248647  0.79430969  1
  Ti  Ti153  1  0.70293327  0.51347527  0.11284444  1
  Ti  Ti154  1  0.89813026  0.49311888  0.89475228  1
  Ti  Ti155  1  0.90717138  0.09887163  0.30124133  1
  Ti  Ti156  1  0.50518182  0.70140755  0.10790281  1
  Ti  Ti157  1  0.19368234  0.79086296  0.39140015  1
  Ti  Ti158  1  0.59737201  0.60701236  0.80896537  1
  Ti  Ti159  1  0.91754999  0.89102108  0.29467810  1
  Ti  Ti160  1  0.31096403  0.30532106  0.29476513  1
  Ti  Ti161  1  0.19794705  0.40388276  0.00388253  1
  Ti  Ti162  1  0.19247875  0.40595334  0.79207625  1
  Ti  Ti163  1  0.80213602  0.80313779  -0.00117865  1
  Ti  Ti164  1  0.50206044  0.09997334  0.49810375  1
  Ti  Ti165  1  0.59876520  0.79112635  -0.00092265  1
  Ti  Ti166  1  0.29181286  0.30190623  0.70107262  1
  Ti  Ti167  1  0.59817192  0.40973665  0.20913454  1
  Ti  Ti168  1  0.08985346  0.89424803  0.10646036  1
  Ti  Ti169  1  0.00888829  0.80607387  0.59408837  1
  Ti  Ti170  1  0.19006489  0.19922654  0.79893216  1
  Ti  Ti171  1  -0.00105653  0.40130872  0.20773296  1
  Ti  Ti172  1  0.19860125  -0.01495165  -0.00018640  1
  Ti  Ti173  1  0.39497635  0.20744638  0.40161256  1
  Ti  Ti174  1  0.89415101  0.29993676  0.71303531  1
  Ti  Ti175  1  -0.00622883  0.20155387  -0.00601768  1
  Ti  Ti176  1  0.68659981  0.89774528  0.69102636  1
  Ti  Ti177  1  0.70660615  0.29995308  0.49627672  1
  Ti  Ti178  1  0.90357498  0.50083833  0.09769393  1
  Ti  Ti179  1  0.40293246  0.20519203  0.19995059  1
  Ti  Ti180  1  0.49800381  0.89436379  0.50679859  1
  Ti  Ti181  1  0.69379996  0.11352851  0.89746071  1
  Ti  Ti182  1  -0.00388982  -0.00910619  0.19902712  1
  Ti  Ti183  1  0.51194268  0.89721339  0.09620876  1
  Ti  Ti184  1  0.39786575  -0.00624743  0.19456977  1
  Ti  Ti185  1  0.29071225  0.90235924  0.30777408  1
  Ti  Ti186  1  0.51194717  0.90531913  0.91403983  1
  Ti  Ti187  1  0.40118185  0.60452296  0.00698171  1
  Ti  Ti188  1  0.20331384  0.39980339  0.60491398  1
  Ti  Ti189  1  0.00644529  0.19678580  0.39992113  1
  Ti  Ti190  1  0.10432132  0.69553657  0.69604959  1
  Ti  Ti191  1  0.90091868  0.90790161  0.89819101  1
  Ti  Ti192  1  0.60621100  0.19712896  0.60011770  1
  Ti  Ti193  1  0.39104103  0.39678779  0.60143783  1
  Ti  Ti194  1  0.30168336  0.49764257  0.10042225  1
  Ti  Ti195  1  0.51305112  0.10195966  0.90783281  1
  Ti  Ti196  1  -0.00557395  -0.00685739  -0.00263951  1
  Ti  Ti197  1  0.89533436  0.30622610  0.89926907  1
  Ti  Ti198  1  0.09992130  0.30099610  0.70521849  1
  Ti  Ti199  1  0.08930246  0.30960375  0.09164918  1
  Mo  Mo200  1  0.09505955  0.90408790  0.90246033  1
  Mo  Mo201  1  0.09961515  0.69696320  0.29801183  1
  Mo  Mo202  1  0.91580275  0.90431401  0.68884355  1
  Mo  Mo203  1  0.10341985  0.69121637  0.89582093  1
  Mo  Mo204  1  0.60864939  0.20088213  0.00053626  1
  Mo  Mo205  1  0.39451590  0.80296826  0.59957010  1
  Mo  Mo206  1  0.80534594  0.59715779  0.19262905  1
  Mo  Mo207  1  0.90215229  0.09482516  0.90384853  1
  Mo  Mo208  1  0.90902886  0.50436978  0.71018793  1
  Mo  Mo209  1  0.10021702  0.10432950  0.70424817  1
  Mo  Mo210  1  0.39685557  0.59625461  0.39223329  1
  Mo  Mo211  1  0.80151017  0.39462798  0.39949414  1
  Mo  Mo212  1  0.59160403  0.80759782  0.59934134  1
  Mo  Mo213  1  0.90020516  0.90508729  0.09270575  1
  Mo  Mo214  1  0.58637576  0.00561340  0.40925474  1
  Mo  Mo215  1  0.49054110  0.47805493  0.69812829  1
  Mo  Mo216  1  0.09748544  0.89233284  0.29668335  1
  Mo  Mo217  1  0.29979744  0.30789050  0.50596519  1
  Mo  Mo218  1  0.29852144  0.69788764  0.29878386  1
  Mo  Mo219  1  0.10155393  0.89359907  0.69511560  1
  Mo  Mo220  1  0.80048448  0.20041974  0.80856381  1
  Mo  Mo221  1  0.80339755  0.59591225  0.38675600  1
  Mo  Mo222  1  0.20129839  0.60380384  0.60610397  1
  Mo  Mo223  1  0.29536053  0.89598222  0.90290858  1
  Mo  Mo224  1  0.39430169  0.40397690  0.20615422  1
  Mo  Mo225  1  0.69528275  0.10271651  0.69454969  1
  Mo  Mo226  1  0.49790469  0.69938736  0.92119332  1
  Mo  Mo227  1  0.49794978  0.49893370  0.30004293  1
  Mo  Mo228  1  0.80701764  0.39768625  0.80914638  1
  Mo  Mo229  1  0.60689557  0.00484478  -0.00182012  1
  Mo  Mo230  1  0.20000934  -0.00397165  0.39451368  1
  Mo  Mo231  1  0.09107942  0.30418235  0.30114432  1
  Mo  Mo232  1  0.90497043  0.09961533  0.70107018  1
  Mo  Mo233  1  0.59707365  0.79680081  0.18657337  1
  Mo  Mo234  1  0.00913601  0.60412025  0.39336463  1
  Mo  Mo235  1  0.39123310  0.40176242  0.00441690  1
  Mo  Mo236  1  0.00283576  0.79827634  0.20223443  1
  Mo  Mo237  1  0.70090252  0.69809333  0.91063623  1
  Mo  Mo238  1  0.59844178  0.40176328  0.39574284  1
  Mo  Mo239  1  0.60002722  0.59904069  0.19711380  1
  Mo  Mo240  1  0.00306005  -0.00175358  0.60132750  1
  Mo  Mo241  1  0.09669624  0.10435577  0.50089988  1
  Mo  Mo242  1  0.10255918  0.70191190  0.49951525  1
  Mo  Mo243  1  0.10573853  0.50028205  0.70476441  1
  Mo  Mo244  1  0.91809982  0.89405442  0.49559711  1
  Mo  Mo245  1  0.29691391  0.89367590  0.10115711  1
  Mo  Mo246  1  0.60142142  0.20227060  0.80609917  1
  Mo  Mo247  1  0.90164923  0.50207904  0.29462665  1
  Mo  Mo248  1  0.49383971  0.72412234  0.68572553  1
  Mo  Mo249  1  -0.00588769  0.40372260  -0.00945086  1
