# generated using pymatgen
data_HfZrTaTiMo
_symmetry_space_group_name_H-M   'P 1'
_cell_length_a   16.88738355
_cell_length_b   16.89547216
_cell_length_c   16.88808118
_cell_angle_alpha   90.00952157
_cell_angle_beta   89.96490081
_cell_angle_gamma   89.97736836
_symmetry_Int_Tables_number   1
_chemical_formula_structural   HfZrTaTiMo
_chemical_formula_sum   'Hf50 Zr50 Ta50 Ti50 Mo50'
_cell_volume   4818.51135754
_cell_formula_units_Z   50
loop_
 _symmetry_equiv_pos_site_id
 _symmetry_equiv_pos_as_xyz
  1  'x, y, z'
loop_
 _atom_site_type_symbol
 _atom_site_label
 _atom_site_symmetry_multiplicity
 _atom_site_fract_x
 _atom_site_fract_y
 _atom_site_fract_z
 _atom_site_occupancy
  Hf  Hf0  1  0.59160217  0.60123625  0.79034609  1
  Hf  Hf1  1  0.40237811  0.20966263  0.19907053  1
  Hf  Hf2  1  0.69553155  0.30007212  0.69533698  1
  Hf  Hf3  1  0.50545738  0.88663396  0.10472536  1
  Hf  Hf4  1  0.50414713  0.29404318  0.69219702  1
  Hf  Hf5  1  0.69172587  0.29547812  0.50533580  1
  Hf  Hf6  1  0.80478700  0.40217401  0.59695753  1
  Hf  Hf7  1  0.69783747  0.09348549  0.10368877  1
  Hf  Hf8  1  0.39936860  0.59364016  0.40280246  1
  Hf  Hf9  1  0.80245264  0.79940331  0.80107965  1
  Hf  Hf10  1  0.00133130  0.20146546  0.19975716  1
  Hf  Hf11  1  0.69395732  0.30488250  0.89909507  1
  Hf  Hf12  1  0.20741283  0.40248488  0.18461005  1
  Hf  Hf13  1  0.20196132  0.79561680  0.20829226  1
  Hf  Hf14  1  0.39695854  -0.00324208  -0.00193941  1
  Hf  Hf15  1  0.89800393  0.09636656  0.30086978  1
  Hf  Hf16  1  -0.00521024  0.60742962  0.40063587  1
  Hf  Hf17  1  0.10219035  0.69647303  0.10110781  1
  Hf  Hf18  1  0.69946524  0.50125637  0.89275970  1
  Hf  Hf19  1  0.09357664  0.70287152  0.50468823  1
  Hf  Hf20  1  0.00077700  0.40309415  0.40698571  1
  Hf  Hf21  1  0.30573336  0.12192110  0.51664578  1
  Hf  Hf22  1  0.80598223  0.59433306  -0.00094516  1
  Hf  Hf23  1  0.89970044  0.09813882  0.09636936  1
  Hf  Hf24  1  0.49503729  0.89269203  0.49594929  1
  Hf  Hf25  1  0.60193063  0.60112337  0.00573078  1
  Hf  Hf26  1  0.50289720  0.29806206  0.50345811  1
  Hf  Hf27  1  0.39133932  0.39691646  0.80094882  1
  Hf  Hf28  1  0.29660801  0.90235660  0.10635707  1
  Hf  Hf29  1  0.10440556  0.09592098  0.29798615  1
  Hf  Hf30  1  0.50109213  0.09884832  0.30275820  1
  Hf  Hf31  1  0.69569756  0.08774815  0.88950279  1
  Hf  Hf32  1  0.20677976  0.60303252  0.40559615  1
  Hf  Hf33  1  0.20567126  0.20179453  -0.01147906  1
  Hf  Hf34  1  0.69795093  0.70192901  0.49481716  1
  Hf  Hf35  1  0.12043392  0.51292748  0.89773483  1
  Hf  Hf36  1  0.10092877  0.90020758  0.30777253  1
  Hf  Hf37  1  0.80674866  0.79821444  0.59906136  1
  Hf  Hf38  1  -0.00452722  0.20343324  0.41320103  1
  Hf  Hf39  1  0.69845000  0.50271610  0.49815822  1
  Hf  Hf40  1  0.49864071  0.69968102  0.29592270  1
  Hf  Hf41  1  0.19748171  0.00502919  0.42544478  1
  Hf  Hf42  1  0.19766873  0.00492547  0.61229306  1
  Hf  Hf43  1  0.69776792  0.90972566  0.70737594  1
  Hf  Hf44  1  0.89792060  0.29784801  0.90857759  1
  Hf  Hf45  1  0.18990455  0.21037371  0.41724979  1
  Hf  Hf46  1  0.49711087  0.09334039  0.89416259  1
  Hf  Hf47  1  0.29518004  0.10176968  0.30340732  1
  Hf  Hf48  1  0.00615462  0.39499452  0.80351114  1
  Hf  Hf49  1  0.10304584  0.51416033  0.09778806  1
  Zr  Zr50  1  0.39044101  0.00038180  0.61054847  1
  Zr  Zr51  1  0.59550968  0.59590895  0.39664512  1
  Zr  Zr52  1  0.00785796  -0.00656347  0.00082408  1
  Zr  Zr53  1  0.10260311  0.31316415  0.30166483  1
  Zr  Zr54  1  0.90065096  0.50404155  0.69610202  1
  Zr  Zr55  1  0.50430624  0.10653322  0.50405273  1
  Zr  Zr56  1  0.09673141  0.89226478  0.70998728  1
  Zr  Zr57  1  -0.00634589  0.00069955  0.40561825  1
  Zr  Zr58  1  0.19286608  0.00236741  -0.00571422  1
  Zr  Zr59  1  0.09557414  0.70593321  0.90049585  1
  Zr  Zr60  1  0.01432443  0.19895012  0.80009301  1
  Zr  Zr61  1  0.40124779  0.59209743  0.59579458  1
  Zr  Zr62  1  -0.00519841  0.42030698  -0.00709302  1
  Zr  Zr63  1  0.19685091  0.80885145  0.00118265  1
  Zr  Zr64  1  -0.00943512  0.59356252  0.81090870  1
  Zr  Zr65  1  0.00496566  0.00402879  0.59509899  1
  Zr  Zr66  1  0.09426602  0.30530077  0.08981939  1
  Zr  Zr67  1  0.69748108  0.30679959  0.09502596  1
  Zr  Zr68  1  0.60108447  0.79907290  0.60524709  1
  Zr  Zr69  1  0.20568964  0.80692775  0.60054640  1
  Zr  Zr70  1  0.28644851  0.49917617  0.70422824  1
  Zr  Zr71  1  0.49412691  0.49775871  0.90788002  1
  Zr  Zr72  1  0.90180583  0.29578683  0.69426048  1
  Zr  Zr73  1  0.29941841  0.90520968  0.31047372  1
  Zr  Zr74  1  0.49281740  0.29749351  0.90943518  1
  Zr  Zr75  1  0.59952930  0.79836338  0.80415428  1
  Zr  Zr76  1  0.39692746  0.79773392  0.79719483  1
  Zr  Zr77  1  0.38894747  0.19386615  0.79608303  1
  Zr  Zr78  1  0.80729267  0.40431498  0.40425430  1
  Zr  Zr79  1  0.79961436  0.79882273  -0.00160430  1
  Zr  Zr80  1  0.10095673  0.50123396  0.69547549  1
  Zr  Zr81  1  0.29638572  0.28898546  0.68235406  1
  Zr  Zr82  1  0.80308968  0.19748032  0.80248716  1
  Zr  Zr83  1  0.91557411  0.69375611  0.09979496  1
  Zr  Zr84  1  0.89600630  0.29767383  0.09501088  1
  Zr  Zr85  1  0.59530070  0.20527668  0.20189522  1
  Zr  Zr86  1  0.79373443  0.19640441  0.20794094  1
  Zr  Zr87  1  0.69621607  0.88709681  0.11006174  1
  Zr  Zr88  1  0.60398185  -0.01309911  -0.00596412  1
  Zr  Zr89  1  0.80542765  -0.01383876  -0.00519530  1
  Zr  Zr90  1  0.69932101  0.89613568  0.48983787  1
  Zr  Zr91  1  0.30031098  0.49934814  0.29636754  1
  Zr  Zr92  1  0.69966472  0.30977472  0.30126802  1
  Zr  Zr93  1  0.40256342  -0.00041722  0.20319281  1
  Zr  Zr94  1  0.29940408  0.31068494  0.31031721  1
  Zr  Zr95  1  0.79776961  0.60670755  0.19918085  1
  Zr  Zr96  1  0.69812508  0.10156045  0.69385691  1
  Zr  Zr97  1  0.40156484  0.60114481  0.79692351  1
  Zr  Zr98  1  0.81131849  -0.00221215  0.59039384  1
  Zr  Zr99  1  0.20673039  0.20633505  0.18895075  1
  Ta  Ta100  1  0.50012448  0.10094686  0.09595491  1
  Ta  Ta101  1  0.19743769  0.37692094  0.80698937  1
  Ta  Ta102  1  0.81442540  -0.00638617  0.80305971  1
  Ta  Ta103  1  0.59658893  0.59604250  0.19924030  1
  Ta  Ta104  1  0.29852841  0.90360914  0.88913234  1
  Ta  Ta105  1  0.20230571  0.60140041  0.59437878  1
  Ta  Ta106  1  0.21021352  0.39879215  -0.00913389  1
  Ta  Ta107  1  0.30516994  0.69212054  0.09786342  1
  Ta  Ta108  1  0.30740422  0.50891743  0.09114132  1
  Ta  Ta109  1  0.49474590  0.90675005  0.70331558  1
  Ta  Ta110  1  0.80243827  0.19824055  0.40439936  1
  Ta  Ta111  1  0.10180077  0.50545489  0.29774748  1
  Ta  Ta112  1  0.60382382  -0.00130945  0.39659553  1
  Ta  Ta113  1  0.70862824  0.69016597  0.70154628  1
  Ta  Ta114  1  0.90480198  0.69540642  0.69885099  1
  Ta  Ta115  1  0.49808761  0.70616720  0.49812568  1
  Ta  Ta116  1  0.50642543  0.89082832  0.30398589  1
  Ta  Ta117  1  -0.00524819  0.41090468  0.19732866  1
  Ta  Ta118  1  0.69984215  0.69710288  0.89814091  1
  Ta  Ta119  1  0.81106839  0.79218229  0.38868019  1
  Ta  Ta120  1  0.40387690  0.20989655  0.39854352  1
  Ta  Ta121  1  0.58822930  0.40533196  0.39469572  1
  Ta  Ta122  1  0.70023495  0.50127409  0.29585497  1
  Ta  Ta123  1  0.80423271  -0.01294051  0.20680381  1
  Ta  Ta124  1  0.49511993  0.69731338  0.10025826  1
  Ta  Ta125  1  0.39433295  0.79219485  0.20205093  1
  Ta  Ta126  1  0.90522433  0.09711305  0.69953447  1
  Ta  Ta127  1  0.59763173  0.19512846  -0.00070566  1
  Ta  Ta128  1  0.39705773  0.79928788  -0.00202903  1
  Ta  Ta129  1  0.59674499  -0.00091067  0.59724787  1
  Ta  Ta130  1  0.40776144  0.40035629  0.19794492  1
  Ta  Ta131  1  0.59445529  0.59792120  0.60194760  1
  Ta  Ta132  1  0.80313720  0.40572780  0.80106444  1
  Ta  Ta133  1  0.80730661  0.41077017  0.19571100  1
  Ta  Ta134  1  0.80529657  0.60627750  0.39650462  1
  Ta  Ta135  1  0.09823512  0.69489056  0.70104781  1
  Ta  Ta136  1  0.69813067  0.10080515  0.49593143  1
  Ta  Ta137  1  -0.00371280  0.80327218  0.20972910  1
  Ta  Ta138  1  0.49149536  0.50486933  0.10112250  1
  Ta  Ta139  1  0.80352079  0.60479284  0.59376454  1
  Ta  Ta140  1  0.49811584  0.89883025  0.89530816  1
  Ta  Ta141  1  -0.00367441  -0.01240988  0.19571430  1
  Ta  Ta142  1  0.90363919  0.50784763  0.29502249  1
  Ta  Ta143  1  0.69676975  0.88980336  0.30023016  1
  Ta  Ta144  1  0.00865463  0.00453112  0.80428525  1
  Ta  Ta145  1  0.91752588  0.88985886  0.89225675  1
  Ta  Ta146  1  0.89994484  0.30702980  0.29941877  1
  Ta  Ta147  1  0.29307191  0.70147119  0.69911406  1
  Ta  Ta148  1  0.40119173  0.40630645  0.59432283  1
  Ta  Ta149  1  0.29474807  0.69468855  0.90350544  1
  Ti  Ti150  1  0.90451488  0.09648864  0.89988887  1
  Ti  Ti151  1  0.10471595  0.09431161  0.10698227  1
  Ti  Ti152  1  0.40014551  0.00567740  0.40611007  1
  Ti  Ti153  1  0.01568085  0.18892185  -0.00961668  1
  Ti  Ti154  1  0.59190075  0.41711833  0.60032568  1
  Ti  Ti155  1  0.69397120  0.70662183  0.29650263  1
  Ti  Ti156  1  0.19406745  0.39662819  0.59129072  1
  Ti  Ti157  1  0.59533785  0.40356895  0.00540739  1
  Ti  Ti158  1  0.30838067  0.89353113  0.50265021  1
  Ti  Ti159  1  0.60449646  0.19891432  0.39160938  1
  Ti  Ti160  1  0.49911777  0.70256531  0.91181055  1
  Ti  Ti161  1  0.29930521  0.50812896  0.90426677  1
  Ti  Ti162  1  0.20094885  0.80204646  0.80204123  1
  Ti  Ti163  1  0.30246870  0.30907282  0.50062238  1
  Ti  Ti164  1  0.17656719  0.19718754  0.60647665  1
  Ti  Ti165  1  0.90897885  0.89740537  0.70533477  1
  Ti  Ti166  1  0.20871918  0.60750953  0.20674160  1
  Ti  Ti167  1  0.00428613  0.38953267  0.59332367  1
  Ti  Ti168  1  0.59681065  0.19675613  0.79976610  1
  Ti  Ti169  1  0.58842024  0.40455007  0.20514914  1
  Ti  Ti170  1  -0.00677578  0.79448686  0.60068546  1
  Ti  Ti171  1  0.81075048  0.80070641  0.20466696  1
  Ti  Ti172  1  0.70369641  0.50541820  0.69939866  1
  Ti  Ti173  1  0.19434080  0.19507992  0.79929677  1
  Ti  Ti174  1  0.78955011  0.19221143  -0.00438259  1
  Ti  Ti175  1  0.90712125  0.51087527  0.50601258  1
  Ti  Ti176  1  0.49098756  0.70691952  0.68730145  1
  Ti  Ti177  1  0.60448211  -0.00101734  0.20941260  1
  Ti  Ti178  1  0.00406546  0.19743244  0.59562947  1
  Ti  Ti179  1  0.59455378  0.40707684  0.79012580  1
  Ti  Ti180  1  0.10122731  0.50303755  0.50253742  1
  Ti  Ti181  1  0.40768778  0.40657227  0.40246379  1
  Ti  Ti182  1  0.39292254  0.79299464  0.39505233  1
  Ti  Ti183  1  0.31911310  0.30522600  0.07879455  1
  Ti  Ti184  1  0.90561116  0.88588814  0.48731982  1
  Ti  Ti185  1  0.81072426  0.19667573  0.58829213  1
  Ti  Ti186  1  0.29853378  0.09299961  0.89086929  1
  Ti  Ti187  1  0.80231086  0.41128809  0.00256156  1
  Ti  Ti188  1  0.00520297  0.81363372  0.00987454  1
  Ti  Ti189  1  0.20542636  0.79231061  0.40150122  1
  Ti  Ti190  1  0.09513595  0.69888553  0.30209656  1
  Ti  Ti191  1  0.79712693  -0.00102297  0.39534107  1
  Ti  Ti192  1  0.30245575  0.09880212  0.10100270  1
  Ti  Ti193  1  0.69587040  0.49641672  0.10598617  1
  Ti  Ti194  1  0.68912922  0.70853557  0.10244802  1
  Ti  Ti195  1  0.90279301  0.70090781  0.90064888  1
  Ti  Ti196  1  0.30836234  0.70762107  0.50827450  1
  Ti  Ti197  1  0.49895785  0.09917598  0.69894157  1
  Ti  Ti198  1  0.49610341  0.30239221  0.08981996  1
  Ti  Ti199  1  0.09334559  0.88789974  0.49715071  1
  Mo  Mo200  1  0.39743800  0.79977904  0.60034345  1
  Mo  Mo201  1  0.49828300  0.30437746  0.30632515  1
  Mo  Mo202  1  0.39369823  -0.00210905  0.79796098  1
  Mo  Mo203  1  0.28834875  0.10067525  0.70581072  1
  Mo  Mo204  1  0.09810765  0.30538813  0.50876749  1
  Mo  Mo205  1  0.90031771  0.29620096  0.50044840  1
  Mo  Mo206  1  0.90349536  0.89281371  0.10354824  1
  Mo  Mo207  1  0.10255522  0.30010634  0.69596882  1
  Mo  Mo208  1  0.39890029  0.18919325  0.00352178  1
  Mo  Mo209  1  0.88841486  0.49902406  0.90042011  1
  Mo  Mo210  1  0.10401163  0.29837188  0.90213022  1
  Mo  Mo211  1  -0.00463851  0.79463551  0.79420152  1
  Mo  Mo212  1  0.70105088  0.08716559  0.30745312  1
  Mo  Mo213  1  0.10517676  0.09742318  0.89756533  1
  Mo  Mo214  1  0.29587190  0.48911898  0.50098236  1
  Mo  Mo215  1  0.50041911  0.49288167  0.69902026  1
  Mo  Mo216  1  0.69787926  0.89398012  0.89180330  1
  Mo  Mo217  1  0.90402248  0.70135987  0.29809682  1
  Mo  Mo218  1  0.60280313  0.18978665  0.60092751  1
  Mo  Mo219  1  0.59472986  0.79085073  -0.00280042  1
  Mo  Mo220  1  0.19242993  0.00078743  0.19516683  1
  Mo  Mo221  1  0.49931175  0.49747088  0.29266322  1
  Mo  Mo222  1  -0.00147875  0.79812080  0.39868241  1
  Mo  Mo223  1  0.89844085  0.70099139  0.50169865  1
  Mo  Mo224  1  0.40052568  0.59991940  0.19659657  1
  Mo  Mo225  1  0.09789416  0.10237041  0.70278724  1
  Mo  Mo226  1  0.89474211  0.89765286  0.30084192  1
  Mo  Mo227  1  0.10069448  0.89888176  0.89025903  1
  Mo  Mo228  1  0.90274516  0.50367791  0.10383851  1
  Mo  Mo229  1  0.00681507  0.60116507  0.20900693  1
  Mo  Mo230  1  0.20044775  0.00531184  0.79963261  1
  Mo  Mo231  1  0.00171665  0.60414796  0.59713585  1
  Mo  Mo232  1  0.40653370  0.20552422  0.59981379  1
  Mo  Mo233  1  0.20384597  0.61458587  0.79588804  1
  Mo  Mo234  1  0.39631662  0.40832880  0.00136067  1
  Mo  Mo235  1  0.58990060  -0.00302000  0.79287903  1
  Mo  Mo236  1  0.89342526  0.10253555  0.50122824  1
  Mo  Mo237  1  0.40074200  0.60617511  -0.00147703  1
  Mo  Mo238  1  0.29936414  0.90009465  0.71089650  1
  Mo  Mo239  1  0.10057325  0.89842322  0.11734373  1
  Mo  Mo240  1  0.19545079  0.41006502  0.41588777  1
  Mo  Mo241  1  -0.00074083  0.60471201  -0.00075288  1
  Mo  Mo242  1  0.09786521  0.10519767  0.50739994  1
  Mo  Mo243  1  0.59729103  0.78863224  0.20304766  1
  Mo  Mo244  1  0.20661194  0.60237211  -0.00066932  1
  Mo  Mo245  1  0.30003851  0.29476919  0.90171506  1
  Mo  Mo246  1  0.59960476  0.79933632  0.39491797  1
  Mo  Mo247  1  0.49984484  0.49826058  0.50113231  1
  Mo  Mo248  1  0.79791404  0.60360735  0.79797353  1
  Mo  Mo249  1  0.30239593  0.69944618  0.30014183  1
