# generated using pymatgen
data_HfZrTaTiMo
_symmetry_space_group_name_H-M   'P 1'
_cell_length_a   16.88911949
_cell_length_b   16.88914487
_cell_length_c   16.88320251
_cell_angle_alpha   90.01349245
_cell_angle_beta   89.98419347
_cell_angle_gamma   90.03726124
_symmetry_Int_Tables_number   1
_chemical_formula_structural   HfZrTaTiMo
_chemical_formula_sum   'Hf50 Zr50 Ta50 Ti50 Mo50'
_cell_volume   4815.81038033
_cell_formula_units_Z   50
loop_
 _symmetry_equiv_pos_site_id
 _symmetry_equiv_pos_as_xyz
  1  'x, y, z'
loop_
 _atom_site_type_symbol
 _atom_site_label
 _atom_site_symmetry_multiplicity
 _atom_site_fract_x
 _atom_site_fract_y
 _atom_site_fract_z
 _atom_site_occupancy
  Hf  Hf0  1  0.30265706  0.31510978  0.30215890  1
  Hf  Hf1  1  0.71430957  0.91100369  0.69843075  1
  Hf  Hf2  1  0.00412615  0.20453030  0.60702297  1
  Hf  Hf3  1  0.29116136  0.70144256  0.08969027  1
  Hf  Hf4  1  0.89729879  0.69961978  0.30609211  1
  Hf  Hf5  1  -0.00320520  0.19227977  0.20206056  1
  Hf  Hf6  1  0.40254420  -0.00695617  0.60666847  1
  Hf  Hf7  1  -0.00591799  -0.01033004  0.80697877  1
  Hf  Hf8  1  0.59019421  -0.01199635  0.60012616  1
  Hf  Hf9  1  0.71122319  0.09397730  0.70212062  1
  Hf  Hf10  1  0.40313196  -0.00441497  0.00288092  1
  Hf  Hf11  1  0.29612716  0.10148468  0.09743293  1
  Hf  Hf12  1  0.09871119  0.50011861  0.90168188  1
  Hf  Hf13  1  0.60810843  0.20374350  -0.00279031  1
  Hf  Hf14  1  0.49597462  0.70048751  0.11735003  1
  Hf  Hf15  1  0.90260885  0.31206356  0.49565785  1
  Hf  Hf16  1  0.80612763  -0.00295917  0.38827209  1
  Hf  Hf17  1  0.90662498  0.69119081  0.48593311  1
  Hf  Hf18  1  0.40420505  0.20286136  0.19828025  1
  Hf  Hf19  1  0.19879697  -0.00049185  0.40098612  1
  Hf  Hf20  1  0.69942378  0.69769037  0.70249759  1
  Hf  Hf21  1  0.09300360  0.10440649  0.90057481  1
  Hf  Hf22  1  0.79850267  0.59970438  0.00671802  1
  Hf  Hf23  1  0.89711342  0.09660025  0.90624996  1
  Hf  Hf24  1  0.70697496  0.09638735  0.10120533  1
  Hf  Hf25  1  0.19581297  0.80820418  0.19167286  1
  Hf  Hf26  1  0.09497281  0.30815705  0.10085016  1
  Hf  Hf27  1  0.91228875  0.89644043  0.48731098  1
  Hf  Hf28  1  0.70702126  0.69216259  0.49001914  1
  Hf  Hf29  1  0.00477863  0.00227068  0.59966375  1
  Hf  Hf30  1  0.20235029  0.20566156  0.60727037  1
  Hf  Hf31  1  0.38787290  0.40038240  0.79142822  1
  Hf  Hf32  1  0.80198177  0.81526927  0.19672044  1
  Hf  Hf33  1  0.29625337  0.30667124  0.10687653  1
  Hf  Hf34  1  0.19610743  0.20447869  -0.00079347  1
  Hf  Hf35  1  0.09878819  0.31465768  0.50519869  1
  Hf  Hf36  1  0.39334656  0.59938887  0.59259057  1
  Hf  Hf37  1  0.80359248  0.80153086  0.59415159  1
  Hf  Hf38  1  0.40570228  0.20596168  0.39682699  1
  Hf  Hf39  1  0.79642757  0.59136695  0.20039549  1
  Hf  Hf40  1  0.90687318  0.49151367  0.69999030  1
  Hf  Hf41  1  0.70666645  0.70640639  0.90105793  1
  Hf  Hf42  1  0.20608397  0.59581689  0.39590324  1
  Hf  Hf43  1  0.80114923  0.20851830  0.59553975  1
  Hf  Hf44  1  0.09167578  0.69988739  0.30658662  1
  Hf  Hf45  1  0.39875927  0.60084942  -0.00342754  1
  Hf  Hf46  1  0.48814563  0.49684477  0.29349254  1
  Hf  Hf47  1  0.50184435  0.69467374  0.69806415  1
  Hf  Hf48  1  0.09094765  0.89754974  0.30764157  1
  Hf  Hf49  1  0.19850477  0.00108313  0.80051734  1
  Zr  Zr50  1  0.09713268  0.69341694  0.70635408  1
  Zr  Zr51  1  0.39745782  0.20952452  0.60791844  1
  Zr  Zr52  1  0.19984109  0.00019560  0.60573863  1
  Zr  Zr53  1  0.70626819  0.09065821  0.50461136  1
  Zr  Zr54  1  0.60544210  0.20095076  0.80231950  1
  Zr  Zr55  1  0.50439304  0.31650880  0.50046566  1
  Zr  Zr56  1  0.30484562  0.89993856  0.30867958  1
  Zr  Zr57  1  0.90436336  0.48914498  0.09315754  1
  Zr  Zr58  1  0.31730372  0.70368222  0.28772588  1
  Zr  Zr59  1  0.10229784  0.30620934  0.30461126  1
  Zr  Zr60  1  0.20891143  0.59309477  0.79518834  1
  Zr  Zr61  1  0.28903843  0.89577812  0.91204405  1
  Zr  Zr62  1  0.20052095  0.79760704  0.79964784  1
  Zr  Zr63  1  0.90495808  0.50168874  0.89884596  1
  Zr  Zr64  1  0.59608054  0.59760428  0.39370925  1
  Zr  Zr65  1  0.69321102  0.49403223  0.90312515  1
  Zr  Zr66  1  -0.00487296  0.80294301  0.19357689  1
  Zr  Zr67  1  0.50369996  0.49507297  0.69244203  1
  Zr  Zr68  1  -0.00025428  0.41087650  0.20639032  1
  Zr  Zr69  1  0.81395187  0.81108676  0.80742643  1
  Zr  Zr70  1  0.59638222  0.00349608  0.80547436  1
  Zr  Zr71  1  0.89666501  0.09881975  0.70562305  1
  Zr  Zr72  1  0.39201817  0.39456864  -0.00346715  1
  Zr  Zr73  1  0.30665870  0.09635890  0.49771672  1
  Zr  Zr74  1  0.59908328  0.20613990  0.19844499  1
  Zr  Zr75  1  0.00124798  0.79650292  0.60445886  1
  Zr  Zr76  1  0.50473776  0.30731601  0.89936290  1
  Zr  Zr77  1  0.19259218  0.59928058  0.19603373  1
  Zr  Zr78  1  0.39742719  -0.00011386  0.19281638  1
  Zr  Zr79  1  0.59918444  0.59944806  0.00481646  1
  Zr  Zr80  1  0.59247238  0.79720520  0.40562596  1
  Zr  Zr81  1  0.59732334  0.80755203  0.79892141  1
  Zr  Zr82  1  0.59328836  0.80665062  0.59035525  1
  Zr  Zr83  1  0.40149718  0.79840834  0.80062438  1
  Zr  Zr84  1  0.60283077  0.20681452  0.59751264  1
  Zr  Zr85  1  0.79784599  0.59227576  0.60297432  1
  Zr  Zr86  1  0.90540265  0.68798851  0.71490957  1
  Zr  Zr87  1  0.59912576  -0.01414424  0.40655504  1
  Zr  Zr88  1  0.59636922  0.81274389  0.00808430  1
  Zr  Zr89  1  0.49745827  0.49246511  0.10358781  1
  Zr  Zr90  1  0.70015387  0.09851017  0.29029855  1
  Zr  Zr91  1  0.69795796  0.71248289  0.10704900  1
  Zr  Zr92  1  0.40070585  0.00128991  0.79788642  1
  Zr  Zr93  1  0.79129547  0.38955724  -0.00274162  1
  Zr  Zr94  1  0.19966340  0.20108238  0.40288391  1
  Zr  Zr95  1  0.90196373  0.49713477  0.49519660  1
  Zr  Zr96  1  0.49151695  0.88924023  0.29780337  1
  Zr  Zr97  1  0.00563012  0.38884655  0.80395691  1
  Zr  Zr98  1  0.60428553  0.20501827  0.39891650  1
  Zr  Zr99  1  -0.00532906  0.19246344  0.39841939  1
  Ta  Ta100  1  0.19531323  0.19491541  0.20119987  1
  Ta  Ta101  1  0.30157520  0.49140681  0.49337052  1
  Ta  Ta102  1  0.19867928  0.41623787  0.20638494  1
  Ta  Ta103  1  0.60136768  0.59394728  0.79923618  1
  Ta  Ta104  1  0.09950737  0.69463801  0.49689685  1
  Ta  Ta105  1  0.30108551  0.10010146  0.29798208  1
  Ta  Ta106  1  -0.00045303  0.19895629  0.00666580  1
  Ta  Ta107  1  0.20337191  0.59577729  0.59563408  1
  Ta  Ta108  1  0.49861086  0.09218685  0.30055470  1
  Ta  Ta109  1  0.49984807  0.49544434  0.49747927  1
  Ta  Ta110  1  0.20785805  0.40187342  0.61001441  1
  Ta  Ta111  1  0.49753099  0.09614019  0.49623293  1
  Ta  Ta112  1  0.20493664  0.79186864  0.40625570  1
  Ta  Ta113  1  0.40178509  0.80209556  -0.00024664  1
  Ta  Ta114  1  0.09448161  0.89750071  0.90920048  1
  Ta  Ta115  1  0.20456646  0.79284179  0.59496145  1
  Ta  Ta116  1  0.10052264  0.49303576  0.69833727  1
  Ta  Ta117  1  0.80157308  0.20279257  0.39466144  1
  Ta  Ta118  1  0.69969221  0.70175510  0.29709503  1
  Ta  Ta119  1  0.19336669  0.00126264  0.19624331  1
  Ta  Ta120  1  0.00477687  0.60770453  0.00906580  1
  Ta  Ta121  1  0.70775211  0.30631608  0.29838277  1
  Ta  Ta122  1  0.19697162  0.40063889  -0.00389021  1
  Ta  Ta123  1  0.69928514  0.49085410  0.49396249  1
  Ta  Ta124  1  0.79675126  0.39114184  0.79687602  1
  Ta  Ta125  1  0.49978946  0.31564577  0.29379790  1
  Ta  Ta126  1  0.09853648  0.69808273  0.90700227  1
  Ta  Ta127  1  -0.00374303  0.00343377  0.19860262  1
  Ta  Ta128  1  0.40016188  0.60068372  0.40135340  1
  Ta  Ta129  1  0.49995346  0.49720491  0.89625771  1
  Ta  Ta130  1  0.90601523  0.29327283  0.90477584  1
  Ta  Ta131  1  0.60827096  0.40023023  0.79520862  1
  Ta  Ta132  1  0.00003767  0.59949380  0.19805698  1
  Ta  Ta133  1  0.09645938  0.90560355  0.09110359  1
  Ta  Ta134  1  0.70970291  0.90720988  0.90743214  1
  Ta  Ta135  1  0.10363565  0.49635653  0.49989721  1
  Ta  Ta136  1  0.30357310  0.89314643  0.49639733  1
  Ta  Ta137  1  0.89611194  0.29507724  0.10244189  1
  Ta  Ta138  1  0.79719288  0.20605336  0.80835023  1
  Ta  Ta139  1  0.50443058  0.10025877  0.09633767  1
  Ta  Ta140  1  0.90539684  0.69684887  0.90490951  1
  Ta  Ta141  1  0.89110410  0.30408496  0.29678942  1
  Ta  Ta142  1  0.40053059  0.79587932  0.59332561  1
  Ta  Ta143  1  0.79149346  0.39654168  0.60211175  1
  Ta  Ta144  1  0.29507616  0.49896938  0.90147574  1
  Ta  Ta145  1  0.00818988  0.59210912  0.59717406  1
  Ta  Ta146  1  0.09920351  0.89632110  0.70143008  1
  Ta  Ta147  1  -0.00230337  0.79843894  0.00185778  1
  Ta  Ta148  1  0.10274705  0.89194128  0.49811374  1
  Ta  Ta149  1  0.39988679  0.20037873  -0.00190538  1
  Ti  Ti150  1  0.89231375  0.50447342  0.31108887  1
  Ti  Ti151  1  0.49738806  0.10451354  0.90427009  1
  Ti  Ti152  1  0.79594339  0.20133401  -0.00272181  1
  Ti  Ti153  1  0.79393665  0.58939639  0.80132680  1
  Ti  Ti154  1  0.69827465  0.30263359  0.69790236  1
  Ti  Ti155  1  0.70512082  0.30009464  0.10663648  1
  Ti  Ti156  1  0.49938651  0.10747900  0.69961685  1
  Ti  Ti157  1  0.39836905  0.20572637  0.80191432  1
  Ti  Ti158  1  0.29906074  0.10726033  0.89838812  1
  Ti  Ti159  1  0.60771087  0.40167637  0.39198692  1
  Ti  Ti160  1  -0.00406418  0.00816956  0.39135916  1
  Ti  Ti161  1  0.60328685  0.59261845  0.59551434  1
  Ti  Ti162  1  0.80075242  -0.00529572  0.00314068  1
  Ti  Ti163  1  0.11157760  0.29794614  0.71681789  1
  Ti  Ti164  1  0.00394229  0.41090439  0.39178731  1
  Ti  Ti165  1  0.28390157  0.29783321  0.88617359  1
  Ti  Ti166  1  0.30225564  0.69896961  0.69684768  1
  Ti  Ti167  1  0.89815617  0.90925391  0.69668061  1
  Ti  Ti168  1  0.89797514  0.09782549  0.50076758  1
  Ti  Ti169  1  0.39832066  0.59559110  0.80064422  1
  Ti  Ti170  1  0.90298947  0.29979490  0.70313793  1
  Ti  Ti171  1  0.50206228  0.69565950  0.89784813  1
  Ti  Ti172  1  0.61146612  0.40436416  0.19732248  1
  Ti  Ti173  1  0.69275177  0.89699974  0.29100313  1
  Ti  Ti174  1  0.50054063  0.90209022  0.90162124  1
  Ti  Ti175  1  0.39464003  0.82006979  0.17310726  1
  Ti  Ti176  1  0.90309444  0.90702539  0.08852222  1
  Ti  Ti177  1  0.29862478  0.50218743  0.10067348  1
  Ti  Ti178  1  0.10125400  0.50116117  0.09043784  1
  Ti  Ti179  1  0.59534811  -0.01311044  0.18746420  1
  Ti  Ti180  1  -0.00114547  0.80347000  0.80843009  1
  Ti  Ti181  1  0.81263705  -0.00289445  0.20202980  1
  Ti  Ti182  1  0.49726295  0.70056210  0.29144944  1
  Ti  Ti183  1  0.10286690  0.09657781  0.29712796  1
  Ti  Ti184  1  0.60307532  0.00205272  0.00019882  1
  Ti  Ti185  1  0.89793264  0.70223932  0.09770095  1
  Ti  Ti186  1  0.79517958  0.40591841  0.20259105  1
  Ti  Ti187  1  0.29134273  0.69625618  0.90671362  1
  Ti  Ti188  1  0.60873115  0.59140333  0.20267437  1
  Ti  Ti189  1  0.38996131  0.40082618  0.60338989  1
  Ti  Ti190  1  0.09700252  0.10700716  0.71253907  1
  Ti  Ti191  1  0.50101151  0.30722059  0.10021721  1
  Ti  Ti192  1  0.50479688  0.30707327  0.69823968  1
  Ti  Ti193  1  0.19286302  0.00459194  0.00458418  1
  Ti  Ti194  1  0.29726056  0.11191178  0.71265113  1
  Ti  Ti195  1  0.09913354  0.10003062  0.50050731  1
  Ti  Ti196  1  0.79583831  0.80999182  0.39274956  1
  Ti  Ti197  1  0.29797252  0.31199716  0.49463715  1
  Ti  Ti198  1  0.29752749  0.89201460  0.69611087  1
  Ti  Ti199  1  0.89619116  0.10140901  0.09894191  1
  Mo  Mo200  1  -0.00253637  0.20218281  0.80390266  1
  Mo  Mo201  1  0.28708938  0.90263546  0.09324544  1
  Mo  Mo202  1  0.09762556  0.29811625  0.90608516  1
  Mo  Mo203  1  0.09870305  0.09718956  0.10103604  1
  Mo  Mo204  1  0.47615812  0.90092587  0.49435432  1
  Mo  Mo205  1  0.90257480  0.89793770  0.91481750  1
  Mo  Mo206  1  0.19984992  0.39700391  0.80132112  1
  Mo  Mo207  1  0.69912383  0.49798790  0.29938254  1
  Mo  Mo208  1  0.00688874  0.79720083  0.40169104  1
  Mo  Mo209  1  0.09626184  0.50605889  0.30529498  1
  Mo  Mo210  1  0.81058146  -0.00385762  0.58421397  1
  Mo  Mo211  1  0.40161492  0.40468249  0.40163390  1
  Mo  Mo212  1  0.70032336  0.49505082  0.69953537  1
  Mo  Mo213  1  0.40182782  0.77946086  0.41737448  1
  Mo  Mo214  1  0.00318342  0.39146350  0.00109832  1
  Mo  Mo215  1  0.29694253  0.69552834  0.50054393  1
  Mo  Mo216  1  0.80371138  0.20605628  0.19773611  1
  Mo  Mo217  1  0.40033496  0.00835224  0.40129368  1
  Mo  Mo218  1  0.29855953  0.49970726  0.69579774  1
  Mo  Mo219  1  0.20176585  0.40878782  0.40273218  1
  Mo  Mo220  1  0.70678361  0.30893348  0.49126260  1
  Mo  Mo221  1  0.69636533  0.49013384  0.10417010  1
  Mo  Mo222  1  0.39286257  0.59600000  0.19901178  1
  Mo  Mo223  1  0.00312269  0.59800617  0.80602490  1
  Mo  Mo224  1  0.00957091  0.39748910  0.60829288  1
  Mo  Mo225  1  0.19843234  0.59521233  -0.00056921  1
  Mo  Mo226  1  0.61026070  0.40317529  0.60085867  1
  Mo  Mo227  1  0.29695032  0.30133202  0.70486673  1
  Mo  Mo228  1  0.89814552  0.10266498  0.29442243  1
  Mo  Mo229  1  0.19780043  0.19970018  0.80256038  1
  Mo  Mo230  1  0.70413317  0.29866164  0.89467302  1
  Mo  Mo231  1  0.00459074  0.59277089  0.39836544  1
  Mo  Mo232  1  0.70853368  0.09665676  0.90619143  1
  Mo  Mo233  1  0.79659363  0.39874389  0.39663705  1
  Mo  Mo234  1  0.80068272  0.00316237  0.81625229  1
  Mo  Mo235  1  0.48851848  0.89271299  0.69885710  1
  Mo  Mo236  1  0.49784154  0.68757984  0.50209234  1
  Mo  Mo237  1  0.70371372  0.91214405  0.10026523  1
  Mo  Mo238  1  0.30307321  0.50202025  0.29876168  1
  Mo  Mo239  1  0.71898147  0.89548674  0.49788462  1
  Mo  Mo240  1  0.18904061  0.79600317  -0.00026334  1
  Mo  Mo241  1  0.60172898  0.80483163  0.20574516  1
  Mo  Mo242  1  0.60079948  0.39296245  0.00654221  1
  Mo  Mo243  1  -0.00143626  0.00151121  0.00808441  1
  Mo  Mo244  1  0.80891592  0.80625753  0.00295459  1
  Mo  Mo245  1  0.39160839  0.40167551  0.19744180  1
  Mo  Mo246  1  0.09452815  0.70246193  0.09752113  1
  Mo  Mo247  1  0.90425569  0.90508748  0.29753415  1
  Mo  Mo248  1  0.79262025  0.59261734  0.39137488  1
  Mo  Mo249  1  0.50454658  0.90381036  0.09556813  1
