# generated using pymatgen
data_HfZrTaTiMo
_symmetry_space_group_name_H-M   'P 1'
_cell_length_a   16.89307471
_cell_length_b   16.88144463
_cell_length_c   16.88641827
_cell_angle_alpha   90.03234300
_cell_angle_beta   90.00440154
_cell_angle_gamma   89.98390938
_symmetry_Int_Tables_number   1
_chemical_formula_structural   HfZrTaTiMo
_chemical_formula_sum   'Hf50 Zr50 Ta50 Ti50 Mo50'
_cell_volume   4815.65943768
_cell_formula_units_Z   50
loop_
 _symmetry_equiv_pos_site_id
 _symmetry_equiv_pos_as_xyz
  1  'x, y, z'
loop_
 _atom_site_type_symbol
 _atom_site_label
 _atom_site_symmetry_multiplicity
 _atom_site_fract_x
 _atom_site_fract_y
 _atom_site_fract_z
 _atom_site_occupancy
  Hf  Hf0  1  0.41018863  0.19945669  0.00688000  1
  Hf  Hf1  1  0.50283579  0.09826718  0.88729343  1
  Hf  Hf2  1  0.27864649  0.69846912  0.70273614  1
  Hf  Hf3  1  0.40350494  0.81278882  0.39905486  1
  Hf  Hf4  1  0.80956888  0.00882895  0.39745726  1
  Hf  Hf5  1  0.09356154  0.29835098  0.70276243  1
  Hf  Hf6  1  0.49131608  0.69342330  0.09879069  1
  Hf  Hf7  1  0.30042554  0.91367598  0.88990349  1
  Hf  Hf8  1  0.11211549  0.29282224  0.10155807  1
  Hf  Hf9  1  0.50211662  0.29310532  0.69019192  1
  Hf  Hf10  1  0.19314530  0.59290951  0.40475968  1
  Hf  Hf11  1  0.19181630  0.00322524  -0.00572356  1
  Hf  Hf12  1  0.80561458  0.00242071  -0.00503453  1
  Hf  Hf13  1  0.49655753  0.48922137  0.10869113  1
  Hf  Hf14  1  0.89737866  0.50612504  0.30105286  1
  Hf  Hf15  1  0.49541012  0.11226668  0.51923777  1
  Hf  Hf16  1  0.60318077  0.60158607  0.20027281  1
  Hf  Hf17  1  0.09500294  0.29415457  0.49867267  1
  Hf  Hf18  1  0.10545832  0.09708663  0.30671236  1
  Hf  Hf19  1  0.91853856  0.10202580  0.69498654  1
  Hf  Hf20  1  0.20175191  0.40817285  0.39726929  1
  Hf  Hf21  1  0.69899768  0.68449808  0.70436757  1
  Hf  Hf22  1  0.50125516  0.91073175  0.51616546  1
  Hf  Hf23  1  0.59552037  -0.00230067  -0.00080192  1
  Hf  Hf24  1  0.81090796  0.19792762  -0.00125561  1
  Hf  Hf25  1  0.80407140  0.00934481  0.79812917  1
  Hf  Hf26  1  0.80256726  0.80780427  0.39883810  1
  Hf  Hf27  1  0.59842942  0.79983923  0.39949573  1
  Hf  Hf28  1  0.69335286  0.91633857  0.69842292  1
  Hf  Hf29  1  0.68886479  0.09980339  0.51370368  1
  Hf  Hf30  1  0.09491607  0.50847205  0.70729832  1
  Hf  Hf31  1  0.70065871  0.69516326  0.89595895  1
  Hf  Hf32  1  0.19470857  0.79578802  -0.00578903  1
  Hf  Hf33  1  0.09581070  0.89528432  0.69295272  1
  Hf  Hf34  1  0.18646875  0.80909425  0.41260972  1
  Hf  Hf35  1  0.50205827  0.69593436  0.50167516  1
  Hf  Hf36  1  0.40401836  0.20954387  0.39732557  1
  Hf  Hf37  1  0.79855718  0.39863658  0.40653604  1
  Hf  Hf38  1  0.19819787  -0.00412224  0.59862661  1
  Hf  Hf39  1  0.69523942  0.09301934  0.10170863  1
  Hf  Hf40  1  0.01398054  0.40952383  0.20264631  1
  Hf  Hf41  1  0.39817382  0.80230316  0.19869944  1
  Hf  Hf42  1  0.91171632  0.89506440  0.69767683  1
  Hf  Hf43  1  0.29633635  0.49658414  0.69900900  1
  Hf  Hf44  1  0.69021400  0.90550236  0.28945701  1
  Hf  Hf45  1  0.29099800  0.91707196  0.30468620  1
  Hf  Hf46  1  0.30081388  0.30635705  0.10774700  1
  Hf  Hf47  1  0.39906370  0.79842587  -0.00674051  1
  Hf  Hf48  1  0.69702199  0.90768429  0.50718443  1
  Hf  Hf49  1  0.69005642  0.30581684  0.51297550  1
  Zr  Zr50  1  0.50924353  0.68746212  0.70360035  1
  Zr  Zr51  1  0.81543382  0.00206962  0.20868077  1
  Zr  Zr52  1  0.49636725  0.69082059  0.30089187  1
  Zr  Zr53  1  0.19902824  0.40083701  0.80974830  1
  Zr  Zr54  1  0.18737712  0.00434254  0.19295189  1
  Zr  Zr55  1  0.81318238  0.19178586  0.20258831  1
  Zr  Zr56  1  0.50436152  0.49354264  0.69899147  1
  Zr  Zr57  1  0.39756450  0.79631555  0.80136311  1
  Zr  Zr58  1  0.70551370  0.49528771  0.09667601  1
  Zr  Zr59  1  -0.00052189  0.59844989  -0.00913576  1
  Zr  Zr60  1  0.19401524  0.59350201  0.20448197  1
  Zr  Zr61  1  0.60446433  0.59571693  0.00083362  1
  Zr  Zr62  1  0.89833938  0.70019599  0.30350659  1
  Zr  Zr63  1  0.91759240  0.90080891  0.50709033  1
  Zr  Zr64  1  0.80133686  0.79847112  0.79709580  1
  Zr  Zr65  1  0.30147996  0.09528889  0.49579755  1
  Zr  Zr66  1  0.90479118  0.30442079  0.70198064  1
  Zr  Zr67  1  0.58885090  0.20699773  0.39672763  1
  Zr  Zr68  1  0.39828213  0.40470222  -0.00601261  1
  Zr  Zr69  1  0.38756156  0.59490813  0.59609221  1
  Zr  Zr70  1  0.20020190  0.40861178  0.58786424  1
  Zr  Zr71  1  0.81305164  0.38695109  0.19477103  1
  Zr  Zr72  1  0.90451035  0.90111173  0.09650953  1
  Zr  Zr73  1  0.29676372  0.11004766  0.10629496  1
  Zr  Zr74  1  0.50063325  0.49173434  0.50453437  1
  Zr  Zr75  1  0.79985588  0.79231244  0.60227028  1
  Zr  Zr76  1  0.38705762  0.59177832  0.81277076  1
  Zr  Zr77  1  0.50613956  0.69095283  0.89778337  1
  Zr  Zr78  1  0.89772531  0.49920750  0.70125430  1
  Zr  Zr79  1  0.19182058  0.79948277  0.20000529  1
  Zr  Zr80  1  0.29460557  0.70680871  0.50220303  1
  Zr  Zr81  1  0.57889521  0.20194164  0.18400284  1
  Zr  Zr82  1  0.31023674  0.30077046  0.69984798  1
  Zr  Zr83  1  0.80237250  0.19362941  0.39906728  1
  Zr  Zr84  1  0.70090901  0.49705469  0.29330469  1
  Zr  Zr85  1  0.29857350  0.69983057  0.30264451  1
  Zr  Zr86  1  0.80220016  0.19801227  0.60503437  1
  Zr  Zr87  1  0.58845597  0.00506229  0.39725388  1
  Zr  Zr88  1  0.10713270  0.29365861  0.29735279  1
  Zr  Zr89  1  0.89571123  0.50905282  0.10056979  1
  Zr  Zr90  1  0.39597302  0.80476704  0.60914379  1
  Zr  Zr91  1  0.69306999  0.29987701  0.29256400  1
  Zr  Zr92  1  0.00078208  0.79478897  -0.00493491  1
  Zr  Zr93  1  0.69662957  0.30058514  0.09320683  1
  Zr  Zr94  1  0.00143025  0.39937447  -0.00193708  1
  Zr  Zr95  1  0.29977790  0.89995662  0.09745782  1
  Zr  Zr96  1  0.80317976  0.79989741  0.19531433  1
  Zr  Zr97  1  0.60612656  0.39527295  0.80127819  1
  Zr  Zr98  1  0.19043149  0.80339037  0.80575636  1
  Zr  Zr99  1  0.20521628  0.19909529  0.60054437  1
  Ta  Ta100  1  -0.00596934  0.19270610  0.40435439  1
  Ta  Ta101  1  0.69807123  0.89832483  0.09679314  1
  Ta  Ta102  1  0.81012814  0.39460625  -0.01135710  1
  Ta  Ta103  1  0.00990573  -0.00313460  0.80489377  1
  Ta  Ta104  1  0.69447212  0.10395818  0.89355280  1
  Ta  Ta105  1  0.29978203  0.29857864  0.29308539  1
  Ta  Ta106  1  0.89674759  0.50009063  0.50316453  1
  Ta  Ta107  1  0.48840584  0.09871168  0.28580936  1
  Ta  Ta108  1  0.30524408  0.09708068  0.70910833  1
  Ta  Ta109  1  0.30004638  0.29455908  0.90355133  1
  Ta  Ta110  1  0.00225519  0.60737689  0.19920567  1
  Ta  Ta111  1  0.49717838  0.49480783  0.29959712  1
  Ta  Ta112  1  0.68464008  0.09649487  0.29064404  1
  Ta  Ta113  1  0.10321596  0.09989101  0.70207298  1
  Ta  Ta114  1  -0.00097108  0.80023212  0.20190121  1
  Ta  Ta115  1  0.08582546  0.90325384  0.30782554  1
  Ta  Ta116  1  0.50175414  0.91316622  0.70941654  1
  Ta  Ta117  1  0.70088433  0.29323171  0.89921021  1
  Ta  Ta118  1  0.70990083  0.49618706  0.89627708  1
  Ta  Ta119  1  0.80187579  0.79514713  -0.00374695  1
  Ta  Ta120  1  0.79450849  0.60018265  0.40961756  1
  Ta  Ta121  1  0.00240908  0.40610459  0.40199885  1
  Ta  Ta122  1  0.00074724  0.40618182  0.59354137  1
  Ta  Ta123  1  0.10267809  0.10275695  0.89519640  1
  Ta  Ta124  1  0.60323425  0.80279831  -0.00046570  1
  Ta  Ta125  1  0.60135076  0.80691101  0.80105247  1
  Ta  Ta126  1  0.00236541  0.59756597  0.40612805  1
  Ta  Ta127  1  0.40442519  0.00337503  -0.00189808  1
  Ta  Ta128  1  0.59147860  0.39923068  0.40118286  1
  Ta  Ta129  1  0.10303496  0.29513848  0.90411050  1
  Ta  Ta130  1  0.29497090  0.68878917  0.09359760  1
  Ta  Ta131  1  -0.00094122  0.60258686  0.59798372  1
  Ta  Ta132  1  0.80047861  0.19915810  0.80147922  1
  Ta  Ta133  1  0.70066405  0.90267613  0.90008216  1
  Ta  Ta134  1  0.30002640  0.10655031  0.29771712  1
  Ta  Ta135  1  0.18477719  0.60307557  0.59047165  1
  Ta  Ta136  1  0.90351911  0.30165653  0.50373427  1
  Ta  Ta137  1  0.39603294  0.39943011  0.39857208  1
  Ta  Ta138  1  0.70183714  0.69723349  0.30007004  1
  Ta  Ta139  1  0.50422529  0.29380791  0.89415243  1
  Ta  Ta140  1  0.91317225  0.29768730  0.30523074  1
  Ta  Ta141  1  0.60822328  0.59234207  0.40418611  1
  Ta  Ta142  1  0.90586545  0.89779434  0.89451491  1
  Ta  Ta143  1  0.20261637  0.19847383  0.80382636  1
  Ta  Ta144  1  0.59971032  0.80018409  0.60769126  1
  Ta  Ta145  1  0.70689135  0.49041956  0.69358084  1
  Ta  Ta146  1  0.90392664  0.69858643  0.50052456  1
  Ta  Ta147  1  0.09287781  0.09527540  0.50375625  1
  Ta  Ta148  1  0.00651348  0.00325786  -0.00555442  1
  Ta  Ta149  1  0.09104790  0.70402223  0.30838238  1
  Ti  Ti150  1  0.39939465  0.40020401  0.80968842  1
  Ti  Ti151  1  0.38334762  0.59007691  -0.00442500  1
  Ti  Ti152  1  0.00712727  0.19386073  -0.00093832  1
  Ti  Ti153  1  0.09034891  0.90296288  0.10085170  1
  Ti  Ti154  1  0.30116757  0.09952859  0.89320000  1
  Ti  Ti155  1  0.09815640  0.69686972  0.10053041  1
  Ti  Ti156  1  0.80934334  0.59318284  0.80271711  1
  Ti  Ti157  1  0.09371808  0.69361738  0.88952989  1
  Ti  Ti158  1  0.80903698  0.60593775  -0.00491906  1
  Ti  Ti159  1  0.20228462  0.41308189  -0.00551327  1
  Ti  Ti160  1  0.91908695  0.09436567  0.10247902  1
  Ti  Ti161  1  0.90654811  0.29558286  0.89747518  1
  Ti  Ti162  1  0.29731500  0.90474782  0.50272989  1
  Ti  Ti163  1  0.50921196  0.49985906  0.89715765  1
  Ti  Ti164  1  0.59841000  0.79649511  0.19338071  1
  Ti  Ti165  1  0.90665117  0.69997384  0.88257956  1
  Ti  Ti166  1  0.40257347  0.00322201  0.39808268  1
  Ti  Ti167  1  0.39130946  0.58602029  0.40033723  1
  Ti  Ti168  1  0.00494698  0.19916108  0.80750814  1
  Ti  Ti169  1  0.59866830  0.39400869  -0.00302929  1
  Ti  Ti170  1  0.29645940  0.90642966  0.70483015  1
  Ti  Ti171  1  0.00094656  0.41169060  0.81655689  1
  Ti  Ti172  1  0.38483046  0.58552291  0.20089518  1
  Ti  Ti173  1  -0.00303097  0.00286640  0.40243260  1
  Ti  Ti174  1  0.80130115  0.59656829  0.59367782  1
  Ti  Ti175  1  0.49037963  0.31189883  0.28087363  1
  Ti  Ti176  1  0.70770565  0.70064444  0.09935167  1
  Ti  Ti177  1  0.00532155  0.18899035  0.20273917  1
  Ti  Ti178  1  0.50364549  0.90145889  0.10182542  1
  Ti  Ti179  1  0.31238451  0.30239952  0.50502097  1
  Ti  Ti180  1  0.39991074  0.20004191  0.80027530  1
  Ti  Ti181  1  0.50946813  0.09997250  0.70323040  1
  Ti  Ti182  1  0.20530274  0.20058290  0.40315636  1
  Ti  Ti183  1  0.20079150  0.19609338  -0.00530105  1
  Ti  Ti184  1  0.80830994  0.00893135  0.60061516  1
  Ti  Ti185  1  0.80218950  0.39272100  0.80556143  1
  Ti  Ti186  1  0.59545927  0.20001444  -0.00209371  1
  Ti  Ti187  1  0.19653993  0.59491385  0.81871506  1
  Ti  Ti188  1  0.50150521  0.90392235  0.89166586  1
  Ti  Ti189  1  0.70017161  0.29823379  0.69934096  1
  Ti  Ti190  1  0.69854216  0.69998895  0.49985190  1
  Ti  Ti191  1  0.40208017  0.00441403  0.18923025  1
  Ti  Ti192  1  0.61278308  0.59011841  0.59206916  1
  Ti  Ti193  1  0.39674884  0.00336044  0.61254689  1
  Ti  Ti194  1  0.08843264  0.70233246  0.70020642  1
  Ti  Ti195  1  0.10755243  0.50638339  0.09181151  1
  Ti  Ti196  1  0.91435259  0.29386727  0.10104618  1
  Ti  Ti197  1  0.90932388  0.10025907  0.89702658  1
  Ti  Ti198  1  0.20663769  0.41651392  0.20538363  1
  Ti  Ti199  1  0.50023076  0.90895241  0.28769916  1
  Mo  Mo200  1  0.60176880  0.00109112  0.80449742  1
  Mo  Mo201  1  0.49869973  0.30595426  0.09101545  1
  Mo  Mo202  1  0.70098508  0.49900555  0.50293901  1
  Mo  Mo203  1  0.29220620  0.49685074  0.90430756  1
  Mo  Mo204  1  0.91376690  0.90258879  0.30366299  1
  Mo  Mo205  1  0.58863975  -0.00350921  0.19297378  1
  Mo  Mo206  1  0.30117653  0.49939756  0.49805574  1
  Mo  Mo207  1  0.39704155  0.20382611  0.20195004  1
  Mo  Mo208  1  0.59415428  0.00472135  0.61002176  1
  Mo  Mo209  1  0.39888315  0.19696194  0.60731582  1
  Mo  Mo210  1  0.89409680  0.49976150  0.89583962  1
  Mo  Mo211  1  0.69688263  0.10622074  0.70605783  1
  Mo  Mo212  1  0.09047339  0.50169242  0.50155211  1
  Mo  Mo213  1  -0.00192218  0.60427749  0.79743549  1
  Mo  Mo214  1  0.40126678  0.00456122  0.79836082  1
  Mo  Mo215  1  0.28798233  0.69164562  0.90712150  1
  Mo  Mo216  1  0.60139272  0.20030672  0.61127430  1
  Mo  Mo217  1  0.00448760  -0.00106567  0.19831513  1
  Mo  Mo218  1  0.19486251  0.60090547  -0.00184690  1
  Mo  Mo219  1  0.00672271  0.00768927  0.60116159  1
  Mo  Mo220  1  0.09428150  0.10812311  0.09198855  1
  Mo  Mo221  1  0.00354106  0.20349601  0.59446128  1
  Mo  Mo222  1  0.30613879  0.49528798  0.30135349  1
  Mo  Mo223  1  0.49536315  0.30469676  0.50633001  1
  Mo  Mo224  1  0.90677090  0.10103932  0.50329040  1
  Mo  Mo225  1  0.19414797  -0.00105729  0.40441429  1
  Mo  Mo226  1  0.09142455  0.70452803  0.50333457  1
  Mo  Mo227  1  0.80319027  0.39981491  0.60102907  1
  Mo  Mo228  1  0.60782891  0.20011142  0.79836405  1
  Mo  Mo229  1  0.19398881  0.80110979  0.60163298  1
  Mo  Mo230  1  0.00406450  0.78482540  0.59841694  1
  Mo  Mo231  1  -0.00124808  0.79877384  0.40127114  1
  Mo  Mo232  1  0.09725392  0.50068544  0.90108598  1
  Mo  Mo233  1  0.29683735  0.50212355  0.09993492  1
  Mo  Mo234  1  0.59057731  0.40040450  0.20164470  1
  Mo  Mo235  1  0.91505392  0.10119962  0.30199741  1
  Mo  Mo236  1  -0.00158209  0.79624253  0.79856271  1
  Mo  Mo237  1  0.61519246  0.58725759  0.79905344  1
  Mo  Mo238  1  0.89785448  0.69971609  0.10139104  1
  Mo  Mo239  1  0.80068959  0.61222136  0.19748311  1
  Mo  Mo240  1  0.09627597  0.90514279  0.89734469  1
  Mo  Mo241  1  0.90188125  0.69129250  0.69649063  1
  Mo  Mo242  1  0.39346446  0.40143984  0.20299452  1
  Mo  Mo243  1  0.60490167  0.39952248  0.60265342  1
  Mo  Mo244  1  0.19845095  0.00746898  0.79677012  1
  Mo  Mo245  1  0.49473995  0.09169287  0.09423193  1
  Mo  Mo246  1  0.19980021  0.20003980  0.20523412  1
  Mo  Mo247  1  0.09242367  0.50589039  0.30119319  1
  Mo  Mo248  1  0.40070608  0.39448945  0.58949451  1
  Mo  Mo249  1  0.09659177  0.90370694  0.50053788  1
