# generated using pymatgen
data_HfZrTaTiMo
_symmetry_space_group_name_H-M   'P 1'
_cell_length_a   16.89833867
_cell_length_b   16.88819827
_cell_length_c   16.88709485
_cell_angle_alpha   90.02053688
_cell_angle_beta   90.00233279
_cell_angle_gamma   89.95961807
_symmetry_Int_Tables_number   1
_chemical_formula_structural   HfZrTaTiMo
_chemical_formula_sum   'Hf50 Zr50 Ta50 Ti50 Mo50'
_cell_volume   4819.27973408
_cell_formula_units_Z   50
loop_
 _symmetry_equiv_pos_site_id
 _symmetry_equiv_pos_as_xyz
  1  'x, y, z'
loop_
 _atom_site_type_symbol
 _atom_site_label
 _atom_site_symmetry_multiplicity
 _atom_site_fract_x
 _atom_site_fract_y
 _atom_site_fract_z
 _atom_site_occupancy
  Hf  Hf0  1  0.19508014  0.01125489  0.79946027  1
  Hf  Hf1  1  0.69714182  0.49361869  0.89650807  1
  Hf  Hf2  1  0.40547012  0.39826875  0.40551334  1
  Hf  Hf3  1  -0.00533288  0.58519602  0.22058466  1
  Hf  Hf4  1  0.80048588  -0.00071096  0.19608962  1
  Hf  Hf5  1  0.59945975  0.40007428  0.39631994  1
  Hf  Hf6  1  0.90211962  0.70387255  0.69529756  1
  Hf  Hf7  1  0.09598694  0.31026135  0.70646789  1
  Hf  Hf8  1  0.29950598  0.49682865  0.09743056  1
  Hf  Hf9  1  0.40149211  0.20496505  0.39740617  1
  Hf  Hf10  1  0.90329890  0.29559004  0.89002863  1
  Hf  Hf11  1  0.79940832  0.19650542  -0.00089613  1
  Hf  Hf12  1  0.29799126  0.10827090  0.09515418  1
  Hf  Hf13  1  0.69593522  0.90826365  0.70831815  1
  Hf  Hf14  1  0.60115281  0.20469209  0.20079914  1
  Hf  Hf15  1  0.48970534  0.90822960  0.49971503  1
  Hf  Hf16  1  0.39763234  0.20409014  0.79689225  1
  Hf  Hf17  1  0.20040577  0.19681238  0.60754469  1
  Hf  Hf18  1  0.09806618  0.48560993  0.88625041  1
  Hf  Hf19  1  0.30889641  0.70246878  0.09380959  1
  Hf  Hf20  1  0.09575258  0.49582807  0.09694112  1
  Hf  Hf21  1  0.30679669  0.89400372  0.09932621  1
  Hf  Hf22  1  0.91103369  0.09727293  0.09884957  1
  Hf  Hf23  1  0.90588819  0.09660795  0.30441457  1
  Hf  Hf24  1  0.00744681  0.20305717  0.20540810  1
  Hf  Hf25  1  0.69744637  0.90469467  0.50002651  1
  Hf  Hf26  1  0.10805373  0.90243695  0.69661480  1
  Hf  Hf27  1  0.20389556  0.19240403  0.39521120  1
  Hf  Hf28  1  0.59426157  0.59431334  0.20401549  1
  Hf  Hf29  1  0.20096190  0.60902363  0.40888907  1
  Hf  Hf30  1  0.68936385  0.90342950  0.10064039  1
  Hf  Hf31  1  0.41042563  0.20150308  0.19732554  1
  Hf  Hf32  1  0.68367035  0.48726393  0.09519929  1
  Hf  Hf33  1  0.61027950  0.20609959  0.00009766  1
  Hf  Hf34  1  0.09460642  0.90392201  0.31137747  1
  Hf  Hf35  1  0.79080913  0.60308012  0.79014536  1
  Hf  Hf36  1  0.08856756  0.69423255  0.09384146  1
  Hf  Hf37  1  0.60220952  0.19831970  0.59980797  1
  Hf  Hf38  1  0.10540841  0.70300707  0.69858880  1
  Hf  Hf39  1  0.30220743  0.10645062  0.90067623  1
  Hf  Hf40  1  0.00055161  0.38841145  -0.00369537  1
  Hf  Hf41  1  0.29402027  0.30908211  0.29198310  1
  Hf  Hf42  1  0.00418576  0.80254003  0.80043097  1
  Hf  Hf43  1  0.09118147  0.91409043  0.10222356  1
  Hf  Hf44  1  0.30497915  0.50174729  0.30115498  1
  Hf  Hf45  1  0.11845031  0.48687523  0.30104561  1
  Hf  Hf46  1  0.50980731  0.29805023  0.69755240  1
  Hf  Hf47  1  0.41709009  0.20376404  0.00331520  1
  Hf  Hf48  1  -0.00663066  0.40804196  0.59266287  1
  Hf  Hf49  1  0.79696989  0.59392856  0.60246003  1
  Zr  Zr50  1  0.70192404  0.09202482  0.89076283  1
  Zr  Zr51  1  0.59817107  0.20411883  0.39464428  1
  Zr  Zr52  1  0.89247991  0.69444923  0.31231549  1
  Zr  Zr53  1  0.29849574  0.49976114  0.89549210  1
  Zr  Zr54  1  -0.00407302  0.40863507  0.39808136  1
  Zr  Zr55  1  0.59124500  0.79818723  -0.00735542  1
  Zr  Zr56  1  0.40273311  0.39810517  0.79971077  1
  Zr  Zr57  1  0.30437869  0.09249310  0.50958293  1
  Zr  Zr58  1  0.10106018  0.29623907  0.50616117  1
  Zr  Zr59  1  0.89955170  0.49423893  0.89853117  1
  Zr  Zr60  1  0.69116182  0.09949783  0.70935268  1
  Zr  Zr61  1  0.31223440  0.70782969  0.30312602  1
  Zr  Zr62  1  0.79716729  0.80108716  0.20374466  1
  Zr  Zr63  1  0.90297063  0.68290112  0.10058241  1
  Zr  Zr64  1  0.40996175  -0.00075816  -0.00325098  1
  Zr  Zr65  1  0.60017285  0.79527049  0.60583954  1
  Zr  Zr66  1  0.89509017  0.90571676  0.89237530  1
  Zr  Zr67  1  0.49644094  0.89718101  0.29955372  1
  Zr  Zr68  1  0.90057019  0.90357866  0.49434772  1
  Zr  Zr69  1  0.40580835  0.39636774  -0.00415187  1
  Zr  Zr70  1  0.41426954  0.40181427  0.19701819  1
  Zr  Zr71  1  0.69313951  0.69456183  0.10246902  1
  Zr  Zr72  1  0.59853255  0.79455573  0.40179843  1
  Zr  Zr73  1  -0.00189133  0.59105079  0.41478657  1
  Zr  Zr74  1  0.00345878  -0.00088475  0.60240955  1
  Zr  Zr75  1  0.19500737  0.79932878  0.19789997  1
  Zr  Zr76  1  0.89825807  0.29693231  0.10543566  1
  Zr  Zr77  1  0.20792048  0.60614566  0.59651273  1
  Zr  Zr78  1  0.90419131  0.49214213  0.70576875  1
  Zr  Zr79  1  0.80100153  0.00611330  0.60360911  1
  Zr  Zr80  1  0.19129211  0.60441069  -0.01135753  1
  Zr  Zr81  1  0.60117433  0.60377531  0.78887302  1
  Zr  Zr82  1  0.90436556  0.69554042  0.90274625  1
  Zr  Zr83  1  0.89254861  0.30178562  0.30483295  1
  Zr  Zr84  1  0.89543959  0.29785453  0.49981070  1
  Zr  Zr85  1  0.70432778  0.30929411  0.50647544  1
  Zr  Zr86  1  0.89165367  0.48993463  0.10617603  1
  Zr  Zr87  1  0.20964139  0.00904899  0.21065133  1
  Zr  Zr88  1  -0.01064831  0.80638040  0.19597006  1
  Zr  Zr89  1  0.19804199  -0.00079887  -0.00636616  1
  Zr  Zr90  1  0.80258337  0.80613760  0.00522896  1
  Zr  Zr91  1  0.90521596  0.10541963  0.49500526  1
  Zr  Zr92  1  0.30843778  0.89363020  0.30781120  1
  Zr  Zr93  1  0.30293074  0.90248996  0.69808195  1
  Zr  Zr94  1  0.40275274  0.41224427  0.60921686  1
  Zr  Zr95  1  0.79075990  0.59456116  0.00010460  1
  Zr  Zr96  1  0.90333729  0.90777638  0.31153293  1
  Zr  Zr97  1  0.20035984  0.60455929  0.20095821  1
  Zr  Zr98  1  0.30447257  0.70568512  0.88785878  1
  Zr  Zr99  1  0.40722356  0.59284776  0.78629008  1
  Ta  Ta100  1  0.49732228  0.50897109  0.31042570  1
  Ta  Ta101  1  0.49420909  0.90161957  0.70279467  1
  Ta  Ta102  1  0.00360693  0.80582365  -0.00334644  1
  Ta  Ta103  1  0.10404736  0.49637354  0.70178019  1
  Ta  Ta104  1  0.59088313  0.79875081  0.80149503  1
  Ta  Ta105  1  0.80158843  0.00139256  -0.00083023  1
  Ta  Ta106  1  0.30264079  0.89363820  0.88944530  1
  Ta  Ta107  1  0.29228693  0.29932634  0.09707117  1
  Ta  Ta108  1  0.79280413  0.79732604  0.40502123  1
  Ta  Ta109  1  0.78433447  0.19608003  0.39283355  1
  Ta  Ta110  1  0.00047522  0.01003674  0.80264691  1
  Ta  Ta111  1  0.49731384  0.69181826  0.50326938  1
  Ta  Ta112  1  0.10509824  0.29366992  0.09676100  1
  Ta  Ta113  1  0.19593645  0.20203568  0.80155140  1
  Ta  Ta114  1  0.49571745  0.09422656  0.70034702  1
  Ta  Ta115  1  0.40880801  0.80124429  -0.01173983  1
  Ta  Ta116  1  0.69545917  0.90456789  0.89343230  1
  Ta  Ta117  1  0.79917372  0.20156324  0.60758237  1
  Ta  Ta118  1  0.78602550  0.19555088  0.20371317  1
  Ta  Ta119  1  0.49696531  0.09701256  0.50324022  1
  Ta  Ta120  1  0.30187398  0.70748424  0.69939875  1
  Ta  Ta121  1  0.89404032  0.69949168  0.50351670  1
  Ta  Ta122  1  0.60398051  0.59682285  0.60651276  1
  Ta  Ta123  1  0.49240717  0.69796662  0.30518904  1
  Ta  Ta124  1  0.00899818  0.60216204  0.79979604  1
  Ta  Ta125  1  0.51267926  0.49930313  0.90288165  1
  Ta  Ta126  1  0.30095811  0.90348426  0.50168140  1
  Ta  Ta127  1  0.50043337  0.89794041  0.10457814  1
  Ta  Ta128  1  0.70124909  0.69298833  0.50141951  1
  Ta  Ta129  1  0.19918578  0.19839978  0.20232842  1
  Ta  Ta130  1  0.30047140  0.30203319  0.51265050  1
  Ta  Ta131  1  0.09800030  0.10554599  0.09632282  1
  Ta  Ta132  1  0.79115949  0.79872843  0.79607986  1
  Ta  Ta133  1  0.70109650  0.49837698  0.50034339  1
  Ta  Ta134  1  0.78452456  0.38081239  -0.00412328  1
  Ta  Ta135  1  0.60819718  0.39620390  0.79248119  1
  Ta  Ta136  1  0.19418584  0.80144871  -0.00908981  1
  Ta  Ta137  1  0.09489590  0.70502189  0.30898413  1
  Ta  Ta138  1  0.19651981  0.39065458  -0.00578589  1
  Ta  Ta139  1  0.59956261  0.39912094  0.21303141  1
  Ta  Ta140  1  0.69354454  0.70271745  0.89658167  1
  Ta  Ta141  1  0.00210528  0.19552286  0.80097227  1
  Ta  Ta142  1  0.40640741  0.00871489  0.19710632  1
  Ta  Ta143  1  0.50929242  0.10183554  0.88947629  1
  Ta  Ta144  1  0.39710288  0.79685809  0.59561021  1
  Ta  Ta145  1  0.00502465  0.80017037  0.59219886  1
  Ta  Ta146  1  0.20015386  0.80133549  0.58858902  1
  Ta  Ta147  1  0.69411284  0.90199018  0.30065109  1
  Ta  Ta148  1  0.50042299  0.09847120  0.30143482  1
  Ta  Ta149  1  0.50586552  0.50747970  0.50684909  1
  Ti  Ti150  1  0.11492704  0.49449832  0.51006012  1
  Ti  Ti151  1  0.59579170  0.00770888  0.20136116  1
  Ti  Ti152  1  0.10356199  0.89941139  0.89479245  1
  Ti  Ti153  1  0.29168899  0.30834601  0.69958065  1
  Ti  Ti154  1  0.09570188  0.11321220  0.90960218  1
  Ti  Ti155  1  0.78967321  0.58351339  0.21625706  1
  Ti  Ti156  1  0.60313733  0.59835855  0.40139664  1
  Ti  Ti157  1  0.20882659  0.39632066  0.41436506  1
  Ti  Ti158  1  0.79284122  0.38825602  0.78960215  1
  Ti  Ti159  1  0.00532876  0.79625041  0.41387271  1
  Ti  Ti160  1  0.40014380  0.20043707  0.60385506  1
  Ti  Ti161  1  0.00954295  0.20083482  0.39827356  1
  Ti  Ti162  1  0.69549730  0.09459545  0.09821900  1
  Ti  Ti163  1  0.78413286  0.00751244  0.39357711  1
  Ti  Ti164  1  0.49219777  0.70206929  0.69488460  1
  Ti  Ti165  1  0.59468806  0.79346568  0.20461573  1
  Ti  Ti166  1  0.30519590  0.09408319  0.69774877  1
  Ti  Ti167  1  0.19957399  0.00196003  0.40714860  1
  Ti  Ti168  1  0.00197686  0.59917650  0.59547864  1
  Ti  Ti169  1  0.40875187  0.59804091  0.19366438  1
  Ti  Ti170  1  0.69907334  0.69605103  0.30685257  1
  Ti  Ti171  1  0.79926755  0.20100387  0.79583900  1
  Ti  Ti172  1  0.28401611  0.49675371  0.70175960  1
  Ti  Ti173  1  0.90243132  0.29605316  0.69584891  1
  Ti  Ti174  1  0.28903331  0.29547757  0.90211582  1
  Ti  Ti175  1  0.49977617  0.30318207  0.51030308  1
  Ti  Ti176  1  0.09820167  0.09677053  0.50475904  1
  Ti  Ti177  1  0.09651819  0.09273238  0.30122447  1
  Ti  Ti178  1  0.00078999  0.39730438  0.20520384  1
  Ti  Ti179  1  -0.00337011  0.00258719  -0.01091715  1
  Ti  Ti180  1  0.89832522  0.90174592  0.70194345  1
  Ti  Ti181  1  0.59404524  0.00012665  -0.00398420  1
  Ti  Ti182  1  0.39433567  0.01125116  0.39250745  1
  Ti  Ti183  1  0.10863092  0.30545859  0.29827877  1
  Ti  Ti184  1  0.79805801  0.80000581  0.60184236  1
  Ti  Ti185  1  0.39693481  0.60327048  0.41344377  1
  Ti  Ti186  1  0.59295077  0.00368965  0.60052793  1
  Ti  Ti187  1  0.19756326  0.79632775  0.41285258  1
  Ti  Ti188  1  0.78196798  0.39495129  0.21222633  1
  Ti  Ti189  1  0.30522047  0.50046649  0.50740321  1
  Ti  Ti190  1  0.41577963  0.60182866  -0.00492803  1
  Ti  Ti191  1  0.49863442  0.69926379  0.09892324  1
  Ti  Ti192  1  0.40484953  -0.00176835  0.80370867  1
  Ti  Ti193  1  0.52051728  0.31848175  0.09427516  1
  Ti  Ti194  1  0.60048314  0.00809131  0.39633677  1
  Ti  Ti195  1  0.51707568  0.30080229  0.89372432  1
  Ti  Ti196  1  0.09432505  0.10511555  0.69543821  1
  Ti  Ti197  1  0.69760282  0.10070944  0.50097003  1
  Ti  Ti198  1  0.19585735  0.60533497  0.79908642  1
  Ti  Ti199  1  0.90092293  0.10413423  0.70584033  1
  Mo  Mo200  1  0.00533359  0.00754538  0.20336687  1
  Mo  Mo201  1  0.30581287  0.70582790  0.50308692  1
  Mo  Mo202  1  0.10003978  0.70575149  0.89672356  1
  Mo  Mo203  1  0.51018072  0.09088182  0.10006901  1
  Mo  Mo204  1  0.20405545  0.40361465  0.60239434  1
  Mo  Mo205  1  -0.00374410  0.19637209  0.61069627  1
  Mo  Mo206  1  0.40368414  -0.00072892  0.60400972  1
  Mo  Mo207  1  0.19616872  0.20318008  -0.00178375  1
  Mo  Mo208  1  0.90341639  0.10180859  0.89539328  1
  Mo  Mo209  1  0.70635083  0.29592257  0.69880595  1
  Mo  Mo210  1  0.79959405  0.39842826  0.60213865  1
  Mo  Mo211  1  0.10132306  0.29155184  0.89808549  1
  Mo  Mo212  1  0.88500872  0.50340504  0.50075563  1
  Mo  Mo213  1  0.30525981  0.10242245  0.29876761  1
  Mo  Mo214  1  0.20132164  0.00260141  0.59896870  1
  Mo  Mo215  1  0.40500792  0.79897848  0.79325763  1
  Mo  Mo216  1  0.19892043  0.39240343  0.18679553  1
  Mo  Mo217  1  0.70394768  0.29460517  0.88667069  1
  Mo  Mo218  1  0.10898494  0.90120158  0.49929016  1
  Mo  Mo219  1  0.50018034  0.69682851  0.89586445  1
  Mo  Mo220  1  0.40153945  0.79359891  0.41412069  1
  Mo  Mo221  1  0.70118998  0.48317792  0.69216857  1
  Mo  Mo222  1  -0.00258997  0.39509158  0.79488939  1
  Mo  Mo223  1  0.40369741  0.60157948  0.60080091  1
  Mo  Mo224  1  0.09461254  0.70434803  0.50228152  1
  Mo  Mo225  1  0.41508448  0.79523416  0.18694529  1
  Mo  Mo226  1  0.59003866  0.60010151  -0.00333556  1
  Mo  Mo227  1  0.81031577  -0.00134390  0.79885953  1
  Mo  Mo228  1  0.70018236  0.30175082  0.10732319  1
  Mo  Mo229  1  0.70021712  0.30087484  0.30202436  1
  Mo  Mo230  1  0.79526448  0.41134382  0.39865814  1
  Mo  Mo231  1  0.49882869  0.30306142  0.29791038  1
  Mo  Mo232  1  0.59670690  0.20247192  0.79811180  1
  Mo  Mo233  1  0.60171779  0.40605849  0.60010560  1
  Mo  Mo234  1  0.01801148  0.00759669  0.40449573  1
  Mo  Mo235  1  0.20149705  0.80419327  0.79783344  1
  Mo  Mo236  1  0.60257203  0.39454212  -0.01064099  1
  Mo  Mo237  1  0.50235731  0.50514762  0.09347867  1
  Mo  Mo238  1  0.51378593  0.49748767  0.69884504  1
  Mo  Mo239  1  0.49862488  0.90125628  0.89464098  1
  Mo  Mo240  1  0.20356278  0.39234838  0.79937915  1
  Mo  Mo241  1  0.00319075  0.19811332  -0.00277669  1
  Mo  Mo242  1  0.69381736  0.50121312  0.30595581  1
  Mo  Mo243  1  0.88062061  0.49428565  0.30622628  1
  Mo  Mo244  1  0.90531617  0.91265319  0.08865318  1
  Mo  Mo245  1  -0.00136239  0.59619147  -0.01265772  1
  Mo  Mo246  1  0.69519340  0.09323693  0.29785622  1
  Mo  Mo247  1  0.79146160  0.60051220  0.40664250  1
  Mo  Mo248  1  0.70075571  0.71282369  0.69659665  1
  Mo  Mo249  1  0.58586140  -0.00582721  0.80205008  1
