# generated using pymatgen
data_HfZrTaTiMo
_symmetry_space_group_name_H-M   'P 1'
_cell_length_a   16.88854876
_cell_length_b   16.89424680
_cell_length_c   16.88016071
_cell_angle_alpha   90.02400033
_cell_angle_beta   89.98683115
_cell_angle_gamma   89.96946472
_symmetry_Int_Tables_number   1
_chemical_formula_structural   HfZrTaTiMo
_chemical_formula_sum   'Hf50 Zr50 Ta50 Ti50 Mo50'
_cell_volume   4816.23458824
_cell_formula_units_Z   50
loop_
 _symmetry_equiv_pos_site_id
 _symmetry_equiv_pos_as_xyz
  1  'x, y, z'
loop_
 _atom_site_type_symbol
 _atom_site_label
 _atom_site_symmetry_multiplicity
 _atom_site_fract_x
 _atom_site_fract_y
 _atom_site_fract_z
 _atom_site_occupancy
  Hf  Hf0  1  0.49872859  0.09663512  0.50450766  1
  Hf  Hf1  1  0.60982852  0.18785752  0.00485985  1
  Hf  Hf2  1  0.49669398  0.70360135  0.09616790  1
  Hf  Hf3  1  0.29328102  0.69333070  0.89507761  1
  Hf  Hf4  1  0.89492399  0.90462050  0.09967501  1
  Hf  Hf5  1  0.69434727  0.10043976  0.50724367  1
  Hf  Hf6  1  -0.00002076  0.19697008  0.00031986  1
  Hf  Hf7  1  0.59283353  0.79826932  0.39060957  1
  Hf  Hf8  1  0.30137301  0.09321117  0.69700119  1
  Hf  Hf9  1  0.59315478  0.61318189  0.39455186  1
  Hf  Hf10  1  0.11147056  0.10579212  0.30594099  1
  Hf  Hf11  1  0.40871226  0.40263236  0.00650234  1
  Hf  Hf12  1  0.89863024  0.49990120  0.90012204  1
  Hf  Hf13  1  0.09437948  0.69472675  0.10763221  1
  Hf  Hf14  1  0.59756348  0.39127379  0.00110912  1
  Hf  Hf15  1  0.00533554  0.39557751  0.19703276  1
  Hf  Hf16  1  0.00379718  0.00431415  0.19575904  1
  Hf  Hf17  1  0.69572512  0.49240503  0.29912602  1
  Hf  Hf18  1  0.29748773  0.51380609  0.70656283  1
  Hf  Hf19  1  0.20973332  0.39878425  0.19930171  1
  Hf  Hf20  1  0.00397500  0.39560729  0.80807095  1
  Hf  Hf21  1  0.20080146  0.38287832  0.38919318  1
  Hf  Hf22  1  0.00641908  0.39580421  0.59585972  1
  Hf  Hf23  1  0.59526325  0.39053901  0.40940982  1
  Hf  Hf24  1  0.30626951  0.50200427  0.30033568  1
  Hf  Hf25  1  0.50663583  0.28863060  0.70407554  1
  Hf  Hf26  1  0.91052372  0.71202756  0.28994248  1
  Hf  Hf27  1  0.40495816  -0.00357186  0.80367251  1
  Hf  Hf28  1  0.30423739  0.29493810  0.49579480  1
  Hf  Hf29  1  0.59057667  0.59341847  -0.00574073  1
  Hf  Hf30  1  0.09842760  0.90411211  0.90145809  1
  Hf  Hf31  1  0.69473076  0.90272653  0.10092228  1
  Hf  Hf32  1  0.50089811  0.89600819  0.69394921  1
  Hf  Hf33  1  0.10093785  0.90001628  0.69913702  1
  Hf  Hf34  1  0.40624277  0.79554034  0.80269507  1
  Hf  Hf35  1  0.00373931  0.20428077  0.80763214  1
  Hf  Hf36  1  0.40226164  -0.00867303  0.00807423  1
  Hf  Hf37  1  0.69567140  0.28772265  0.70283609  1
  Hf  Hf38  1  0.20414330  0.80154447  0.59747289  1
  Hf  Hf39  1  0.69256265  0.69902201  0.69876987  1
  Hf  Hf40  1  0.01192485  0.60373238  0.79461605  1
  Hf  Hf41  1  0.70723286  0.89906427  0.28711747  1
  Hf  Hf42  1  0.30444971  0.69591901  0.49503484  1
  Hf  Hf43  1  0.88258359  0.10970409  0.90349896  1
  Hf  Hf44  1  0.80138078  0.39807646  0.19491836  1
  Hf  Hf45  1  0.89555672  0.29034833  0.30499401  1
  Hf  Hf46  1  0.89720151  0.71142715  0.69683930  1
  Hf  Hf47  1  0.20019553  0.80558389  0.39653482  1
  Hf  Hf48  1  0.59563690  -0.00411631  0.39283424  1
  Hf  Hf49  1  0.89393043  0.90781613  0.90408497  1
  Zr  Zr50  1  0.19727659  0.81219837  0.19738706  1
  Zr  Zr51  1  0.69558801  0.90289887  0.90801913  1
  Zr  Zr52  1  0.80864326  0.60136809  0.01511984  1
  Zr  Zr53  1  0.80442188  0.60527646  0.59171268  1
  Zr  Zr54  1  0.00771400  0.20190179  0.58849676  1
  Zr  Zr55  1  0.89153950  0.10567089  0.69878550  1
  Zr  Zr56  1  -0.00016763  0.00338155  0.39879327  1
  Zr  Zr57  1  0.49886249  0.49682770  0.29363778  1
  Zr  Zr58  1  0.10545368  0.51498581  0.29071703  1
  Zr  Zr59  1  0.40811187  0.40526946  0.81110072  1
  Zr  Zr60  1  0.29306994  0.50864031  0.90264765  1
  Zr  Zr61  1  0.59786595  0.61059496  0.19890946  1
  Zr  Zr62  1  0.40142669  0.80491985  0.39569422  1
  Zr  Zr63  1  0.89861326  0.10751613  0.49409268  1
  Zr  Zr64  1  0.69543547  0.49455570  0.10104062  1
  Zr  Zr65  1  0.11164790  0.29284613  0.09896498  1
  Zr  Zr66  1  0.69311516  0.50585643  0.50312161  1
  Zr  Zr67  1  0.90242299  0.70151379  0.89893537  1
  Zr  Zr68  1  0.59917275  0.20507209  0.40123213  1
  Zr  Zr69  1  -0.00769160  0.18815911  0.20333164  1
  Zr  Zr70  1  0.30368331  0.09488796  0.49302679  1
  Zr  Zr71  1  0.60219629  -0.00127503  0.80121334  1
  Zr  Zr72  1  0.89716336  0.49726800  0.69935090  1
  Zr  Zr73  1  0.60338480  0.40298786  0.80564615  1
  Zr  Zr74  1  0.29235857  0.68705154  0.09370319  1
  Zr  Zr75  1  0.19498470  0.39830938  0.80582772  1
  Zr  Zr76  1  0.01088330  0.38888529  0.40313058  1
  Zr  Zr77  1  0.69620049  0.69703460  0.89614473  1
  Zr  Zr78  1  0.19399713  0.80399427  0.00647286  1
  Zr  Zr79  1  0.69414120  0.89586241  0.50941304  1
  Zr  Zr80  1  0.30162562  0.30036007  0.70435748  1
  Zr  Zr81  1  -0.00404324  0.61017121  0.40746079  1
  Zr  Zr82  1  0.80124570  0.61221338  0.40081049  1
  Zr  Zr83  1  -0.02182955  0.58873033  0.18362902  1
  Zr  Zr84  1  0.19867309  0.19541158  0.59205864  1
  Zr  Zr85  1  0.89268813  0.28927453  0.09446568  1
  Zr  Zr86  1  0.51034025  0.51435061  0.70128995  1
  Zr  Zr87  1  0.29357916  0.89420517  0.89783790  1
  Zr  Zr88  1  0.89474349  0.29605486  0.70178972  1
  Zr  Zr89  1  0.50126832  0.30407184  0.28387510  1
  Zr  Zr90  1  0.30217115  0.50749088  0.49852922  1
  Zr  Zr91  1  0.29705624  0.09841070  0.91281331  1
  Zr  Zr92  1  0.00371578  0.60508708  0.59730640  1
  Zr  Zr93  1  0.89159466  0.49238673  0.31174742  1
  Zr  Zr94  1  0.81101355  0.80232751  0.41322543  1
  Zr  Zr95  1  0.80215780  -0.00064858  0.39804107  1
  Zr  Zr96  1  -0.00324896  0.00615985  0.80235378  1
  Zr  Zr97  1  0.40836424  0.40208691  0.59712592  1
  Zr  Zr98  1  0.39658409  0.80688542  0.19344594  1
  Zr  Zr99  1  0.11442840  0.50369167  0.50117428  1
  Ta  Ta100  1  0.40037013  0.59026461  0.18850007  1
  Ta  Ta101  1  0.90251742  0.89964214  0.28968409  1
  Ta  Ta102  1  0.80115982  -0.00534661  0.60353539  1
  Ta  Ta103  1  0.89830105  0.89952790  0.69907030  1
  Ta  Ta104  1  0.79870323  0.80744989  0.80065113  1
  Ta  Ta105  1  0.60048097  0.39166537  0.59436443  1
  Ta  Ta106  1  0.79839590  0.60525054  0.19547999  1
  Ta  Ta107  1  0.78969902  0.20129931  0.39435901  1
  Ta  Ta108  1  0.00167626  0.39929515  -0.00245064  1
  Ta  Ta109  1  0.10549426  0.29546698  0.70061161  1
  Ta  Ta110  1  0.00037720  0.00183638  0.59665988  1
  Ta  Ta111  1  0.11738603  0.10218318  0.10193568  1
  Ta  Ta112  1  0.30749017  0.29726610  0.10081386  1
  Ta  Ta113  1  0.10460518  0.09756954  0.69941572  1
  Ta  Ta114  1  0.20221469  -0.00117728  0.40566376  1
  Ta  Ta115  1  0.40232408  0.19925917  0.19711047  1
  Ta  Ta116  1  0.10334776  0.90647448  0.50384021  1
  Ta  Ta117  1  0.10934974  0.50335423  0.09173941  1
  Ta  Ta118  1  0.40542919  0.19785751  0.60156530  1
  Ta  Ta119  1  0.10907723  0.09963306  0.90893799  1
  Ta  Ta120  1  0.30378874  0.29282223  0.90868177  1
  Ta  Ta121  1  0.50219869  0.09804805  0.10344359  1
  Ta  Ta122  1  0.79035853  0.00124977  0.79351313  1
  Ta  Ta123  1  0.30401680  0.10171646  0.30127204  1
  Ta  Ta124  1  0.29731027  0.91410468  0.29749468  1
  Ta  Ta125  1  0.30196306  0.69035327  0.29400350  1
  Ta  Ta126  1  0.39931814  0.61185685  0.60859486  1
  Ta  Ta127  1  0.00000392  0.80388372  0.00668524  1
  Ta  Ta128  1  0.79096364  0.39406248  0.59677255  1
  Ta  Ta129  1  0.40180409  0.19170794  0.80588831  1
  Ta  Ta130  1  0.00264496  0.80114439  0.80162367  1
  Ta  Ta131  1  0.20086986  0.19607318  0.80365812  1
  Ta  Ta132  1  0.40674714  0.59174128  -0.00300162  1
  Ta  Ta133  1  0.49545594  0.69786653  0.50557921  1
  Ta  Ta134  1  0.79667053  0.39532462  0.80219366  1
  Ta  Ta135  1  0.50437754  0.28462614  0.90038851  1
  Ta  Ta136  1  0.29656517  0.10306672  0.10833058  1
  Ta  Ta137  1  0.40649932  0.19825045  0.00673635  1
  Ta  Ta138  1  0.70658267  0.28514763  0.89763726  1
  Ta  Ta139  1  0.80053135  0.79765832  0.00305467  1
  Ta  Ta140  1  0.40538405  0.39522171  0.40109208  1
  Ta  Ta141  1  0.50513380  0.09604353  0.90606993  1
  Ta  Ta142  1  0.69971121  0.10408512  0.29116317  1
  Ta  Ta143  1  0.70331740  0.50007930  0.89640941  1
  Ta  Ta144  1  0.00061046  0.00868947  0.00836426  1
  Ta  Ta145  1  0.19890298  0.00158697  0.79922408  1
  Ta  Ta146  1  0.00385141  0.81040021  0.40246159  1
  Ta  Ta147  1  0.79977345  0.39171635  -0.00738729  1
  Ta  Ta148  1  0.39961322  0.00380519  0.19837473  1
  Ta  Ta149  1  0.29494954  0.89999405  0.69873807  1
  Ti  Ti150  1  0.79736369  0.59852143  0.79697540  1
  Ti  Ti151  1  0.59229203  0.79463051  0.59839909  1
  Ti  Ti152  1  0.69612627  0.50451056  0.69874816  1
  Ti  Ti153  1  0.40174511  -0.00633033  0.39706368  1
  Ti  Ti154  1  0.39443082  0.79829881  0.60166432  1
  Ti  Ti155  1  0.69695372  0.10725107  0.70211948  1
  Ti  Ti156  1  0.70772243  0.70716995  0.29360913  1
  Ti  Ti157  1  0.89374769  0.48829229  0.49647432  1
  Ti  Ti158  1  0.50373421  0.10096420  0.69918567  1
  Ti  Ti159  1  0.69430916  0.70818036  0.09646922  1
  Ti  Ti160  1  0.49656939  0.51276516  0.50142946  1
  Ti  Ti161  1  0.70172071  0.29204349  0.10382313  1
  Ti  Ti162  1  0.10609130  0.70134737  0.89777981  1
  Ti  Ti163  1  0.60130400  -0.00049862  0.60629486  1
  Ti  Ti164  1  0.19881821  0.39386993  0.59797084  1
  Ti  Ti165  1  0.60318236  0.20047659  0.19593117  1
  Ti  Ti166  1  0.09858436  0.70334238  0.29097239  1
  Ti  Ti167  1  0.40402075  0.20607833  0.39397823  1
  Ti  Ti168  1  0.49749618  0.10027589  0.29585688  1
  Ti  Ti169  1  0.10923843  0.49883397  0.69940956  1
  Ti  Ti170  1  0.70094320  0.88911564  0.69650191  1
  Ti  Ti171  1  0.59314678  0.79655781  0.20535570  1
  Ti  Ti172  1  0.69395873  0.70572406  0.50895075  1
  Ti  Ti173  1  0.39382938  -0.01054244  0.59519637  1
  Ti  Ti174  1  0.80458256  0.79144894  0.18760734  1
  Ti  Ti175  1  0.59859289  0.00677990  0.19727279  1
  Ti  Ti176  1  0.80750015  0.01778633  0.19710232  1
  Ti  Ti177  1  0.78332038  0.01792833  0.00615533  1
  Ti  Ti178  1  0.78279168  0.38268363  0.40871564  1
  Ti  Ti179  1  0.50859372  0.90203765  0.09943382  1
  Ti  Ti180  1  0.59299438  0.79913199  0.80763337  1
  Ti  Ti181  1  0.10583394  0.50797823  0.90736411  1
  Ti  Ti182  1  0.49764810  0.89748698  0.50454867  1
  Ti  Ti183  1  0.20556429  0.40076807  0.00390398  1
  Ti  Ti184  1  0.19740636  0.61111207  0.39407750  1
  Ti  Ti185  1  0.49700769  0.90480267  0.28908249  1
  Ti  Ti186  1  0.09937585  0.70926222  0.50013609  1
  Ti  Ti187  1  -0.00062452  0.60038060  0.00079435  1
  Ti  Ti188  1  0.89641494  0.29740595  0.49509888  1
  Ti  Ti189  1  -0.00310564  0.80607229  0.59389055  1
  Ti  Ti190  1  0.29135877  0.70156401  0.71225826  1
  Ti  Ti191  1  0.79267945  0.20507684  0.59164667  1
  Ti  Ti192  1  0.58813190  0.80113990  -0.00881900  1
  Ti  Ti193  1  0.50582118  0.69509269  0.70390196  1
  Ti  Ti194  1  0.40334759  0.80273110  -0.00432107  1
  Ti  Ti195  1  0.21211459  0.21022364  0.21511281  1
  Ti  Ti196  1  0.10035294  0.90592644  0.29645164  1
  Ti  Ti197  1  0.11388564  0.29344702  0.90875570  1
  Ti  Ti198  1  0.19498515  0.61419861  0.60986784  1
  Ti  Ti199  1  0.19857388  -0.00725291  0.01472527  1
  Mo  Mo200  1  0.90336783  0.71220312  0.09703216  1
  Mo  Mo201  1  0.19421713  0.79975154  0.79458035  1
  Mo  Mo202  1  0.69946899  0.29719676  0.29226414  1
  Mo  Mo203  1  0.29890118  0.91155097  0.10479067  1
  Mo  Mo204  1  0.50355360  0.50291353  0.89899475  1
  Mo  Mo205  1  0.69692382  0.09708496  0.10858042  1
  Mo  Mo206  1  0.79352271  0.19739957  0.80184605  1
  Mo  Mo207  1  0.79818336  0.80642242  0.60700979  1
  Mo  Mo208  1  0.19787206  -0.00212366  0.59941714  1
  Mo  Mo209  1  0.09958842  0.71094856  0.69902349  1
  Mo  Mo210  1  0.09434915  0.90996239  0.09887244  1
  Mo  Mo211  1  0.89083039  0.09800751  0.09583482  1
  Mo  Mo212  1  0.31216012  0.29586040  0.29805084  1
  Mo  Mo213  1  0.20479829  0.59812039  0.19884033  1
  Mo  Mo214  1  0.00527803  0.20188786  0.40049292  1
  Mo  Mo215  1  0.49828396  0.49395599  0.10253004  1
  Mo  Mo216  1  0.59504728  0.19356862  0.60527062  1
  Mo  Mo217  1  0.20371877  0.00532391  0.20365273  1
  Mo  Mo218  1  0.89070806  0.10053021  0.29892977  1
  Mo  Mo219  1  0.60259748  0.38817376  0.19150573  1
  Mo  Mo220  1  0.50113288  0.89523158  0.90559013  1
  Mo  Mo221  1  0.10717053  0.29274329  0.49800671  1
  Mo  Mo222  1  0.18707888  0.60551559  0.79774636  1
  Mo  Mo223  1  0.30165941  0.90178540  0.49940540  1
  Mo  Mo224  1  0.40745137  0.60951454  0.80217473  1
  Mo  Mo225  1  0.60350868  0.60163261  0.80229729  1
  Mo  Mo226  1  0.59490963  -0.00120022  0.00786550  1
  Mo  Mo227  1  0.90869071  0.90402683  0.51061210  1
  Mo  Mo228  1  0.00316858  0.81180994  0.20113028  1
  Mo  Mo229  1  0.59409783  0.60438509  0.59683373  1
  Mo  Mo230  1  0.49680975  0.29304151  0.50529962  1
  Mo  Mo231  1  0.19061660  0.59863553  -0.00101674  1
  Mo  Mo232  1  0.49487838  0.69821272  0.89801887  1
  Mo  Mo233  1  0.29917278  0.49536072  0.09800388  1
  Mo  Mo234  1  0.40106117  0.39785962  0.19010986  1
  Mo  Mo235  1  0.09919787  0.28787374  0.30211624  1
  Mo  Mo236  1  0.91041748  0.71669653  0.50241444  1
  Mo  Mo237  1  0.48448553  0.69854886  0.29604449  1
  Mo  Mo238  1  0.69843041  0.29497494  0.50696321  1
  Mo  Mo239  1  0.90364789  0.48548685  0.08834531  1
  Mo  Mo240  1  0.50313856  0.29153375  0.09756518  1
  Mo  Mo241  1  0.89371258  0.30195727  0.90083483  1
  Mo  Mo242  1  0.10355689  0.09455824  0.49870150  1
  Mo  Mo243  1  0.69801193  0.09807375  0.89854312  1
  Mo  Mo244  1  0.40422233  0.60216132  0.39672367  1
  Mo  Mo245  1  0.20306759  0.19779238  0.39672361  1
  Mo  Mo246  1  0.79357662  0.19826072  0.00373640  1
  Mo  Mo247  1  0.20857818  0.20070563  0.00171980  1
  Mo  Mo248  1  0.79152882  0.19600478  0.20097344  1
  Mo  Mo249  1  0.59786505  0.18824390  0.80574923  1
