# generated using pymatgen
data_HfZrTaTiMo
_symmetry_space_group_name_H-M   'P 1'
_cell_length_a   16.88495654
_cell_length_b   16.88816434
_cell_length_c   16.87955891
_cell_angle_alpha   89.96050858
_cell_angle_beta   89.98671047
_cell_angle_gamma   89.95371092
_symmetry_Int_Tables_number   1
_chemical_formula_structural   HfZrTaTiMo
_chemical_formula_sum   'Hf50 Zr50 Ta50 Ti50 Mo50'
_cell_volume   4813.30332505
_cell_formula_units_Z   50
loop_
 _symmetry_equiv_pos_site_id
 _symmetry_equiv_pos_as_xyz
  1  'x, y, z'
loop_
 _atom_site_type_symbol
 _atom_site_label
 _atom_site_symmetry_multiplicity
 _atom_site_fract_x
 _atom_site_fract_y
 _atom_site_fract_z
 _atom_site_occupancy
  Hf  Hf0  1  0.79595944  0.00717351  0.40475397  1
  Hf  Hf1  1  0.49919363  0.29357329  0.29532345  1
  Hf  Hf2  1  0.80008020  0.19410972  0.19266705  1
  Hf  Hf3  1  0.39500599  0.59220163  0.40129988  1
  Hf  Hf4  1  0.00189156  0.39455586  0.61110832  1
  Hf  Hf5  1  0.60296636  0.20059008  0.18821211  1
  Hf  Hf6  1  0.10082763  0.28849081  0.89486912  1
  Hf  Hf7  1  0.80565683  0.60701178  -0.00573892  1
  Hf  Hf8  1  0.39288171  0.40101521  0.80487745  1
  Hf  Hf9  1  0.79453083  0.00622887  0.60246566  1
  Hf  Hf10  1  0.59170665  0.00318481  0.41337754  1
  Hf  Hf11  1  0.20366491  -0.01064711  0.40071087  1
  Hf  Hf12  1  0.31132830  0.89434289  0.51113461  1
  Hf  Hf13  1  0.58163494  0.80548090  0.39647698  1
  Hf  Hf14  1  0.31248579  0.70037037  0.69905414  1
  Hf  Hf15  1  0.79651533  0.00055416  0.19610203  1
  Hf  Hf16  1  0.59597116  0.80345486  0.00383732  1
  Hf  Hf17  1  0.69141435  0.09786607  0.30189847  1
  Hf  Hf18  1  0.19606347  0.79919506  0.40509959  1
  Hf  Hf19  1  0.09763223  0.29477045  0.08933913  1
  Hf  Hf20  1  0.09676068  0.09447871  0.08464345  1
  Hf  Hf21  1  0.21016319  0.19867340  0.40805296  1
  Hf  Hf22  1  0.09106238  0.71900275  0.90788443  1
  Hf  Hf23  1  0.20767913  0.39731370  0.40603684  1
  Hf  Hf24  1  0.58453126  0.81220594  0.60404607  1
  Hf  Hf25  1  0.69993821  0.29679934  0.70235981  1
  Hf  Hf26  1  0.90071321  0.29477179  0.08946383  1
  Hf  Hf27  1  0.59507829  0.19892439  0.81266198  1
  Hf  Hf28  1  0.79758373  0.00765498  0.80017569  1
  Hf  Hf29  1  0.90418583  0.49896319  0.50398360  1
  Hf  Hf30  1  0.90311130  0.10028141  0.90134852  1
  Hf  Hf31  1  0.20193869  0.39566753  0.19661429  1
  Hf  Hf32  1  0.89436523  0.89571798  0.31110600  1
  Hf  Hf33  1  0.00193321  0.60876666  0.40098782  1
  Hf  Hf34  1  0.20339998  0.19563519  0.60265563  1
  Hf  Hf35  1  0.80411369  0.39993797  0.39655496  1
  Hf  Hf36  1  0.69874588  0.70428699  0.29989391  1
  Hf  Hf37  1  0.20338543  0.59688283  -0.00799627  1
  Hf  Hf38  1  0.59627911  0.59969228  0.61067033  1
  Hf  Hf39  1  0.09708350  0.29449704  0.30411115  1
  Hf  Hf40  1  0.19305270  0.60426779  0.79649738  1
  Hf  Hf41  1  0.69686379  0.50322378  0.49346805  1
  Hf  Hf42  1  0.60784836  0.59407881  0.19777518  1
  Hf  Hf43  1  0.10549829  0.69956004  0.29247163  1
  Hf  Hf44  1  0.39579903  0.39435942  0.40582299  1
  Hf  Hf45  1  0.60243918  0.40058250  0.60189909  1
  Hf  Hf46  1  0.59998997  0.40240760  0.80520465  1
  Hf  Hf47  1  0.70351786  0.70749276  0.70714175  1
  Hf  Hf48  1  0.00366094  0.79846154  0.59805500  1
  Hf  Hf49  1  0.60446406  0.60329698  -0.00014631  1
  Zr  Zr50  1  0.21066874  0.00037368  0.19732436  1
  Zr  Zr51  1  0.60875908  0.39380465  0.00542386  1
  Zr  Zr52  1  0.70079431  0.29420894  0.30226911  1
  Zr  Zr53  1  0.20682112  0.00135915  0.61792197  1
  Zr  Zr54  1  0.80392282  0.60076464  0.60373105  1
  Zr  Zr55  1  0.10313274  0.50075378  0.50446806  1
  Zr  Zr56  1  0.60047140  0.40068225  0.39607452  1
  Zr  Zr57  1  0.10185455  0.70543756  0.10139926  1
  Zr  Zr58  1  0.90791463  0.49615052  0.08701852  1
  Zr  Zr59  1  0.20588769  0.80965401  0.79641868  1
  Zr  Zr60  1  0.29961233  0.68836289  0.51485603  1
  Zr  Zr61  1  0.40355491  0.80990811  0.19399540  1
  Zr  Zr62  1  0.09316499  0.89968983  0.09268220  1
  Zr  Zr63  1  0.58898242  0.80481923  0.79688240  1
  Zr  Zr64  1  0.21651887  0.82125543  0.21378529  1
  Zr  Zr65  1  0.20984953  0.39834383  -0.00523446  1
  Zr  Zr66  1  0.39781938  0.39725293  -0.00594031  1
  Zr  Zr67  1  0.80080534  0.19620590  0.60684187  1
  Zr  Zr68  1  0.39093307  0.80317179  0.38499410  1
  Zr  Zr69  1  0.79444513  0.40153917  0.19948286  1
  Zr  Zr70  1  0.49374884  0.29926575  0.70386014  1
  Zr  Zr71  1  0.90579631  0.49684351  0.70855793  1
  Zr  Zr72  1  0.22031726  0.80924458  0.00103141  1
  Zr  Zr73  1  0.50156102  0.50416143  0.90155896  1
  Zr  Zr74  1  0.80497877  0.60173168  0.38508452  1
  Zr  Zr75  1  0.00086869  0.60498064  0.80243080  1
  Zr  Zr76  1  -0.00187316  0.39604088  0.20259588  1
  Zr  Zr77  1  0.79338693  -0.00178697  0.00175078  1
  Zr  Zr78  1  0.40090559  0.19720432  0.59696816  1
  Zr  Zr79  1  0.69252662  0.69911804  0.49320087  1
  Zr  Zr80  1  0.49074158  0.70483079  0.89728276  1
  Zr  Zr81  1  0.19841558  0.41307116  0.79759868  1
  Zr  Zr82  1  0.40277839  0.39672401  0.19515330  1
  Zr  Zr83  1  0.10025319  0.29138405  0.70617497  1
  Zr  Zr84  1  -0.00997675  -0.00191990  0.19929373  1
  Zr  Zr85  1  0.48702389  0.70023861  0.50847417  1
  Zr  Zr86  1  0.40552630  0.19502796  -0.01001835  1
  Zr  Zr87  1  0.09041065  0.09205568  0.50793310  1
  Zr  Zr88  1  0.09127747  0.09988532  0.30906398  1
  Zr  Zr89  1  0.70310130  0.89433735  0.49557125  1
  Zr  Zr90  1  0.30068790  0.69597574  0.10935243  1
  Zr  Zr91  1  -0.01206869  0.60859327  0.19728708  1
  Zr  Zr92  1  0.80044125  0.80133318  0.19367649  1
  Zr  Zr93  1  0.09724946  0.91180761  0.90481581  1
  Zr  Zr94  1  0.07874273  0.48902912  0.91054266  1
  Zr  Zr95  1  0.89846469  0.89005482  0.90395316  1
  Zr  Zr96  1  0.19037505  0.79527776  0.60475505  1
  Zr  Zr97  1  0.20783977  0.19195185  0.19446414  1
  Zr  Zr98  1  0.90797170  0.10499425  0.49519111  1
  Zr  Zr99  1  0.80335002  0.80255416  0.60035082  1
  Ta  Ta100  1  0.79785217  0.39409453  -0.00775862  1
  Ta  Ta101  1  0.29772840  0.28167854  0.88464545  1
  Ta  Ta102  1  0.00162801  0.00477433  0.79698849  1
  Ta  Ta103  1  0.90929034  0.90641261  0.50060956  1
  Ta  Ta104  1  0.09156751  0.29336562  0.50115448  1
  Ta  Ta105  1  0.30827921  0.09211118  0.50112809  1
  Ta  Ta106  1  0.80185973  0.39346736  0.60295384  1
  Ta  Ta107  1  0.29881067  0.50581841  0.68833147  1
  Ta  Ta108  1  0.89826660  0.70842302  0.71085049  1
  Ta  Ta109  1  0.20558832  0.39571162  0.59815815  1
  Ta  Ta110  1  0.01114365  0.61281407  0.60716579  1
  Ta  Ta111  1  0.49826239  0.09739725  0.29372027  1
  Ta  Ta112  1  0.60467526  0.60091914  0.79948465  1
  Ta  Ta113  1  0.80143048  0.19816245  0.80212995  1
  Ta  Ta114  1  0.90303808  0.29545659  0.50098398  1
  Ta  Ta115  1  0.40506846  0.19668044  0.40574096  1
  Ta  Ta116  1  0.39629616  0.59892258  0.00247088  1
  Ta  Ta117  1  0.69765804  0.90598219  0.70781554  1
  Ta  Ta118  1  0.69227014  0.90029334  0.29796902  1
  Ta  Ta119  1  0.49871519  0.50262267  0.50126463  1
  Ta  Ta120  1  0.50024650  0.09705871  0.70809587  1
  Ta  Ta121  1  0.59533291  0.00265734  0.60258180  1
  Ta  Ta122  1  0.49527091  0.91213236  0.89807553  1
  Ta  Ta123  1  0.79020551  0.19890451  -0.00431553  1
  Ta  Ta124  1  0.50383329  0.29475308  0.09570549  1
  Ta  Ta125  1  0.80245234  0.60349957  0.80802733  1
  Ta  Ta126  1  0.69227346  0.90377055  0.89794298  1
  Ta  Ta127  1  0.50047278  0.69239747  0.29382585  1
  Ta  Ta128  1  0.29986320  0.29680119  0.70271623  1
  Ta  Ta129  1  0.20162568  0.59684069  0.40337566  1
  Ta  Ta130  1  0.50426204  0.09315988  0.09734337  1
  Ta  Ta131  1  0.50314054  0.91569060  0.28822492  1
  Ta  Ta132  1  0.90416611  0.29954068  0.89489265  1
  Ta  Ta133  1  0.59511412  0.80379946  0.19560911  1
  Ta  Ta134  1  0.29669226  0.50024987  0.29531323  1
  Ta  Ta135  1  0.00446867  0.79772942  0.40588246  1
  Ta  Ta136  1  0.29947864  0.50418465  0.10371207  1
  Ta  Ta137  1  0.59433227  0.19310399  0.41082031  1
  Ta  Ta138  1  0.09248230  0.90854043  0.70226250  1
  Ta  Ta139  1  0.10342041  0.50176284  0.29833004  1
  Ta  Ta140  1  0.31562174  0.09792530  0.30430860  1
  Ta  Ta141  1  0.30627959  0.29188143  0.29859953  1
  Ta  Ta142  1  0.70605723  0.29193494  0.49867301  1
  Ta  Ta143  1  0.59947849  0.19056842  0.59558512  1
  Ta  Ta144  1  0.40868100  -0.00140449  0.60675797  1
  Ta  Ta145  1  0.80212399  0.39598934  0.80177604  1
  Ta  Ta146  1  0.90334937  0.09843752  0.08981232  1
  Ta  Ta147  1  0.50408983  0.50238062  0.30073395  1
  Ta  Ta148  1  0.70773951  0.71304058  0.89875044  1
  Ta  Ta149  1  0.90006198  0.90304944  0.70260155  1
  Ti  Ti150  1  -0.00169154  0.39924220  0.39847841  1
  Ti  Ti151  1  0.29678182  0.68426976  0.29311708  1
  Ti  Ti152  1  0.30945297  0.90835055  0.89260796  1
  Ti  Ti153  1  0.09878685  0.50149623  0.10016974  1
  Ti  Ti154  1  0.70400969  0.29709812  0.89897387  1
  Ti  Ti155  1  -0.00103275  0.19502558  -0.00759795  1
  Ti  Ti156  1  0.50437833  0.91542478  0.09508476  1
  Ti  Ti157  1  0.50383875  0.30118619  0.50262769  1
  Ti  Ti158  1  0.39487530  0.00219384  0.19023958  1
  Ti  Ti159  1  0.69122609  0.90255901  0.09890115  1
  Ti  Ti160  1  0.30961460  0.70385026  0.89494675  1
  Ti  Ti161  1  0.21360109  0.18716885  -0.00559354  1
  Ti  Ti162  1  0.90115236  0.48905332  0.90058903  1
  Ti  Ti163  1  0.91384702  0.09842544  0.69266935  1
  Ti  Ti164  1  -0.00921877  0.80210124  0.19964345  1
  Ti  Ti165  1  0.68891695  0.09332042  0.09013071  1
  Ti  Ti166  1  0.39085989  0.40107231  0.59258742  1
  Ti  Ti167  1  0.70462775  0.70242067  0.09860447  1
  Ti  Ti168  1  0.40199962  0.80757208  0.00176342  1
  Ti  Ti169  1  0.21837393  0.00726357  -0.00541122  1
  Ti  Ti170  1  0.71302578  0.50450907  0.09939544  1
  Ti  Ti171  1  0.89648862  0.70733018  0.49494830  1
  Ti  Ti172  1  0.70562363  0.50406500  0.89690526  1
  Ti  Ti173  1  0.39662589  0.59208028  0.80339778  1
  Ti  Ti174  1  0.90118485  0.50369112  0.29291528  1
  Ti  Ti175  1  -0.00466545  0.19419513  0.19903586  1
  Ti  Ti176  1  0.49155441  0.50082169  0.69840405  1
  Ti  Ti177  1  0.40879324  -0.00001407  0.40764959  1
  Ti  Ti178  1  0.90252350  0.10384972  0.30900581  1
  Ti  Ti179  1  0.20969294  0.17327007  0.79127735  1
  Ti  Ti180  1  0.49776936  0.69625269  0.10184795  1
  Ti  Ti181  1  0.90178146  0.28476191  0.31064838  1
  Ti  Ti182  1  0.10440118  0.09623966  0.89513402  1
  Ti  Ti183  1  0.30359261  0.29261738  0.09567004  1
  Ti  Ti184  1  0.60632494  0.40172431  0.19408880  1
  Ti  Ti185  1  -0.00807736  0.61529411  -0.00389696  1
  Ti  Ti186  1  0.39022330  0.00638309  0.79485753  1
  Ti  Ti187  1  0.39995889  0.19232846  0.19219627  1
  Ti  Ti188  1  0.39474188  0.00580085  -0.00006590  1
  Ti  Ti189  1  0.60198450  0.19893663  -0.00503902  1
  Ti  Ti190  1  0.49937523  0.49832457  0.09996002  1
  Ti  Ti191  1  0.08730168  0.90190951  0.30551591  1
  Ti  Ti192  1  0.48725918  0.69941596  0.70494260  1
  Ti  Ti193  1  0.40387630  0.59374490  0.19898580  1
  Ti  Ti194  1  -0.00537561  0.19529318  0.79143418  1
  Ti  Ti195  1  0.89543586  0.71486880  0.08967950  1
  Ti  Ti196  1  -0.00105328  0.80312352  0.79591092  1
  Ti  Ti197  1  0.68731367  0.09834030  0.70863307  1
  Ti  Ti198  1  0.50303397  0.08831714  0.89832975  1
  Ti  Ti199  1  0.70686856  0.50021854  0.70608733  1
  Mo  Mo200  1  0.59510625  -0.00077689  -0.00306097  1
  Mo  Mo201  1  0.20002160  0.00326677  0.80335446  1
  Mo  Mo202  1  0.80002212  0.20133603  0.40036789  1
  Mo  Mo203  1  -0.01351369  0.80362276  0.00816515  1
  Mo  Mo204  1  0.39824581  0.81360080  0.80290580  1
  Mo  Mo205  1  0.69870171  0.50353461  0.29140707  1
  Mo  Mo206  1  0.79898482  0.60357090  0.19100553  1
  Mo  Mo207  1  -0.00555131  0.39234249  0.80180902  1
  Mo  Mo208  1  -0.00098485  0.20205353  0.60365928  1
  Mo  Mo209  1  0.40002832  0.19329793  0.79973196  1
  Mo  Mo210  1  -0.00243009  0.38422990  -0.00298837  1
  Mo  Mo211  1  0.10538862  0.50320045  0.69501348  1
  Mo  Mo212  1  0.31004634  0.09880974  0.09570045  1
  Mo  Mo213  1  0.30075947  0.09352407  0.89534831  1
  Mo  Mo214  1  0.31660669  0.91998457  0.30836807  1
  Mo  Mo215  1  0.30033478  0.29572414  0.50371912  1
  Mo  Mo216  1  0.70075884  0.29630744  0.09126883  1
  Mo  Mo217  1  0.49752308  0.29605069  0.90303649  1
  Mo  Mo218  1  -0.00139182  0.20596675  0.40157121  1
  Mo  Mo219  1  0.19378644  0.59572824  0.60494924  1
  Mo  Mo220  1  0.89845584  0.89981155  0.09807371  1
  Mo  Mo221  1  0.58981142  0.59889920  0.39307834  1
  Mo  Mo222  1  0.40311449  0.81366059  0.61845765  1
  Mo  Mo223  1  0.59890865  0.00000247  0.19390199  1
  Mo  Mo224  1  -0.00443688  0.00378119  -0.00602033  1
  Mo  Mo225  1  0.00208632  -0.00898864  0.40228140  1
  Mo  Mo226  1  0.89786342  0.29559050  0.70618889  1
  Mo  Mo227  1  0.90170649  0.70878598  0.30083832  1
  Mo  Mo228  1  0.80736700  0.79957679  0.39918255  1
  Mo  Mo229  1  0.59904359  0.00327634  0.80228554  1
  Mo  Mo230  1  0.31322377  0.90843799  0.08744395  1
  Mo  Mo231  1  0.30046902  0.49456673  0.50421749  1
  Mo  Mo232  1  0.49763718  0.09906994  0.50387956  1
  Mo  Mo233  1  0.78968371  0.80306293  0.00084046  1
  Mo  Mo234  1  0.49511277  0.90372514  0.50790350  1
  Mo  Mo235  1  0.09547975  0.70576140  0.70450213  1
  Mo  Mo236  1  0.30713665  0.90290212  0.70705686  1
  Mo  Mo237  1  0.09456970  0.89948983  0.50193523  1
  Mo  Mo238  1  0.49836074  0.91316478  0.70844170  1
  Mo  Mo239  1  0.09305465  0.09799902  0.70706660  1
  Mo  Mo240  1  0.69763909  0.10340628  0.90153513  1
  Mo  Mo241  1  0.89699727  0.70765216  0.89855569  1
  Mo  Mo242  1  -0.00323382  -0.00511448  0.60627751  1
  Mo  Mo243  1  0.19800510  0.58723187  0.20198742  1
  Mo  Mo244  1  0.40539930  0.58564668  0.60658949  1
  Mo  Mo245  1  0.79825215  0.80634222  0.80154890  1
  Mo  Mo246  1  0.10057000  0.69656303  0.49764546  1
  Mo  Mo247  1  0.69519795  0.10420970  0.50427878  1
  Mo  Mo248  1  0.30987858  0.10003842  0.70139335  1
  Mo  Mo249  1  0.30284093  0.51463939  0.89842246  1
