# generated using pymatgen
data_HfZrTaTiMo
_symmetry_space_group_name_H-M   'P 1'
_cell_length_a   16.88814642
_cell_length_b   16.88699085
_cell_length_c   16.88904465
_cell_angle_alpha   90.04097315
_cell_angle_beta   90.02823575
_cell_angle_gamma   90.02439741
_symmetry_Int_Tables_number   1
_chemical_formula_structural   HfZrTaTiMo
_chemical_formula_sum   'Hf50 Zr50 Ta50 Ti50 Mo50'
_cell_volume   4816.58395275
_cell_formula_units_Z   50
loop_
 _symmetry_equiv_pos_site_id
 _symmetry_equiv_pos_as_xyz
  1  'x, y, z'
loop_
 _atom_site_type_symbol
 _atom_site_label
 _atom_site_symmetry_multiplicity
 _atom_site_fract_x
 _atom_site_fract_y
 _atom_site_fract_z
 _atom_site_occupancy
  Hf  Hf0  1  0.09849402  0.71029372  0.50490503  1
  Hf  Hf1  1  0.60816462  0.19568208  -0.00741849  1
  Hf  Hf2  1  0.90281768  0.29748572  0.90409291  1
  Hf  Hf3  1  0.40089219  0.40564096  0.20444895  1
  Hf  Hf4  1  0.38700784  0.01467410  0.80208784  1
  Hf  Hf5  1  0.89474833  0.89869458  0.10608147  1
  Hf  Hf6  1  0.88627799  0.70120746  0.69670564  1
  Hf  Hf7  1  0.78392735  0.39719886  -0.00873939  1
  Hf  Hf8  1  0.68619653  0.89760580  0.89633933  1
  Hf  Hf9  1  0.10155658  0.70252807  0.29271250  1
  Hf  Hf10  1  0.88597917  0.10696706  0.10973996  1
  Hf  Hf11  1  0.50472991  0.89952717  0.09739107  1
  Hf  Hf12  1  0.40315185  0.39617227  0.59662353  1
  Hf  Hf13  1  0.29904550  0.50208315  0.30212839  1
  Hf  Hf14  1  0.49199896  0.91159056  0.49560959  1
  Hf  Hf15  1  0.78575822  0.00521717  0.00672916  1
  Hf  Hf16  1  0.50504036  0.10714953  0.70564235  1
  Hf  Hf17  1  0.70129960  0.70443642  0.70136533  1
  Hf  Hf18  1  0.20570993  0.19217991  0.59975223  1
  Hf  Hf19  1  -0.00320085  0.00131980  0.40211805  1
  Hf  Hf20  1  0.39338364  0.40139500  0.80328906  1
  Hf  Hf21  1  0.39295032  0.20980577  0.42096429  1
  Hf  Hf22  1  0.89850144  0.90484683  0.90299941  1
  Hf  Hf23  1  0.69840022  0.29591036  0.70164964  1
  Hf  Hf24  1  0.19396916  0.20612737  0.40920132  1
  Hf  Hf25  1  0.60562177  0.58851223  -0.01077909  1
  Hf  Hf26  1  0.30361888  0.30239376  0.09214561  1
  Hf  Hf27  1  0.00308294  0.20895264  0.20128757  1
  Hf  Hf28  1  0.20111951  0.60423419  0.39883053  1
  Hf  Hf29  1  0.00437967  0.19703892  0.79553855  1
  Hf  Hf30  1  0.49721240  0.90234916  0.70775380  1
  Hf  Hf31  1  0.60172375  0.59798898  0.80633472  1
  Hf  Hf32  1  0.00421294  0.19818852  0.40203371  1
  Hf  Hf33  1  0.59652924  0.59460086  0.59103850  1
  Hf  Hf34  1  0.79055991  0.39717859  0.39898121  1
  Hf  Hf35  1  -0.00383842  0.59619251  0.19323219  1
  Hf  Hf36  1  0.19798222  0.60219061  0.60739872  1
  Hf  Hf37  1  0.60640671  0.80260998  0.39568584  1
  Hf  Hf38  1  0.80274233  0.20062560  0.39918235  1
  Hf  Hf39  1  -0.00191452  0.59979307  0.60631921  1
  Hf  Hf40  1  0.89932664  0.10208345  0.90381193  1
  Hf  Hf41  1  0.49488608  0.70580393  0.70676761  1
  Hf  Hf42  1  0.61158653  0.40413563  0.82043973  1
  Hf  Hf43  1  0.40794302  0.59209046  0.59643659  1
  Hf  Hf44  1  0.59124828  0.79868991  0.58883053  1
  Hf  Hf45  1  0.09867752  0.48836341  0.69817192  1
  Hf  Hf46  1  0.19870699  0.00572361  0.19362274  1
  Hf  Hf47  1  0.70986853  0.70350444  0.50127397  1
  Hf  Hf48  1  0.61676460  0.00661557  0.39780855  1
  Hf  Hf49  1  0.39937125  0.79112249  0.39872980  1
  Zr  Zr50  1  0.88879198  0.89866048  0.69325696  1
  Zr  Zr51  1  -0.00124768  0.60316648  0.39771380  1
  Zr  Zr52  1  0.71195967  0.50113538  0.70570382  1
  Zr  Zr53  1  0.39537567  0.18915814  -0.01650038  1
  Zr  Zr54  1  0.79991390  0.40413581  0.59720601  1
  Zr  Zr55  1  0.80335488  0.60440854  -0.00177594  1
  Zr  Zr56  1  0.90218657  0.49349046  0.89738192  1
  Zr  Zr57  1  0.09236081  0.89143528  0.10439172  1
  Zr  Zr58  1  0.50129810  0.29630943  0.30241212  1
  Zr  Zr59  1  0.09606241  0.31585699  0.51556263  1
  Zr  Zr60  1  0.49953138  0.89859827  0.89717227  1
  Zr  Zr61  1  0.30959764  0.90952697  0.30739686  1
  Zr  Zr62  1  0.19773377  0.00869994  -0.00085881  1
  Zr  Zr63  1  0.29961457  0.69535767  0.89238190  1
  Zr  Zr64  1  0.78380935  0.01074994  0.80091568  1
  Zr  Zr65  1  0.88579089  0.10314264  0.68767375  1
  Zr  Zr66  1  0.50711258  0.90514770  0.29324392  1
  Zr  Zr67  1  0.30193565  0.90263444  0.90031795  1
  Zr  Zr68  1  0.60835928  0.20462901  0.40020840  1
  Zr  Zr69  1  0.50715632  0.69136812  0.29919645  1
  Zr  Zr70  1  0.19596071  0.00884798  0.41648403  1
  Zr  Zr71  1  0.00486054  0.60677344  0.80200816  1
  Zr  Zr72  1  -0.00669070  0.80514251  0.39770468  1
  Zr  Zr73  1  0.80054965  0.39915302  0.20360062  1
  Zr  Zr74  1  0.18789483  0.79931107  0.79360985  1
  Zr  Zr75  1  0.21648310  0.79225247  0.20257278  1
  Zr  Zr76  1  0.69626610  0.89394660  0.70154771  1
  Zr  Zr77  1  0.70208093  0.28855496  0.11199067  1
  Zr  Zr78  1  0.19474096  0.79479640  -0.00054632  1
  Zr  Zr79  1  0.50141596  0.30151603  0.09481852  1
  Zr  Zr80  1  0.50114407  0.29896253  0.89686884  1
  Zr  Zr81  1  -0.00658820  0.78477779  -0.00624447  1
  Zr  Zr82  1  0.29859006  0.30325140  0.29889334  1
  Zr  Zr83  1  0.00253841  0.79502869  0.79957029  1
  Zr  Zr84  1  0.09590479  0.90057081  0.29483847  1
  Zr  Zr85  1  0.69355130  0.89116360  0.11385799  1
  Zr  Zr86  1  0.71604724  0.10704041  0.27593833  1
  Zr  Zr87  1  0.30104527  0.70288721  0.50682375  1
  Zr  Zr88  1  0.59559355  0.40375162  0.58752370  1
  Zr  Zr89  1  0.50828634  0.69546302  0.10186143  1
  Zr  Zr90  1  0.80376099  0.60078059  0.39468539  1
  Zr  Zr91  1  0.39772917  0.79104594  0.00507074  1
  Zr  Zr92  1  0.50163289  0.49369106  0.09732288  1
  Zr  Zr93  1  0.80736190  0.80883818  0.38137175  1
  Zr  Zr94  1  0.00988549  0.39238727  0.38422938  1
  Zr  Zr95  1  0.00791437  0.00247356  0.78537883  1
  Zr  Zr96  1  0.49995061  0.10100084  0.50175706  1
  Zr  Zr97  1  0.30707321  0.10221292  0.30380182  1
  Zr  Zr98  1  0.19585785  0.20101724  0.19107392  1
  Zr  Zr99  1  0.91359933  0.48790244  0.50080386  1
  Ta  Ta100  1  0.30042988  0.90391458  0.50709622  1
  Ta  Ta101  1  0.80515997  0.60045609  0.19757453  1
  Ta  Ta102  1  0.09868885  0.69143478  0.09936754  1
  Ta  Ta103  1  0.19167834  0.40308081  0.19409032  1
  Ta  Ta104  1  0.89819886  0.30076891  0.69899618  1
  Ta  Ta105  1  0.09885425  0.49348067  0.90124314  1
  Ta  Ta106  1  0.20288107  0.39595840  0.80500317  1
  Ta  Ta107  1  0.69887466  0.49863421  0.10345450  1
  Ta  Ta108  1  0.40702561  0.00588683  0.19520590  1
  Ta  Ta109  1  0.09787239  0.30611338  0.08979780  1
  Ta  Ta110  1  0.60526140  0.40003176  0.21058289  1
  Ta  Ta111  1  0.78875062  0.20289670  0.80556424  1
  Ta  Ta112  1  0.38769816  0.01148965  0.60366849  1
  Ta  Ta113  1  0.70078742  0.69822899  0.10628140  1
  Ta  Ta114  1  0.30395236  0.70115924  0.70270687  1
  Ta  Ta115  1  -0.00022638  0.39576307  0.79803778  1
  Ta  Ta116  1  0.29619751  0.49969552  0.09657119  1
  Ta  Ta117  1  0.09776035  0.10231157  0.29764894  1
  Ta  Ta118  1  0.20380951  0.80456434  0.40357095  1
  Ta  Ta119  1  0.39568936  0.20633119  0.60442537  1
  Ta  Ta120  1  0.00602111  0.19400047  0.60244288  1
  Ta  Ta121  1  0.70927506  0.90487752  0.50338247  1
  Ta  Ta122  1  0.09785092  0.30215171  0.90126409  1
  Ta  Ta123  1  0.90252637  0.49628319  0.29281041  1
  Ta  Ta124  1  0.20260440  0.40023490  -0.00589378  1
  Ta  Ta125  1  0.19607499  0.59370576  -0.00304793  1
  Ta  Ta126  1  0.19796466  0.00770309  0.79216826  1
  Ta  Ta127  1  0.40017623  0.59071127  0.80317290  1
  Ta  Ta128  1  0.50449981  0.29566684  0.70481341  1
  Ta  Ta129  1  0.31159633  0.90759784  0.09875732  1
  Ta  Ta130  1  0.09506351  0.90941339  0.89998695  1
  Ta  Ta131  1  0.10231763  0.29909564  0.70370093  1
  Ta  Ta132  1  0.80485792  -0.00081057  0.39597549  1
  Ta  Ta133  1  0.40028639  0.79501162  0.20072114  1
  Ta  Ta134  1  0.39615298  0.59099548  -0.00613781  1
  Ta  Ta135  1  0.00275666  0.00840456  0.00747922  1
  Ta  Ta136  1  0.90321778  0.49129288  0.09496864  1
  Ta  Ta137  1  0.29730571  0.49700700  0.49816602  1
  Ta  Ta138  1  0.89616598  0.90582133  0.51146388  1
  Ta  Ta139  1  0.60637902  0.00516112  0.60444536  1
  Ta  Ta140  1  0.90164273  0.29255595  0.51002202  1
  Ta  Ta141  1  0.49787794  0.70130168  0.89465480  1
  Ta  Ta142  1  0.40632963  0.40239369  0.41040743  1
  Ta  Ta143  1  0.39311934  0.60183512  0.20050021  1
  Ta  Ta144  1  0.89838216  0.09666714  0.50655100  1
  Ta  Ta145  1  0.30780894  0.09791087  0.09394066  1
  Ta  Ta146  1  0.79809204  0.79119563  0.00105900  1
  Ta  Ta147  1  0.19811700  0.20102597  -0.00635019  1
  Ta  Ta148  1  0.19727251  0.00335600  0.60970018  1
  Ta  Ta149  1  0.20270137  0.19825346  0.80283957  1
  Ti  Ti150  1  0.10323139  0.49900275  0.29421916  1
  Ti  Ti151  1  0.79755000  0.78896431  0.81913375  1
  Ti  Ti152  1  -0.02273434  0.78691244  0.20321692  1
  Ti  Ti153  1  0.71354790  0.10166755  0.51574584  1
  Ti  Ti154  1  0.20065138  0.39810269  0.39828458  1
  Ti  Ti155  1  0.59993596  0.20139054  0.59778989  1
  Ti  Ti156  1  0.89843991  0.71260535  0.50977234  1
  Ti  Ti157  1  0.78971976  0.19607458  -0.00324066  1
  Ti  Ti158  1  0.20116670  0.59569887  0.19454852  1
  Ti  Ti159  1  0.00749763  0.19526938  0.00677634  1
  Ti  Ti160  1  0.79955507  0.59886110  0.81111384  1
  Ti  Ti161  1  0.59388019  0.19431765  0.19965423  1
  Ti  Ti162  1  0.40376715  0.59911549  0.40316497  1
  Ti  Ti163  1  0.09706526  0.90328132  0.51178600  1
  Ti  Ti164  1  0.60283024  0.00947189  0.19700061  1
  Ti  Ti165  1  0.09889240  0.10137243  0.90059984  1
  Ti  Ti166  1  0.40035065  0.80207470  0.59860229  1
  Ti  Ti167  1  0.00768764  0.80538828  0.61296868  1
  Ti  Ti168  1  0.89772417  0.29935976  0.29696133  1
  Ti  Ti169  1  0.00039551  0.00847862  0.19613273  1
  Ti  Ti170  1  0.19712948  0.59597952  0.80118814  1
  Ti  Ti171  1  0.19747488  0.80705511  0.60678543  1
  Ti  Ti172  1  0.80403836  0.59091145  0.59211359  1
  Ti  Ti173  1  0.29899920  0.69004771  0.09944824  1
  Ti  Ti174  1  0.50276971  0.49377313  0.70866574  1
  Ti  Ti175  1  0.49855727  0.09674549  0.09454989  1
  Ti  Ti176  1  0.60186260  0.59694081  0.40827197  1
  Ti  Ti177  1  0.50986902  0.09486946  0.89116281  1
  Ti  Ti178  1  0.29906589  0.29891288  0.70208783  1
  Ti  Ti179  1  0.10379970  0.49630980  0.50321072  1
  Ti  Ti180  1  0.49471203  0.09722467  0.30563346  1
  Ti  Ti181  1  0.38818581  0.20059991  0.79870525  1
  Ti  Ti182  1  0.90046127  0.09783112  0.29544578  1
  Ti  Ti183  1  0.60632471  0.78541590  -0.00576353  1
  Ti  Ti184  1  0.69759425  0.50293999  0.30073372  1
  Ti  Ti185  1  0.09686441  0.49558165  0.09036779  1
  Ti  Ti186  1  0.21192596  0.39926677  0.60332642  1
  Ti  Ti187  1  0.60537285  0.59318967  0.20129120  1
  Ti  Ti188  1  0.40452861  0.19460540  0.19617367  1
  Ti  Ti189  1  0.70153770  0.70522985  0.28703369  1
  Ti  Ti190  1  0.29942560  0.50296696  0.70249666  1
  Ti  Ti191  1  0.00031466  0.60253700  -0.00211621  1
  Ti  Ti192  1  0.60349882  0.00990615  0.00055694  1
  Ti  Ti193  1  0.00504956  0.39774937  0.19509646  1
  Ti  Ti194  1  0.90276102  0.30334505  0.09264033  1
  Ti  Ti195  1  0.39347213  0.40758717  -0.01386861  1
  Ti  Ti196  1  0.60134349  0.40175945  0.40397307  1
  Ti  Ti197  1  0.50351616  0.50237419  0.30573810  1
  Ti  Ti198  1  0.70243721  0.29603667  0.50476733  1
  Ti  Ti199  1  0.30258011  0.89617136  0.70013861  1
  Mo  Mo200  1  0.79962037  0.20339083  0.59755528  1
  Mo  Mo201  1  0.30015773  0.10680854  0.70172434  1
  Mo  Mo202  1  0.59359325  0.00513492  0.79710793  1
  Mo  Mo203  1  0.59715664  0.79420080  0.80441034  1
  Mo  Mo204  1  0.69076569  0.10742952  0.69795124  1
  Mo  Mo205  1  0.69512483  0.29959704  0.30222271  1
  Mo  Mo206  1  0.10471541  0.10285774  0.69885339  1
  Mo  Mo207  1  0.80070350  0.79137204  0.19836728  1
  Mo  Mo208  1  0.49794523  0.50238943  0.48395485  1
  Mo  Mo209  1  0.80272348  -0.01088358  0.20576022  1
  Mo  Mo210  1  0.60494587  0.20002440  0.79914925  1
  Mo  Mo211  1  0.10852700  0.70005013  0.69694021  1
  Mo  Mo212  1  0.10198704  0.68513580  0.90341273  1
  Mo  Mo213  1  0.29257842  0.30022667  0.89668253  1
  Mo  Mo214  1  0.90091153  0.91122349  0.29036723  1
  Mo  Mo215  1  0.10457074  0.90227849  0.69427476  1
  Mo  Mo216  1  0.69560628  0.09920647  0.10047109  1
  Mo  Mo217  1  0.09475350  0.10804159  0.09906369  1
  Mo  Mo218  1  0.70328271  0.29564442  0.89900435  1
  Mo  Mo219  1  0.09381881  0.09607220  0.50577832  1
  Mo  Mo220  1  0.50454022  0.30124124  0.50802727  1
  Mo  Mo221  1  0.39519612  0.79443646  0.79450307  1
  Mo  Mo222  1  0.49263560  0.49974240  0.90164140  1
  Mo  Mo223  1  0.89871800  0.49788736  0.70506833  1
  Mo  Mo224  1  0.89749142  0.69222116  0.29106885  1
  Mo  Mo225  1  0.29308162  0.49951311  0.90005063  1
  Mo  Mo226  1  0.60251747  0.39963339  0.00800375  1
  Mo  Mo227  1  0.79874297  0.80004664  0.59181749  1
  Mo  Mo228  1  0.10353383  0.30276243  0.29017111  1
  Mo  Mo229  1  0.50098098  0.69992703  0.49743364  1
  Mo  Mo230  1  0.81330169  0.21126898  0.20176061  1
  Mo  Mo231  1  0.40752428  0.00638720  0.00295290  1
  Mo  Mo232  1  0.69682513  0.50547697  0.49009199  1
  Mo  Mo233  1  0.80698560  0.39426568  0.79867711  1
  Mo  Mo234  1  0.69823681  0.70170286  0.90116345  1
  Mo  Mo235  1  0.69307185  0.10066047  0.89727358  1
  Mo  Mo236  1  -0.00260302  0.39538338  0.61288992  1
  Mo  Mo237  1  0.30191676  0.69403067  0.29724834  1
  Mo  Mo238  1  0.70435320  0.90626979  0.29694501  1
  Mo  Mo239  1  0.00556819  0.00082392  0.59410022  1
  Mo  Mo240  1  0.00537105  0.39891093  -0.00029293  1
  Mo  Mo241  1  0.29070035  0.10312312  0.89758446  1
  Mo  Mo242  1  0.29695354  0.31146878  0.50600776  1
  Mo  Mo243  1  0.89774050  0.69563461  0.09909058  1
  Mo  Mo244  1  0.60269055  0.79158774  0.20281784  1
  Mo  Mo245  1  0.79235454  0.00145496  0.59612101  1
  Mo  Mo246  1  0.89583577  0.69829859  0.89906575  1
  Mo  Mo247  1  0.29885559  0.09683479  0.50795632  1
  Mo  Mo248  1  0.39832274  0.00520235  0.40661357  1
  Mo  Mo249  1  0.70490247  0.50043201  0.90264265  1
