# generated using pymatgen
data_HfZrTaTiMo
_symmetry_space_group_name_H-M   'P 1'
_cell_length_a   16.88945774
_cell_length_b   16.88861005
_cell_length_c   16.87866216
_cell_angle_alpha   89.99315112
_cell_angle_beta   89.97586290
_cell_angle_gamma   90.00221621
_symmetry_Int_Tables_number   1
_chemical_formula_structural   HfZrTaTiMo
_chemical_formula_sum   'Hf50 Zr50 Ta50 Ti50 Mo50'
_cell_volume   4814.46010918
_cell_formula_units_Z   50
loop_
 _symmetry_equiv_pos_site_id
 _symmetry_equiv_pos_as_xyz
  1  'x, y, z'
loop_
 _atom_site_type_symbol
 _atom_site_label
 _atom_site_symmetry_multiplicity
 _atom_site_fract_x
 _atom_site_fract_y
 _atom_site_fract_z
 _atom_site_occupancy
  Hf  Hf0  1  0.70960701  0.50397066  0.70118145  1
  Hf  Hf1  1  0.89920854  0.09787138  0.50337485  1
  Hf  Hf2  1  0.50738167  0.10031071  0.49392027  1
  Hf  Hf3  1  0.39415836  0.60813928  0.59731081  1
  Hf  Hf4  1  0.09512100  0.69576243  0.10513643  1
  Hf  Hf5  1  0.29273919  0.08917151  0.29046250  1
  Hf  Hf6  1  0.21224791  0.59972728  0.20050406  1
  Hf  Hf7  1  0.50221190  0.30793064  0.49162495  1
  Hf  Hf8  1  0.60333762  0.20812181  0.80089515  1
  Hf  Hf9  1  -0.00503179  0.40470557  0.60339508  1
  Hf  Hf10  1  0.80019219  0.21015730  0.20978724  1
  Hf  Hf11  1  0.49487778  0.49644786  0.30301222  1
  Hf  Hf12  1  0.29072579  0.09771938  0.70259064  1
  Hf  Hf13  1  0.08839181  0.50896892  0.49448671  1
  Hf  Hf14  1  0.80843786  0.79892823  0.00048425  1
  Hf  Hf15  1  0.50555540  0.09458242  0.30117740  1
  Hf  Hf16  1  0.50215654  0.70956004  0.49248828  1
  Hf  Hf17  1  0.09486968  0.30201482  0.50317982  1
  Hf  Hf18  1  0.20243341  0.59641715  -0.00339029  1
  Hf  Hf19  1  0.31164812  0.49189689  0.29920223  1
  Hf  Hf20  1  0.19731266  0.39723380  0.39589462  1
  Hf  Hf21  1  0.80472970  0.61777922  0.79771481  1
  Hf  Hf22  1  0.59531368  -0.00736125  0.00664980  1
  Hf  Hf23  1  0.79202177  0.59036872  0.39285719  1
  Hf  Hf24  1  0.29198455  0.09404986  0.50763611  1
  Hf  Hf25  1  0.70388728  0.10152459  0.10159444  1
  Hf  Hf26  1  0.31011465  0.49168748  0.49639602  1
  Hf  Hf27  1  0.29446271  0.29884405  0.50141323  1
  Hf  Hf28  1  0.40644030  0.38679603  0.18877220  1
  Hf  Hf29  1  0.39830745  0.39825010  0.80361633  1
  Hf  Hf30  1  0.50346810  0.50169836  0.49682741  1
  Hf  Hf31  1  0.21262592  0.61131597  0.40310825  1
  Hf  Hf32  1  0.01397409  0.20081850  -0.00943756  1
  Hf  Hf33  1  0.60696946  0.60408974  0.39093170  1
  Hf  Hf34  1  0.90099602  0.89246546  0.50032301  1
  Hf  Hf35  1  0.90531733  0.09889683  0.89089216  1
  Hf  Hf36  1  0.00654690  -0.00650002  0.41146601  1
  Hf  Hf37  1  0.90236200  0.10152252  0.10125748  1
  Hf  Hf38  1  0.70334697  0.70104594  0.49893320  1
  Hf  Hf39  1  0.60621056  -0.01102917  0.58828684  1
  Hf  Hf40  1  0.49572044  0.70190006  0.89636478  1
  Hf  Hf41  1  -0.00158225  0.60668903  0.80103680  1
  Hf  Hf42  1  0.70591785  0.89850935  0.71261728  1
  Hf  Hf43  1  0.08957441  0.30251938  0.71031772  1
  Hf  Hf44  1  0.62567910  0.40955745  0.39574831  1
  Hf  Hf45  1  0.18815529  -0.00409129  0.80169051  1
  Hf  Hf46  1  0.49962615  0.09772592  0.70389621  1
  Hf  Hf47  1  0.70413639  0.09633995  0.89748505  1
  Hf  Hf48  1  0.29050575  0.30101622  0.90128093  1
  Hf  Hf49  1  0.80358337  0.60539097  0.00110248  1
  Zr  Zr50  1  0.29882658  0.90113476  0.11048306  1
  Zr  Zr51  1  0.40454450  -0.00732097  0.59413812  1
  Zr  Zr52  1  0.28246530  0.29578741  0.70375901  1
  Zr  Zr53  1  0.80068609  -0.00743746  0.59602928  1
  Zr  Zr54  1  0.40548860  0.00493617  0.01299743  1
  Zr  Zr55  1  0.71068775  0.09704110  0.69938013  1
  Zr  Zr56  1  0.40433237  0.20410079  0.60888048  1
  Zr  Zr57  1  0.89591404  0.08564632  0.29742370  1
  Zr  Zr58  1  -0.00086174  0.80436935  0.79942313  1
  Zr  Zr59  1  0.49797575  0.70099766  0.70112793  1
  Zr  Zr60  1  0.90555259  0.69147331  0.49833957  1
  Zr  Zr61  1  0.88748948  0.90746133  0.12087496  1
  Zr  Zr62  1  0.59519259  -0.00489539  0.80691207  1
  Zr  Zr63  1  0.19368463  -0.00419962  0.40926973  1
  Zr  Zr64  1  0.49829418  0.50405471  0.89843561  1
  Zr  Zr65  1  0.80448424  0.21061876  0.39528796  1
  Zr  Zr66  1  0.80111811  -0.00526339  -0.00126018  1
  Zr  Zr67  1  0.08751028  0.69041235  0.30881204  1
  Zr  Zr68  1  0.39152928  0.19409789  0.39784392  1
  Zr  Zr69  1  0.29573486  0.89912979  0.90794523  1
  Zr  Zr70  1  0.18849181  0.19372643  0.00399480  1
  Zr  Zr71  1  0.40628889  0.39570976  0.61383554  1
  Zr  Zr72  1  0.80135027  0.40440834  0.21073345  1
  Zr  Zr73  1  0.40448016  0.18769978  0.18330266  1
  Zr  Zr74  1  0.89773718  0.30636629  0.08741253  1
  Zr  Zr75  1  0.20177931  0.79430577  0.20834933  1
  Zr  Zr76  1  -0.00699880  0.60334652  0.00264351  1
  Zr  Zr77  1  0.60153058  0.60756156  0.20126272  1
  Zr  Zr78  1  0.79908696  0.79467980  0.60853898  1
  Zr  Zr79  1  0.09188107  0.30013434  0.30019078  1
  Zr  Zr80  1  0.50381069  0.49937913  0.09393733  1
  Zr  Zr81  1  0.19374265  0.79984745  0.00363955  1
  Zr  Zr82  1  0.89696219  0.48812188  0.89712255  1
  Zr  Zr83  1  0.09442023  0.50278739  0.29978034  1
  Zr  Zr84  1  0.70418074  0.49861310  0.09392617  1
  Zr  Zr85  1  0.16952045  0.18869341  0.81546550  1
  Zr  Zr86  1  0.80213106  0.39969580  0.59641329  1
  Zr  Zr87  1  0.70701853  0.89789695  0.28878418  1
  Zr  Zr88  1  0.29498175  0.29895375  0.09271743  1
  Zr  Zr89  1  0.49705618  0.89192422  0.70071589  1
  Zr  Zr90  1  -0.01005974  0.79910539  0.20831054  1
  Zr  Zr91  1  0.70385854  0.49188554  0.89953213  1
  Zr  Zr92  1  0.30706105  0.49933048  0.09377326  1
  Zr  Zr93  1  0.50305999  0.50963664  0.70540529  1
  Zr  Zr94  1  0.20135592  0.60326489  0.59879645  1
  Zr  Zr95  1  0.70069753  0.30309090  0.08968153  1
  Zr  Zr96  1  0.09478006  0.09948598  0.29523180  1
  Zr  Zr97  1  0.49981371  0.30183758  0.30373219  1
  Zr  Zr98  1  0.60695450  0.20816815  0.60350622  1
  Zr  Zr99  1  0.29232157  0.89963186  0.69508472  1
  Ta  Ta100  1  0.80537164  0.40216591  0.39838122  1
  Ta  Ta101  1  0.60634821  0.39941097  0.60347257  1
  Ta  Ta102  1  0.80989235  0.79871933  0.80199385  1
  Ta  Ta103  1  0.30633235  0.89802953  0.30328347  1
  Ta  Ta104  1  0.70383138  0.89407947  0.89891563  1
  Ta  Ta105  1  0.49827902  0.10244756  0.90360353  1
  Ta  Ta106  1  0.29945667  0.89274872  0.49495864  1
  Ta  Ta107  1  0.19269091  0.19528314  0.40114174  1
  Ta  Ta108  1  0.69925125  0.71004657  0.10501521  1
  Ta  Ta109  1  0.70729200  0.09780982  0.49003687  1
  Ta  Ta110  1  0.61106711  0.60787180  0.80283876  1
  Ta  Ta111  1  0.19754743  0.60268252  0.80426088  1
  Ta  Ta112  1  0.09934672  0.70342979  0.69545863  1
  Ta  Ta113  1  0.60715031  0.80269172  0.59597897  1
  Ta  Ta114  1  0.90489391  0.30401882  0.88948950  1
  Ta  Ta115  1  0.09442734  0.50189378  0.89877624  1
  Ta  Ta116  1  0.70566568  0.29991527  0.50078226  1
  Ta  Ta117  1  0.40105255  0.19951163  0.80661055  1
  Ta  Ta118  1  0.10417402  0.89746388  0.30279290  1
  Ta  Ta119  1  0.39676138  0.00093553  0.80894584  1
  Ta  Ta120  1  0.19550973  0.79987574  0.59398248  1
  Ta  Ta121  1  0.60552972  0.39049641  0.79360481  1
  Ta  Ta122  1  0.29267867  0.29371551  0.29350320  1
  Ta  Ta123  1  0.08925660  0.70164122  0.50416524  1
  Ta  Ta124  1  0.80390938  0.79561269  0.38662972  1
  Ta  Ta125  1  0.19361273  0.41296415  0.80581580  1
  Ta  Ta126  1  0.40534230  0.19816489  0.00006020  1
  Ta  Ta127  1  0.29783557  0.50738299  0.70966931  1
  Ta  Ta128  1  -0.00545745  0.80528790  0.00149584  1
  Ta  Ta129  1  0.09969672  0.70402248  0.89900862  1
  Ta  Ta130  1  0.29997695  0.69933782  0.89794483  1
  Ta  Ta131  1  0.59568854  -0.00016936  0.19660804  1
  Ta  Ta132  1  -0.00278309  0.19504378  0.60537000  1
  Ta  Ta133  1  0.19049968  0.19384358  0.18853600  1
  Ta  Ta134  1  0.39224607  0.80225580  0.80295692  1
  Ta  Ta135  1  0.60168911  0.61380326  -0.00120421  1
  Ta  Ta136  1  0.90265499  0.09811889  0.70444099  1
  Ta  Ta137  1  0.61439604  0.20126031  0.39335268  1
  Ta  Ta138  1  0.60794629  -0.00713049  0.39752334  1
  Ta  Ta139  1  0.90865699  0.50435401  0.30264232  1
  Ta  Ta140  1  0.79878264  0.20908042  0.79639273  1
  Ta  Ta141  1  0.29563093  0.70388249  0.70559409  1
  Ta  Ta142  1  -0.00382446  0.40334844  0.19377781  1
  Ta  Ta143  1  0.19191072  0.39618614  0.19160908  1
  Ta  Ta144  1  0.29983628  0.09894723  0.90565190  1
  Ta  Ta145  1  0.70101809  0.70946415  0.90215760  1
  Ta  Ta146  1  0.60188403  0.20234509  0.20018765  1
  Ta  Ta147  1  0.59876822  0.80137867  0.00287122  1
  Ta  Ta148  1  0.31540315  0.70337240  0.09903470  1
  Ta  Ta149  1  0.40733074  -0.00351396  0.19939264  1
  Ti  Ti150  1  0.90906341  0.90642644  0.69753494  1
  Ti  Ti151  1  0.60342214  0.79476924  0.80038023  1
  Ti  Ti152  1  0.50188496  0.88305020  0.11365261  1
  Ti  Ti153  1  0.19060530  0.00940894  0.01250865  1
  Ti  Ti154  1  0.09424052  0.90029511  0.90673339  1
  Ti  Ti155  1  0.89889870  0.50499971  0.70085931  1
  Ti  Ti156  1  0.40278467  -0.00738573  0.39861233  1
  Ti  Ti157  1  0.40016149  0.61297910  0.39837714  1
  Ti  Ti158  1  0.91057217  0.69660141  0.68512230  1
  Ti  Ti159  1  0.20197583  0.79607864  0.40566775  1
  Ti  Ti160  1  -0.00163173  0.20025067  0.40290661  1
  Ti  Ti161  1  0.90190816  0.90809616  0.89327822  1
  Ti  Ti162  1  0.18139353  0.18927369  0.60164964  1
  Ti  Ti163  1  0.00576168  -0.00651753  0.20407361  1
  Ti  Ti164  1  0.50327575  0.88874945  0.48550671  1
  Ti  Ti165  1  0.90522819  0.30216662  0.49703284  1
  Ti  Ti166  1  0.00496428  -0.00344739  0.00619054  1
  Ti  Ti167  1  0.09995649  0.90258905  0.10848114  1
  Ti  Ti168  1  0.31895377  0.71410727  0.30154936  1
  Ti  Ti169  1  0.59492544  0.20129275  0.00058784  1
  Ti  Ti170  1  0.79984438  0.20773060  -0.01428533  1
  Ti  Ti171  1  0.49985311  0.29618057  0.90042590  1
  Ti  Ti172  1  0.40955129  0.61262227  0.19760918  1
  Ti  Ti173  1  0.89723477  0.69836320  0.11099101  1
  Ti  Ti174  1  0.00272737  0.20927643  0.19049894  1
  Ti  Ti175  1  0.60486132  0.39445018  0.20096389  1
  Ti  Ti176  1  0.70025911  0.89410794  0.10792207  1
  Ti  Ti177  1  0.18677863  0.40402088  -0.00189807  1
  Ti  Ti178  1  0.00331960  0.40260143  0.00274932  1
  Ti  Ti179  1  0.00973109  0.00170746  0.79009212  1
  Ti  Ti180  1  0.50206114  0.89282010  0.30030463  1
  Ti  Ti181  1  0.70283044  0.09269314  0.30013125  1
  Ti  Ti182  1  0.61156135  0.60392731  0.60266635  1
  Ti  Ti183  1  0.90154335  0.29984279  0.70779310  1
  Ti  Ti184  1  -0.00474912  0.80044145  0.39534688  1
  Ti  Ti185  1  0.19676665  0.40847459  0.60620232  1
  Ti  Ti186  1  0.59896146  0.38976075  -0.01008910  1
  Ti  Ti187  1  0.49779333  0.89448053  0.90046774  1
  Ti  Ti188  1  0.39339850  0.79822815  0.59445756  1
  Ti  Ti189  1  0.39954947  0.60366649  -0.00417408  1
  Ti  Ti190  1  0.80278387  0.60389351  0.20457899  1
  Ti  Ti191  1  0.09330576  0.50287606  0.10302628  1
  Ti  Ti192  1  0.50429306  0.72015333  0.29724525  1
  Ti  Ti193  1  0.19312655  0.80150779  0.79714129  1
  Ti  Ti194  1  0.90115930  0.50822840  0.50177620  1
  Ti  Ti195  1  0.17156035  -0.00683141  0.59649504  1
  Ti  Ti196  1  0.40569845  0.79792601  0.00273984  1
  Ti  Ti197  1  0.40447544  0.39490162  -0.00501527  1
  Ti  Ti198  1  0.80454414  0.20454299  0.60271104  1
  Ti  Ti199  1  0.09587440  0.50679137  0.70256410  1
  Mo  Mo200  1  0.29520452  0.50068841  0.90083847  1
  Mo  Mo201  1  0.09079973  0.07517118  0.90477641  1
  Mo  Mo202  1  0.49915393  0.70342342  0.09353551  1
  Mo  Mo203  1  0.69649218  0.70344186  0.70321035  1
  Mo  Mo204  1  0.00226218  -0.00197311  0.60385704  1
  Mo  Mo205  1  0.00426016  0.80166085  0.60250409  1
  Mo  Mo206  1  0.00020463  0.59842762  0.60632954  1
  Mo  Mo207  1  -0.00034990  0.40722968  0.79399838  1
  Mo  Mo208  1  0.09112964  0.32381829  0.90045499  1
  Mo  Mo209  1  0.50616845  0.30174144  0.70921786  1
  Mo  Mo210  1  0.90203173  0.50223564  0.10462025  1
  Mo  Mo211  1  0.39181918  0.39098833  0.39184494  1
  Mo  Mo212  1  -0.00858579  0.19978977  0.79860775  1
  Mo  Mo213  1  0.81232203  -0.00766979  0.80001167  1
  Mo  Mo214  1  0.90164004  0.89869774  0.30691290  1
  Mo  Mo215  1  0.79803447  0.78639565  0.20155548  1
  Mo  Mo216  1  0.09525839  0.89662110  0.69069068  1
  Mo  Mo217  1  0.19616283  -0.00508104  0.20122914  1
  Mo  Mo218  1  0.70262681  0.70335561  0.29392744  1
  Mo  Mo219  1  0.51168827  0.10237409  0.10077344  1
  Mo  Mo220  1  0.79164519  0.00861351  0.20068799  1
  Mo  Mo221  1  0.70767788  0.30328802  0.69730527  1
  Mo  Mo222  1  0.40605358  0.80124814  0.20377715  1
  Mo  Mo223  1  0.80149965  0.38947325  0.79301111  1
  Mo  Mo224  1  0.90162973  0.71126531  0.90482546  1
  Mo  Mo225  1  0.09797053  0.88113440  0.49829673  1
  Mo  Mo226  1  0.70110732  0.89390455  0.48549123  1
  Mo  Mo227  1  0.08871438  0.09497694  0.69671118  1
  Mo  Mo228  1  0.30289516  0.71162246  0.49957632  1
  Mo  Mo229  1  0.09336164  0.11024729  0.50366980  1
  Mo  Mo230  1  0.70260184  0.50329618  0.51220031  1
  Mo  Mo231  1  0.89438282  0.69596062  0.30028015  1
  Mo  Mo232  1  0.70533965  0.29838588  0.89905616  1
  Mo  Mo233  1  0.09132186  0.08964668  0.10402168  1
  Mo  Mo234  1  0.50995742  0.29751719  0.08790710  1
  Mo  Mo235  1  0.91135487  0.30879199  0.30474888  1
  Mo  Mo236  1  0.38747101  0.60547700  0.80340721  1
  Mo  Mo237  1  0.70562395  0.50144957  0.29004103  1
  Mo  Mo238  1  -0.01196869  0.40067539  0.40378635  1
  Mo  Mo239  1  0.60498911  0.80400075  0.39655976  1
  Mo  Mo240  1  0.40277876  0.80671564  0.39722554  1
  Mo  Mo241  1  0.59981184  0.80209537  0.19782786  1
  Mo  Mo242  1  -0.00782964  0.60001086  0.40122388  1
  Mo  Mo243  1  0.79868320  -0.00799917  0.39819925  1
  Mo  Mo244  1  0.80284837  0.59700883  0.60152956  1
  Mo  Mo245  1  0.80430762  0.39656873  -0.00773012  1
  Mo  Mo246  1  0.29215888  0.09509595  0.09943850  1
  Mo  Mo247  1  0.69876498  0.30166233  0.30026649  1
  Mo  Mo248  1  0.09588799  0.31079067  0.09991174  1
  Mo  Mo249  1  -0.01278890  0.59414869  0.19677256  1
