# generated using pymatgen
data_HfZrTaTiMo
_symmetry_space_group_name_H-M   'P 1'
_cell_length_a   16.88106116
_cell_length_b   16.88603055
_cell_length_c   16.89177796
_cell_angle_alpha   90.01887736
_cell_angle_beta   90.05694384
_cell_angle_gamma   89.99858292
_symmetry_Int_Tables_number   1
_chemical_formula_structural   HfZrTaTiMo
_chemical_formula_sum   'Hf50 Zr50 Ta50 Ti50 Mo50'
_cell_volume   4815.06816676
_cell_formula_units_Z   50
loop_
 _symmetry_equiv_pos_site_id
 _symmetry_equiv_pos_as_xyz
  1  'x, y, z'
loop_
 _atom_site_type_symbol
 _atom_site_label
 _atom_site_symmetry_multiplicity
 _atom_site_fract_x
 _atom_site_fract_y
 _atom_site_fract_z
 _atom_site_occupancy
  Hf  Hf0  1  0.50292910  0.49212294  0.29804485  1
  Hf  Hf1  1  0.40563925  0.20694144  0.19463601  1
  Hf  Hf2  1  0.80041253  0.00325750  0.40070463  1
  Hf  Hf3  1  0.39973007  0.60240534  0.19947769  1
  Hf  Hf4  1  0.90416169  0.10644608  0.70572354  1
  Hf  Hf5  1  0.50499052  0.10204938  0.90147937  1
  Hf  Hf6  1  0.90727050  0.49282154  0.10306510  1
  Hf  Hf7  1  0.20190912  0.59344880  0.59454312  1
  Hf  Hf8  1  0.39545505  0.39608592  0.00964745  1
  Hf  Hf9  1  0.68930964  0.49109851  0.49157268  1
  Hf  Hf10  1  0.29214129  0.29481361  0.89990541  1
  Hf  Hf11  1  0.09548316  0.89768746  0.48973749  1
  Hf  Hf12  1  0.40771633  -0.01048073  0.39011265  1
  Hf  Hf13  1  0.10259553  0.29617657  0.49338056  1
  Hf  Hf14  1  0.19917618  0.59736162  0.39165566  1
  Hf  Hf15  1  0.79414443  0.19776084  0.00766946  1
  Hf  Hf16  1  0.00384796  0.79616039  0.81136685  1
  Hf  Hf17  1  0.80016169  0.00525586  0.59029139  1
  Hf  Hf18  1  0.80458251  0.39439468  0.59887131  1
  Hf  Hf19  1  0.70426898  0.29378400  0.29721151  1
  Hf  Hf20  1  0.69279882  0.70885478  0.49479855  1
  Hf  Hf21  1  0.11249659  0.69824895  0.91680229  1
  Hf  Hf22  1  0.38929335  -0.00367549  -0.00224410  1
  Hf  Hf23  1  0.50361933  0.70548561  0.49994330  1
  Hf  Hf24  1  0.89486008  0.69751913  0.70658625  1
  Hf  Hf25  1  0.50967694  0.09986731  0.49990149  1
  Hf  Hf26  1  0.89623326  0.89910045  0.70594356  1
  Hf  Hf27  1  0.69656346  0.29840109  0.90654678  1
  Hf  Hf28  1  0.29914850  0.29902494  0.69907236  1
  Hf  Hf29  1  0.30492232  0.70896528  0.49784143  1
  Hf  Hf30  1  0.90035333  0.49063909  0.29451693  1
  Hf  Hf31  1  0.69029182  0.89479683  0.49299827  1
  Hf  Hf32  1  0.61447050  0.58745211  0.00375745  1
  Hf  Hf33  1  0.10285337  0.90655905  0.70629311  1
  Hf  Hf34  1  0.90059814  0.50319224  0.70109080  1
  Hf  Hf35  1  0.89988632  0.29842751  0.10794702  1
  Hf  Hf36  1  0.49749703  0.69360049  0.09323332  1
  Hf  Hf37  1  0.00328040  0.61182514  0.20078572  1
  Hf  Hf38  1  0.09727103  0.28976184  0.70442666  1
  Hf  Hf39  1  0.49887097  0.69663556  0.90365359  1
  Hf  Hf40  1  0.40514626  0.19905359  0.00751033  1
  Hf  Hf41  1  0.80195384  0.00462952  0.81404583  1
  Hf  Hf42  1  0.79011088  0.59464017  0.81652714  1
  Hf  Hf43  1  0.50972859  0.09919715  0.29898969  1
  Hf  Hf44  1  0.19469299  0.80222157  0.38492798  1
  Hf  Hf45  1  0.29777924  0.68603124  0.91109193  1
  Hf  Hf46  1  0.29875732  0.90534204  0.69576745  1
  Hf  Hf47  1  0.20361141  0.40165250  0.39896174  1
  Hf  Hf48  1  0.80480350  0.00237521  0.00145205  1
  Hf  Hf49  1  0.49773769  0.30061246  0.69790567  1
  Zr  Zr50  1  0.90673717  0.50090949  0.91968675  1
  Zr  Zr51  1  -0.00510342  0.39543115  0.80198342  1
  Zr  Zr52  1  0.89984516  0.88565038  0.48459562  1
  Zr  Zr53  1  0.50063282  0.89537392  0.50215591  1
  Zr  Zr54  1  0.60080201  0.20018204  0.17244959  1
  Zr  Zr55  1  0.90129633  0.69808744  0.49412439  1
  Zr  Zr56  1  0.60686464  0.01713558  0.01317582  1
  Zr  Zr57  1  0.49014959  0.50168064  0.90842280  1
  Zr  Zr58  1  0.09616778  0.28520261  0.90341454  1
  Zr  Zr59  1  0.10435757  0.50690953  0.91707406  1
  Zr  Zr60  1  0.18566874  0.60437917  0.19240148  1
  Zr  Zr61  1  0.69527689  0.29799015  0.69536200  1
  Zr  Zr62  1  -0.00276236  0.00790066  0.59053571  1
  Zr  Zr63  1  0.90110594  0.29510749  0.48654686  1
  Zr  Zr64  1  0.39408529  -0.00034376  0.80007309  1
  Zr  Zr65  1  0.80075130  0.39843520  0.80610844  1
  Zr  Zr66  1  0.69697697  0.10353158  0.70036783  1
  Zr  Zr67  1  0.50309032  0.90372696  0.09620807  1
  Zr  Zr68  1  0.19226319  0.41216410  0.79973217  1
  Zr  Zr69  1  0.50545531  0.09749021  0.69996551  1
  Zr  Zr70  1  0.01159786  0.59890015  0.79956330  1
  Zr  Zr71  1  0.00411841  0.79404760  0.60925379  1
  Zr  Zr72  1  0.40301915  0.80269719  0.80022245  1
  Zr  Zr73  1  0.90382940  0.10953969  0.29902994  1
  Zr  Zr74  1  0.79910551  0.59676773  0.39527459  1
  Zr  Zr75  1  0.19828888  0.00319075  0.59619771  1
  Zr  Zr76  1  0.28752150  0.10956408  0.29825106  1
  Zr  Zr77  1  0.39735744  0.59885586  0.39734712  1
  Zr  Zr78  1  0.09352384  0.10679756  0.46799748  1
  Zr  Zr79  1  0.00077336  0.39977274  0.60101818  1
  Zr  Zr80  1  0.28945142  0.09785952  0.10252652  1
  Zr  Zr81  1  0.29619977  0.90477253  0.28495983  1
  Zr  Zr82  1  0.30090608  0.09404950  0.49131931  1
  Zr  Zr83  1  0.20146563  0.19051954  0.60016317  1
  Zr  Zr84  1  0.49852047  0.48989091  0.69611243  1
  Zr  Zr85  1  0.30089481  0.48667235  0.28268070  1
  Zr  Zr86  1  0.39907214  0.20920327  0.40329881  1
  Zr  Zr87  1  0.60373616  0.80099679  0.00126658  1
  Zr  Zr88  1  0.09394010  0.69840624  0.49275667  1
  Zr  Zr89  1  0.79436470  0.59518930  0.59687381  1
  Zr  Zr90  1  0.51024970  0.30487916  0.30138224  1
  Zr  Zr91  1  0.69299998  0.70348593  0.70089381  1
  Zr  Zr92  1  0.30434098  0.49101856  0.69298510  1
  Zr  Zr93  1  0.20690395  0.80146826  0.80503397  1
  Zr  Zr94  1  0.90729190  0.90045804  0.10679465  1
  Zr  Zr95  1  0.40434461  0.80374892  0.19550956  1
  Zr  Zr96  1  0.79939190  0.60120703  0.19640462  1
  Zr  Zr97  1  -0.00060195  0.00273820  0.81222341  1
  Zr  Zr98  1  0.39888056  0.60203177  0.79030253  1
  Zr  Zr99  1  0.69219276  0.90136084  0.70800881  1
  Ta  Ta100  1  0.29481859  0.70520609  0.28833833  1
  Ta  Ta101  1  0.10618629  0.90909347  0.91114295  1
  Ta  Ta102  1  0.70772910  0.89943231  0.10796371  1
  Ta  Ta103  1  0.70306556  0.70375517  0.10592570  1
  Ta  Ta104  1  0.39702414  0.39714854  0.40540136  1
  Ta  Ta105  1  0.70033393  0.09913979  0.29918151  1
  Ta  Ta106  1  0.90278753  0.89310068  0.91080087  1
  Ta  Ta107  1  0.40415869  0.79835527  0.38307763  1
  Ta  Ta108  1  0.19894125  0.39866991  0.01208858  1
  Ta  Ta109  1  0.59145044  0.59971046  0.60078259  1
  Ta  Ta110  1  0.60441702  -0.00390054  0.20337686  1
  Ta  Ta111  1  0.28410507  0.10269254  0.89748264  1
  Ta  Ta112  1  0.18393680  0.00110447  0.19829486  1
  Ta  Ta113  1  0.39953083  0.19701968  0.60109405  1
  Ta  Ta114  1  0.69792034  0.90173718  0.90273186  1
  Ta  Ta115  1  0.60494333  0.40132959  0.18619380  1
  Ta  Ta116  1  0.60100952  0.40538599  0.81041893  1
  Ta  Ta117  1  0.80243576  0.19548438  0.59185133  1
  Ta  Ta118  1  0.79990397  0.79849799  0.81490248  1
  Ta  Ta119  1  0.39060752  0.80991910  -0.00528379  1
  Ta  Ta120  1  0.09331248  0.10333932  0.09835853  1
  Ta  Ta121  1  0.40221535  0.59779001  0.59334742  1
  Ta  Ta122  1  0.59538931  0.60140749  0.39273172  1
  Ta  Ta123  1  -0.00504581  0.19639169  0.59704980  1
  Ta  Ta124  1  0.00718325  0.20609431  0.20340838  1
  Ta  Ta125  1  0.60161627  0.59592619  0.80113164  1
  Ta  Ta126  1  0.09251290  0.49842147  0.49108083  1
  Ta  Ta127  1  0.79547789  0.80114985  0.60187690  1
  Ta  Ta128  1  0.39524285  0.19620380  0.79941889  1
  Ta  Ta129  1  0.00131518  0.39502891  0.38819581  1
  Ta  Ta130  1  0.79934663  0.79858484  0.00314724  1
  Ta  Ta131  1  0.70155429  0.89899323  0.30082494  1
  Ta  Ta132  1  0.49977324  0.49238410  0.49812520  1
  Ta  Ta133  1  0.59885922  0.20406116  0.80283398  1
  Ta  Ta134  1  0.60127206  0.79874384  0.20192625  1
  Ta  Ta135  1  0.10498534  0.10266763  0.90787402  1
  Ta  Ta136  1  0.60168315  -0.00192717  0.59820350  1
  Ta  Ta137  1  0.90173508  0.69798576  0.91543599  1
  Ta  Ta138  1  0.89993803  0.71550144  0.30297172  1
  Ta  Ta139  1  0.80738002  0.20656597  0.80347670  1
  Ta  Ta140  1  0.60123800  0.39736720  0.00857194  1
  Ta  Ta141  1  0.29251484  0.70430540  0.09518432  1
  Ta  Ta142  1  0.69905968  0.70347546  0.29969462  1
  Ta  Ta143  1  0.90667544  0.10312392  0.10792431  1
  Ta  Ta144  1  0.69450855  0.29626661  0.49710889  1
  Ta  Ta145  1  0.69260773  0.49350956  0.29858504  1
  Ta  Ta146  1  0.51145434  0.90768593  0.89321063  1
  Ta  Ta147  1  0.10000515  0.90530621  0.09892512  1
  Ta  Ta148  1  0.20182153  0.79962109  0.59855368  1
  Ta  Ta149  1  0.50194229  0.29835154  0.90228732  1
  Ti  Ti150  1  0.40847579  0.79783231  0.61279206  1
  Ti  Ti151  1  0.29385758  0.30395971  0.11226548  1
  Ti  Ti152  1  0.69879385  0.70370662  0.90439918  1
  Ti  Ti153  1  0.00746580  0.59517006  0.60175510  1
  Ti  Ti154  1  0.10388149  0.10371217  0.71827386  1
  Ti  Ti155  1  0.39822657  0.39582711  0.81009758  1
  Ti  Ti156  1  0.01275701  0.80647516  0.20966049  1
  Ti  Ti157  1  0.19656284  0.40572523  0.59388526  1
  Ti  Ti158  1  0.79214397  0.39610907  0.19603724  1
  Ti  Ti159  1  0.11336977  0.69337365  0.70366144  1
  Ti  Ti160  1  0.40679232  0.00390301  0.19324523  1
  Ti  Ti161  1  0.19393205  -0.00539998  0.38730056  1
  Ti  Ti162  1  0.29363293  0.50678292  0.90790834  1
  Ti  Ti163  1  0.10482879  0.28909661  0.30221660  1
  Ti  Ti164  1  0.18210917  0.39205549  0.19258134  1
  Ti  Ti165  1  0.29979205  0.30242307  0.50465273  1
  Ti  Ti166  1  0.80034594  0.80290002  0.20434048  1
  Ti  Ti167  1  0.50774395  0.30085310  0.50371377  1
  Ti  Ti168  1  0.79616237  0.60165258  0.00577001  1
  Ti  Ti169  1  0.69486252  0.49799002  0.70060869  1
  Ti  Ti170  1  0.29629503  0.50107130  0.09959222  1
  Ti  Ti171  1  0.00016758  0.00430577  0.00385654  1
  Ti  Ti172  1  0.40275652  0.00137561  0.60151679  1
  Ti  Ti173  1  0.30328657  0.89556926  0.49781789  1
  Ti  Ti174  1  0.60305094  0.60025463  0.20057949  1
  Ti  Ti175  1  0.58805779  0.80129914  0.37911050  1
  Ti  Ti176  1  0.59293274  0.79913130  0.79739263  1
  Ti  Ti177  1  0.90409008  0.29576870  0.91179371  1
  Ti  Ti178  1  0.89988786  0.70847177  0.10133651  1
  Ti  Ti179  1  0.78511437  0.40733479  0.00992065  1
  Ti  Ti180  1  0.79945685  0.19328275  0.40381216  1
  Ti  Ti181  1  0.59919168  0.39912759  0.59715469  1
  Ti  Ti182  1  0.71708767  0.09761983  0.11721706  1
  Ti  Ti183  1  -0.00219360  -0.00994282  0.37597154  1
  Ti  Ti184  1  0.49514796  0.49814954  0.10396418  1
  Ti  Ti185  1  0.00398018  0.80036058  0.00626805  1
  Ti  Ti186  1  0.60978453  0.19521350  0.40549971  1
  Ti  Ti187  1  0.90740216  0.49940913  0.49210341  1
  Ti  Ti188  1  0.19580336  0.20549012  0.01421293  1
  Ti  Ti189  1  0.29813180  0.69820887  0.69570959  1
  Ti  Ti190  1  0.69463124  0.10570333  0.89707172  1
  Ti  Ti191  1  0.80817994  -0.00479150  0.20997276  1
  Ti  Ti192  1  0.01441121  0.60934781  0.02394337  1
  Ti  Ti193  1  0.20798469  0.81706966  0.00691640  1
  Ti  Ti194  1  0.91285869  0.11498960  0.90847040  1
  Ti  Ti195  1  0.29543533  0.30092213  0.29172281  1
  Ti  Ti196  1  0.09321920  0.49177838  0.29353230  1
  Ti  Ti197  1  0.00299193  0.60136341  0.38696528  1
  Ti  Ti198  1  0.01525580  0.38671035  0.01661233  1
  Ti  Ti199  1  0.79997764  0.39627410  0.39528581  1
  Mo  Mo200  1  0.50280882  0.89934147  0.69828827  1
  Mo  Mo201  1  0.40237088  0.39793536  0.19541416  1
  Mo  Mo202  1  0.90167347  0.10460026  0.49320743  1
  Mo  Mo203  1  0.40146578  0.39120412  0.58353381  1
  Mo  Mo204  1  0.09536957  0.90497950  0.29168388  1
  Mo  Mo205  1  0.09746054  0.70690648  0.29593375  1
  Mo  Mo206  1  0.70508578  0.30504337  0.09889744  1
  Mo  Mo207  1  0.09426409  0.48596423  0.10665843  1
  Mo  Mo208  1  -0.00036670  0.20816712  0.39088244  1
  Mo  Mo209  1  0.20085518  0.19285457  0.79800039  1
  Mo  Mo210  1  0.50500362  0.69733311  0.29624666  1
  Mo  Mo211  1  0.70386215  0.50152190  0.10528669  1
  Mo  Mo212  1  0.49463710  0.09673709  0.10219894  1
  Mo  Mo213  1  0.89807208  0.89851593  0.29373689  1
  Mo  Mo214  1  0.19310920  0.20376893  0.19895189  1
  Mo  Mo215  1  0.50086257  0.30877376  0.09465162  1
  Mo  Mo216  1  0.79397364  0.80039513  0.39245214  1
  Mo  Mo217  1  0.60632468  0.00117345  0.39530446  1
  Mo  Mo218  1  0.89450365  0.30058757  0.29602512  1
  Mo  Mo219  1  0.19306454  0.00298173  0.00317924  1
  Mo  Mo220  1  0.80084637  0.19899440  0.20232562  1
  Mo  Mo221  1  0.89889621  0.28934048  0.69596390  1
  Mo  Mo222  1  -0.00372841  0.19820142  0.80498807  1
  Mo  Mo223  1  0.00208731  0.80019968  0.38350578  1
  Mo  Mo224  1  -0.00391156  0.19664583  0.00770727  1
  Mo  Mo225  1  0.19628231  0.80475436  0.18997266  1
  Mo  Mo226  1  0.30498308  0.10200344  0.70187040  1
  Mo  Mo227  1  0.60325454  0.00152638  0.80438581  1
  Mo  Mo228  1  0.59486128  0.79984662  0.61187747  1
  Mo  Mo229  1  0.29397847  0.90238571  0.09927299  1
  Mo  Mo230  1  0.39088545  0.59599629  0.01106520  1
  Mo  Mo231  1  0.00379828  0.00547178  0.19814258  1
  Mo  Mo232  1  0.50726583  0.90316462  0.29474058  1
  Mo  Mo233  1  0.69789349  0.49600377  0.90607010  1
  Mo  Mo234  1  0.29404260  0.90665910  0.90184462  1
  Mo  Mo235  1  0.10107196  0.29339772  0.10464166  1
  Mo  Mo236  1  0.20478408  0.21213848  0.39254905  1
  Mo  Mo237  1  0.00536141  0.39205628  0.20761392  1
  Mo  Mo238  1  0.10044374  0.50426349  0.68592902  1
  Mo  Mo239  1  0.09756807  0.10144749  0.29203462  1
  Mo  Mo240  1  0.10105037  0.72282927  0.09858712  1
  Mo  Mo241  1  0.69867035  0.10305720  0.49694899  1
  Mo  Mo242  1  0.59980741  0.39627830  0.39986782  1
  Mo  Mo243  1  0.19997598  0.59210646  0.01716627  1
  Mo  Mo244  1  0.60112364  0.20349284  -0.00317423  1
  Mo  Mo245  1  0.20366958  0.60123562  0.79016930  1
  Mo  Mo246  1  0.60008646  0.20207357  0.59464205  1
  Mo  Mo247  1  0.30366899  0.49381351  0.49884129  1
  Mo  Mo248  1  0.50230228  0.69761912  0.69582305  1
  Mo  Mo249  1  0.19901022  0.00492258  0.80616543  1
