# generated using pymatgen
data_HfZrTaTiMo
_symmetry_space_group_name_H-M   'P 1'
_cell_length_a   16.89278682
_cell_length_b   16.89301047
_cell_length_c   16.88620082
_cell_angle_alpha   90.01719642
_cell_angle_beta   90.00066955
_cell_angle_gamma   89.97597006
_symmetry_Int_Tables_number   1
_chemical_formula_structural   HfZrTaTiMo
_chemical_formula_sum   'Hf50 Zr50 Ta50 Ti50 Mo50'
_cell_volume   4818.81490539
_cell_formula_units_Z   50
loop_
 _symmetry_equiv_pos_site_id
 _symmetry_equiv_pos_as_xyz
  1  'x, y, z'
loop_
 _atom_site_type_symbol
 _atom_site_label
 _atom_site_symmetry_multiplicity
 _atom_site_fract_x
 _atom_site_fract_y
 _atom_site_fract_z
 _atom_site_occupancy
  Hf  Hf0  1  0.40235485  0.01119239  0.40478227  1
  Hf  Hf1  1  0.08827858  0.10603965  0.89010436  1
  Hf  Hf2  1  0.89449036  0.90427162  0.10548293  1
  Hf  Hf3  1  0.29253653  0.50234492  0.49688985  1
  Hf  Hf4  1  0.51862962  0.51131075  0.29775875  1
  Hf  Hf5  1  0.10317776  0.49591973  0.29858643  1
  Hf  Hf6  1  0.01340691  0.79624416  0.39429292  1
  Hf  Hf7  1  0.80153016  0.79764509  0.60932232  1
  Hf  Hf8  1  0.80404020  0.38708192  0.80496680  1
  Hf  Hf9  1  0.50283628  0.90076709  0.09767193  1
  Hf  Hf10  1  0.70057933  0.11269161  0.29729478  1
  Hf  Hf11  1  0.69503678  0.10128202  0.69976858  1
  Hf  Hf12  1  0.49193572  0.47961781  0.88829290  1
  Hf  Hf13  1  0.50145720  0.69709167  0.30796327  1
  Hf  Hf14  1  -0.00489606  0.80842474  0.00208840  1
  Hf  Hf15  1  0.10293459  0.50002931  0.50207872  1
  Hf  Hf16  1  0.19833469  0.80403594  0.00368834  1
  Hf  Hf17  1  0.09929672  0.91307127  0.50720593  1
  Hf  Hf18  1  0.40610049  0.39857228  0.20153324  1
  Hf  Hf19  1  0.79251761  0.60855196  0.80496899  1
  Hf  Hf20  1  0.39880517  0.59645034  -0.00179820  1
  Hf  Hf21  1  0.08947853  0.50641261  0.09299292  1
  Hf  Hf22  1  -0.00300050  0.39123151  0.80187389  1
  Hf  Hf23  1  0.08966900  0.90666360  0.88232408  1
  Hf  Hf24  1  -0.00797177  0.60742192  0.60111421  1
  Hf  Hf25  1  0.30084436  0.70682873  0.30330146  1
  Hf  Hf26  1  0.88688325  0.49852904  0.30241180  1
  Hf  Hf27  1  0.59952595  0.01107318  0.40994061  1
  Hf  Hf28  1  0.60111735  0.38266317  -0.00472540  1
  Hf  Hf29  1  0.00317820  0.60226518  0.39890285  1
  Hf  Hf30  1  0.19729360  0.60219640  0.19674304  1
  Hf  Hf31  1  0.08838113  0.10915242  0.09392381  1
  Hf  Hf32  1  0.59881647  0.59653244  0.60421993  1
  Hf  Hf33  1  0.89278782  0.28569367  0.48611714  1
  Hf  Hf34  1  0.49846223  0.50452381  0.49468171  1
  Hf  Hf35  1  0.69674115  0.89662257  0.50137905  1
  Hf  Hf36  1  0.79515619  0.01095870  0.40086493  1
  Hf  Hf37  1  0.89099328  0.69877917  0.30272759  1
  Hf  Hf38  1  0.20130783  0.20451520  0.19293938  1
  Hf  Hf39  1  0.30065329  0.49331189  0.89959195  1
  Hf  Hf40  1  -0.00879090  0.60924651  0.80177903  1
  Hf  Hf41  1  0.70315297  0.90163787  0.09855002  1
  Hf  Hf42  1  0.30206521  0.09979740  0.29504542  1
  Hf  Hf43  1  0.30336212  0.89868449  0.49883490  1
  Hf  Hf44  1  0.60888824  -0.00298427  0.20913359  1
  Hf  Hf45  1  0.71156114  0.49211111  0.07992953  1
  Hf  Hf46  1  0.78582894  0.59690673  0.19391049  1
  Hf  Hf47  1  0.51037948  0.10351177  0.10168257  1
  Hf  Hf48  1  0.30485050  0.70231256  0.50016341  1
  Hf  Hf49  1  0.00067992  0.79643631  0.60520054  1
  Zr  Zr50  1  0.49526967  0.29796118  0.71240242  1
  Zr  Zr51  1  0.31276713  0.30212875  0.09354190  1
  Zr  Zr52  1  0.60457142  0.60289530  -0.01268433  1
  Zr  Zr53  1  0.79304452  0.79269664  0.19830314  1
  Zr  Zr54  1  -0.00593596  0.00671673  0.20301448  1
  Zr  Zr55  1  0.10414284  0.27862734  0.70597052  1
  Zr  Zr56  1  0.39592709  0.59647136  0.19743978  1
  Zr  Zr57  1  0.49008614  0.69812824  0.70444267  1
  Zr  Zr58  1  0.09829017  0.28574832  0.49897789  1
  Zr  Zr59  1  0.80038804  0.39445327  0.60054240  1
  Zr  Zr60  1  0.70379015  0.29041355  0.49358928  1
  Zr  Zr61  1  0.40199237  0.39454664  0.59808418  1
  Zr  Zr62  1  -0.00158445  0.39023590  0.00056298  1
  Zr  Zr63  1  0.30504534  0.11211057  0.69479963  1
  Zr  Zr64  1  0.20283090  0.00441592  -0.00130555  1
  Zr  Zr65  1  0.90890698  0.90654805  0.71015048  1
  Zr  Zr66  1  0.31687501  0.30630099  0.89277610  1
  Zr  Zr67  1  0.59668609  0.39898914  0.59613097  1
  Zr  Zr68  1  0.09629670  0.09447631  0.69612008  1
  Zr  Zr69  1  0.39998711  0.80124886  0.00171204  1
  Zr  Zr70  1  0.49942859  0.89386473  0.50566942  1
  Zr  Zr71  1  0.40347903  0.39232302  0.39874614  1
  Zr  Zr72  1  0.09601870  0.70557240  0.90077277  1
  Zr  Zr73  1  0.61214722  0.39813354  0.19572828  1
  Zr  Zr74  1  0.89168385  0.50592817  0.91673189  1
  Zr  Zr75  1  0.50398008  0.90045842  0.89778693  1
  Zr  Zr76  1  -0.00396594  0.39243495  0.39459379  1
  Zr  Zr77  1  0.20546286  0.38942015  0.60332288  1
  Zr  Zr78  1  -0.00677437  0.38946049  0.60415923  1
  Zr  Zr79  1  0.20688890  0.19949294  -0.00323790  1
  Zr  Zr80  1  0.69659647  0.29097695  0.70211670  1
  Zr  Zr81  1  0.60508125  0.79421756  0.20300434  1
  Zr  Zr82  1  0.88385768  0.70253927  0.48815643  1
  Zr  Zr83  1  0.19775208  0.60071648  0.80147377  1
  Zr  Zr84  1  0.49719551  0.89106532  0.31102051  1
  Zr  Zr85  1  0.60155094  0.79804635  0.80438075  1
  Zr  Zr86  1  0.90177385  0.90393203  0.50021270  1
  Zr  Zr87  1  0.10325558  0.49802087  0.70148613  1
  Zr  Zr88  1  0.59710472  0.59572213  0.80161857  1
  Zr  Zr89  1  0.69086617  0.68163182  0.31792712  1
  Zr  Zr90  1  0.69464428  0.90798549  0.70162670  1
  Zr  Zr91  1  0.19334988  0.80356872  0.19655012  1
  Zr  Zr92  1  0.80048918  0.00020461  -0.00310423  1
  Zr  Zr93  1  0.29955261  0.90277562  0.89270184  1
  Zr  Zr94  1  0.89281101  0.50159562  0.70208575  1
  Zr  Zr95  1  -0.00216737  0.39142802  0.19545561  1
  Zr  Zr96  1  0.20194559  0.80183340  0.61172186  1
  Zr  Zr97  1  0.09918703  0.10560065  0.30498731  1
  Zr  Zr98  1  0.89240634  0.90261741  0.30334127  1
  Zr  Zr99  1  0.10702832  0.91295732  0.30508195  1
  Ta  Ta100  1  0.40680480  0.01276211  0.80086085  1
  Ta  Ta101  1  0.70099843  0.70120297  0.70084410  1
  Ta  Ta102  1  0.29188396  0.49234786  0.30073378  1
  Ta  Ta103  1  0.89393069  0.72079790  0.89612995  1
  Ta  Ta104  1  0.41745640  0.19666677  -0.01082379  1
  Ta  Ta105  1  0.20956511  0.19642976  0.40429843  1
  Ta  Ta106  1  0.10374973  0.29354742  0.30141388  1
  Ta  Ta107  1  0.49716864  0.70210393  0.49555083  1
  Ta  Ta108  1  0.39815760  0.59553524  0.60623559  1
  Ta  Ta109  1  0.00473631  0.79271399  0.20037164  1
  Ta  Ta110  1  0.80202909  0.39269967  0.19565494  1
  Ta  Ta111  1  0.30000412  0.69979144  0.09585025  1
  Ta  Ta112  1  0.60480933  0.00469995  -0.00580910  1
  Ta  Ta113  1  0.11032176  0.69790866  0.50201698  1
  Ta  Ta114  1  0.09763162  0.29071474  0.90189255  1
  Ta  Ta115  1  0.19788184  0.39509454  0.19381325  1
  Ta  Ta116  1  0.40603413  0.19895127  0.40420260  1
  Ta  Ta117  1  0.89332156  0.10830106  0.10055504  1
  Ta  Ta118  1  0.30246554  0.90262029  0.30133631  1
  Ta  Ta119  1  0.19281225  0.39709099  0.00248307  1
  Ta  Ta120  1  0.50431451  0.69460073  0.10248504  1
  Ta  Ta121  1  0.40432634  0.00895026  -0.00553574  1
  Ta  Ta122  1  0.60501078  0.39788437  0.39699408  1
  Ta  Ta123  1  0.50494139  0.49732354  0.09391382  1
  Ta  Ta124  1  0.89696900  0.50705297  0.09593612  1
  Ta  Ta125  1  -0.00863978  0.00241392  -0.00487543  1
  Ta  Ta126  1  0.59624647  0.79587507  0.60541003  1
  Ta  Ta127  1  0.69314743  0.70100604  0.50101989  1
  Ta  Ta128  1  0.40670012  0.20107511  0.20262937  1
  Ta  Ta129  1  0.89928095  0.10450181  0.89827627  1
  Ta  Ta130  1  0.88991944  0.49913655  0.49467059  1
  Ta  Ta131  1  0.30700701  0.91193252  0.70047016  1
  Ta  Ta132  1  0.31498036  0.10030582  0.09973268  1
  Ta  Ta133  1  0.30207680  0.69968571  0.89467394  1
  Ta  Ta134  1  0.20122231  0.59906198  0.00078083  1
  Ta  Ta135  1  0.51041942  0.29172517  0.29931439  1
  Ta  Ta136  1  0.69525272  0.49444421  0.70686218  1
  Ta  Ta137  1  0.39780407  0.80033906  0.19718599  1
  Ta  Ta138  1  0.70214353  0.10499830  0.90162668  1
  Ta  Ta139  1  0.40744663  0.00907884  0.60026840  1
  Ta  Ta140  1  0.80038377  0.00229676  0.80572502  1
  Ta  Ta141  1  0.89870679  0.10064113  0.70263761  1
  Ta  Ta142  1  0.79330946  0.60071548  0.60163409  1
  Ta  Ta143  1  0.59238983  0.19766890  0.81579434  1
  Ta  Ta144  1  0.30097584  0.29663791  0.30016977  1
  Ta  Ta145  1  0.70668573  0.29737967  0.30232220  1
  Ta  Ta146  1  0.30767691  0.49658745  0.70843951  1
  Ta  Ta147  1  0.80151714  0.01149147  0.59665005  1
  Ta  Ta148  1  0.59077076  0.19274097  0.59073072  1
  Ta  Ta149  1  0.70113210  0.10891582  0.10198455  1
  Ti  Ti150  1  0.09760908  0.70496743  0.70472712  1
  Ti  Ti151  1  0.89618794  0.11723650  0.30377306  1
  Ti  Ti152  1  0.70985360  0.89347636  0.89991901  1
  Ti  Ti153  1  0.20688363  0.01111291  0.40885154  1
  Ti  Ti154  1  0.50142282  0.91132393  0.69870382  1
  Ti  Ti155  1  0.19707455  0.80075697  0.39943376  1
  Ti  Ti156  1  0.20301033  0.00329663  0.19198169  1
  Ti  Ti157  1  0.59607574  0.19787472  0.40565177  1
  Ti  Ti158  1  0.39467140  0.59689348  0.39771240  1
  Ti  Ti159  1  0.60972294  0.79139678  -0.00154377  1
  Ti  Ti160  1  0.70077163  0.29111454  0.90274095  1
  Ti  Ti161  1  0.48886166  0.69958696  0.89696235  1
  Ti  Ti162  1  0.20442889  0.60363464  0.60799569  1
  Ti  Ti163  1  0.09533886  0.50064478  0.90491446  1
  Ti  Ti164  1  0.39759771  0.80728163  0.79521287  1
  Ti  Ti165  1  0.50730406  0.29211457  0.10013681  1
  Ti  Ti166  1  0.09745574  0.10446110  0.50449436  1
  Ti  Ti167  1  0.50193996  0.10357408  0.69946134  1
  Ti  Ti168  1  0.30562751  0.29202390  0.70109003  1
  Ti  Ti169  1  0.21336999  0.19552238  0.80933548  1
  Ti  Ti170  1  0.89495302  0.29614664  0.09329243  1
  Ti  Ti171  1  0.70207174  0.48440789  0.89618828  1
  Ti  Ti172  1  0.19581772  0.60613229  0.39382538  1
  Ti  Ti173  1  0.40000895  0.80210520  0.60874677  1
  Ti  Ti174  1  0.50455896  0.10793326  0.29563148  1
  Ti  Ti175  1  -0.00243619  0.60753014  0.20107312  1
  Ti  Ti176  1  0.59902577  0.00780014  0.80747869  1
  Ti  Ti177  1  0.79629671  0.20307461  0.00195271  1
  Ti  Ti178  1  0.90083411  0.69632045  0.09314759  1
  Ti  Ti179  1  0.80261105  0.19758676  0.79817318  1
  Ti  Ti180  1  0.20184161  0.80423979  0.79325674  1
  Ti  Ti181  1  -0.01547209  0.19158800  0.59823208  1
  Ti  Ti182  1  0.30586922  0.90655293  0.10399119  1
  Ti  Ti183  1  -0.00858850  0.01827984  0.40969176  1
  Ti  Ti184  1  0.40451007  -0.00024328  0.20030149  1
  Ti  Ti185  1  0.20295852  0.38795698  0.39787105  1
  Ti  Ti186  1  0.09957684  0.91231281  0.70167738  1
  Ti  Ti187  1  0.09274114  0.69570588  0.09488965  1
  Ti  Ti188  1  0.30434828  0.28557544  0.50490568  1
  Ti  Ti189  1  0.70534232  0.50225026  0.48822590  1
  Ti  Ti190  1  0.19780618  0.39371396  0.80331861  1
  Ti  Ti191  1  -0.00501656  0.21101499  0.20088242  1
  Ti  Ti192  1  0.30507535  0.69643384  0.70912170  1
  Ti  Ti193  1  0.79303675  0.62269064  -0.00406078  1
  Ti  Ti194  1  0.09428111  0.90983073  0.10110572  1
  Ti  Ti195  1  0.20943794  0.00886840  0.59565331  1
  Ti  Ti196  1  0.80242773  0.20858018  0.19938147  1
  Ti  Ti197  1  0.90314882  0.28471376  0.90290364  1
  Ti  Ti198  1  0.20938729  0.00885081  0.79990934  1
  Ti  Ti199  1  0.30064264  0.49448402  0.09612342  1
  Mo  Mo200  1  -0.00923002  0.19887987  -0.00127098  1
  Mo  Mo201  1  0.60768666  0.19732838  0.00212686  1
  Mo  Mo202  1  0.60840275  0.39255737  0.80359706  1
  Mo  Mo203  1  0.50836917  0.09697571  0.90057467  1
  Mo  Mo204  1  0.70144462  0.49044386  0.30389321  1
  Mo  Mo205  1  0.79566551  0.59308914  0.40527046  1
  Mo  Mo206  1  0.49807481  0.10412456  0.50553804  1
  Mo  Mo207  1  0.09948163  0.29923229  0.09920348  1
  Mo  Mo208  1  -0.01229076  0.20171764  0.80019884  1
  Mo  Mo209  1  -0.00797764  0.00595681  0.80109013  1
  Mo  Mo210  1  0.80042656  0.80631951  0.80155639  1
  Mo  Mo211  1  0.89592235  0.29330691  0.29342115  1
  Mo  Mo212  1  0.70986964  0.29325819  0.10033141  1
  Mo  Mo213  1  0.39553740  0.59679885  0.80000703  1
  Mo  Mo214  1  0.20939761  0.19509614  0.59044750  1
  Mo  Mo215  1  0.00073082  0.19332166  0.39490080  1
  Mo  Mo216  1  0.59726134  0.79496990  0.40985850  1
  Mo  Mo217  1  0.79991069  0.19809100  0.39460185  1
  Mo  Mo218  1  0.89277613  0.70439861  0.70544750  1
  Mo  Mo219  1  0.80115143  0.38125734  -0.00079087  1
  Mo  Mo220  1  0.78269596  0.80876197  0.39544097  1
  Mo  Mo221  1  0.69856275  0.10280769  0.50456202  1
  Mo  Mo222  1  0.40728218  0.19588221  0.80185061  1
  Mo  Mo223  1  0.80028194  0.79975218  -0.00104434  1
  Mo  Mo224  1  0.50406225  0.29483131  0.49059429  1
  Mo  Mo225  1  0.69486044  0.69811443  0.08980188  1
  Mo  Mo226  1  0.70623523  0.71615810  0.89782613  1
  Mo  Mo227  1  0.89611388  0.28339776  0.70296433  1
  Mo  Mo228  1  0.39469511  0.79909429  0.39703897  1
  Mo  Mo229  1  0.40826124  0.39679785  0.00950137  1
  Mo  Mo230  1  0.10141788  0.69756798  0.30094818  1
  Mo  Mo231  1  0.89804637  0.90549090  0.89935960  1
  Mo  Mo232  1  -0.00666253  0.60994856  0.00137913  1
  Mo  Mo233  1  0.89898555  0.10269914  0.50361108  1
  Mo  Mo234  1  0.60354614  0.59625013  0.18009255  1
  Mo  Mo235  1  -0.00080475  0.00732464  0.60018870  1
  Mo  Mo236  1  0.79891509  0.18705562  0.59665925  1
  Mo  Mo237  1  0.60126463  0.59461360  0.41795769  1
  Mo  Mo238  1  0.40666446  0.19966675  0.59486718  1
  Mo  Mo239  1  0.79965013  0.01626285  0.20021167  1
  Mo  Mo240  1  0.60167168  0.20469547  0.19996533  1
  Mo  Mo241  1  0.31185007  0.10251487  0.89757218  1
  Mo  Mo242  1  0.49758584  0.49717195  0.69948038  1
  Mo  Mo243  1  0.59526776  0.00352426  0.60598805  1
  Mo  Mo244  1  0.39818962  0.39757707  0.79111369  1
  Mo  Mo245  1  0.79501462  0.39819429  0.39149679  1
  Mo  Mo246  1  0.70120947  0.90096589  0.30844293  1
  Mo  Mo247  1  0.50379397  0.29484468  0.90278105  1
  Mo  Mo248  1  0.30239000  0.10249114  0.50064827  1
  Mo  Mo249  1  0.00047133  0.80392949  0.79552498  1
