# generated using pymatgen
data_HfZrTaTiMo
_symmetry_space_group_name_H-M   'P 1'
_cell_length_a   16.88358961
_cell_length_b   16.87769489
_cell_length_c   16.89322516
_cell_angle_alpha   89.99135598
_cell_angle_beta   90.05111959
_cell_angle_gamma   90.01514368
_symmetry_Int_Tables_number   1
_chemical_formula_structural   HfZrTaTiMo
_chemical_formula_sum   'Hf50 Zr50 Ta50 Ti50 Mo50'
_cell_volume   4813.82497961
_cell_formula_units_Z   50
loop_
 _symmetry_equiv_pos_site_id
 _symmetry_equiv_pos_as_xyz
  1  'x, y, z'
loop_
 _atom_site_type_symbol
 _atom_site_label
 _atom_site_symmetry_multiplicity
 _atom_site_fract_x
 _atom_site_fract_y
 _atom_site_fract_z
 _atom_site_occupancy
  Hf  Hf0  1  0.00498501  0.40213877  0.40004248  1
  Hf  Hf1  1  0.10304677  0.70202308  0.70252135  1
  Hf  Hf2  1  0.09256015  0.10965335  0.09706506  1
  Hf  Hf3  1  0.10442967  0.49754877  0.09302603  1
  Hf  Hf4  1  0.69554690  0.50000497  0.51396944  1
  Hf  Hf5  1  0.79268768  0.20114604  0.39534870  1
  Hf  Hf6  1  0.90802846  0.10476869  0.28891080  1
  Hf  Hf7  1  0.80781998  0.80247822  0.61084974  1
  Hf  Hf8  1  -0.00680430  0.19721175  0.60247085  1
  Hf  Hf9  1  -0.00301649  0.60026084  0.79565996  1
  Hf  Hf10  1  0.00671185  0.80224203  0.39711169  1
  Hf  Hf11  1  0.29777395  0.70122161  0.70731725  1
  Hf  Hf12  1  -0.00884981  0.39571675  0.00338230  1
  Hf  Hf13  1  0.20604099  0.59184623  0.40409959  1
  Hf  Hf14  1  0.70170513  0.89650071  0.70821756  1
  Hf  Hf15  1  0.69465359  0.30728358  0.50804004  1
  Hf  Hf16  1  0.30000971  0.90308740  0.89538707  1
  Hf  Hf17  1  0.20380597  0.59795699  0.20374680  1
  Hf  Hf18  1  0.79500252  0.18697614  0.79595442  1
  Hf  Hf19  1  0.09277547  0.90818732  0.09504915  1
  Hf  Hf20  1  0.50631509  0.89289132  0.30880924  1
  Hf  Hf21  1  0.20441988  0.40511920  0.20338278  1
  Hf  Hf22  1  0.08815241  0.90117794  0.90192128  1
  Hf  Hf23  1  0.69906480  0.69690113  0.09009251  1
  Hf  Hf24  1  0.09007271  0.09286641  0.71075259  1
  Hf  Hf25  1  0.48798766  0.10058951  0.89896743  1
  Hf  Hf26  1  0.20172024  0.19951545  0.81367311  1
  Hf  Hf27  1  0.09980448  0.70631935  0.09095871  1
  Hf  Hf28  1  0.39228825  0.59298787  0.40639328  1
  Hf  Hf29  1  0.40557992  0.20167749  0.40093818  1
  Hf  Hf30  1  0.68923314  0.29867062  0.28821711  1
  Hf  Hf31  1  0.00872912  0.59329020  0.39911628  1
  Hf  Hf32  1  0.30550762  0.50192069  0.90713488  1
  Hf  Hf33  1  0.00265692  0.59819053  0.20034728  1
  Hf  Hf34  1  0.29593794  0.10920536  0.09858347  1
  Hf  Hf35  1  0.69148030  0.29781620  0.09174683  1
  Hf  Hf36  1  0.89614799  0.90512571  0.90106254  1
  Hf  Hf37  1  0.50121030  0.30574936  0.69577903  1
  Hf  Hf38  1  0.10213640  0.29123127  0.28964185  1
  Hf  Hf39  1  0.40545569  0.80280951  0.61050093  1
  Hf  Hf40  1  0.69419218  0.70488770  0.50693029  1
  Hf  Hf41  1  0.00345099  0.80175544  0.20364206  1
  Hf  Hf42  1  -0.00229077  0.80235214  0.60134651  1
  Hf  Hf43  1  -0.00271883  0.60326734  -0.00730782  1
  Hf  Hf44  1  0.50905714  0.70273815  0.50724236  1
  Hf  Hf45  1  0.20275129  -0.00451458  0.60333725  1
  Hf  Hf46  1  0.09805527  0.49291018  0.89713184  1
  Hf  Hf47  1  0.21136481  0.38602644  0.80658424  1
  Hf  Hf48  1  0.29928119  0.69919049  0.89900398  1
  Hf  Hf49  1  0.59975022  0.58873140  0.39643679  1
  Zr  Zr50  1  0.60171832  0.19132749  0.60482304  1
  Zr  Zr51  1  0.69960657  0.70364310  0.29996275  1
  Zr  Zr52  1  0.28797211  0.90133181  0.08923885  1
  Zr  Zr53  1  0.80305410  0.79969241  0.19665539  1
  Zr  Zr54  1  0.69453366  0.50009382  0.70675764  1
  Zr  Zr55  1  0.90213289  0.29403677  0.29522587  1
  Zr  Zr56  1  0.70156528  0.90146886  0.09119875  1
  Zr  Zr57  1  0.40541724  0.00979852  0.40064285  1
  Zr  Zr58  1  0.88917712  0.09514516  0.50185917  1
  Zr  Zr59  1  0.50908411  0.50444979  0.70383479  1
  Zr  Zr60  1  0.69661600  0.50009009  0.89519019  1
  Zr  Zr61  1  -0.00212910  -0.00488946  0.60197621  1
  Zr  Zr62  1  0.39637807  0.79757016  0.19436676  1
  Zr  Zr63  1  0.60184681  0.00601011  0.79657418  1
  Zr  Zr64  1  -0.00005954  0.39369857  0.59468152  1
  Zr  Zr65  1  0.29640525  0.89755662  0.31179848  1
  Zr  Zr66  1  0.49946717  0.70181937  0.30455458  1
  Zr  Zr67  1  0.89276284  0.50212595  0.29512433  1
  Zr  Zr68  1  0.30740715  0.10107483  0.69783816  1
  Zr  Zr69  1  0.30528112  0.30014419  0.50872028  1
  Zr  Zr70  1  0.50600358  0.49035852  0.51336511  1
  Zr  Zr71  1  0.90340203  0.91413542  0.29107343  1
  Zr  Zr72  1  0.30552898  0.30128462  0.09927321  1
  Zr  Zr73  1  0.51081938  0.10565809  0.29037791  1
  Zr  Zr74  1  0.89717911  0.70840398  0.89915437  1
  Zr  Zr75  1  0.90238461  0.69458612  0.49550114  1
  Zr  Zr76  1  0.01312923  0.20584533  0.42198103  1
  Zr  Zr77  1  0.80167959  0.80628272  0.40043859  1
  Zr  Zr78  1  0.40218799  0.39968249  0.80927976  1
  Zr  Zr79  1  0.39445266  0.40419117  0.39525768  1
  Zr  Zr80  1  0.01343433  -0.00181046  0.40428707  1
  Zr  Zr81  1  0.40062491  -0.00027869  0.19439080  1
  Zr  Zr82  1  0.50662219  0.69732675  0.89928549  1
  Zr  Zr83  1  0.69676065  0.70254068  0.89456065  1
  Zr  Zr84  1  0.59864143  0.59579923  0.19491264  1
  Zr  Zr85  1  0.09483326  0.30385262  0.70708783  1
  Zr  Zr86  1  0.60088728  0.00492925  0.18566302  1
  Zr  Zr87  1  0.48758777  0.09800848  0.69856538  1
  Zr  Zr88  1  0.81010867  0.60247920  0.61117032  1
  Zr  Zr89  1  0.19830549  -0.00076399  0.21093514  1
  Zr  Zr90  1  0.40019168  0.79899970  -0.00007652  1
  Zr  Zr91  1  0.38943234  0.21489519  0.81051165  1
  Zr  Zr92  1  0.18866899  0.20239941  0.59622861  1
  Zr  Zr93  1  0.20066797  0.40540291  0.39894695  1
  Zr  Zr94  1  0.20238122  0.00356827  0.80504869  1
  Zr  Zr95  1  0.70273939  0.08821721  0.50455293  1
  Zr  Zr96  1  0.80370486  0.39488087  0.18956926  1
  Zr  Zr97  1  0.30551925  0.90165539  0.50248726  1
  Zr  Zr98  1  0.59481025  0.19935072  0.40616420  1
  Zr  Zr99  1  0.09921433  0.10256447  0.29287755  1
  Ta  Ta100  1  0.19666963  0.79721552  0.20597789  1
  Ta  Ta101  1  0.29595740  0.50322193  0.70489127  1
  Ta  Ta102  1  0.79362027  0.40243147  0.40157867  1
  Ta  Ta103  1  0.50743618  0.89669053  0.50304889  1
  Ta  Ta104  1  0.49524057  0.49169983  0.28793961  1
  Ta  Ta105  1  0.79402358  0.59189793  0.39842502  1
  Ta  Ta106  1  0.30799484  0.10039575  0.50609389  1
  Ta  Ta107  1  0.20596523  0.79918219  0.60231331  1
  Ta  Ta108  1  0.30768518  0.49657549  0.09326711  1
  Ta  Ta109  1  0.59804166  0.00499678  -0.00515939  1
  Ta  Ta110  1  0.59553273  -0.00560326  0.60331320  1
  Ta  Ta111  1  0.10394481  0.89313134  0.70939852  1
  Ta  Ta112  1  0.80308697  0.39697324  0.60685821  1
  Ta  Ta113  1  0.00327970  0.39941678  0.19293637  1
  Ta  Ta114  1  0.50612905  0.70014409  0.09416978  1
  Ta  Ta115  1  0.79406586  0.19026476  0.18449447  1
  Ta  Ta116  1  0.20170762  0.39085768  -0.00409516  1
  Ta  Ta117  1  0.59825512  0.80315853  0.19264856  1
  Ta  Ta118  1  0.80053420  0.39582182  -0.00244913  1
  Ta  Ta119  1  0.30071045  0.69892454  0.30201480  1
  Ta  Ta120  1  0.39388549  0.60358678  0.60182846  1
  Ta  Ta121  1  0.70161978  0.49850830  0.09176274  1
  Ta  Ta122  1  0.39933606  0.59652045  0.19413702  1
  Ta  Ta123  1  0.40174649  0.20193411  0.19940147  1
  Ta  Ta124  1  0.89192770  0.49493686  0.89548827  1
  Ta  Ta125  1  0.00312293  0.59640988  0.60382745  1
  Ta  Ta126  1  0.59876141  0.19843189  -0.00854593  1
  Ta  Ta127  1  0.70011861  0.89674782  0.89822947  1
  Ta  Ta128  1  0.60125308  0.20203604  0.80419163  1
  Ta  Ta129  1  0.89521024  0.29658721  0.70597510  1
  Ta  Ta130  1  0.19563529  0.59905273  0.80402257  1
  Ta  Ta131  1  0.89342179  0.29672974  0.89837751  1
  Ta  Ta132  1  0.79937100  0.19526246  -0.00548410  1
  Ta  Ta133  1  0.90602731  0.90875226  0.09047304  1
  Ta  Ta134  1  0.50226042  0.30581724  0.28379137  1
  Ta  Ta135  1  0.69796630  0.30259888  0.89860475  1
  Ta  Ta136  1  0.49932901  0.30486897  0.09216294  1
  Ta  Ta137  1  0.68783199  0.70063071  0.70448873  1
  Ta  Ta138  1  0.20668038  0.19298825  0.40033619  1
  Ta  Ta139  1  0.10679246  0.69974584  0.50486915  1
  Ta  Ta140  1  -0.00827325  0.19470056  0.80624927  1
  Ta  Ta141  1  0.40339182  0.80663443  0.79465035  1
  Ta  Ta142  1  0.50282614  0.90251631  0.89819620  1
  Ta  Ta143  1  0.11352610  0.89541521  0.49775193  1
  Ta  Ta144  1  0.10465094  0.49763588  0.70246013  1
  Ta  Ta145  1  0.79784744  0.00967315  0.18962642  1
  Ta  Ta146  1  0.89541623  0.49627932  0.50111543  1
  Ta  Ta147  1  0.80157101  0.80203112  -0.00113575  1
  Ta  Ta148  1  0.20351510  0.59856821  0.60013271  1
  Ta  Ta149  1  0.69431075  0.90690463  0.29835133  1
  Ti  Ti150  1  0.08586166  0.29118581  0.90834382  1
  Ti  Ti151  1  0.79273231  0.00198923  0.38889901  1
  Ti  Ti152  1  0.10599490  0.69885304  0.30367387  1
  Ti  Ti153  1  0.50771124  0.49163607  0.90371358  1
  Ti  Ti154  1  0.80800975  0.60827642  0.79274461  1
  Ti  Ti155  1  -0.00112713  0.79595119  0.80051325  1
  Ti  Ti156  1  0.20266146  0.20209673  -0.01118547  1
  Ti  Ti157  1  0.69676317  0.30403140  0.70459838  1
  Ti  Ti158  1  0.79988228  0.00717348  0.62325065  1
  Ti  Ti159  1  0.60104911  0.00220959  0.40541102  1
  Ti  Ti160  1  0.79813316  0.19829712  0.61022526  1
  Ti  Ti161  1  0.19768936  0.60104413  -0.00583844  1
  Ti  Ti162  1  0.20198847  0.79154609  0.40325914  1
  Ti  Ti163  1  0.89391424  0.69181165  0.29826298  1
  Ti  Ti164  1  0.10246287  0.49911981  0.51226202  1
  Ti  Ti165  1  0.89204832  0.90862881  0.49894864  1
  Ti  Ti166  1  0.40641912  0.60236588  0.79774267  1
  Ti  Ti167  1  0.90636370  0.09215841  0.90009461  1
  Ti  Ti168  1  0.90090158  0.90771873  0.72081881  1
  Ti  Ti169  1  0.19475790  0.01610862  -0.01215011  1
  Ti  Ti170  1  0.89268501  0.50634982  0.09892246  1
  Ti  Ti171  1  0.19256102  0.79562313  -0.01022728  1
  Ti  Ti172  1  0.39867678  0.00411262  -0.00037162  1
  Ti  Ti173  1  0.88748169  0.30266154  0.50251315  1
  Ti  Ti174  1  0.90339448  0.49127586  0.70215658  1
  Ti  Ti175  1  0.69506172  0.89820518  0.50048614  1
  Ti  Ti176  1  0.58833849  0.80162863  0.79152825  1
  Ti  Ti177  1  0.10028639  0.29032485  0.09960075  1
  Ti  Ti178  1  0.59382863  0.40690357  0.18554975  1
  Ti  Ti179  1  0.80102826  0.39519441  0.79926719  1
  Ti  Ti180  1  0.39538654  0.79039851  0.41089213  1
  Ti  Ti181  1  0.69607024  0.10165705  0.28844007  1
  Ti  Ti182  1  0.20332814  0.40119739  0.60415274  1
  Ti  Ti183  1  0.59946220  0.40120158  0.39437062  1
  Ti  Ti184  1  0.79729654  0.00844804  -0.00026498  1
  Ti  Ti185  1  -0.00683966  0.39487164  0.80351802  1
  Ti  Ti186  1  0.80291784  0.59727446  -0.00143527  1
  Ti  Ti187  1  0.70031565  0.09576861  0.90116912  1
  Ti  Ti188  1  0.49902560  0.11266978  0.09281738  1
  Ti  Ti189  1  0.38959553  0.40543730  0.60857780  1
  Ti  Ti190  1  0.89795816  0.70112886  0.09788940  1
  Ti  Ti191  1  0.90362639  0.28519263  0.09414667  1
  Ti  Ti192  1  0.40950227  0.59499551  0.00725433  1
  Ti  Ti193  1  0.59461214  0.58902585  0.00158463  1
  Ti  Ti194  1  0.30350856  0.29552191  0.29342194  1
  Ti  Ti195  1  0.90736725  0.09691585  0.09427195  1
  Ti  Ti196  1  0.50160073  0.30702492  0.50928137  1
  Ti  Ti197  1  0.50431749  0.89698778  0.08751202  1
  Ti  Ti198  1  0.29752621  0.69583607  0.09635292  1
  Ti  Ti199  1  0.70159684  0.49576713  0.28853380  1
  Mo  Mo200  1  0.90384741  0.70536271  0.70467322  1
  Mo  Mo201  1  0.29917598  0.70030628  0.50267146  1
  Mo  Mo202  1  0.49923508  0.49959638  0.09380097  1
  Mo  Mo203  1  0.59925784  0.39937162  -0.00335592  1
  Mo  Mo204  1  0.39954006  -0.01286733  0.79853392  1
  Mo  Mo205  1  0.11472671  0.09042946  0.50029175  1
  Mo  Mo206  1  0.59668122  0.20346452  0.18493006  1
  Mo  Mo207  1  0.30962176  0.30036871  0.92130738  1
  Mo  Mo208  1  0.60051166  0.80968689  -0.00203345  1
  Mo  Mo209  1  0.29889235  0.50076921  0.51993576  1
  Mo  Mo210  1  0.20610985  0.20395038  0.20308204  1
  Mo  Mo211  1  -0.00325278  0.00148153  0.19269780  1
  Mo  Mo212  1  0.30211748  0.89817739  0.70447769  1
  Mo  Mo213  1  0.30369170  0.09989361  0.91179098  1
  Mo  Mo214  1  0.59569145  0.61090840  0.60715485  1
  Mo  Mo215  1  0.19858827  0.79965364  0.80094016  1
  Mo  Mo216  1  0.79941649  0.00121279  0.80649837  1
  Mo  Mo217  1  0.50126567  0.90009863  0.70180766  1
  Mo  Mo218  1  0.10260760  0.70450296  0.89753491  1
  Mo  Mo219  1  0.59237398  0.60328875  0.80269855  1
  Mo  Mo220  1  0.30827825  0.50496700  0.28502444  1
  Mo  Mo221  1  0.40638267  -0.00415702  0.59994708  1
  Mo  Mo222  1  0.20370676  0.01014000  0.40734742  1
  Mo  Mo223  1  -0.00623522  0.80073708  0.00394342  1
  Mo  Mo224  1  0.10635031  0.89136234  0.30583043  1
  Mo  Mo225  1  0.09174886  0.10319804  0.90571538  1
  Mo  Mo226  1  0.60132861  0.39067283  0.80631254  1
  Mo  Mo227  1  0.09648646  0.49665005  0.28985336  1
  Mo  Mo228  1  0.40192187  0.40011140  0.19661905  1
  Mo  Mo229  1  -0.00830353  0.20214396  -0.00616376  1
  Mo  Mo230  1  0.80091441  0.59742538  0.19299787  1
  Mo  Mo231  1  -0.00452238  0.00858360  -0.00357233  1
  Mo  Mo232  1  0.40297862  0.20497294  0.59404101  1
  Mo  Mo233  1  0.50032059  0.69893921  0.70173855  1
  Mo  Mo234  1  -0.00393909  0.20408345  0.18532203  1
  Mo  Mo235  1  0.89601218  0.09898416  0.70619664  1
  Mo  Mo236  1  -0.00293223  0.00016601  0.80189171  1
  Mo  Mo237  1  0.49643592  0.08802278  0.50728149  1
  Mo  Mo238  1  0.40725753  0.20215401  0.00433782  1
  Mo  Mo239  1  0.60737266  0.39163358  0.60946625  1
  Mo  Mo240  1  0.70126985  0.10284878  0.08652960  1
  Mo  Mo241  1  0.60566870  0.81238910  0.40329987  1
  Mo  Mo242  1  0.11107933  0.30543820  0.49650507  1
  Mo  Mo243  1  0.79714259  0.80094153  0.80101156  1
  Mo  Mo244  1  0.29987260  0.11351482  0.30100134  1
  Mo  Mo245  1  0.69973934  0.09573398  0.70149041  1
  Mo  Mo246  1  0.50927831  0.30073144  0.90526834  1
  Mo  Mo247  1  0.30203728  0.30594926  0.69183595  1
  Mo  Mo248  1  0.40747331  0.40291703  0.00207074  1
  Mo  Mo249  1  0.60223186  0.80709675  0.60448442  1
