# generated using pymatgen
data_HfZrTaTiMo
_symmetry_space_group_name_H-M   'P 1'
_cell_length_a   16.88018989
_cell_length_b   16.88001532
_cell_length_c   16.88740746
_cell_angle_alpha   90.05760145
_cell_angle_beta   89.99324415
_cell_angle_gamma   90.07783075
_symmetry_Int_Tables_number   1
_chemical_formula_structural   HfZrTaTiMo
_chemical_formula_sum   'Hf50 Zr50 Ta50 Ti50 Mo50'
_cell_volume   4811.85490410
_cell_formula_units_Z   50
loop_
 _symmetry_equiv_pos_site_id
 _symmetry_equiv_pos_as_xyz
  1  'x, y, z'
loop_
 _atom_site_type_symbol
 _atom_site_label
 _atom_site_symmetry_multiplicity
 _atom_site_fract_x
 _atom_site_fract_y
 _atom_site_fract_z
 _atom_site_occupancy
  Hf  Hf0  1  0.40319912  0.20679536  0.81373386  1
  Hf  Hf1  1  0.90100810  0.50734435  0.69620777  1
  Hf  Hf2  1  -0.00187200  -0.00123764  0.59079341  1
  Hf  Hf3  1  0.40534551  0.40071513  0.60308056  1
  Hf  Hf4  1  0.48747397  0.89426911  0.50446479  1
  Hf  Hf5  1  0.10386779  0.50233203  0.90425057  1
  Hf  Hf6  1  0.80008970  0.00684983  0.00489969  1
  Hf  Hf7  1  0.20223467  0.19614295  0.19510664  1
  Hf  Hf8  1  0.59592348  0.39488585  -0.00895548  1
  Hf  Hf9  1  0.29623131  0.49484932  0.49165720  1
  Hf  Hf10  1  0.29037679  0.10532835  0.49276497  1
  Hf  Hf11  1  0.89967264  0.09885679  0.90171672  1
  Hf  Hf12  1  -0.01206784  -0.00772270  0.40405715  1
  Hf  Hf13  1  0.60038605  0.39018268  0.39234175  1
  Hf  Hf14  1  0.50800646  0.51175636  0.29373602  1
  Hf  Hf15  1  0.00678473  0.60558504  0.79738033  1
  Hf  Hf16  1  0.49582166  0.50370637  0.10366477  1
  Hf  Hf17  1  0.70081574  0.69600537  0.69992090  1
  Hf  Hf18  1  0.30475846  0.71226439  0.51181969  1
  Hf  Hf19  1  0.30168559  0.89937713  0.10394807  1
  Hf  Hf20  1  0.49110772  0.69296164  0.89667889  1
  Hf  Hf21  1  0.89792539  0.70355236  0.50579307  1
  Hf  Hf22  1  0.40099858  0.00918766  0.01213910  1
  Hf  Hf23  1  0.20211086  0.80733646  0.40098592  1
  Hf  Hf24  1  0.18727468  -0.00374437  0.80638578  1
  Hf  Hf25  1  0.00078339  0.40467668  0.80475052  1
  Hf  Hf26  1  0.10476090  0.29374967  0.48946551  1
  Hf  Hf27  1  0.90596441  0.29251779  0.70304364  1
  Hf  Hf28  1  -0.00844303  0.80615651  0.20101382  1
  Hf  Hf29  1  0.71069159  0.28594109  0.28844534  1
  Hf  Hf30  1  0.80011537  0.39640337  0.59137858  1
  Hf  Hf31  1  0.70129946  0.90298013  0.90341491  1
  Hf  Hf32  1  0.10391475  0.70173345  0.50559230  1
  Hf  Hf33  1  0.31257118  0.69617667  0.10319569  1
  Hf  Hf34  1  0.30546110  0.49908146  0.90359349  1
  Hf  Hf35  1  0.50020796  0.90919488  0.90593425  1
  Hf  Hf36  1  0.10504969  0.29925114  0.90890908  1
  Hf  Hf37  1  0.20091545  0.40297951  0.60364604  1
  Hf  Hf38  1  0.70226311  0.90440833  0.10496793  1
  Hf  Hf39  1  0.10088114  0.29804324  0.70589329  1
  Hf  Hf40  1  0.28805807  0.89580398  0.91233032  1
  Hf  Hf41  1  0.29613417  0.30484006  0.71463751  1
  Hf  Hf42  1  0.71509712  0.90790788  0.29196959  1
  Hf  Hf43  1  0.09292293  0.70476904  0.08577900  1
  Hf  Hf44  1  0.69898238  0.49909397  0.69750754  1
  Hf  Hf45  1  0.19863253  0.60398235  0.79979004  1
  Hf  Hf46  1  0.09603107  0.10367485  0.30258136  1
  Hf  Hf47  1  0.69832071  0.50076988  0.10189432  1
  Hf  Hf48  1  0.89270733  0.49627671  0.30153179  1
  Hf  Hf49  1  0.60138057  0.59837303  -0.00576781  1
  Zr  Zr50  1  0.50015755  0.29087100  0.49125052  1
  Zr  Zr51  1  0.90417990  0.09738207  0.70088813  1
  Zr  Zr52  1  0.29118171  0.10971515  0.91298779  1
  Zr  Zr53  1  0.60066008  0.00830377  0.60176974  1
  Zr  Zr54  1  0.00666568  0.40156425  0.60054574  1
  Zr  Zr55  1  0.40849702  0.59717425  0.60402122  1
  Zr  Zr56  1  0.30558920  0.29198042  0.09611390  1
  Zr  Zr57  1  0.39777005  0.20141340  0.59882025  1
  Zr  Zr58  1  0.69887619  0.70102295  0.29434453  1
  Zr  Zr59  1  0.19686687  0.40580185  0.01494862  1
  Zr  Zr60  1  0.51605200  0.50623069  0.49639567  1
  Zr  Zr61  1  0.59668975  0.39850142  0.80243681  1
  Zr  Zr62  1  0.59983399  0.79691258  0.80262232  1
  Zr  Zr63  1  0.00948680  0.81771613  0.59477139  1
  Zr  Zr64  1  0.59416072  0.79822656  0.00543250  1
  Zr  Zr65  1  0.90133495  0.70229553  0.69269481  1
  Zr  Zr66  1  0.89054428  0.09175378  0.29120079  1
  Zr  Zr67  1  0.80008956  0.19108832  0.60180269  1
  Zr  Zr68  1  0.19807985  0.59651606  0.19526034  1
  Zr  Zr69  1  0.29194070  0.09908912  0.70299554  1
  Zr  Zr70  1  -0.00187153  0.59296514  0.19316949  1
  Zr  Zr71  1  0.20000640  0.79616050  0.20063225  1
  Zr  Zr72  1  0.60379550  0.20390225  0.80149499  1
  Zr  Zr73  1  0.40273126  0.00314745  0.39809873  1
  Zr  Zr74  1  0.49543476  0.10086190  0.70422734  1
  Zr  Zr75  1  0.49045939  0.89948910  0.70043712  1
  Zr  Zr76  1  0.39273545  0.80372575  0.80527908  1
  Zr  Zr77  1  -0.01219433  0.40373031  0.01224163  1
  Zr  Zr78  1  0.00778727  0.80716695  0.79904724  1
  Zr  Zr79  1  0.70039380  0.50114147  0.30291058  1
  Zr  Zr80  1  0.80860274  0.19221900  0.39768971  1
  Zr  Zr81  1  0.30383208  0.49863131  0.30106588  1
  Zr  Zr82  1  0.30033194  0.70647101  0.70265772  1
  Zr  Zr83  1  0.89359256  0.70377580  0.29822191  1
  Zr  Zr84  1  -0.00668598  0.39438154  0.39861990  1
  Zr  Zr85  1  0.59183686  0.79971793  0.39393619  1
  Zr  Zr86  1  0.58976104  0.78356046  0.59491912  1
  Zr  Zr87  1  0.40419043  0.61226950  0.40109201  1
  Zr  Zr88  1  0.09416516  0.10371022  0.69855842  1
  Zr  Zr89  1  0.70834024  0.89829195  0.50118323  1
  Zr  Zr90  1  0.70479499  0.89823870  0.69424108  1
  Zr  Zr91  1  0.59699692  0.00384699  0.38950569  1
  Zr  Zr92  1  0.10147288  0.49650322  0.31038333  1
  Zr  Zr93  1  0.70160292  0.29700288  0.49056280  1
  Zr  Zr94  1  0.10169518  0.90602183  0.29631177  1
  Zr  Zr95  1  0.49843936  0.29120076  0.10230431  1
  Zr  Zr96  1  0.19464337  0.39919714  0.19866921  1
  Zr  Zr97  1  0.60311700  0.38588736  0.19618360  1
  Zr  Zr98  1  0.10094681  0.89782875  0.08680335  1
  Zr  Zr99  1  0.90080294  0.50580325  0.50108533  1
  Ta  Ta100  1  0.38903672  -0.00061484  0.60132021  1
  Ta  Ta101  1  0.41215356  0.40089006  0.81156897  1
  Ta  Ta102  1  0.30391964  0.09961032  0.29390224  1
  Ta  Ta103  1  0.09874581  0.29280096  0.30218018  1
  Ta  Ta104  1  0.70660959  0.09242282  0.49430943  1
  Ta  Ta105  1  0.60602996  0.19760183  0.00736292  1
  Ta  Ta106  1  0.30806176  0.90510447  0.29255257  1
  Ta  Ta107  1  0.19911711  0.59333211  0.60754430  1
  Ta  Ta108  1  0.69977124  0.10217233  0.90453135  1
  Ta  Ta109  1  -0.00442626  0.19857248  0.00427112  1
  Ta  Ta110  1  0.50581279  0.10109945  0.90710869  1
  Ta  Ta111  1  0.79672634  0.19736362  0.80313179  1
  Ta  Ta112  1  0.29579515  0.29978571  0.48629594  1
  Ta  Ta113  1  -0.00269726  0.80888030  0.40291993  1
  Ta  Ta114  1  0.90121180  0.70330110  0.90476815  1
  Ta  Ta115  1  0.19440335  0.19903351  0.81075450  1
  Ta  Ta116  1  0.70815985  0.29663884  0.90481416  1
  Ta  Ta117  1  0.79709090  0.60153780  0.40402797  1
  Ta  Ta118  1  0.79529300  0.00391165  0.79788404  1
  Ta  Ta119  1  0.79964527  0.39900822  0.00258449  1
  Ta  Ta120  1  0.59359931  0.59116289  0.79962295  1
  Ta  Ta121  1  0.40014470  0.39309971  0.20546725  1
  Ta  Ta122  1  0.29927451  0.29337987  0.30508622  1
  Ta  Ta123  1  -0.00673502  -0.00233899  0.19103900  1
  Ta  Ta124  1  0.09376941  0.10160170  0.09903691  1
  Ta  Ta125  1  0.89454794  0.70431808  0.09268037  1
  Ta  Ta126  1  0.10403821  0.50636955  0.49825095  1
  Ta  Ta127  1  0.60385440  0.00738115  0.80258818  1
  Ta  Ta128  1  0.78820054  0.60050323  0.59378593  1
  Ta  Ta129  1  0.80098181  0.60083834  0.80473121  1
  Ta  Ta130  1  0.80627604  0.39668442  0.19028593  1
  Ta  Ta131  1  0.19774120  0.20255370  0.59846730  1
  Ta  Ta132  1  0.59515918  0.80217332  0.19437644  1
  Ta  Ta133  1  -0.00050882  0.60680761  0.40340339  1
  Ta  Ta134  1  0.59951228  0.39617535  0.60335574  1
  Ta  Ta135  1  0.89988571  0.90081543  0.90005334  1
  Ta  Ta136  1  0.60819207  0.19833819  0.60181669  1
  Ta  Ta137  1  0.39367219  0.00271113  0.80651160  1
  Ta  Ta138  1  0.80309605  0.59649932  -0.00159325  1
  Ta  Ta139  1  0.09582678  0.10683258  0.49310048  1
  Ta  Ta140  1  0.80430803  0.79977289  0.80303596  1
  Ta  Ta141  1  0.49839751  0.69906335  0.28478267  1
  Ta  Ta142  1  0.20345667  0.00719678  0.19426742  1
  Ta  Ta143  1  0.80176576  0.60011185  0.19066930  1
  Ta  Ta144  1  0.70381015  0.70256984  0.09921484  1
  Ta  Ta145  1  0.40499440  0.79859413  0.00795238  1
  Ta  Ta146  1  0.30407757  0.49674767  0.71378398  1
  Ta  Ta147  1  0.70650276  0.69661675  0.90031899  1
  Ta  Ta148  1  0.09569613  0.70112082  0.30669667  1
  Ta  Ta149  1  0.89169326  0.90259783  0.69734690  1
  Ti  Ti150  1  0.40072388  0.80050849  0.39351153  1
  Ti  Ti151  1  0.59938449  0.01243099  0.01125917  1
  Ti  Ti152  1  -0.00436125  0.19970213  0.19851020  1
  Ti  Ti153  1  0.19374496  0.01367943  0.00592546  1
  Ti  Ti154  1  0.89437436  0.89818330  0.09806934  1
  Ti  Ti155  1  0.10386454  0.71033410  0.90835303  1
  Ti  Ti156  1  0.91024098  0.28563676  0.49943822  1
  Ti  Ti157  1  0.28841701  0.89632886  0.69864878  1
  Ti  Ti158  1  0.20093457  0.59950991  0.00629263  1
  Ti  Ti159  1  -0.00077174  0.00171398  -0.00035173  1
  Ti  Ti160  1  0.09263265  0.29330451  0.10251234  1
  Ti  Ti161  1  0.89791346  0.10222412  0.10336237  1
  Ti  Ti162  1  0.11098154  0.71283055  0.69456269  1
  Ti  Ti163  1  0.00293886  -0.00592571  0.80405526  1
  Ti  Ti164  1  0.89541335  0.29566659  0.90370411  1
  Ti  Ti165  1  0.49769974  0.28134225  0.29155148  1
  Ti  Ti166  1  0.49649557  0.90564051  0.10996726  1
  Ti  Ti167  1  0.80858066  0.80648811  0.40073521  1
  Ti  Ti168  1  0.40199578  0.19396322  0.39134258  1
  Ti  Ti169  1  0.70664768  0.49884363  0.89575629  1
  Ti  Ti170  1  0.50246607  0.30001113  0.69928966  1
  Ti  Ti171  1  0.49656275  0.69110414  0.70218827  1
  Ti  Ti172  1  0.30739913  0.70402299  0.29255656  1
  Ti  Ti173  1  0.40769885  0.19560346  0.00371489  1
  Ti  Ti174  1  0.20224182  0.60955181  0.39855124  1
  Ti  Ti175  1  0.79653688  0.20063947  0.00787258  1
  Ti  Ti176  1  0.60190068  0.18458852  0.38675943  1
  Ti  Ti177  1  0.40611312  0.39494893  0.39133460  1
  Ti  Ti178  1  0.90012996  0.29666129  0.29479890  1
  Ti  Ti179  1  0.49185916  0.90230739  0.28517951  1
  Ti  Ti180  1  -0.00801800  0.59753749  -0.00023674  1
  Ti  Ti181  1  0.80153175  0.79884722  -0.00277941  1
  Ti  Ti182  1  0.20048803  -0.00124492  0.39765454  1
  Ti  Ti183  1  0.59788966  0.01419498  0.19915919  1
  Ti  Ti184  1  0.89519245  0.50376048  0.90002942  1
  Ti  Ti185  1  0.29741132  0.70085678  0.90636627  1
  Ti  Ti186  1  0.69519579  0.69520194  0.49682651  1
  Ti  Ti187  1  0.00419481  0.19630403  0.81523393  1
  Ti  Ti188  1  0.29892618  0.89960793  0.50563044  1
  Ti  Ti189  1  0.31332836  0.49871419  0.10035352  1
  Ti  Ti190  1  0.19171594  -0.00620375  0.59611491  1
  Ti  Ti191  1  0.50095598  0.10266752  0.50029900  1
  Ti  Ti192  1  -0.00256583  0.40017763  0.19391820  1
  Ti  Ti193  1  0.89434539  0.29152963  0.10506122  1
  Ti  Ti194  1  0.40467640  0.59867529  -0.00060099  1
  Ti  Ti195  1  0.69703262  0.50104997  0.49360329  1
  Ti  Ti196  1  0.10038206  0.89056951  0.91149475  1
  Ti  Ti197  1  0.80403165  0.39704006  0.80445611  1
  Ti  Ti198  1  0.29758430  0.30612945  0.90913271  1
  Ti  Ti199  1  0.70454023  0.30076294  0.70228764  1
  Mo  Mo200  1  0.70837128  0.29544823  0.09402871  1
  Mo  Mo201  1  0.10612119  0.50260157  0.70165739  1
  Mo  Mo202  1  0.49942430  0.29528046  0.90968698  1
  Mo  Mo203  1  0.80167267  0.39921287  0.39428534  1
  Mo  Mo204  1  0.88571620  0.89825722  0.50228306  1
  Mo  Mo205  1  0.40148518  0.39917374  0.00127115  1
  Mo  Mo206  1  0.49370717  0.50181644  0.90182695  1
  Mo  Mo207  1  0.29804371  0.10027530  0.10320504  1
  Mo  Mo208  1  0.18774087  0.20003566  0.00477057  1
  Mo  Mo209  1  0.49925273  0.70247110  0.49235286  1
  Mo  Mo210  1  0.40134134  0.00366907  0.20028358  1
  Mo  Mo211  1  0.20211662  0.19550267  0.39319435  1
  Mo  Mo212  1  0.50229316  0.49769448  0.70317453  1
  Mo  Mo213  1  0.09126542  0.09907502  0.90846713  1
  Mo  Mo214  1  0.50349412  0.10052288  0.10230749  1
  Mo  Mo215  1  0.20072980  0.39252254  0.39909248  1
  Mo  Mo216  1  0.79928204  0.79528788  0.60042066  1
  Mo  Mo217  1  0.40138713  0.59905786  0.19810228  1
  Mo  Mo218  1  0.60429375  0.18708689  0.19731510  1
  Mo  Mo219  1  0.08871459  0.50738379  0.09546131  1
  Mo  Mo220  1  0.69822771  0.09686644  0.29390166  1
  Mo  Mo221  1  0.80025604  0.80088363  0.18853476  1
  Mo  Mo222  1  0.11514959  0.90893113  0.49433894  1
  Mo  Mo223  1  0.80388070  0.00151789  0.19062701  1
  Mo  Mo224  1  0.40001342  0.19457182  0.20473478  1
  Mo  Mo225  1  0.20486640  0.39911756  0.80529652  1
  Mo  Mo226  1  0.89867105  0.09443962  0.49946351  1
  Mo  Mo227  1  0.20133812  0.81426416  0.60295869  1
  Mo  Mo228  1  -0.00194835  0.19710081  0.39386939  1
  Mo  Mo229  1  0.19383451  0.80086393  0.80499164  1
  Mo  Mo230  1  0.39628476  0.80539582  0.60354650  1
  Mo  Mo231  1  0.89626205  0.89898184  0.29775176  1
  Mo  Mo232  1  0.20842926  0.78743184  -0.00243094  1
  Mo  Mo233  1  0.60542285  0.60987494  0.40237754  1
  Mo  Mo234  1  0.80187017  -0.00149238  0.40260668  1
  Mo  Mo235  1  -0.01056834  0.80340526  -0.00444884  1
  Mo  Mo236  1  0.70227726  0.10041123  0.70321709  1
  Mo  Mo237  1  0.89344732  0.50174026  0.09847448  1
  Mo  Mo238  1  0.02052463  0.60106778  0.60138800  1
  Mo  Mo239  1  0.80432908  -0.00066861  0.59859231  1
  Mo  Mo240  1  0.40038770  0.59491452  0.80203689  1
  Mo  Mo241  1  0.49798670  0.10587165  0.29027050  1
  Mo  Mo242  1  0.70020905  0.10308316  0.10357871  1
  Mo  Mo243  1  0.10399006  0.90610820  0.70023891  1
  Mo  Mo244  1  0.00290868  0.19762076  0.58727895  1
  Mo  Mo245  1  0.40646691  0.80386669  0.20037667  1
  Mo  Mo246  1  0.50271383  0.69742793  0.09990231  1
  Mo  Mo247  1  0.60287336  0.59521404  0.59974537  1
  Mo  Mo248  1  0.80169093  0.19837950  0.18867947  1
  Mo  Mo249  1  0.60218482  0.61288326  0.19058223  1
