# generated using pymatgen
data_HfZrTaTiMo
_symmetry_space_group_name_H-M   'P 1'
_cell_length_a   16.88177402
_cell_length_b   16.87694711
_cell_length_c   16.88728237
_cell_angle_alpha   89.99964776
_cell_angle_beta   89.99303443
_cell_angle_gamma   90.00716277
_symmetry_Int_Tables_number   1
_chemical_formula_structural   HfZrTaTiMo
_chemical_formula_sum   'Hf50 Zr50 Ta50 Ti50 Mo50'
_cell_volume   4811.40295380
_cell_formula_units_Z   50
loop_
 _symmetry_equiv_pos_site_id
 _symmetry_equiv_pos_as_xyz
  1  'x, y, z'
loop_
 _atom_site_type_symbol
 _atom_site_label
 _atom_site_symmetry_multiplicity
 _atom_site_fract_x
 _atom_site_fract_y
 _atom_site_fract_z
 _atom_site_occupancy
  Hf  Hf0  1  0.79468843  0.19622607  0.39090501  1
  Hf  Hf1  1  -0.01087739  0.80592419  0.21045923  1
  Hf  Hf2  1  0.70016439  0.49040238  0.10470528  1
  Hf  Hf3  1  0.00132351  0.39265285  0.60927473  1
  Hf  Hf4  1  0.29489820  0.09998900  0.30704663  1
  Hf  Hf5  1  0.19561104  0.01796258  -0.00224002  1
  Hf  Hf6  1  0.80452985  -0.00377871  0.38990699  1
  Hf  Hf7  1  0.59949079  -0.00598762  0.60862046  1
  Hf  Hf8  1  0.89043490  0.30316004  0.50297985  1
  Hf  Hf9  1  0.38636780  0.40147531  0.79838029  1
  Hf  Hf10  1  0.29896745  0.69560181  0.30791228  1
  Hf  Hf11  1  0.79935392  0.19714445  0.00245765  1
  Hf  Hf12  1  0.79099759  0.59765443  0.39840299  1
  Hf  Hf13  1  0.28565085  0.89330986  0.08628273  1
  Hf  Hf14  1  0.60275203  0.40887443  0.40052730  1
  Hf  Hf15  1  0.90330622  0.10012779  0.70274931  1
  Hf  Hf16  1  0.70475737  0.30338993  0.49912492  1
  Hf  Hf17  1  0.60494187  0.20620838  0.18853291  1
  Hf  Hf18  1  0.00439159  0.39663074  0.40426437  1
  Hf  Hf19  1  0.60121326  0.19726537  0.60151767  1
  Hf  Hf20  1  0.89756843  0.10083922  0.49995314  1
  Hf  Hf21  1  0.29428058  0.90152125  0.30355051  1
  Hf  Hf22  1  -0.00422761  0.00147049  -0.00577102  1
  Hf  Hf23  1  0.10099846  0.49222277  0.71181209  1
  Hf  Hf24  1  0.11524798  0.09404472  0.69340979  1
  Hf  Hf25  1  0.00262857  0.59624874  0.60455817  1
  Hf  Hf26  1  0.19300665  0.59682714  -0.00206502  1
  Hf  Hf27  1  0.91750032  0.69531209  0.48138831  1
  Hf  Hf28  1  0.80488594  0.80504147  0.39050632  1
  Hf  Hf29  1  0.10221433  0.10257216  0.30425173  1
  Hf  Hf30  1  0.48854467  0.89538196  0.71026030  1
  Hf  Hf31  1  0.60132998  0.40134342  0.60062013  1
  Hf  Hf32  1  0.59452522  0.79603497  0.40811171  1
  Hf  Hf33  1  0.49995022  0.30945249  0.29765345  1
  Hf  Hf34  1  0.30579122  0.69662937  0.09115243  1
  Hf  Hf35  1  0.90037792  0.29957530  0.29779157  1
  Hf  Hf36  1  0.00852151  0.79368103  0.59621514  1
  Hf  Hf37  1  0.49673236  0.29478638  0.70005370  1
  Hf  Hf38  1  0.09316528  0.89724825  0.09516429  1
  Hf  Hf39  1  0.39125582  0.40190989  0.60427799  1
  Hf  Hf40  1  0.07730920  0.68998137  0.32691133  1
  Hf  Hf41  1  0.69213859  0.09429766  0.29538731  1
  Hf  Hf42  1  0.49770529  0.50903280  0.50570885  1
  Hf  Hf43  1  0.69925714  0.89618142  0.50217883  1
  Hf  Hf44  1  0.70726547  0.30454044  0.89786865  1
  Hf  Hf45  1  0.19808031  0.20156308  0.80387411  1
  Hf  Hf46  1  0.29329732  0.89339640  0.70437224  1
  Hf  Hf47  1  0.90582230  0.10729681  0.90001924  1
  Hf  Hf48  1  0.39988443  0.60739132  0.79255376  1
  Hf  Hf49  1  0.89647743  0.70638323  0.08659530  1
  Zr  Zr50  1  0.29527286  0.71608783  0.89929120  1
  Zr  Zr51  1  0.30428433  0.69995313  0.51559294  1
  Zr  Zr52  1  0.09079952  0.70490344  0.08616531  1
  Zr  Zr53  1  0.79877271  -0.00944508  0.60338651  1
  Zr  Zr54  1  0.70313880  0.31654720  0.28694547  1
  Zr  Zr55  1  0.80839431  0.60767938  0.60519776  1
  Zr  Zr56  1  0.40315859  0.19901114  0.19582405  1
  Zr  Zr57  1  0.00714018  0.20396356  0.60425637  1
  Zr  Zr58  1  0.38817679  0.19917152  0.79919678  1
  Zr  Zr59  1  0.29607190  0.50254998  0.49940495  1
  Zr  Zr60  1  0.20408119  0.59890760  0.79540590  1
  Zr  Zr61  1  -0.00523321  0.59085064  0.19343674  1
  Zr  Zr62  1  0.89363511  0.49529473  0.30343313  1
  Zr  Zr63  1  0.60378168  0.59497838  0.00149977  1
  Zr  Zr64  1  0.50045356  0.69826190  0.29715097  1
  Zr  Zr65  1  0.50030600  0.51256702  0.69811662  1
  Zr  Zr66  1  0.20649230  0.19829341  0.18984095  1
  Zr  Zr67  1  0.07616643  0.11871518  0.09422959  1
  Zr  Zr68  1  0.00613595  -0.00559332  0.59806284  1
  Zr  Zr69  1  0.70627608  0.50656648  0.70363183  1
  Zr  Zr70  1  0.50116645  0.70821277  0.89829185  1
  Zr  Zr71  1  0.50110762  0.09229113  0.89750160  1
  Zr  Zr72  1  0.10033999  0.29974530  0.09505455  1
  Zr  Zr73  1  0.50842982  0.90232953  0.08455010  1
  Zr  Zr74  1  0.70879427  0.70642108  0.90335819  1
  Zr  Zr75  1  0.50120623  0.90307270  0.89450329  1
  Zr  Zr76  1  0.59394901  0.40636555  0.80852273  1
  Zr  Zr77  1  0.69924154  0.70354444  0.29054595  1
  Zr  Zr78  1  0.49775866  0.10174190  0.50430447  1
  Zr  Zr79  1  0.11879628  0.29332451  0.49648353  1
  Zr  Zr80  1  0.19437869  0.79636454  0.41690335  1
  Zr  Zr81  1  0.79774387  -0.00440343  0.80620223  1
  Zr  Zr82  1  -0.00979773  0.40427305  0.00145312  1
  Zr  Zr83  1  0.30072516  0.50147977  0.90453602  1
  Zr  Zr84  1  0.51023624  0.90717347  0.29617393  1
  Zr  Zr85  1  0.40359122  -0.00392816  0.40686290  1
  Zr  Zr86  1  0.39365326  0.00561087  0.18836653  1
  Zr  Zr87  1  0.49090631  0.29376795  0.90997625  1
  Zr  Zr88  1  0.71747134  0.30880753  0.70170242  1
  Zr  Zr89  1  0.90405170  0.88897044  0.70940170  1
  Zr  Zr90  1  0.19178308  0.79225704  0.20517540  1
  Zr  Zr91  1  0.70014764  0.89400524  0.09390378  1
  Zr  Zr92  1  0.09736250  0.90589610  0.30711092  1
  Zr  Zr93  1  0.40052483  0.80342965  0.19815816  1
  Zr  Zr94  1  0.60784619  0.19250232  0.80239944  1
  Zr  Zr95  1  0.11053583  0.88576008  0.89896674  1
  Zr  Zr96  1  0.39991880  0.58848324  0.20006846  1
  Zr  Zr97  1  0.29509134  0.30821878  0.30742837  1
  Zr  Zr98  1  0.19643903  0.59401567  0.20077005  1
  Zr  Zr99  1  0.28878024  0.10731553  0.50736152  1
  Ta  Ta100  1  0.50086786  0.10052739  0.08428350  1
  Ta  Ta101  1  0.61079788  0.19819505  0.00418926  1
  Ta  Ta102  1  -0.00368903  -0.00077373  0.40064721  1
  Ta  Ta103  1  0.60144604  0.59967977  0.40259451  1
  Ta  Ta104  1  0.80023250  0.19244083  0.18957238  1
  Ta  Ta105  1  0.80493054  0.00357638  0.19197773  1
  Ta  Ta106  1  0.89701609  0.89862580  0.09295303  1
  Ta  Ta107  1  0.80781123  0.59136611  0.00015418  1
  Ta  Ta108  1  0.89833893  0.69527095  0.29935903  1
  Ta  Ta109  1  0.10358967  0.70635000  0.70688468  1
  Ta  Ta110  1  0.00673027  0.20739826  0.79412794  1
  Ta  Ta111  1  0.79910431  0.00331854  0.00032220  1
  Ta  Ta112  1  0.00223760  0.19696132  0.40060889  1
  Ta  Ta113  1  0.89350969  0.49297006  0.50320002  1
  Ta  Ta114  1  0.30453686  0.30027514  0.08638710  1
  Ta  Ta115  1  0.80909803  0.60271732  0.80591017  1
  Ta  Ta116  1  0.49402124  0.30051626  0.49814596  1
  Ta  Ta117  1  0.49041024  0.08958993  0.70456851  1
  Ta  Ta118  1  0.40695694  0.60287957  0.40435364  1
  Ta  Ta119  1  0.39174714  -0.00715820  0.60233018  1
  Ta  Ta120  1  0.60352466  0.39349886  0.00532869  1
  Ta  Ta121  1  0.10475788  0.49119094  0.30576360  1
  Ta  Ta122  1  -0.00680178  0.59983683  0.80052348  1
  Ta  Ta123  1  0.59708855  0.20163950  0.39840279  1
  Ta  Ta124  1  0.40301332  0.20288557  0.40039344  1
  Ta  Ta125  1  0.09916943  0.30600623  0.89682729  1
  Ta  Ta126  1  0.89883602  0.88281412  0.90325688  1
  Ta  Ta127  1  0.01087765  -0.00051988  0.80574000  1
  Ta  Ta128  1  0.70490859  0.70510988  0.70570397  1
  Ta  Ta129  1  0.70027898  0.10028866  0.50010711  1
  Ta  Ta130  1  0.60020887  0.59580313  0.19760441  1
  Ta  Ta131  1  0.08902811  0.70112065  0.89612830  1
  Ta  Ta132  1  0.40229258  0.79987906  0.41304675  1
  Ta  Ta133  1  0.59820611  0.79531632  0.60726934  1
  Ta  Ta134  1  0.50077864  0.69852969  0.09073649  1
  Ta  Ta135  1  0.20154690  0.40507320  0.19336248  1
  Ta  Ta136  1  0.10423013  0.29971977  0.29950134  1
  Ta  Ta137  1  0.09261558  0.49673876  0.89686880  1
  Ta  Ta138  1  0.20097071  0.40045543  0.60701352  1
  Ta  Ta139  1  0.91266113  0.28148859  0.09998273  1
  Ta  Ta140  1  -0.00935821  0.00327204  0.19915259  1
  Ta  Ta141  1  0.00418892  0.39861436  0.19792558  1
  Ta  Ta142  1  0.19579076  0.00700239  0.18831163  1
  Ta  Ta143  1  0.70848492  0.49821942  0.90013090  1
  Ta  Ta144  1  0.79895833  0.60038212  0.19185167  1
  Ta  Ta145  1  0.19985135  0.39962037  -0.00292870  1
  Ta  Ta146  1  0.80460904  0.39701339  0.00189547  1
  Ta  Ta147  1  0.69945149  0.89461024  0.90433409  1
  Ta  Ta148  1  0.70342837  0.09808707  0.70014226  1
  Ta  Ta149  1  0.38722909  0.00364804  -0.00669903  1
  Ti  Ti150  1  0.60291081  0.60539160  0.80067646  1
  Ti  Ti151  1  0.39526091  0.40274435  0.19562987  1
  Ti  Ti152  1  0.19991676  -0.00379059  0.41340270  1
  Ti  Ti153  1  0.61345413  -0.00211113  0.79736566  1
  Ti  Ti154  1  0.59893561  0.00171857  0.40690233  1
  Ti  Ti155  1  0.19823489  0.59950103  0.60652330  1
  Ti  Ti156  1  0.70773318  0.49971372  0.50801189  1
  Ti  Ti157  1  0.90390815  0.89429723  0.49783614  1
  Ti  Ti158  1  0.49411207  0.89247095  0.51242271  1
  Ti  Ti159  1  0.89545168  0.48461307  0.70901499  1
  Ti  Ti160  1  0.29854023  0.09151303  0.69651991  1
  Ti  Ti161  1  0.39469529  0.19977470  0.60185161  1
  Ti  Ti162  1  0.79961712  0.79704736  0.60435773  1
  Ti  Ti163  1  0.80301704  0.80412443  0.20054054  1
  Ti  Ti164  1  0.30306870  0.71093751  0.69689731  1
  Ti  Ti165  1  0.30416216  0.49746987  0.09326983  1
  Ti  Ti166  1  0.40065714  0.40494965  0.40338879  1
  Ti  Ti167  1  0.59738583  0.79546068  0.19162316  1
  Ti  Ti168  1  0.28752331  0.29900788  0.69834276  1
  Ti  Ti169  1  0.39989504  0.80869678  -0.00688903  1
  Ti  Ti170  1  0.09492771  0.49824474  0.09467452  1
  Ti  Ti171  1  0.50325024  0.09981929  0.29771951  1
  Ti  Ti172  1  0.49697212  0.50443931  0.90774667  1
  Ti  Ti173  1  0.29895936  0.29854686  0.49685424  1
  Ti  Ti174  1  0.90202311  0.30563457  0.88871567  1
  Ti  Ti175  1  0.70107511  0.70142785  0.50468729  1
  Ti  Ti176  1  0.80045146  0.19894550  0.60599567  1
  Ti  Ti177  1  0.49833409  0.49558075  0.09773120  1
  Ti  Ti178  1  0.30055433  0.11212056  0.90866775  1
  Ti  Ti179  1  0.59752212  0.61589075  0.59981247  1
  Ti  Ti180  1  0.81590700  0.39653285  0.18101986  1
  Ti  Ti181  1  0.39925436  0.40047040  -0.00087296  1
  Ti  Ti182  1  0.90505661  0.10309764  0.29379474  1
  Ti  Ti183  1  0.80384397  0.19956373  0.79907110  1
  Ti  Ti184  1  0.70037528  0.70241989  0.09496852  1
  Ti  Ti185  1  0.69454790  0.90350007  0.29130593  1
  Ti  Ti186  1  0.10896047  0.89456795  0.70484168  1
  Ti  Ti187  1  0.49803709  0.30401116  0.09662312  1
  Ti  Ti188  1  0.50237013  0.49876782  0.29752072  1
  Ti  Ti189  1  0.10583092  0.90001944  0.50647334  1
  Ti  Ti190  1  0.10752360  0.10102049  0.50109592  1
  Ti  Ti191  1  0.20573299  0.00288791  0.81114523  1
  Ti  Ti192  1  0.29539419  0.49715445  0.30849721  1
  Ti  Ti193  1  0.19465639  0.59811437  0.40752320  1
  Ti  Ti194  1  0.10234956  0.50013342  0.49982072  1
  Ti  Ti195  1  0.69932433  0.49624052  0.28986857  1
  Ti  Ti196  1  0.90294522  0.70777086  0.71384343  1
  Ti  Ti197  1  0.90104902  0.50043833  0.89760201  1
  Ti  Ti198  1  0.60242437  0.00974834  0.18238049  1
  Ti  Ti199  1  0.60703594  0.80183392  0.79360511  1
  Mo  Mo200  1  -0.00490973  0.79987777  -0.00607595  1
  Mo  Mo201  1  0.29322514  0.30300658  0.90781999  1
  Mo  Mo202  1  -0.00432381  0.59760135  -0.01186002  1
  Mo  Mo203  1  0.89730907  0.09777487  0.09920510  1
  Mo  Mo204  1  0.10624016  0.30232897  0.70573870  1
  Mo  Mo205  1  0.90114467  0.29850533  0.70770671  1
  Mo  Mo206  1  0.19371388  0.79824060  0.60601049  1
  Mo  Mo207  1  0.79386644  0.40707658  0.40576077  1
  Mo  Mo208  1  0.20199484  0.20828968  -0.00770909  1
  Mo  Mo209  1  0.58603130  0.40737981  0.19326015  1
  Mo  Mo210  1  0.20799769  0.20443597  0.60648910  1
  Mo  Mo211  1  0.80411119  0.40378890  0.60558571  1
  Mo  Mo212  1  0.30394835  0.10482444  0.09104335  1
  Mo  Mo213  1  0.61232091  0.00897353  -0.00874659  1
  Mo  Mo214  1  -0.00211550  0.20718720  -0.02109198  1
  Mo  Mo215  1  -0.00469258  0.20222374  0.21607796  1
  Mo  Mo216  1  0.40703532  0.79916894  0.60350308  1
  Mo  Mo217  1  0.00163685  0.57816093  0.40736809  1
  Mo  Mo218  1  0.69854576  0.09606738  0.09709714  1
  Mo  Mo219  1  0.19738934  0.39591352  0.80195864  1
  Mo  Mo220  1  0.29956999  0.89786617  0.50961238  1
  Mo  Mo221  1  0.50163166  0.69757396  0.50619498  1
  Mo  Mo222  1  0.10301094  0.68900850  0.51174385  1
  Mo  Mo223  1  0.80022162  0.79595418  0.80225357  1
  Mo  Mo224  1  0.39681896  0.80059682  0.79793168  1
  Mo  Mo225  1  0.80838417  0.40806849  0.80865078  1
  Mo  Mo226  1  0.90373438  0.69470267  0.89942989  1
  Mo  Mo227  1  0.89718112  0.49974580  0.09820739  1
  Mo  Mo228  1  0.30084905  0.90665936  0.89576393  1
  Mo  Mo229  1  0.50652124  0.70544259  0.70077833  1
  Mo  Mo230  1  0.40031888  0.19836512  0.00191232  1
  Mo  Mo231  1  0.38085347  0.00376840  0.80204414  1
  Mo  Mo232  1  0.29412940  0.50219300  0.69556116  1
  Mo  Mo233  1  0.70426701  0.09698913  0.89809651  1
  Mo  Mo234  1  0.20134472  0.40392893  0.39925565  1
  Mo  Mo235  1  0.70712417  0.30218414  0.09535059  1
  Mo  Mo236  1  0.20137028  -0.00990253  0.59540482  1
  Mo  Mo237  1  0.00159525  0.79621219  0.79820701  1
  Mo  Mo238  1  0.89800637  0.90618586  0.29284919  1
  Mo  Mo239  1  0.39960089  0.60744957  0.60493649  1
  Mo  Mo240  1  0.20087208  0.20080939  0.39867693  1
  Mo  Mo241  1  -0.00417824  0.39901872  0.80321985  1
  Mo  Mo242  1  0.69749086  0.89150742  0.70365393  1
  Mo  Mo243  1  0.40789205  0.59386794  0.00147905  1
  Mo  Mo244  1  0.09838631  0.10683434  0.89265149  1
  Mo  Mo245  1  0.19674986  0.79459395  -0.00249482  1
  Mo  Mo246  1  0.60082260  0.79811639  0.00122305  1
  Mo  Mo247  1  -0.00291403  0.81675485  0.40501978  1
  Mo  Mo248  1  0.79972071  0.80043590  -0.00144136  1
  Mo  Mo249  1  0.19848220  0.79694315  0.79773433  1
