# generated using pymatgen
data_HfZrTaTiMo
_symmetry_space_group_name_H-M   'P 1'
_cell_length_a   16.88653562
_cell_length_b   16.88239525
_cell_length_c   16.87732706
_cell_angle_alpha   90.01275497
_cell_angle_beta   90.01956024
_cell_angle_gamma   89.95308050
_symmetry_Int_Tables_number   1
_chemical_formula_structural   HfZrTaTiMo
_chemical_formula_sum   'Hf50 Zr50 Ta50 Ti50 Mo50'
_cell_volume   4811.47361875
_cell_formula_units_Z   50
loop_
 _symmetry_equiv_pos_site_id
 _symmetry_equiv_pos_as_xyz
  1  'x, y, z'
loop_
 _atom_site_type_symbol
 _atom_site_label
 _atom_site_symmetry_multiplicity
 _atom_site_fract_x
 _atom_site_fract_y
 _atom_site_fract_z
 _atom_site_occupancy
  Hf  Hf0  1  0.49492474  0.09604280  0.50067571  1
  Hf  Hf1  1  0.80320323  0.60344266  0.20378572  1
  Hf  Hf2  1  0.29973387  0.70157320  0.69492533  1
  Hf  Hf3  1  0.10626108  0.90445005  0.51263982  1
  Hf  Hf4  1  0.00260053  0.40503936  0.41489135  1
  Hf  Hf5  1  0.29328075  0.50379023  0.49024293  1
  Hf  Hf6  1  0.20324469  0.59709395  0.79609792  1
  Hf  Hf7  1  0.49656858  0.69718354  0.50606691  1
  Hf  Hf8  1  0.19372128  0.80962100  0.80271550  1
  Hf  Hf9  1  0.10156708  0.69922481  0.90247439  1
  Hf  Hf10  1  0.79629902  0.39472603  -0.00001263  1
  Hf  Hf11  1  0.70761936  0.29749419  0.50362887  1
  Hf  Hf12  1  0.69866462  0.70595302  0.89913305  1
  Hf  Hf13  1  0.80140504  0.79646620  0.20813714  1
  Hf  Hf14  1  0.79959854  0.59963546  0.60050927  1
  Hf  Hf15  1  0.10584217  0.09318418  0.69266946  1
  Hf  Hf16  1  0.90693365  0.49540675  0.10756428  1
  Hf  Hf17  1  0.70005395  0.89866320  0.50776971  1
  Hf  Hf18  1  0.10134784  0.70480367  0.10189942  1
  Hf  Hf19  1  0.60553202  0.19687269  0.40457620  1
  Hf  Hf20  1  0.60086991  0.79494273  0.40219443  1
  Hf  Hf21  1  0.29230883  0.69647884  0.30114396  1
  Hf  Hf22  1  0.38658200  0.00190224  0.19815338  1
  Hf  Hf23  1  0.09928282  0.70100614  0.30826580  1
  Hf  Hf24  1  0.00626010  0.39905217  -0.00028461  1
  Hf  Hf25  1  0.20127486  0.19642378  -0.00274355  1
  Hf  Hf26  1  0.49718534  0.09895021  0.29560813  1
  Hf  Hf27  1  0.18886678  0.59684372  0.59576449  1
  Hf  Hf28  1  0.91154854  0.70404371  0.50868526  1
  Hf  Hf29  1  0.40284829  0.40445892  0.00041042  1
  Hf  Hf30  1  0.59538066  0.39647992  0.39710198  1
  Hf  Hf31  1  0.79646158  0.39247393  0.79998920  1
  Hf  Hf32  1  0.39684748  0.80079335  0.80173166  1
  Hf  Hf33  1  0.50149408  0.10195129  0.10194957  1
  Hf  Hf34  1  0.39608590  0.80988086  0.59677338  1
  Hf  Hf35  1  0.39248610  0.80067730  0.19327076  1
  Hf  Hf36  1  0.49792644  0.29253905  0.29250400  1
  Hf  Hf37  1  0.59395990  0.59339152  0.00826136  1
  Hf  Hf38  1  0.10596390  0.30364935  0.11041058  1
  Hf  Hf39  1  0.19819946  0.18536304  0.21452689  1
  Hf  Hf40  1  0.79836555  0.79350446  0.40427739  1
  Hf  Hf41  1  0.80227265  0.60642297  0.40507998  1
  Hf  Hf42  1  0.40351335  0.40091465  0.39874357  1
  Hf  Hf43  1  0.90216615  0.09643948  0.69916100  1
  Hf  Hf44  1  0.29330269  0.29869736  0.69655543  1
  Hf  Hf45  1  0.49464777  0.29595848  0.69936158  1
  Hf  Hf46  1  0.70119594  0.50111489  0.89895766  1
  Hf  Hf47  1  0.29237047  0.10069256  0.50710696  1
  Hf  Hf48  1  0.00341525  0.81605347  -0.01243570  1
  Hf  Hf49  1  0.69888268  0.49481321  0.49771839  1
  Zr  Zr50  1  0.89807131  0.70706325  0.89594605  1
  Zr  Zr51  1  0.89830949  0.89999100  0.10083743  1
  Zr  Zr52  1  0.50289399  0.90046101  0.09704006  1
  Zr  Zr53  1  0.90409699  0.29783367  0.10895910  1
  Zr  Zr54  1  0.00146198  0.00441199  0.40709713  1
  Zr  Zr55  1  0.00630191  0.20027016  -0.00434495  1
  Zr  Zr56  1  0.10406194  0.50839170  0.31269586  1
  Zr  Zr57  1  0.60292132  0.00520720  0.60850355  1
  Zr  Zr58  1  0.30215209  0.29662737  0.10801474  1
  Zr  Zr59  1  0.09271730  0.71278393  0.68747901  1
  Zr  Zr60  1  0.59895987  0.39765328  0.79650637  1
  Zr  Zr61  1  0.40134939  0.80191124  0.39971917  1
  Zr  Zr62  1  0.20205357  0.00723032  0.39028545  1
  Zr  Zr63  1  0.40208819  0.41535762  0.20015834  1
  Zr  Zr64  1  0.90674014  0.29774050  0.69666656  1
  Zr  Zr65  1  0.49404537  0.90142856  0.90397119  1
  Zr  Zr66  1  0.09302754  0.47731511  0.70243925  1
  Zr  Zr67  1  0.90036806  0.70970566  0.70219376  1
  Zr  Zr68  1  0.59264841  0.59865707  0.79515586  1
  Zr  Zr69  1  0.89715757  0.90138141  0.30753696  1
  Zr  Zr70  1  0.29970976  0.49368893  0.69447255  1
  Zr  Zr71  1  0.10354989  0.08887854  0.89525422  1
  Zr  Zr72  1  0.59770396  0.80667543  0.80021340  1
  Zr  Zr73  1  0.79644823  0.20360784  -0.00873774  1
  Zr  Zr74  1  0.69842057  0.70882108  0.09625910  1
  Zr  Zr75  1  0.79699388  0.40186656  0.20698561  1
  Zr  Zr76  1  0.50034322  0.70428250  0.09825449  1
  Zr  Zr77  1  0.80424268  0.59464982  0.00384675  1
  Zr  Zr78  1  0.59733190  0.39942386  0.00083694  1
  Zr  Zr79  1  0.60597368  0.19497847  0.79271537  1
  Zr  Zr80  1  0.10597818  0.49632751  0.90046167  1
  Zr  Zr81  1  0.00511712  0.00509244  0.20343177  1
  Zr  Zr82  1  0.69848100  0.10152494  0.09742260  1
  Zr  Zr83  1  0.90083566  0.09989448  0.09909619  1
  Zr  Zr84  1  0.89521619  0.29350178  0.49853789  1
  Zr  Zr85  1  0.19890002  0.59482380  0.19553879  1
  Zr  Zr86  1  0.38888376  0.18951985  -0.00164738  1
  Zr  Zr87  1  0.10506573  0.89076150  0.29190330  1
  Zr  Zr88  1  0.49230156  0.09427404  0.89160928  1
  Zr  Zr89  1  0.50276719  0.28676513  0.10371703  1
  Zr  Zr90  1  0.20800508  0.81037966  0.00218593  1
  Zr  Zr91  1  0.89538599  0.10820326  0.30914898  1
  Zr  Zr92  1  0.29258644  0.29743899  0.50297932  1
  Zr  Zr93  1  0.61322123  -0.00563708  -0.00933680  1
  Zr  Zr94  1  0.60253667  0.59984841  0.60275985  1
  Zr  Zr95  1  -0.00099295  -0.02506404  0.79780333  1
  Zr  Zr96  1  -0.00077989  0.59856006  0.79633436  1
  Zr  Zr97  1  0.40255663  0.41031171  0.79870335  1
  Zr  Zr98  1  0.29588348  0.29814323  0.30252295  1
  Zr  Zr99  1  0.60474575  0.00106527  0.39859393  1
  Ta  Ta100  1  0.90503832  0.49349395  0.89320286  1
  Ta  Ta101  1  0.79713819  0.00230874  0.60593564  1
  Ta  Ta102  1  0.49911264  0.50172363  0.49702741  1
  Ta  Ta103  1  0.60127242  0.19500356  0.59959337  1
  Ta  Ta104  1  0.29543945  0.50503388  0.09357707  1
  Ta  Ta105  1  0.10444846  0.10465036  0.50497807  1
  Ta  Ta106  1  0.00563382  0.59483118  0.00814093  1
  Ta  Ta107  1  0.50687133  0.51273074  0.29748584  1
  Ta  Ta108  1  0.79838906  0.59412361  0.79174425  1
  Ta  Ta109  1  0.29532297  0.89451803  0.29664219  1
  Ta  Ta110  1  0.49226030  0.69658591  0.70254360  1
  Ta  Ta111  1  0.80429076  -0.00536946  -0.01139752  1
  Ta  Ta112  1  0.49174830  0.28990058  0.89454151  1
  Ta  Ta113  1  0.78852541  0.00260731  0.20689113  1
  Ta  Ta114  1  0.01331293  0.20373991  0.39792451  1
  Ta  Ta115  1  0.60043447  0.60497756  0.40341855  1
  Ta  Ta116  1  0.40032902  0.59937531  -0.00105734  1
  Ta  Ta117  1  0.60183183  0.41039037  0.19615815  1
  Ta  Ta118  1  0.40016604  0.59891247  0.39458781  1
  Ta  Ta119  1  0.90670256  0.29688487  0.89038053  1
  Ta  Ta120  1  0.29962365  0.10056573  0.69878293  1
  Ta  Ta121  1  0.69568800  0.29774149  0.10551944  1
  Ta  Ta122  1  0.79176568  0.01001932  0.40945045  1
  Ta  Ta123  1  0.49805073  0.90142813  0.29769172  1
  Ta  Ta124  1  0.00011296  0.80154457  0.40716546  1
  Ta  Ta125  1  0.79581131  0.20097976  0.21023997  1
  Ta  Ta126  1  0.29922278  0.30158729  0.89103147  1
  Ta  Ta127  1  0.00815425  0.20243201  0.21225728  1
  Ta  Ta128  1  0.20326444  0.80269023  0.41037603  1
  Ta  Ta129  1  0.39649378  0.19644054  0.40191026  1
  Ta  Ta130  1  0.69567414  0.50654869  0.30127902  1
  Ta  Ta131  1  0.20308955  0.40123456  0.00119950  1
  Ta  Ta132  1  0.71038485  0.09389069  0.88756183  1
  Ta  Ta133  1  0.70299296  0.70862313  0.70295163  1
  Ta  Ta134  1  0.00358233  0.19788500  0.59517257  1
  Ta  Ta135  1  0.10141589  0.09521669  0.10165159  1
  Ta  Ta136  1  0.29202724  0.90994897  0.69528893  1
  Ta  Ta137  1  0.30177821  0.69305436  0.90104762  1
  Ta  Ta138  1  -0.00339706  0.60384283  0.20193556  1
  Ta  Ta139  1  0.70640502  0.29619635  0.68659561  1
  Ta  Ta140  1  0.90468620  0.49030319  0.69886685  1
  Ta  Ta141  1  0.90670302  0.50740646  0.30965752  1
  Ta  Ta142  1  0.20053795  0.19926662  0.79893189  1
  Ta  Ta143  1  0.29628991  0.69799529  0.50197528  1
  Ta  Ta144  1  0.40421091  0.20024198  0.59676815  1
  Ta  Ta145  1  0.89734107  0.90726372  0.50824920  1
  Ta  Ta146  1  0.60161812  0.80505346  0.20626697  1
  Ta  Ta147  1  0.89905951  0.09585567  0.88958480  1
  Ta  Ta148  1  0.61027113  -0.00240346  0.79150228  1
  Ta  Ta149  1  0.29995142  0.91502410  0.89284045  1
  Ti  Ti150  1  0.70556264  0.30070085  0.30464788  1
  Ti  Ti151  1  0.58963320  0.39554873  0.59778621  1
  Ti  Ti152  1  0.10511778  0.90208601  0.10336347  1
  Ti  Ti153  1  0.90266712  0.30186125  0.30590822  1
  Ti  Ti154  1  -0.00758005  0.82411192  0.61038855  1
  Ti  Ti155  1  0.49374976  0.90611842  0.70151751  1
  Ti  Ti156  1  0.20387720  0.00061992  0.00387539  1
  Ti  Ti157  1  -0.00751710  0.79341454  0.20464361  1
  Ti  Ti158  1  0.89828258  0.10377954  0.50425548  1
  Ti  Ti159  1  0.00722249  0.19887743  0.79865603  1
  Ti  Ti160  1  0.90413607  0.70451825  0.09317352  1
  Ti  Ti161  1  0.30198022  0.09416567  0.88204205  1
  Ti  Ti162  1  0.49371937  0.50883384  0.89632354  1
  Ti  Ti163  1  0.48616322  0.09824220  0.70348873  1
  Ti  Ti164  1  0.20047188  0.40864025  0.20540846  1
  Ti  Ti165  1  0.39967828  0.59759523  0.19650563  1
  Ti  Ti166  1  0.18738366  0.39984101  0.58952208  1
  Ti  Ti167  1  0.70068841  0.49130351  0.69492275  1
  Ti  Ti168  1  0.39448725  0.79842078  -0.00403499  1
  Ti  Ti169  1  0.79586856  0.80468891  0.60602426  1
  Ti  Ti170  1  0.29524202  0.69580086  0.09347381  1
  Ti  Ti171  1  0.79703013  0.19981050  0.79547659  1
  Ti  Ti172  1  0.40173405  0.59238291  0.60156995  1
  Ti  Ti173  1  0.10234700  0.29722315  0.69900237  1
  Ti  Ti174  1  0.39521968  -0.00293573  0.59791215  1
  Ti  Ti175  1  0.61395814  0.19712775  0.20892677  1
  Ti  Ti176  1  0.10542919  0.30595113  0.88696522  1
  Ti  Ti177  1  0.50267943  0.69676933  0.29394149  1
  Ti  Ti178  1  0.79817049  0.81375734  -0.01028458  1
  Ti  Ti179  1  0.39226896  -0.00475845  0.39862012  1
  Ti  Ti180  1  0.09969116  0.70252430  0.49979945  1
  Ti  Ti181  1  0.01059623  0.40238853  0.21352274  1
  Ti  Ti182  1  0.19376024  0.39791411  0.39714210  1
  Ti  Ti183  1  0.50038316  0.90410578  0.49918231  1
  Ti  Ti184  1  -0.00058087  -0.00472842  -0.00500838  1
  Ti  Ti185  1  0.60702747  -0.00363953  0.20339434  1
  Ti  Ti186  1  0.40918236  0.39974364  0.59192732  1
  Ti  Ti187  1  0.29739209  0.50216330  0.90097262  1
  Ti  Ti188  1  0.81070759  0.40707367  0.59651420  1
  Ti  Ti189  1  0.10899594  0.90642865  0.69221129  1
  Ti  Ti190  1  0.70084006  0.89691096  0.09830548  1
  Ti  Ti191  1  0.20522517  0.00159895  0.19562871  1
  Ti  Ti192  1  0.59831182  0.80105093  0.60769898  1
  Ti  Ti193  1  0.38248685  0.00070596  0.00919194  1
  Ti  Ti194  1  0.10454982  0.29340197  0.50333378  1
  Ti  Ti195  1  0.69019656  0.69442292  0.29737470  1
  Ti  Ti196  1  0.69941762  0.90075211  0.30265525  1
  Ti  Ti197  1  0.60742512  0.20315137  -0.01414527  1
  Ti  Ti198  1  0.80514058  0.40556270  0.39732784  1
  Ti  Ti199  1  0.00094021  0.57672519  0.58527308  1
  Mo  Mo200  1  0.39234271  0.18639026  0.20782432  1
  Mo  Mo201  1  0.00306727  0.39075524  0.59846864  1
  Mo  Mo202  1  -0.00126310  0.60468660  0.40662035  1
  Mo  Mo203  1  0.09941098  0.10149601  0.30320074  1
  Mo  Mo204  1  0.20450884  0.00131350  0.59949908  1
  Mo  Mo205  1  0.60145047  0.60270625  0.20550612  1
  Mo  Mo206  1  0.91039396  0.69775491  0.30675837  1
  Mo  Mo207  1  0.30405165  0.50425750  0.29943948  1
  Mo  Mo208  1  0.70781618  0.10360023  0.50526106  1
  Mo  Mo209  1  0.40080676  0.60387878  0.80602223  1
  Mo  Mo210  1  0.79900710  -0.00391787  0.79642322  1
  Mo  Mo211  1  0.49020998  0.69772156  0.90095740  1
  Mo  Mo212  1  0.49484593  0.50851186  0.10432337  1
  Mo  Mo213  1  0.29711327  0.90202529  0.09655672  1
  Mo  Mo214  1  -0.00106639  0.38953611  0.80204939  1
  Mo  Mo215  1  0.79766826  0.80949990  0.79695424  1
  Mo  Mo216  1  0.70931841  0.10250455  0.69884525  1
  Mo  Mo217  1  0.00173630  0.80638926  0.79620576  1
  Mo  Mo218  1  0.69955511  0.29206674  0.89730389  1
  Mo  Mo219  1  -0.00542353  0.00269790  0.59852850  1
  Mo  Mo220  1  0.89890062  0.49846877  0.50216263  1
  Mo  Mo221  1  0.20187297  0.60773293  0.40688753  1
  Mo  Mo222  1  0.10186672  0.49547294  0.50023843  1
  Mo  Mo223  1  0.69735714  0.49610632  0.10760602  1
  Mo  Mo224  1  0.10111547  0.49746055  0.10381292  1
  Mo  Mo225  1  0.60560270  0.80074569  0.00175998  1
  Mo  Mo226  1  0.39970024  -0.00190614  0.78642244  1
  Mo  Mo227  1  0.70250712  0.89858650  0.70037055  1
  Mo  Mo228  1  0.69657171  0.70485807  0.51081989  1
  Mo  Mo229  1  0.29891987  0.90153524  0.49903921  1
  Mo  Mo230  1  0.20410969  0.80270379  0.19715960  1
  Mo  Mo231  1  0.39300971  0.19588855  0.79370286  1
  Mo  Mo232  1  0.49923962  0.29711974  0.50443691  1
  Mo  Mo233  1  0.19502440  0.20163663  0.60442918  1
  Mo  Mo234  1  0.20333000  0.80337401  0.59519202  1
  Mo  Mo235  1  0.89392443  0.90220903  0.89390576  1
  Mo  Mo236  1  0.88842179  0.90050776  0.69760973  1
  Mo  Mo237  1  0.20241035  0.39228289  0.80730264  1
  Mo  Mo238  1  0.20373097  0.00128592  0.79706241  1
  Mo  Mo239  1  0.49656732  0.50095934  0.68703166  1
  Mo  Mo240  1  0.30373260  0.09667576  0.30664600  1
  Mo  Mo241  1  0.29030312  0.09465252  0.10244491  1
  Mo  Mo242  1  0.10800118  0.90401475  0.90438031  1
  Mo  Mo243  1  0.70046160  0.10117727  0.30024495  1
  Mo  Mo244  1  0.20548502  0.59779136  0.00024731  1
  Mo  Mo245  1  0.80103198  0.20095702  0.39949404  1
  Mo  Mo246  1  0.10067466  0.30492371  0.30463225  1
  Mo  Mo247  1  0.79869627  0.19020900  0.59941491  1
  Mo  Mo248  1  0.19454949  0.20109149  0.40435179  1
  Mo  Mo249  1  0.70568545  0.89993937  0.89468583  1
