# generated using pymatgen
data_HfZrTaTiMo
_symmetry_space_group_name_H-M   'P 1'
_cell_length_a   16.88401331
_cell_length_b   16.88792512
_cell_length_c   16.88910211
_cell_angle_alpha   89.98535418
_cell_angle_beta   90.01120288
_cell_angle_gamma   89.98620551
_symmetry_Int_Tables_number   1
_chemical_formula_structural   HfZrTaTiMo
_chemical_formula_sum   'Hf50 Zr50 Ta50 Ti50 Mo50'
_cell_volume   4815.68982675
_cell_formula_units_Z   50
loop_
 _symmetry_equiv_pos_site_id
 _symmetry_equiv_pos_as_xyz
  1  'x, y, z'
loop_
 _atom_site_type_symbol
 _atom_site_label
 _atom_site_symmetry_multiplicity
 _atom_site_fract_x
 _atom_site_fract_y
 _atom_site_fract_z
 _atom_site_occupancy
  Hf  Hf0  1  0.70851133  0.69541728  0.49088843  1
  Hf  Hf1  1  0.00299913  0.79260735  0.39764782  1
  Hf  Hf2  1  0.10827050  0.31160419  0.11026024  1
  Hf  Hf3  1  0.40205747  -0.00473740  0.00757272  1
  Hf  Hf4  1  0.40361140  0.00647129  0.79566720  1
  Hf  Hf5  1  0.39950147  0.21384563  0.20083500  1
  Hf  Hf6  1  0.60748950  0.79132360  0.59841054  1
  Hf  Hf7  1  0.79739073  0.39677010  0.59325701  1
  Hf  Hf8  1  0.10825965  0.69714353  0.49916181  1
  Hf  Hf9  1  0.59929033  0.39346818  -0.00047463  1
  Hf  Hf10  1  0.19791943  0.00423430  0.59588432  1
  Hf  Hf11  1  -0.01039126  0.40154968  0.20376397  1
  Hf  Hf12  1  0.19290035  0.59945100  0.00656649  1
  Hf  Hf13  1  0.19232627  0.20600037  0.39701489  1
  Hf  Hf14  1  0.80282928  0.39622286  0.19844782  1
  Hf  Hf15  1  0.89202803  0.89802425  0.49539130  1
  Hf  Hf16  1  0.40842624  0.79387122  0.39370047  1
  Hf  Hf17  1  0.69297355  0.10121273  0.49322576  1
  Hf  Hf18  1  0.40132759  0.60833287  0.20921737  1
  Hf  Hf19  1  0.00836167  -0.00445096  0.20159290  1
  Hf  Hf20  1  0.28899967  0.29453535  0.69614673  1
  Hf  Hf21  1  0.89445531  0.90653546  0.09511560  1
  Hf  Hf22  1  0.00029586  0.60091577  0.20407973  1
  Hf  Hf23  1  0.00184058  0.39181302  0.40381854  1
  Hf  Hf24  1  0.30780332  0.89936478  0.69096101  1
  Hf  Hf25  1  0.30187985  0.89442440  0.50295734  1
  Hf  Hf26  1  0.49428795  0.50852584  0.90722446  1
  Hf  Hf27  1  0.29945082  0.10123330  0.89592914  1
  Hf  Hf28  1  0.79464094  0.59541669  0.60494792  1
  Hf  Hf29  1  0.30070249  0.10816983  0.50531727  1
  Hf  Hf30  1  0.10678700  0.11085753  0.69601327  1
  Hf  Hf31  1  0.69903743  0.50038247  0.30938062  1
  Hf  Hf32  1  0.09843390  0.49865779  0.70565059  1
  Hf  Hf33  1  -0.00006262  0.00433086  0.79596215  1
  Hf  Hf34  1  0.39739514  0.38984621  0.00947861  1
  Hf  Hf35  1  0.90436046  0.50719732  0.89772902  1
  Hf  Hf36  1  0.60123846  0.60791669  0.20416583  1
  Hf  Hf37  1  0.29152964  0.90303522  0.89228290  1
  Hf  Hf38  1  0.70401509  0.10255420  0.09737415  1
  Hf  Hf39  1  0.69899790  0.28753480  0.89461944  1
  Hf  Hf40  1  0.49959168  0.68151400  0.49087704  1
  Hf  Hf41  1  0.70819976  0.90356176  0.29968240  1
  Hf  Hf42  1  0.49917323  0.69205932  0.90734095  1
  Hf  Hf43  1  0.20407231  0.78150000  0.80282307  1
  Hf  Hf44  1  0.59992817  0.79714614  0.39237922  1
  Hf  Hf45  1  0.89171104  0.10026011  0.90216127  1
  Hf  Hf46  1  -0.00166268  0.80034958  0.59742333  1
  Hf  Hf47  1  0.09918849  0.30718194  0.69652201  1
  Hf  Hf48  1  -0.00332169  0.39926129  0.00181623  1
  Hf  Hf49  1  0.80493506  0.59765219  0.19887320  1
  Zr  Zr50  1  0.59575111  0.20773687  0.60897695  1
  Zr  Zr51  1  0.10968014  0.90214571  0.70133536  1
  Zr  Zr52  1  0.61466003  0.58583020  0.78624883  1
  Zr  Zr53  1  0.77523361  0.42330701  0.80253158  1
  Zr  Zr54  1  0.28770645  0.70422552  0.30993972  1
  Zr  Zr55  1  0.40352199  0.20510219  0.00513605  1
  Zr  Zr56  1  0.11248625  0.48167912  0.29903045  1
  Zr  Zr57  1  0.40203248  0.80528093  0.19355002  1
  Zr  Zr58  1  0.39819787  0.39770859  0.79536180  1
  Zr  Zr59  1  0.50752679  0.90235233  0.89490028  1
  Zr  Zr60  1  0.39561294  0.21160083  0.39282981  1
  Zr  Zr61  1  0.70688813  0.89953317  0.69276050  1
  Zr  Zr62  1  0.50666762  0.09903172  0.10633158  1
  Zr  Zr63  1  0.00341151  0.78949654  0.19621828  1
  Zr  Zr64  1  0.49161743  0.69498896  0.68690590  1
  Zr  Zr65  1  0.29557441  0.90200428  0.29702223  1
  Zr  Zr66  1  0.00119247  0.80319653  0.80476570  1
  Zr  Zr67  1  0.89546309  0.09532646  0.09953087  1
  Zr  Zr68  1  0.59028034  0.39822376  0.79129950  1
  Zr  Zr69  1  0.00129144  0.20593179  0.20796612  1
  Zr  Zr70  1  0.50724508  0.91281020  0.29208328  1
  Zr  Zr71  1  0.90038293  0.69128973  0.70613986  1
  Zr  Zr72  1  0.60275924  0.00697496  0.60711545  1
  Zr  Zr73  1  0.68928205  0.30375563  0.49041490  1
  Zr  Zr74  1  0.00178446  0.20539387  0.00133139  1
  Zr  Zr75  1  0.39613019  0.80521906  0.00397786  1
  Zr  Zr76  1  0.20087520  0.20492102  -0.00002677  1
  Zr  Zr77  1  0.80779391  0.20321016  0.40404565  1
  Zr  Zr78  1  0.90846776  0.49744952  0.70551008  1
  Zr  Zr79  1  0.40053136  0.00434517  0.40143575  1
  Zr  Zr80  1  0.89871510  0.30368015  0.71029460  1
  Zr  Zr81  1  0.20336272  0.20474421  0.20526243  1
  Zr  Zr82  1  0.70854933  0.68920449  0.89711261  1
  Zr  Zr83  1  0.59396743  0.39675251  0.20013852  1
  Zr  Zr84  1  0.89346107  0.89720861  0.29930371  1
  Zr  Zr85  1  0.79609188  0.79793642  0.00359949  1
  Zr  Zr86  1  0.39933192  0.39831299  0.20441421  1
  Zr  Zr87  1  0.30185221  0.69458309  0.50434264  1
  Zr  Zr88  1  0.38525710  0.59310680  0.78874890  1
  Zr  Zr89  1  0.49965381  0.90540998  0.50776581  1
  Zr  Zr90  1  0.10208759  0.68382633  0.70097611  1
  Zr  Zr91  1  0.19201158  0.60798596  0.19907522  1
  Zr  Zr92  1  0.00152248  0.20009689  0.80559285  1
  Zr  Zr93  1  0.39452793  0.79000617  0.79679305  1
  Zr  Zr94  1  0.60460149  0.79630749  0.79662204  1
  Zr  Zr95  1  0.80078303  0.80086462  0.79663737  1
  Zr  Zr96  1  0.89614523  0.09381457  0.29916543  1
  Zr  Zr97  1  0.19609874  -0.00253494  0.00152352  1
  Zr  Zr98  1  0.80998045  0.01397161  0.60062656  1
  Zr  Zr99  1  0.49549493  0.51142856  0.09526360  1
  Ta  Ta100  1  0.89852194  0.90677058  0.90567299  1
  Ta  Ta101  1  0.00253885  0.20326997  0.40637699  1
  Ta  Ta102  1  0.89263717  0.30774870  0.89573376  1
  Ta  Ta103  1  0.10288361  0.09895031  0.10154529  1
  Ta  Ta104  1  0.80918388  0.20058453  0.59926138  1
  Ta  Ta105  1  0.19321422  0.79550281  0.00216750  1
  Ta  Ta106  1  0.38821350  0.58043248  0.59781290  1
  Ta  Ta107  1  -0.00110874  0.00701450  0.59529740  1
  Ta  Ta108  1  0.60839103  0.79494931  0.19453500  1
  Ta  Ta109  1  -0.00915388  0.19974717  0.59110849  1
  Ta  Ta110  1  0.49991530  0.10460811  0.49710863  1
  Ta  Ta111  1  0.70138653  0.49924022  0.09870126  1
  Ta  Ta112  1  0.69916004  0.10053793  0.89896160  1
  Ta  Ta113  1  0.40289083  0.20587260  0.60284393  1
  Ta  Ta114  1  0.80724427  0.40011158  0.39702643  1
  Ta  Ta115  1  0.89153958  0.69533445  0.31050643  1
  Ta  Ta116  1  0.30139213  0.09465513  0.10852844  1
  Ta  Ta117  1  0.49291618  0.89991148  0.69130646  1
  Ta  Ta118  1  0.19841620  0.59014294  0.40632755  1
  Ta  Ta119  1  0.51143989  0.10331688  0.90023104  1
  Ta  Ta120  1  0.39579043  0.40206294  0.40542976  1
  Ta  Ta121  1  0.69252939  0.50060861  0.49043796  1
  Ta  Ta122  1  0.70626952  0.89927738  0.49299736  1
  Ta  Ta123  1  0.00241007  0.59465180  0.39639796  1
  Ta  Ta124  1  0.19499091  0.00331787  0.39981059  1
  Ta  Ta125  1  0.09195939  0.68530061  0.90279295  1
  Ta  Ta126  1  0.50294034  0.70204476  0.09496377  1
  Ta  Ta127  1  0.70797987  0.69879034  0.30441228  1
  Ta  Ta128  1  -0.00043186  0.59516094  0.58735193  1
  Ta  Ta129  1  0.60654050  -0.00262830  -0.00086991  1
  Ta  Ta130  1  0.20261657  0.40655446  0.80789495  1
  Ta  Ta131  1  0.60810656  0.80156132  0.00915649  1
  Ta  Ta132  1  0.29725258  0.50295521  0.90789447  1
  Ta  Ta133  1  0.19168921  0.79970831  0.19166584  1
  Ta  Ta134  1  0.80355243  0.00442603  0.79747119  1
  Ta  Ta135  1  0.50102525  0.49741987  0.49477795  1
  Ta  Ta136  1  0.29958276  0.50100943  0.30842007  1
  Ta  Ta137  1  0.29617270  0.30415351  0.50473433  1
  Ta  Ta138  1  0.79761761  0.39869943  0.00289223  1
  Ta  Ta139  1  0.59195450  0.40207739  0.60239706  1
  Ta  Ta140  1  0.40277809  0.39906613  0.60098666  1
  Ta  Ta141  1  0.80171651  0.20821579  0.00097256  1
  Ta  Ta142  1  0.50321848  0.09936657  0.29865092  1
  Ta  Ta143  1  0.40457460  0.20249538  0.79631007  1
  Ta  Ta144  1  0.30154432  0.09410874  0.29489127  1
  Ta  Ta145  1  0.90590616  0.69125828  0.90347734  1
  Ta  Ta146  1  0.19875301  -0.00445520  0.19819148  1
  Ta  Ta147  1  0.10520257  0.89568947  0.30559299  1
  Ta  Ta148  1  0.69765749  0.29375149  0.09907301  1
  Ta  Ta149  1  0.89764304  0.50280060  0.49351234  1
  Ti  Ti150  1  0.10284365  0.90290284  0.89535338  1
  Ti  Ti151  1  0.59306841  0.19729393  0.79390379  1
  Ti  Ti152  1  0.60158104  0.59153306  0.59994409  1
  Ti  Ti153  1  0.00490548  0.79881415  -0.00328743  1
  Ti  Ti154  1  0.20420734  0.79266018  0.60524485  1
  Ti  Ti155  1  0.70619903  0.90778029  0.10466442  1
  Ti  Ti156  1  0.20314265  0.40373569  0.00058681  1
  Ti  Ti157  1  0.10105562  0.31193922  0.89793411  1
  Ti  Ti158  1  0.30117589  0.70096932  0.09708146  1
  Ti  Ti159  1  0.59776305  0.19583791  0.38892598  1
  Ti  Ti160  1  0.61455525  0.00798425  0.20535827  1
  Ti  Ti161  1  0.70315201  0.29649859  0.70276301  1
  Ti  Ti162  1  0.09837805  0.10554478  0.50118614  1
  Ti  Ti163  1  0.29608095  0.10499146  0.69923671  1
  Ti  Ti164  1  0.29825897  0.30211186  0.89869849  1
  Ti  Ti165  1  0.29794980  0.49974996  0.10360449  1
  Ti  Ti166  1  0.29908092  0.68765860  0.90897689  1
  Ti  Ti167  1  0.50367927  0.28951832  0.89986324  1
  Ti  Ti168  1  0.49997331  0.50900475  0.31610760  1
  Ti  Ti169  1  0.09852455  0.89761842  0.09651872  1
  Ti  Ti170  1  0.90550263  0.69336574  0.08779793  1
  Ti  Ti171  1  0.10794073  0.30084425  0.50986914  1
  Ti  Ti172  1  0.49866951  0.30231624  0.49579722  1
  Ti  Ti173  1  0.27684285  0.32400423  0.30278085  1
  Ti  Ti174  1  0.10495209  0.89712381  0.49615101  1
  Ti  Ti175  1  0.70629008  0.90840704  0.90123199  1
  Ti  Ti176  1  0.79671596  0.59507345  0.00278081  1
  Ti  Ti177  1  0.89402907  0.69737396  0.49605146  1
  Ti  Ti178  1  0.79730963  0.20406091  0.20234992  1
  Ti  Ti179  1  0.89915685  0.29826745  0.30297877  1
  Ti  Ti180  1  0.10267275  0.49692395  0.50394611  1
  Ti  Ti181  1  0.89850123  0.90015982  0.69541507  1
  Ti  Ti182  1  0.61143869  0.60380360  0.00697343  1
  Ti  Ti183  1  0.79696687  0.78790790  0.19285212  1
  Ti  Ti184  1  -0.00625125  0.39742015  0.58937913  1
  Ti  Ti185  1  0.71123331  0.11161737  0.71077208  1
  Ti  Ti186  1  0.49456315  0.10063602  0.69725851  1
  Ti  Ti187  1  0.79552149  0.00931152  0.39872089  1
  Ti  Ti188  1  0.60385881  0.00308431  0.79615546  1
  Ti  Ti189  1  0.89977514  0.50273433  0.09387852  1
  Ti  Ti190  1  0.00906017  0.00372465  -0.00643992  1
  Ti  Ti191  1  0.19622074  0.20154081  0.80866498  1
  Ti  Ti192  1  0.21029816  0.41288815  0.59851285  1
  Ti  Ti193  1  0.09640915  0.49876237  0.09837861  1
  Ti  Ti194  1  0.69760243  0.30101025  0.30238461  1
  Ti  Ti195  1  0.60033158  0.20502246  0.20372401  1
  Ti  Ti196  1  0.51255684  0.90485546  0.10556183  1
  Ti  Ti197  1  0.10234545  0.09595577  0.30131787  1
  Ti  Ti198  1  0.50706998  0.30671149  0.30953906  1
  Ti  Ti199  1  0.00517793  0.00370808  0.40687083  1
  Mo  Mo200  1  0.70342238  0.69374646  0.69093517  1
  Mo  Mo201  1  0.79136736  -0.00088755  -0.00690826  1
  Mo  Mo202  1  0.50997986  0.29455444  0.10477145  1
  Mo  Mo203  1  0.50755596  0.70006832  0.29443724  1
  Mo  Mo204  1  0.10299621  0.09538792  0.89912103  1
  Mo  Mo205  1  0.80500966  0.59429521  0.40109839  1
  Mo  Mo206  1  0.19830112  0.58898257  0.59923010  1
  Mo  Mo207  1  0.39772864  0.59086063  0.39899179  1
  Mo  Mo208  1  0.00350832  0.59562066  0.80937648  1
  Mo  Mo209  1  0.29163785  0.49446141  0.69822759  1
  Mo  Mo210  1  0.38873287  0.60364365  0.00801745  1
  Mo  Mo211  1  0.29095034  0.68937584  0.68922220  1
  Mo  Mo212  1  0.60029860  0.59779970  0.39663381  1
  Mo  Mo213  1  0.80008478  0.79657067  0.39934066  1
  Mo  Mo214  1  0.88997983  0.30223984  0.09858583  1
  Mo  Mo215  1  0.90311359  0.30418053  0.50203546  1
  Mo  Mo216  1  0.59220356  0.39905557  0.40084413  1
  Mo  Mo217  1  0.49339394  0.29663921  0.69830890  1
  Mo  Mo218  1  0.09783821  0.69928991  0.30786749  1
  Mo  Mo219  1  0.29610802  0.30553234  0.10010207  1
  Mo  Mo220  1  0.28692001  0.89839498  0.10069557  1
  Mo  Mo221  1  0.01170904  0.39931709  0.81311836  1
  Mo  Mo222  1  0.60430350  0.00710751  0.39762400  1
  Mo  Mo223  1  0.49607895  0.49682939  0.68730815  1
  Mo  Mo224  1  -0.00147356  0.59682656  0.00753813  1
  Mo  Mo225  1  0.80303657  0.79602007  0.59339129  1
  Mo  Mo226  1  0.09815331  0.29966507  0.30600092  1
  Mo  Mo227  1  0.39677416  0.00510781  0.19699608  1
  Mo  Mo228  1  0.09244851  0.70519257  0.09102277  1
  Mo  Mo229  1  0.20085155  0.39987382  0.41585238  1
  Mo  Mo230  1  0.10359236  0.49694091  0.90301556  1
  Mo  Mo231  1  0.19873805  0.00996460  0.79851002  1
  Mo  Mo232  1  0.69600648  0.10448019  0.29756361  1
  Mo  Mo233  1  0.79330164  0.00258725  0.19773640  1
  Mo  Mo234  1  0.30035872  0.49417116  0.49931553  1
  Mo  Mo235  1  0.19357134  0.80603398  0.40369540  1
  Mo  Mo236  1  0.69486277  0.49593541  0.67857683  1
  Mo  Mo237  1  0.69849875  0.50156207  0.92019470  1
  Mo  Mo238  1  0.89905971  0.50120123  0.30722217  1
  Mo  Mo239  1  0.40018752  0.78601827  0.59877922  1
  Mo  Mo240  1  0.79862775  0.19711096  0.79985285  1
  Mo  Mo241  1  0.19699175  0.20406359  0.59508654  1
  Mo  Mo242  1  0.90258484  0.10342992  0.69794804  1
  Mo  Mo243  1  0.70203889  0.69720366  0.10315348  1
  Mo  Mo244  1  0.40152795  0.01801120  0.60519410  1
  Mo  Mo245  1  0.60484164  0.19651822  -0.00369940  1
  Mo  Mo246  1  0.19983643  0.59190332  0.81134806  1
  Mo  Mo247  1  0.90674972  0.09835509  0.49539900  1
  Mo  Mo248  1  0.20734509  0.40764489  0.18877394  1
  Mo  Mo249  1  0.80123113  0.60132362  0.79947379  1
