# generated using pymatgen
data_HfZrTaTiMo
_symmetry_space_group_name_H-M   'P 1'
_cell_length_a   16.88159675
_cell_length_b   16.88558938
_cell_length_c   16.88661489
_cell_angle_alpha   89.98018137
_cell_angle_beta   90.00041567
_cell_angle_gamma   90.00402298
_symmetry_Int_Tables_number   1
_chemical_formula_structural   HfZrTaTiMo
_chemical_formula_sum   'Hf50 Zr50 Ta50 Ti50 Mo50'
_cell_volume   4813.62571139
_cell_formula_units_Z   50
loop_
 _symmetry_equiv_pos_site_id
 _symmetry_equiv_pos_as_xyz
  1  'x, y, z'
loop_
 _atom_site_type_symbol
 _atom_site_label
 _atom_site_symmetry_multiplicity
 _atom_site_fract_x
 _atom_site_fract_y
 _atom_site_fract_z
 _atom_site_occupancy
  Hf  Hf0  1  0.49735070  0.09866341  0.29601126  1
  Hf  Hf1  1  0.00263813  -0.00256665  0.39208033  1
  Hf  Hf2  1  0.30229196  0.69645120  0.29568707  1
  Hf  Hf3  1  0.80083279  0.40796015  0.38545602  1
  Hf  Hf4  1  0.10179099  0.30031429  0.70399888  1
  Hf  Hf5  1  0.08996264  0.10697480  0.10027561  1
  Hf  Hf6  1  0.30287105  0.50287026  0.89705636  1
  Hf  Hf7  1  0.59973220  -0.00656420  0.00540901  1
  Hf  Hf8  1  0.50192801  0.90721752  0.29822723  1
  Hf  Hf9  1  0.30069706  0.50559175  0.49866312  1
  Hf  Hf10  1  0.40188122  0.79352240  0.79743996  1
  Hf  Hf11  1  0.38956051  0.39231016  0.59793119  1
  Hf  Hf12  1  0.30446257  0.69388475  0.50246046  1
  Hf  Hf13  1  0.39830369  0.39940785  0.79584753  1
  Hf  Hf14  1  0.90380812  0.30432090  0.49926763  1
  Hf  Hf15  1  0.29493544  0.09527232  0.70607823  1
  Hf  Hf16  1  0.20061969  0.39583699  0.19973406  1
  Hf  Hf17  1  0.50801049  0.09657343  0.50864997  1
  Hf  Hf18  1  -0.00863294  0.59828532  0.39558528  1
  Hf  Hf19  1  0.00180122  0.39305310  0.20176183  1
  Hf  Hf20  1  0.89724970  0.30991136  0.69493854  1
  Hf  Hf21  1  0.89468337  0.69643092  0.50067397  1
  Hf  Hf22  1  0.90359396  0.88851075  0.89231977  1
  Hf  Hf23  1  0.19814120  0.20254741  0.00466270  1
  Hf  Hf24  1  0.30576408  0.90675224  0.29162884  1
  Hf  Hf25  1  0.40654516  0.60417584  -0.00147858  1
  Hf  Hf26  1  0.69826185  0.89288679  0.89763879  1
  Hf  Hf27  1  0.80077620  0.60006894  0.80454611  1
  Hf  Hf28  1  0.29910429  0.90307197  0.49950153  1
  Hf  Hf29  1  0.80329764  -0.00173260  0.00492861  1
  Hf  Hf30  1  0.60413181  0.41747632  0.00714384  1
  Hf  Hf31  1  0.80212302  0.19873413  0.39743759  1
  Hf  Hf32  1  0.31045382  0.91043275  0.89857869  1
  Hf  Hf33  1  0.49843966  0.30168377  0.91135194  1
  Hf  Hf34  1  0.90295329  0.09622372  0.70066423  1
  Hf  Hf35  1  0.19850394  0.60345763  -0.00996778  1
  Hf  Hf36  1  0.19892857  0.20836313  0.20034451  1
  Hf  Hf37  1  0.89674739  0.88874428  0.30222720  1
  Hf  Hf38  1  0.40448623  0.79425395  -0.00638954  1
  Hf  Hf39  1  0.09830543  0.89908123  0.09870213  1
  Hf  Hf40  1  0.71020418  0.30846504  0.90988623  1
  Hf  Hf41  1  0.49635137  0.49793376  0.29759074  1
  Hf  Hf42  1  0.29987313  0.09876841  0.90196017  1
  Hf  Hf43  1  0.80334385  0.00044463  0.19336145  1
  Hf  Hf44  1  0.39314912  0.20316544  0.40379882  1
  Hf  Hf45  1  0.60545302  0.20097215  0.80360724  1
  Hf  Hf46  1  0.70185704  0.70022366  0.10963129  1
  Hf  Hf47  1  0.19943418  0.39817055  0.00555242  1
  Hf  Hf48  1  0.89132946  0.49934383  0.50741072  1
  Hf  Hf49  1  0.60304383  0.40837568  0.39627695  1
  Zr  Zr50  1  0.38649260  0.19819169  0.58944640  1
  Zr  Zr51  1  0.70323741  0.69816613  0.91195034  1
  Zr  Zr52  1  0.20171410  0.79714980  0.60584796  1
  Zr  Zr53  1  0.60109663  0.20517665  0.40337044  1
  Zr  Zr54  1  0.20808723  0.20366246  0.39583117  1
  Zr  Zr55  1  0.09887312  0.69846398  0.10158792  1
  Zr  Zr56  1  0.89682002  0.49387201  0.92049967  1
  Zr  Zr57  1  0.19669299  0.40621514  0.80526287  1
  Zr  Zr58  1  0.39903982  0.20401324  0.80086117  1
  Zr  Zr59  1  0.10447330  0.09929118  0.49616539  1
  Zr  Zr60  1  -0.00440327  0.79615661  0.20745978  1
  Zr  Zr61  1  0.70648561  0.09111543  0.89461272  1
  Zr  Zr62  1  0.69503839  0.89450119  0.29906252  1
  Zr  Zr63  1  0.88941667  0.69026496  0.09989265  1
  Zr  Zr64  1  0.08836226  0.49691461  0.08932597  1
  Zr  Zr65  1  0.70315345  0.30148740  0.10349447  1
  Zr  Zr66  1  0.20007450  0.80177668  -0.01066789  1
  Zr  Zr67  1  0.48748700  0.08783848  0.90540180  1
  Zr  Zr68  1  0.79768740  0.40866455  0.80124722  1
  Zr  Zr69  1  0.49493644  0.50572249  0.69740080  1
  Zr  Zr70  1  0.90269854  0.69872122  0.69961242  1
  Zr  Zr71  1  0.51008556  0.29544594  0.69293857  1
  Zr  Zr72  1  0.60407552  0.40838907  0.60008072  1
  Zr  Zr73  1  0.68758738  0.10113906  0.29523271  1
  Zr  Zr74  1  0.49671646  0.51163447  0.50188940  1
  Zr  Zr75  1  0.00227234  0.20041274  0.59626322  1
  Zr  Zr76  1  0.50533754  0.09447577  0.69777489  1
  Zr  Zr77  1  0.80108587  -0.00740950  0.59809962  1
  Zr  Zr78  1  0.10810716  0.10888755  0.70745992  1
  Zr  Zr79  1  -0.01330098  0.58886614  0.20634840  1
  Zr  Zr80  1  0.40239504  0.61589270  0.79924843  1
  Zr  Zr81  1  0.09684966  0.89628567  0.49474957  1
  Zr  Zr82  1  0.09651326  0.69931121  0.70402077  1
  Zr  Zr83  1  0.29948234  0.70354327  0.10705952  1
  Zr  Zr84  1  0.10233257  0.50292731  0.50046457  1
  Zr  Zr85  1  0.50152626  0.29980794  0.10729502  1
  Zr  Zr86  1  0.90588448  0.30342531  0.08320592  1
  Zr  Zr87  1  0.60725848  0.18764351  0.00997257  1
  Zr  Zr88  1  0.50703263  0.90119518  0.69220468  1
  Zr  Zr89  1  0.80115563  0.19363993  0.19477229  1
  Zr  Zr90  1  0.60456247  0.59841462  0.80144661  1
  Zr  Zr91  1  0.08739233  0.30008071  0.90840261  1
  Zr  Zr92  1  0.41138165  0.80188976  0.40065818  1
  Zr  Zr93  1  0.70776671  0.30744835  0.50579582  1
  Zr  Zr94  1  0.90143149  0.88917618  0.49871210  1
  Zr  Zr95  1  0.09869209  0.70015850  0.30310432  1
  Zr  Zr96  1  0.00117687  -0.00467130  -0.00611312  1
  Zr  Zr97  1  0.19459101  0.80114924  0.39580550  1
  Zr  Zr98  1  0.80656921  0.19962305  0.80204370  1
  Zr  Zr99  1  0.79520238  0.00223557  0.40318989  1
  Ta  Ta100  1  0.09988659  0.50485762  0.70244540  1
  Ta  Ta101  1  0.30099175  0.90334389  0.70345140  1
  Ta  Ta102  1  0.60041585  0.59864979  0.20420297  1
  Ta  Ta103  1  0.29513514  0.51271476  0.69249713  1
  Ta  Ta104  1  0.59544887  0.79292704  0.20783721  1
  Ta  Ta105  1  0.39732762  -0.00455501  0.59590958  1
  Ta  Ta106  1  0.70655461  0.51645447  0.49739693  1
  Ta  Ta107  1  0.50217855  0.30276895  0.29377227  1
  Ta  Ta108  1  0.10173579  0.30719307  0.49548837  1
  Ta  Ta109  1  0.79769517  0.79384160  0.79650246  1
  Ta  Ta110  1  0.80374561  0.41473957  0.19751654  1
  Ta  Ta111  1  0.50991654  0.70734141  0.50186444  1
  Ta  Ta112  1  0.80353906  0.79826019  0.00118675  1
  Ta  Ta113  1  0.69364727  0.30424997  0.28781372  1
  Ta  Ta114  1  0.69673231  0.89600263  0.69967451  1
  Ta  Ta115  1  0.19694365  0.00295670  0.19747377  1
  Ta  Ta116  1  0.19977481  0.40110466  0.60000226  1
  Ta  Ta117  1  0.00672371  -0.01073424  0.79612321  1
  Ta  Ta118  1  0.19705553  0.00024389  -0.00004979  1
  Ta  Ta119  1  0.20258855  0.58790125  0.20215382  1
  Ta  Ta120  1  0.50395304  0.70079747  0.10507634  1
  Ta  Ta121  1  0.60208849  0.60982990  0.39126441  1
  Ta  Ta122  1  0.79210786  0.78818209  0.39612340  1
  Ta  Ta123  1  0.49561321  0.90041757  0.10580812  1
  Ta  Ta124  1  0.69768763  0.09442649  0.69389321  1
  Ta  Ta125  1  0.30561628  0.90706109  0.10080510  1
  Ta  Ta126  1  0.90601667  0.09992777  0.49790908  1
  Ta  Ta127  1  0.49015039  0.09760604  0.10580863  1
  Ta  Ta128  1  0.78980185  0.79448799  0.60408767  1
  Ta  Ta129  1  0.30638493  0.09534449  0.09851872  1
  Ta  Ta130  1  0.70394992  0.29856612  0.69555864  1
  Ta  Ta131  1  0.00467379  -0.00692482  0.60729568  1
  Ta  Ta132  1  0.39512412  0.20105837  0.20352616  1
  Ta  Ta133  1  0.20063665  0.80112060  0.80057900  1
  Ta  Ta134  1  0.69856186  0.88845053  0.10398142  1
  Ta  Ta135  1  0.60394760  0.61184553  0.60459288  1
  Ta  Ta136  1  0.28464908  0.29410956  0.70374164  1
  Ta  Ta137  1  0.80471040  -0.01014742  0.79353477  1
  Ta  Ta138  1  0.00176154  0.40053189  0.39056529  1
  Ta  Ta139  1  0.18899013  -0.01069951  0.80598123  1
  Ta  Ta140  1  0.80086702  0.19478449  0.59792286  1
  Ta  Ta141  1  0.20055080  0.39860870  0.39394541  1
  Ta  Ta142  1  0.40779300  0.60608112  0.39534491  1
  Ta  Ta143  1  0.59690335  0.59678713  0.00882722  1
  Ta  Ta144  1  0.40386079  0.79666722  0.60353852  1
  Ta  Ta145  1  0.69751167  0.70009038  0.49953960  1
  Ta  Ta146  1  0.09627353  0.10410956  0.29196369  1
  Ta  Ta147  1  0.59653273  0.78832471  0.79555429  1
  Ta  Ta148  1  -0.00305163  0.40892497  0.80503666  1
  Ta  Ta149  1  -0.00114308  0.59488530  0.80953612  1
  Ti  Ti150  1  -0.00324746  0.60340861  -0.00652019  1
  Ti  Ti151  1  0.30340892  0.29709925  0.90385060  1
  Ti  Ti152  1  0.90515046  0.88879149  0.70078685  1
  Ti  Ti153  1  0.19575430  -0.00350740  0.60445275  1
  Ti  Ti154  1  0.00686368  0.79814461  0.59884033  1
  Ti  Ti155  1  0.19682396  0.60585370  0.60208014  1
  Ti  Ti156  1  0.50409412  0.29975481  0.50138545  1
  Ti  Ti157  1  0.59291049  0.79747593  0.00300210  1
  Ti  Ti158  1  0.30255907  0.09438620  0.29375064  1
  Ti  Ti159  1  0.89971432  0.29693582  0.29309204  1
  Ti  Ti160  1  0.30424884  0.50106892  0.30169585  1
  Ti  Ti161  1  0.68478103  0.88635316  0.50410682  1
  Ti  Ti162  1  0.19782094  0.00161724  0.38866289  1
  Ti  Ti163  1  0.40771955  0.79744058  0.20033171  1
  Ti  Ti164  1  0.00010732  -0.00442949  0.20263262  1
  Ti  Ti165  1  0.59847916  -0.00845600  0.41300989  1
  Ti  Ti166  1  0.40626829  0.59837383  0.19834862  1
  Ti  Ti167  1  0.89797000  0.88829472  0.10289339  1
  Ti  Ti168  1  0.30930601  0.30931615  0.29834223  1
  Ti  Ti169  1  0.00686902  0.40623137  0.60226827  1
  Ti  Ti170  1  0.90987431  0.10478894  0.29570985  1
  Ti  Ti171  1  -0.00421057  0.79301196  -0.00588761  1
  Ti  Ti172  1  0.90196579  0.50418409  0.69359979  1
  Ti  Ti173  1  0.71161169  0.50338578  0.68562779  1
  Ti  Ti174  1  0.40391695  0.40926842  0.00597336  1
  Ti  Ti175  1  0.20731620  0.20516195  0.58513375  1
  Ti  Ti176  1  0.00519011  0.60080043  0.59847527  1
  Ti  Ti177  1  0.69616040  0.09960705  0.50930889  1
  Ti  Ti178  1  0.19875058  0.59957179  0.39724893  1
  Ti  Ti179  1  0.80659984  0.18936614  -0.00212763  1
  Ti  Ti180  1  0.09064229  0.70465397  0.89321004  1
  Ti  Ti181  1  0.19712096  0.80847677  0.20297216  1
  Ti  Ti182  1  0.20056333  0.60831025  0.80242938  1
  Ti  Ti183  1  0.60295803  -0.00580595  0.79843631  1
  Ti  Ti184  1  0.39869627  0.39651706  0.40343668  1
  Ti  Ti185  1  0.39933924  0.40470966  0.19383681  1
  Ti  Ti186  1  0.31349922  0.29622426  0.09428357  1
  Ti  Ti187  1  0.60251077  0.00310974  0.18822638  1
  Ti  Ti188  1  0.30394522  0.50391333  0.10137965  1
  Ti  Ti189  1  0.50159711  0.50005665  0.89850782  1
  Ti  Ti190  1  0.90703759  0.09595051  0.89659367  1
  Ti  Ti191  1  0.60751649  0.41539905  0.19747877  1
  Ti  Ti192  1  0.60930333  0.40688181  0.80215538  1
  Ti  Ti193  1  0.91115819  0.10529583  0.09992023  1
  Ti  Ti194  1  0.09781997  0.10351030  0.89709939  1
  Ti  Ti195  1  0.39825092  0.00594407  0.40813334  1
  Ti  Ti196  1  0.49959125  0.90093551  0.89712997  1
  Ti  Ti197  1  -0.00676146  0.20451889  0.80733118  1
  Ti  Ti198  1  0.00562235  0.20776089  0.39016164  1
  Ti  Ti199  1  0.10322925  0.49789027  0.30120874  1
  Mo  Mo200  1  0.70437805  0.51051502  0.10575051  1
  Mo  Mo201  1  0.69871152  0.50467746  0.29820782  1
  Mo  Mo202  1  0.79263904  0.59665168  0.00791376  1
  Mo  Mo203  1  0.61317167  0.19753733  0.60071800  1
  Mo  Mo204  1  0.70057533  0.70323298  0.69890490  1
  Mo  Mo205  1  0.88404209  0.69540930  0.30326811  1
  Mo  Mo206  1  0.69852096  0.09193183  0.09902614  1
  Mo  Mo207  1  0.10122116  0.90920279  0.29279397  1
  Mo  Mo208  1  0.89614541  0.49809302  0.30134330  1
  Mo  Mo209  1  0.50056153  0.69730895  0.29697486  1
  Mo  Mo210  1  0.09352562  0.69580569  0.50163372  1
  Mo  Mo211  1  0.89377220  0.50021969  0.10091228  1
  Mo  Mo212  1  -0.00711122  0.19403108  -0.00816525  1
  Mo  Mo213  1  0.51059222  0.70382582  0.90940436  1
  Mo  Mo214  1  0.60160392  0.79893605  0.59897151  1
  Mo  Mo215  1  0.09630894  0.29718817  0.10178049  1
  Mo  Mo216  1  0.79598149  0.40962233  0.01019156  1
  Mo  Mo217  1  0.09797433  0.30031651  0.30382620  1
  Mo  Mo218  1  0.50189838  0.90221164  0.49791952  1
  Mo  Mo219  1  0.80202902  0.40563820  0.60235668  1
  Mo  Mo220  1  0.29274639  0.70240047  0.89260157  1
  Mo  Mo221  1  0.39503583  0.19925388  0.00950733  1
  Mo  Mo222  1  0.19805941  0.19827082  0.81052089  1
  Mo  Mo223  1  0.60202647  0.79730591  0.40173426  1
  Mo  Mo224  1  0.79303267  0.59646777  0.21090992  1
  Mo  Mo225  1  0.09840178  0.89457991  0.89901841  1
  Mo  Mo226  1  0.60585772  -0.00498269  0.59498282  1
  Mo  Mo227  1  -0.00800100  0.79262217  0.40269633  1
  Mo  Mo228  1  0.29330912  0.31463931  0.49683412  1
  Mo  Mo229  1  0.40186297  0.61131283  0.59789649  1
  Mo  Mo230  1  0.79504702  0.60334344  0.60305526  1
  Mo  Mo231  1  -0.00101555  0.20125212  0.20351923  1
  Mo  Mo232  1  0.90243857  0.69797272  0.90330681  1
  Mo  Mo233  1  0.40321853  -0.00507130  0.00615511  1
  Mo  Mo234  1  0.79417781  0.79855592  0.20024540  1
  Mo  Mo235  1  0.49705170  0.50647225  0.10810861  1
  Mo  Mo236  1  0.00170501  0.79627378  0.80214231  1
  Mo  Mo237  1  0.79434609  0.60203572  0.39641480  1
  Mo  Mo238  1  0.29572305  0.08214133  0.49919162  1
  Mo  Mo239  1  0.69780027  0.69742646  0.30206961  1
  Mo  Mo240  1  0.59216411  0.19849924  0.20255157  1
  Mo  Mo241  1  0.09911414  0.89878177  0.70169416  1
  Mo  Mo242  1  0.50376131  0.70442410  0.68975825  1
  Mo  Mo243  1  0.90022580  0.29924918  0.90015581  1
  Mo  Mo244  1  0.39850131  -0.00690267  0.79285366  1
  Mo  Mo245  1  0.09493711  0.50636718  0.89567253  1
  Mo  Mo246  1  0.00033368  0.39928383  0.00005209  1
  Mo  Mo247  1  0.69960027  0.50328401  0.91127815  1
  Mo  Mo248  1  0.29746280  0.70154455  0.69857388  1
  Mo  Mo249  1  0.39555281  0.00306876  0.19969415  1
