# generated using pymatgen
data_HfZrTaTiMo
_symmetry_space_group_name_H-M   'P 1'
_cell_length_a   16.88771726
_cell_length_b   16.89053421
_cell_length_c   16.88867070
_cell_angle_alpha   90.01518544
_cell_angle_beta   90.00205986
_cell_angle_gamma   90.04639654
_symmetry_Int_Tables_number   1
_chemical_formula_structural   HfZrTaTiMo
_chemical_formula_sum   'Hf50 Zr50 Ta50 Ti50 Mo50'
_cell_volume   4817.36601659
_cell_formula_units_Z   50
loop_
 _symmetry_equiv_pos_site_id
 _symmetry_equiv_pos_as_xyz
  1  'x, y, z'
loop_
 _atom_site_type_symbol
 _atom_site_label
 _atom_site_symmetry_multiplicity
 _atom_site_fract_x
 _atom_site_fract_y
 _atom_site_fract_z
 _atom_site_occupancy
  Hf  Hf0  1  0.59276249  0.60323802  0.20943129  1
  Hf  Hf1  1  0.59791963  0.81395551  0.00422156  1
  Hf  Hf2  1  0.00166504  0.39076457  0.79145888  1
  Hf  Hf3  1  0.19488229  0.01088016  0.79901410  1
  Hf  Hf4  1  0.00109994  0.40972207  0.20031257  1
  Hf  Hf5  1  0.49717011  0.69966868  0.09777221  1
  Hf  Hf6  1  0.69530392  0.30516497  0.10873861  1
  Hf  Hf7  1  0.79568077  0.00295310  0.58913992  1
  Hf  Hf8  1  0.69607419  0.49757006  0.11177281  1
  Hf  Hf9  1  0.38309711  0.37771148  0.79957462  1
  Hf  Hf10  1  0.09026674  0.91153452  0.69654129  1
  Hf  Hf11  1  0.30044416  0.09700052  0.10122494  1
  Hf  Hf12  1  0.70124895  0.70017413  0.69814992  1
  Hf  Hf13  1  0.59582535  0.59896074  -0.00391723  1
  Hf  Hf14  1  0.48883469  0.49397047  0.89809056  1
  Hf  Hf15  1  0.79849249  0.59839829  0.79682066  1
  Hf  Hf16  1  0.69879729  0.49227874  0.89701516  1
  Hf  Hf17  1  0.29636189  0.49613435  0.90160763  1
  Hf  Hf18  1  0.11879129  0.70932902  0.91347176  1
  Hf  Hf19  1  0.00426163  0.60425893  0.01122178  1
  Hf  Hf20  1  0.59739550  0.18851677  -0.00009240  1
  Hf  Hf21  1  0.10122913  0.29918763  0.10050589  1
  Hf  Hf22  1  0.59915336  -0.01269616  0.19441859  1
  Hf  Hf23  1  0.60201107  0.80516565  0.20593184  1
  Hf  Hf24  1  0.39862899  -0.00422568  -0.00083317  1
  Hf  Hf25  1  0.59918320  0.80525974  0.80349471  1
  Hf  Hf26  1  0.19841759  0.39143616  0.58947873  1
  Hf  Hf27  1  0.49545152  0.48803378  0.29477448  1
  Hf  Hf28  1  0.49595952  0.30047806  0.90102281  1
  Hf  Hf29  1  0.09402020  0.09463071  0.09884134  1
  Hf  Hf30  1  0.09981509  0.90217259  0.90179397  1
  Hf  Hf31  1  0.39613673  0.80632349  -0.00163269  1
  Hf  Hf32  1  0.70159880  0.69881547  0.10679534  1
  Hf  Hf33  1  -0.00264977  0.60012196  0.39640410  1
  Hf  Hf34  1  0.89757401  0.70524467  0.69422444  1
  Hf  Hf35  1  0.90143825  0.49589517  0.89857642  1
  Hf  Hf36  1  0.49758457  0.29708757  0.29137160  1
  Hf  Hf37  1  0.00779454  0.59985724  0.59919147  1
  Hf  Hf38  1  0.70101159  0.30532657  0.90270989  1
  Hf  Hf39  1  0.39630998  0.38958576  0.41421110  1
  Hf  Hf40  1  0.89598227  0.70832141  0.89473387  1
  Hf  Hf41  1  0.40043998  0.01119774  0.59233743  1
  Hf  Hf42  1  0.39565163  0.80082147  0.19715456  1
  Hf  Hf43  1  0.70332303  0.30053964  0.50374487  1
  Hf  Hf44  1  0.21232139  0.20447188  0.80687694  1
  Hf  Hf45  1  0.90651233  0.09071131  0.90200330  1
  Hf  Hf46  1  0.70077677  0.09792436  0.29991368  1
  Hf  Hf47  1  -0.00059597  0.79860393  0.01324095  1
  Hf  Hf48  1  0.90322931  0.49392010  0.69089981  1
  Hf  Hf49  1  0.10855813  0.49315182  0.89944347  1
  Zr  Zr50  1  0.20122609  0.20228212  0.20005660  1
  Zr  Zr51  1  0.80528374  0.59576020  0.00738658  1
  Zr  Zr52  1  0.30003002  0.89872635  0.30561096  1
  Zr  Zr53  1  0.80446626  0.19229189  0.40877211  1
  Zr  Zr54  1  0.81018478  0.20353725  -0.00176823  1
  Zr  Zr55  1  0.80819197  0.19670660  0.20063554  1
  Zr  Zr56  1  0.10634322  0.70159168  0.49945457  1
  Zr  Zr57  1  0.49845187  0.91299082  0.70396755  1
  Zr  Zr58  1  0.49330264  0.09148570  0.30362546  1
  Zr  Zr59  1  -0.00658099  0.59915368  0.20225315  1
  Zr  Zr60  1  0.92067761  0.08499153  0.69228190  1
  Zr  Zr61  1  0.69533221  0.09726521  0.69470948  1
  Zr  Zr62  1  0.49207200  0.89834046  0.31597424  1
  Zr  Zr63  1  0.60569363  0.81498223  0.59816872  1
  Zr  Zr64  1  0.40061382  0.19792248  0.40907065  1
  Zr  Zr65  1  0.49408807  0.29922978  0.10495303  1
  Zr  Zr66  1  0.70558917  0.09209555  0.09841610  1
  Zr  Zr67  1  0.29492492  0.49527388  0.70060135  1
  Zr  Zr68  1  0.39524230  0.80273836  0.60111348  1
  Zr  Zr69  1  0.30062599  0.10843825  0.69160990  1
  Zr  Zr70  1  0.70101423  0.49336887  0.68971902  1
  Zr  Zr71  1  0.90080736  0.30822955  0.30367919  1
  Zr  Zr72  1  -0.00360597  0.40017958  0.00582470  1
  Zr  Zr73  1  0.00895474  0.60303758  0.79620052  1
  Zr  Zr74  1  0.59700431  0.19298041  0.80667611  1
  Zr  Zr75  1  0.30054798  0.50249064  0.50305051  1
  Zr  Zr76  1  0.80091818  0.80519750  0.59470612  1
  Zr  Zr77  1  0.60156264  0.40325807  0.40886861  1
  Zr  Zr78  1  0.79932917  0.80788244  0.01032924  1
  Zr  Zr79  1  0.10231626  0.29387076  0.68890115  1
  Zr  Zr80  1  0.49573199  0.90780638  0.49119558  1
  Zr  Zr81  1  -0.00125205  0.19960376  0.40246930  1
  Zr  Zr82  1  0.29583395  0.90351006  0.49469890  1
  Zr  Zr83  1  0.19746884  0.60401967  0.79374688  1
  Zr  Zr84  1  0.19740060  -0.01619281  0.18856303  1
  Zr  Zr85  1  0.71017140  0.69591600  0.49854256  1
  Zr  Zr86  1  0.90711525  0.89712054  0.49884961  1
  Zr  Zr87  1  0.81225128  0.20336925  0.79541053  1
  Zr  Zr88  1  0.39446977  0.19027178  -0.01933321  1
  Zr  Zr89  1  0.00365776  0.19957700  0.79927214  1
  Zr  Zr90  1  0.60221622  0.59439029  0.40208101  1
  Zr  Zr91  1  0.49071685  0.49136459  0.69524347  1
  Zr  Zr92  1  0.39415863  0.59810611  0.19751712  1
  Zr  Zr93  1  0.69823519  0.30057243  0.69440149  1
  Zr  Zr94  1  0.09224030  0.89655746  0.29853998  1
  Zr  Zr95  1  0.28081793  0.69669361  0.09126800  1
  Zr  Zr96  1  0.39964091  0.61104727  0.60167065  1
  Zr  Zr97  1  0.69696149  0.30924464  0.29443006  1
  Zr  Zr98  1  0.50368924  0.70991197  0.48939427  1
  Zr  Zr99  1  0.59279604  0.60303900  0.79720174  1
  Ta  Ta100  1  0.10610506  0.30110067  0.90396996  1
  Ta  Ta101  1  0.19890620  0.80695532  0.60109438  1
  Ta  Ta102  1  0.49715118  0.10479687  0.69959489  1
  Ta  Ta103  1  0.29280315  0.70004651  0.30123713  1
  Ta  Ta104  1  0.70571031  0.90533468  0.89817948  1
  Ta  Ta105  1  0.59747259  0.19652180  0.40789142  1
  Ta  Ta106  1  0.39406023  0.01318076  0.80974524  1
  Ta  Ta107  1  -0.00155911  0.19822937  0.20161082  1
  Ta  Ta108  1  0.09808132  0.10067025  0.50218174  1
  Ta  Ta109  1  0.80453266  0.39909515  0.00769613  1
  Ta  Ta110  1  0.29424079  0.90380220  0.70655948  1
  Ta  Ta111  1  -0.00117310  -0.00810670  0.00668832  1
  Ta  Ta112  1  0.90478427  0.90043191  0.70538526  1
  Ta  Ta113  1  0.29331383  0.71257204  0.70541621  1
  Ta  Ta114  1  0.10052115  0.49529833  0.49723882  1
  Ta  Ta115  1  0.21132105  0.39319358  0.00623699  1
  Ta  Ta116  1  0.29922563  0.09788884  0.29936755  1
  Ta  Ta117  1  0.11539086  0.50495448  0.09878777  1
  Ta  Ta118  1  0.09848100  0.09857398  0.90818275  1
  Ta  Ta119  1  0.10701317  0.69924053  0.29609799  1
  Ta  Ta120  1  0.10196307  0.30311014  0.29981536  1
  Ta  Ta121  1  0.00405155  0.80182942  0.79964819  1
  Ta  Ta122  1  0.90316730  0.90484330  0.11534701  1
  Ta  Ta123  1  0.81113772  0.59878246  0.39945877  1
  Ta  Ta124  1  0.20665045  0.40080089  0.19871392  1
  Ta  Ta125  1  0.81486521  0.19829305  0.59531969  1
  Ta  Ta126  1  0.80211610  -0.00240534  0.79918977  1
  Ta  Ta127  1  0.49469957  0.29076578  0.69320292  1
  Ta  Ta128  1  0.71023057  0.70056968  0.30447873  1
  Ta  Ta129  1  0.80003156  0.80513968  0.20952295  1
  Ta  Ta130  1  0.39917563  0.60372843  0.39275853  1
  Ta  Ta131  1  0.80050537  -0.00537317  0.40013151  1
  Ta  Ta132  1  0.20166582  0.59642594  0.39782333  1
  Ta  Ta133  1  -0.00093716  0.00306973  0.40025438  1
  Ta  Ta134  1  0.10762762  0.49737156  0.30136864  1
  Ta  Ta135  1  0.39472814  0.59603149  0.00022633  1
  Ta  Ta136  1  0.20219984  0.19856817  -0.00321337  1
  Ta  Ta137  1  0.19771955  0.20470565  0.40144961  1
  Ta  Ta138  1  0.59213521  0.40504805  0.00785771  1
  Ta  Ta139  1  0.70313348  0.70942880  0.89747013  1
  Ta  Ta140  1  0.90098490  0.90020162  0.89462577  1
  Ta  Ta141  1  0.30467077  0.29935498  0.29475812  1
  Ta  Ta142  1  0.80403106  0.41369517  0.40571396  1
  Ta  Ta143  1  0.09877865  0.09987157  0.29885290  1
  Ta  Ta144  1  0.19302395  0.00825884  0.40003148  1
  Ta  Ta145  1  0.20072656  0.39370133  0.39766251  1
  Ta  Ta146  1  0.61554180  0.00414529  0.41362830  1
  Ta  Ta147  1  0.29830205  0.49610552  0.30088699  1
  Ta  Ta148  1  -0.00604000  0.78982497  0.39640536  1
  Ta  Ta149  1  0.28719062  0.89988024  0.89981002  1
  Ti  Ti150  1  0.90999238  0.31025951  0.50595444  1
  Ti  Ti151  1  0.59569729  -0.00337910  0.00217335  1
  Ti  Ti152  1  0.19184847  0.82813511  0.02965851  1
  Ti  Ti153  1  0.59942948  0.00337491  0.80484057  1
  Ti  Ti154  1  -0.00310388  0.20220523  0.00132605  1
  Ti  Ti155  1  0.90466321  0.09028961  0.10617800  1
  Ti  Ti156  1  0.89114599  0.70006682  0.11567447  1
  Ti  Ti157  1  0.60020754  0.59484375  0.59489230  1
  Ti  Ti158  1  0.00237421  0.40516249  0.40191288  1
  Ti  Ti159  1  0.40084740  -0.00881141  0.19413312  1
  Ti  Ti160  1  0.49847937  0.90697355  0.89610900  1
  Ti  Ti161  1  0.19308513  0.00616245  0.59805138  1
  Ti  Ti162  1  0.29591153  0.70292039  0.49733831  1
  Ti  Ti163  1  0.39445927  0.80578510  0.80398146  1
  Ti  Ti164  1  0.19630413  0.79946371  0.39961960  1
  Ti  Ti165  1  0.81388349  0.38674830  0.79894451  1
  Ti  Ti166  1  0.10664107  0.71429649  0.70055714  1
  Ti  Ti167  1  0.39192709  0.40720104  0.18507931  1
  Ti  Ti168  1  0.49409656  0.70273270  0.89879103  1
  Ti  Ti169  1  0.30865302  0.29581715  0.09831939  1
  Ti  Ti170  1  0.19645202  0.60136348  0.60338649  1
  Ti  Ti171  1  0.80360474  -0.00698831  0.00367708  1
  Ti  Ti172  1  0.70304973  0.90641891  0.70514748  1
  Ti  Ti173  1  0.39507215  0.61059086  0.80071079  1
  Ti  Ti174  1  0.70517082  0.08998198  0.90139174  1
  Ti  Ti175  1  0.49282654  0.09928076  0.10511571  1
  Ti  Ti176  1  0.00163849  0.79260637  0.20112535  1
  Ti  Ti177  1  0.62032712  0.81063858  0.39457069  1
  Ti  Ti178  1  0.19985395  0.59638734  0.20122454  1
  Ti  Ti179  1  0.49145875  0.49915506  0.50588594  1
  Ti  Ti180  1  0.40455900  0.20451993  0.58581161  1
  Ti  Ti181  1  0.70583143  0.50279254  0.29857505  1
  Ti  Ti182  1  0.90185866  0.50309302  0.50426023  1
  Ti  Ti183  1  0.49629346  0.70646999  0.70181655  1
  Ti  Ti184  1  0.59657955  0.19085649  0.20038864  1
  Ti  Ti185  1  0.90056399  0.30236210  0.10458456  1
  Ti  Ti186  1  0.81400847  0.41721260  0.20284806  1
  Ti  Ti187  1  0.59351681  0.39571380  0.79576803  1
  Ti  Ti188  1  0.90111116  0.89718220  0.30142778  1
  Ti  Ti189  1  0.59124631  0.39836917  0.59284182  1
  Ti  Ti190  1  0.29321791  0.70718719  0.89897239  1
  Ti  Ti191  1  0.09828648  0.90280250  0.49817280  1
  Ti  Ti192  1  0.00333508  0.79880916  0.59664482  1
  Ti  Ti193  1  0.30052476  0.29184274  0.68247187  1
  Ti  Ti194  1  0.79675565  -0.01092850  0.20560582  1
  Ti  Ti195  1  0.28937346  0.10434746  0.49709156  1
  Ti  Ti196  1  0.90363921  0.08928746  0.29611493  1
  Ti  Ti197  1  0.80751986  0.39816282  0.59362841  1
  Ti  Ti198  1  0.00176040  0.19909081  0.59142353  1
  Ti  Ti199  1  0.59842931  0.19092696  0.58962649  1
  Mo  Mo200  1  0.79927543  0.60400635  0.21158682  1
  Mo  Mo201  1  0.19332904  0.79301857  0.20063992  1
  Mo  Mo202  1  0.89824626  0.70550166  0.30181739  1
  Mo  Mo203  1  0.50722273  0.29640148  0.50835837  1
  Mo  Mo204  1  0.10167192  0.49165820  0.69065341  1
  Mo  Mo205  1  0.10297607  0.10193752  0.68790614  1
  Mo  Mo206  1  0.79875939  0.80914542  0.79765911  1
  Mo  Mo207  1  0.90207033  0.29998300  0.67989829  1
  Mo  Mo208  1  0.29808185  0.49855990  0.09999006  1
  Mo  Mo209  1  0.70504617  0.10345352  0.49971210  1
  Mo  Mo210  1  0.70755959  0.90104808  0.30407054  1
  Mo  Mo211  1  0.09601478  0.29852518  0.49050774  1
  Mo  Mo212  1  0.90517099  0.69873685  0.49828262  1
  Mo  Mo213  1  0.29126247  0.09379973  0.90274954  1
  Mo  Mo214  1  0.40070264  0.19656785  0.79139445  1
  Mo  Mo215  1  0.30457438  0.90132854  0.09867031  1
  Mo  Mo216  1  0.39738825  0.40189668  0.00607464  1
  Mo  Mo217  1  0.38536473  0.01654969  0.40409219  1
  Mo  Mo218  1  0.39996249  0.38473318  0.59890010  1
  Mo  Mo219  1  0.49648406  0.70271725  0.30574649  1
  Mo  Mo220  1  0.10377317  0.70124820  0.10985042  1
  Mo  Mo221  1  0.90101441  0.50135525  0.30676778  1
  Mo  Mo222  1  0.70824335  0.90271824  0.09998857  1
  Mo  Mo223  1  0.19903731  0.80747010  0.79319881  1
  Mo  Mo224  1  0.50882671  0.09966425  0.50463981  1
  Mo  Mo225  1  0.08381434  0.89932834  0.10588689  1
  Mo  Mo226  1  0.80608845  0.59319472  0.59228964  1
  Mo  Mo227  1  0.71172164  0.49905087  0.50703880  1
  Mo  Mo228  1  0.59488204  0.40899086  0.20001494  1
  Mo  Mo229  1  0.19710153  0.00114008  -0.00205743  1
  Mo  Mo230  1  0.38860267  0.77992163  0.39777486  1
  Mo  Mo231  1  0.90578050  0.09435712  0.49741156  1
  Mo  Mo232  1  0.49971433  0.90230195  0.09884486  1
  Mo  Mo233  1  0.00534454  -0.00166209  0.58772694  1
  Mo  Mo234  1  0.19657352  0.19775894  0.58738616  1
  Mo  Mo235  1  0.39540240  0.19526272  0.20147161  1
  Mo  Mo236  1  0.80696342  0.79978221  0.39446910  1
  Mo  Mo237  1  0.89409072  0.50268742  0.10453304  1
  Mo  Mo238  1  0.29434131  0.29225651  0.49753924  1
  Mo  Mo239  1  0.20205324  0.59133140  -0.00108499  1
  Mo  Mo240  1  -0.00818006  0.00465804  0.20477755  1
  Mo  Mo241  1  0.90441191  0.29976356  0.91126251  1
  Mo  Mo242  1  0.70435219  0.90159092  0.49472533  1
  Mo  Mo243  1  0.19720016  0.38923102  0.79885942  1
  Mo  Mo244  1  0.29647157  0.29994459  0.90720584  1
  Mo  Mo245  1  0.50415344  0.08844548  0.89392459  1
  Mo  Mo246  1  0.00390020  0.40231294  0.59013566  1
  Mo  Mo247  1  0.49491398  0.49967069  0.09487200  1
  Mo  Mo248  1  0.60084175  0.00808784  0.59894000  1
  Mo  Mo249  1  0.00036196  -0.00254700  0.80947695  1
