# generated using pymatgen
data_HfZrTaTiMo
_symmetry_space_group_name_H-M   'P 1'
_cell_length_a   16.88399501
_cell_length_b   16.87456280
_cell_length_c   16.88010074
_cell_angle_alpha   90.00837636
_cell_angle_beta   90.02111161
_cell_angle_gamma   89.97131418
_symmetry_Int_Tables_number   1
_chemical_formula_structural   HfZrTaTiMo
_chemical_formula_sum   'Hf50 Zr50 Ta50 Ti50 Mo50'
_cell_volume   4809.30910033
_cell_formula_units_Z   50
loop_
 _symmetry_equiv_pos_site_id
 _symmetry_equiv_pos_as_xyz
  1  'x, y, z'
loop_
 _atom_site_type_symbol
 _atom_site_label
 _atom_site_symmetry_multiplicity
 _atom_site_fract_x
 _atom_site_fract_y
 _atom_site_fract_z
 _atom_site_occupancy
  Hf  Hf0  1  0.89962267  0.69812035  0.90299902  1
  Hf  Hf1  1  0.69980111  0.30354777  0.90498054  1
  Hf  Hf2  1  0.28380854  0.49595850  0.50206362  1
  Hf  Hf3  1  0.30068560  0.89513233  0.89399122  1
  Hf  Hf4  1  0.90782646  0.09982664  0.69808303  1
  Hf  Hf5  1  0.49989821  0.09522155  0.49205825  1
  Hf  Hf6  1  0.61132092  0.59827271  0.80126569  1
  Hf  Hf7  1  0.09459037  0.50285592  0.09836832  1
  Hf  Hf8  1  0.89554166  0.50380099  0.90793472  1
  Hf  Hf9  1  0.29306440  0.30111773  0.10057240  1
  Hf  Hf10  1  0.50823976  0.69486832  0.50003601  1
  Hf  Hf11  1  0.60343284  -0.01163639  0.39601522  1
  Hf  Hf12  1  0.39433744  0.59410722  0.80040846  1
  Hf  Hf13  1  0.28943399  0.70698965  0.90127490  1
  Hf  Hf14  1  0.09683581  0.89682574  0.10229881  1
  Hf  Hf15  1  0.40544447  0.81309327  0.00679024  1
  Hf  Hf16  1  0.19698912  0.19807772  0.79659062  1
  Hf  Hf17  1  0.70299345  0.90214829  0.69829141  1
  Hf  Hf18  1  0.60388328  0.19099580  0.00391837  1
  Hf  Hf19  1  0.60857643  0.79770317  0.80662293  1
  Hf  Hf20  1  0.09764025  0.29841685  0.29982726  1
  Hf  Hf21  1  0.18979881  0.60026422  0.39398679  1
  Hf  Hf22  1  0.49236404  0.69922943  0.11242191  1
  Hf  Hf23  1  0.60459258  0.60850538  -0.01054824  1
  Hf  Hf24  1  0.28789913  0.29746214  0.29972695  1
  Hf  Hf25  1  -0.00456658  0.40854495  0.80027765  1
  Hf  Hf26  1  0.80175434  0.79131198  0.79873929  1
  Hf  Hf27  1  0.40420193  -0.00402870  0.19071836  1
  Hf  Hf28  1  0.00308910  -0.00131138  0.39727520  1
  Hf  Hf29  1  0.40453832  0.19662903  0.20329807  1
  Hf  Hf30  1  0.20540520  0.20054383  0.59360697  1
  Hf  Hf31  1  0.50100985  0.70428449  0.69296105  1
  Hf  Hf32  1  0.69197228  0.30388800  0.71189657  1
  Hf  Hf33  1  0.71889474  0.69884724  0.10153290  1
  Hf  Hf34  1  0.30190939  0.09811649  0.90411130  1
  Hf  Hf35  1  0.30594064  0.10141093  0.09171930  1
  Hf  Hf36  1  0.29575061  0.70001102  0.09994081  1
  Hf  Hf37  1  0.90660198  0.10078602  0.50403581  1
  Hf  Hf38  1  0.49581511  0.89325055  0.70647615  1
  Hf  Hf39  1  0.29266007  0.89744044  0.69219435  1
  Hf  Hf40  1  0.30644291  0.69800877  0.28988902  1
  Hf  Hf41  1  0.79910927  0.39729419  0.20211387  1
  Hf  Hf42  1  0.48626479  0.71092059  0.89037054  1
  Hf  Hf43  1  0.00622318  0.59494362  0.39035150  1
  Hf  Hf44  1  0.39925047  0.39355614  0.59058993  1
  Hf  Hf45  1  0.28306870  0.49695243  0.69327802  1
  Hf  Hf46  1  0.60037459  0.80361591  0.00106071  1
  Hf  Hf47  1  0.70172939  0.51067337  0.50267523  1
  Hf  Hf48  1  0.49824598  0.69506825  0.30067851  1
  Hf  Hf49  1  0.19462746  0.79866542  0.39380589  1
  Zr  Zr50  1  0.49345613  0.89684117  0.50746943  1
  Zr  Zr51  1  0.49874480  0.50970045  0.10506709  1
  Zr  Zr52  1  0.09942048  0.89276358  0.90080722  1
  Zr  Zr53  1  0.40691436  0.40122697  0.21404805  1
  Zr  Zr54  1  0.19052156  0.40338268  0.80187307  1
  Zr  Zr55  1  0.51587983  0.49656263  0.69827853  1
  Zr  Zr56  1  0.89710292  0.49946443  0.49777793  1
  Zr  Zr57  1  0.29554309  0.70621794  0.50665973  1
  Zr  Zr58  1  0.70080317  0.30215810  0.48998294  1
  Zr  Zr59  1  -0.00468890  0.40386470  0.20112659  1
  Zr  Zr60  1  0.89547141  0.71022703  0.29688189  1
  Zr  Zr61  1  0.49562207  0.29528669  0.08695744  1
  Zr  Zr62  1  0.10638945  0.89571004  0.51077093  1
  Zr  Zr63  1  0.60812415  0.79894790  0.39631205  1
  Zr  Zr64  1  0.91333500  0.88750237  0.70124928  1
  Zr  Zr65  1  0.29763348  0.51299951  0.10736021  1
  Zr  Zr66  1  0.39934274  0.40127529  0.80042644  1
  Zr  Zr67  1  0.39832506  0.40996863  -0.00600223  1
  Zr  Zr68  1  0.91215648  0.30257815  0.68871412  1
  Zr  Zr69  1  0.70507798  0.10312337  0.30002351  1
  Zr  Zr70  1  0.60292569  0.39734110  0.59570048  1
  Zr  Zr71  1  0.18214446  0.19480343  0.00107022  1
  Zr  Zr72  1  0.49797766  0.10417427  0.90185975  1
  Zr  Zr73  1  0.71688389  0.89717089  0.10196136  1
  Zr  Zr74  1  0.59792798  0.39354656  0.21064155  1
  Zr  Zr75  1  0.40056191  0.39642569  0.39966238  1
  Zr  Zr76  1  0.29899986  0.70927335  0.70084562  1
  Zr  Zr77  1  0.79802557  0.20555915  0.59755301  1
  Zr  Zr78  1  0.09329018  0.31164943  0.90908493  1
  Zr  Zr79  1  0.00659144  0.20069178  0.80790941  1
  Zr  Zr80  1  0.89041292  0.51603997  0.09621933  1
  Zr  Zr81  1  0.39964628  0.20404704  0.59517066  1
  Zr  Zr82  1  0.29748452  0.08967465  0.48525182  1
  Zr  Zr83  1  0.89451071  0.69697965  0.49448692  1
  Zr  Zr84  1  0.91013341  0.90493070  0.10204271  1
  Zr  Zr85  1  0.70213874  0.09404644  0.50000741  1
  Zr  Zr86  1  0.61618312  0.59201101  0.21950156  1
  Zr  Zr87  1  -0.01383736  0.20090110  0.19300633  1
  Zr  Zr88  1  0.60026390  -0.00446606  0.19777457  1
  Zr  Zr89  1  0.08277457  0.08553303  0.10104804  1
  Zr  Zr90  1  0.39771515  0.01614820  0.61535693  1
  Zr  Zr91  1  0.39940564  0.59221550  0.59690631  1
  Zr  Zr92  1  0.29934118  0.90126020  0.50380328  1
  Zr  Zr93  1  0.71307828  0.90337243  0.90738950  1
  Zr  Zr94  1  0.90560793  0.88967929  0.49781800  1
  Zr  Zr95  1  0.70571153  0.49743270  0.09098061  1
  Zr  Zr96  1  0.30378594  0.90196699  0.29926119  1
  Zr  Zr97  1  0.69643242  0.09897819  0.71146051  1
  Zr  Zr98  1  0.81032024  0.20327269  0.81268454  1
  Zr  Zr99  1  0.30261277  0.29596042  0.90708885  1
  Ta  Ta100  1  0.19721540  -0.00343145  -0.00220474  1
  Ta  Ta101  1  0.39803061  0.00164687  0.79993286  1
  Ta  Ta102  1  0.70927070  0.10182044  0.10479104  1
  Ta  Ta103  1  0.19308184  0.40996439  0.00233217  1
  Ta  Ta104  1  0.59632117  0.19656838  0.20056093  1
  Ta  Ta105  1  0.19616634  0.00423051  0.79558975  1
  Ta  Ta106  1  0.60118188  0.00018276  0.60347030  1
  Ta  Ta107  1  0.70474367  0.29455241  0.10087145  1
  Ta  Ta108  1  0.80050358  0.40523949  0.60597472  1
  Ta  Ta109  1  0.50474210  0.29528001  0.70912106  1
  Ta  Ta110  1  0.80787022  -0.00339220  0.39620457  1
  Ta  Ta111  1  0.90670118  0.09072847  0.90633676  1
  Ta  Ta112  1  0.19467408  0.79909377  0.19661654  1
  Ta  Ta113  1  0.00770037  -0.00182606  0.80012304  1
  Ta  Ta114  1  0.80938558  0.19967031  0.39815425  1
  Ta  Ta115  1  0.00859303  -0.00259634  0.60413924  1
  Ta  Ta116  1  0.80155430  0.79103198  0.60113166  1
  Ta  Ta117  1  0.60209520  0.80363277  0.20037583  1
  Ta  Ta118  1  0.09782501  0.70352605  0.89995314  1
  Ta  Ta119  1  0.40187044  0.79869740  0.39971971  1
  Ta  Ta120  1  0.71102413  0.89755852  0.50335838  1
  Ta  Ta121  1  0.18264999  0.60169702  0.79786745  1
  Ta  Ta122  1  0.49454759  0.09393375  0.30414492  1
  Ta  Ta123  1  0.51310875  0.50843500  0.48925752  1
  Ta  Ta124  1  0.90693892  0.89637490  0.90548894  1
  Ta  Ta125  1  0.10052158  0.09969372  0.69235783  1
  Ta  Ta126  1  0.81383027  0.00619816  0.20487754  1
  Ta  Ta127  1  0.00137349  0.20105523  0.40169120  1
  Ta  Ta128  1  0.39684708  0.19657639  0.79226581  1
  Ta  Ta129  1  0.29703881  0.30153918  0.69524600  1
  Ta  Ta130  1  0.00133098  0.60204389  0.79595312  1
  Ta  Ta131  1  0.70301306  0.68988333  0.68939028  1
  Ta  Ta132  1  0.80243821  0.40545141  0.79899387  1
  Ta  Ta133  1  0.89663728  0.29732548  0.30514721  1
  Ta  Ta134  1  0.09273820  0.49926923  0.69063013  1
  Ta  Ta135  1  -0.01257653  0.20090117  0.00147454  1
  Ta  Ta136  1  0.80927349  0.19989497  0.00684335  1
  Ta  Ta137  1  0.00245491  0.60672845  0.19988445  1
  Ta  Ta138  1  0.00327289  0.79055194  0.00610248  1
  Ta  Ta139  1  0.09560383  0.30545406  0.49992141  1
  Ta  Ta140  1  0.08857635  0.70463099  0.50298236  1
  Ta  Ta141  1  0.28428343  0.51008324  0.90235197  1
  Ta  Ta142  1  0.81049721  -0.00056649  0.80390133  1
  Ta  Ta143  1  0.59625588  -0.00120672  0.00683396  1
  Ta  Ta144  1  0.39489950  0.20077152  0.39419838  1
  Ta  Ta145  1  0.59492708  0.19754651  0.60118439  1
  Ta  Ta146  1  0.20013830  0.00194496  0.20098309  1
  Ta  Ta147  1  -0.00450532  0.60440238  0.60516262  1
  Ta  Ta148  1  0.09792078  0.10086777  0.29906958  1
  Ta  Ta149  1  0.09485520  0.49636775  0.50856550  1
  Ti  Ti150  1  0.60021659  0.40159662  -0.00242197  1
  Ti  Ti151  1  0.08510507  0.71376642  0.69820401  1
  Ti  Ti152  1  0.70483168  0.09809340  0.90176304  1
  Ti  Ti153  1  0.40010616  0.59997340  -0.00741146  1
  Ti  Ti154  1  0.89448367  0.50349646  0.29749073  1
  Ti  Ti155  1  0.79874809  0.59714399  0.79552907  1
  Ti  Ti156  1  0.60972805  0.80086780  0.59731953  1
  Ti  Ti157  1  0.18358039  0.60423531  0.20690946  1
  Ti  Ti158  1  0.78761477  0.59794807  0.38241199  1
  Ti  Ti159  1  0.80537205  -0.00401329  0.60249336  1
  Ti  Ti160  1  0.18423585  0.61028698  0.60429300  1
  Ti  Ti161  1  0.09775859  0.30290290  0.10277813  1
  Ti  Ti162  1  0.90302295  0.10324417  0.29980132  1
  Ti  Ti163  1  0.19808244  0.19741274  0.40008544  1
  Ti  Ti164  1  0.70515256  0.69709566  0.50053718  1
  Ti  Ti165  1  0.71182498  0.71028541  0.29483038  1
  Ti  Ti166  1  0.80156095  0.39783098  0.39708252  1
  Ti  Ti167  1  0.59735072  -0.00449166  0.81065630  1
  Ti  Ti168  1  0.89727394  0.70448811  0.10395876  1
  Ti  Ti169  1  0.19766540  0.18845070  0.20011858  1
  Ti  Ti170  1  0.09088825  0.89871823  0.29104952  1
  Ti  Ti171  1  0.18647697  0.60368156  -0.00335425  1
  Ti  Ti172  1  0.10060711  0.10031747  0.50127940  1
  Ti  Ti173  1  0.50982815  0.10493508  0.70974368  1
  Ti  Ti174  1  0.39868078  0.59262997  0.39727055  1
  Ti  Ti175  1  0.19275346  0.40858625  0.20226104  1
  Ti  Ti176  1  0.08783888  0.71388555  0.29409234  1
  Ti  Ti177  1  -0.01306262  0.39314333  0.00749215  1
  Ti  Ti178  1  0.50602750  0.29637806  0.49064977  1
  Ti  Ti179  1  0.00583802  0.60696007  0.00102423  1
  Ti  Ti180  1  0.80693014  0.00884127  0.00376004  1
  Ti  Ti181  1  0.00059727  0.40306477  0.39542242  1
  Ti  Ti182  1  0.90562195  0.89033333  0.29897104  1
  Ti  Ti183  1  0.41175358  -0.00558707  0.00242597  1
  Ti  Ti184  1  0.72006962  0.89324488  0.29864539  1
  Ti  Ti185  1  0.90911161  0.30372597  0.49909728  1
  Ti  Ti186  1  0.89786570  0.50602356  0.69485595  1
  Ti  Ti187  1  0.18743906  0.80104193  0.79082664  1
  Ti  Ti188  1  0.09760727  0.30527230  0.68441880  1
  Ti  Ti189  1  0.19501020  0.00247061  0.38658104  1
  Ti  Ti190  1  0.19178728  0.40275265  0.39883026  1
  Ti  Ti191  1  0.49237801  0.89212043  0.29646550  1
  Ti  Ti192  1  0.59787169  0.40520258  0.38808219  1
  Ti  Ti193  1  0.50648011  0.29639795  0.89119423  1
  Ti  Ti194  1  0.70655347  0.49464218  0.90007086  1
  Ti  Ti195  1  0.59832593  0.19983067  0.39425278  1
  Ti  Ti196  1  0.70405854  0.29295206  0.29922743  1
  Ti  Ti197  1  0.29545608  0.50425233  0.29688706  1
  Ti  Ti198  1  0.29259235  0.89665577  0.09901708  1
  Ti  Ti199  1  0.50679382  0.49751190  0.89686466  1
  Mo  Mo200  1  0.28881195  0.29916867  0.49095790  1
  Mo  Mo201  1  0.89199525  0.30009658  0.10094195  1
  Mo  Mo202  1  0.29285363  0.10280357  0.70863266  1
  Mo  Mo203  1  0.50652768  0.28543059  0.31021060  1
  Mo  Mo204  1  0.60369815  0.40233944  0.80979032  1
  Mo  Mo205  1  0.00134996  0.79897079  0.19787352  1
  Mo  Mo206  1  -0.00312147  0.40568813  0.59766938  1
  Mo  Mo207  1  0.40426848  0.79763383  0.59583047  1
  Mo  Mo208  1  0.19345848  0.00693130  0.60625267  1
  Mo  Mo209  1  0.79763813  0.20082591  0.20218732  1
  Mo  Mo210  1  0.80510829  0.80682713  0.20105566  1
  Mo  Mo211  1  0.18855857  0.79440141  0.60503922  1
  Mo  Mo212  1  0.09178185  0.51079291  0.90452488  1
  Mo  Mo213  1  0.39755276  0.59505015  0.21052775  1
  Mo  Mo214  1  0.40621466  0.20135236  -0.00397408  1
  Mo  Mo215  1  0.60896767  0.60243065  0.59764319  1
  Mo  Mo216  1  -0.00165743  -0.00044748  0.21719598  1
  Mo  Mo217  1  0.09665184  0.09110928  0.89838029  1
  Mo  Mo218  1  0.49994519  0.90810810  0.89941808  1
  Mo  Mo219  1  0.19283531  0.39254581  0.59595255  1
  Mo  Mo220  1  0.80053840  0.39330902  -0.00199546  1
  Mo  Mo221  1  0.09961274  0.69834996  0.10014723  1
  Mo  Mo222  1  0.89953888  0.69199400  0.70181774  1
  Mo  Mo223  1  0.59671525  0.19972290  0.80546837  1
  Mo  Mo224  1  0.00227757  -0.00127475  -0.01061636  1
  Mo  Mo225  1  0.09930059  0.49861205  0.29820284  1
  Mo  Mo226  1  0.89627113  0.30717113  0.90923179  1
  Mo  Mo227  1  0.50374528  0.50826708  0.31415737  1
  Mo  Mo228  1  0.10175467  0.90126941  0.70199699  1
  Mo  Mo229  1  0.40006140  0.80265674  0.19842795  1
  Mo  Mo230  1  -0.00271375  0.79432026  0.60230052  1
  Mo  Mo231  1  0.81349658  0.79726134  0.00057017  1
  Mo  Mo232  1  0.00540034  0.80051106  0.39648337  1
  Mo  Mo233  1  0.50578948  0.89667145  0.10194572  1
  Mo  Mo234  1  0.80666369  0.59875393  0.20850350  1
  Mo  Mo235  1  0.89472140  0.09661515  0.09880978  1
  Mo  Mo236  1  0.19880324  0.80025798  0.00539174  1
  Mo  Mo237  1  0.79664321  0.60514789  -0.01115316  1
  Mo  Mo238  1  0.40290530  -0.00169429  0.38704704  1
  Mo  Mo239  1  0.00180938  0.79466256  0.80393817  1
  Mo  Mo240  1  0.50483000  0.09490114  0.10189410  1
  Mo  Mo241  1  0.79644618  0.80459230  0.40152871  1
  Mo  Mo242  1  0.39642365  0.80726052  0.79962513  1
  Mo  Mo243  1  0.70790558  0.48868504  0.31056569  1
  Mo  Mo244  1  0.61281113  0.60360855  0.39985126  1
  Mo  Mo245  1  0.29215620  0.10071944  0.29500316  1
  Mo  Mo246  1  0.80402589  0.59967174  0.60817561  1
  Mo  Mo247  1  0.01080698  0.19860563  0.58949428  1
  Mo  Mo248  1  0.70944263  0.69662899  0.89909685  1
  Mo  Mo249  1  0.71188003  0.49930497  0.70191384  1
