# generated using pymatgen
data_HfZrTaTiMo
_symmetry_space_group_name_H-M   'P 1'
_cell_length_a   16.88912676
_cell_length_b   16.89233675
_cell_length_c   16.88947100
_cell_angle_alpha   89.98871434
_cell_angle_beta   89.95193509
_cell_angle_gamma   90.01460646
_symmetry_Int_Tables_number   1
_chemical_formula_structural   HfZrTaTiMo
_chemical_formula_sum   'Hf50 Zr50 Ta50 Ti50 Mo50'
_cell_volume   4818.51036398
_cell_formula_units_Z   50
loop_
 _symmetry_equiv_pos_site_id
 _symmetry_equiv_pos_as_xyz
  1  'x, y, z'
loop_
 _atom_site_type_symbol
 _atom_site_label
 _atom_site_symmetry_multiplicity
 _atom_site_fract_x
 _atom_site_fract_y
 _atom_site_fract_z
 _atom_site_occupancy
  Hf  Hf0  1  0.00474667  0.60053488  0.40606561  1
  Hf  Hf1  1  0.10123265  0.90124676  0.90280954  1
  Hf  Hf2  1  0.60066695  0.60178560  0.58971983  1
  Hf  Hf3  1  0.39348461  0.20509968  0.19424458  1
  Hf  Hf4  1  0.19869724  0.00191256  0.00383500  1
  Hf  Hf5  1  0.89613831  0.09899822  0.70196772  1
  Hf  Hf6  1  0.09805530  0.90010678  0.49798061  1
  Hf  Hf7  1  0.00080359  0.40713807  0.01533988  1
  Hf  Hf8  1  0.19984132  -0.00187531  0.79764835  1
  Hf  Hf9  1  0.59798348  0.39175666  0.80158415  1
  Hf  Hf10  1  0.29748370  0.68964275  0.49530521  1
  Hf  Hf11  1  0.40791681  0.59040653  0.01051409  1
  Hf  Hf12  1  0.41070056  0.00263272  0.61126063  1
  Hf  Hf13  1  0.00840556  0.59546512  0.79919453  1
  Hf  Hf14  1  0.41186439  0.19901941  0.79479810  1
  Hf  Hf15  1  0.49965654  0.90103534  0.29645310  1
  Hf  Hf16  1  0.70311326  0.29982588  0.49335423  1
  Hf  Hf17  1  0.89689172  0.29359684  0.31013652  1
  Hf  Hf18  1  0.00388209  0.00401175  0.19418470  1
  Hf  Hf19  1  0.60264832  0.79558206  0.59775865  1
  Hf  Hf20  1  0.40030498  0.58538985  0.19774177  1
  Hf  Hf21  1  0.40758687  0.59387347  0.60043202  1
  Hf  Hf22  1  0.40105435  0.40362274  0.19504353  1
  Hf  Hf23  1  -0.01098924  0.01464824  0.39321125  1
  Hf  Hf24  1  0.70048211  0.29693389  0.69081117  1
  Hf  Hf25  1  0.59603502  0.19479400  0.79851748  1
  Hf  Hf26  1  0.69676918  0.50030624  0.69657648  1
  Hf  Hf27  1  0.59230989  0.20199288  -0.00472380  1
  Hf  Hf28  1  0.79492973  0.59897718  0.40050982  1
  Hf  Hf29  1  0.89647667  0.29712515  0.10722131  1
  Hf  Hf30  1  0.88921488  0.70467086  0.10184392  1
  Hf  Hf31  1  0.69934609  0.89904162  0.10118468  1
  Hf  Hf32  1  0.90184302  0.88878860  0.29742982  1
  Hf  Hf33  1  0.80087594  0.00058654  -0.00829343  1
  Hf  Hf34  1  0.00903090  0.79061961  0.59761482  1
  Hf  Hf35  1  0.89155603  0.69794521  0.70275682  1
  Hf  Hf36  1  0.10440650  0.49816985  0.89944284  1
  Hf  Hf37  1  0.00294055  0.60132483  0.00130129  1
  Hf  Hf38  1  0.79567840  0.00345062  0.21339105  1
  Hf  Hf39  1  -0.00173453  0.19120911  0.20762425  1
  Hf  Hf40  1  0.10688330  0.49099234  0.30318252  1
  Hf  Hf41  1  0.69223485  0.49614693  0.10183670  1
  Hf  Hf42  1  0.09997502  0.30047522  0.30276672  1
  Hf  Hf43  1  0.19654638  0.79875606  0.40041522  1
  Hf  Hf44  1  0.79760573  0.39917003  0.20147334  1
  Hf  Hf45  1  0.00048299  0.58301605  0.18553603  1
  Hf  Hf46  1  0.78994214  0.80192880  0.39496442  1
  Hf  Hf47  1  0.50665620  0.90344630  0.49826195  1
  Hf  Hf48  1  0.69738403  0.10803027  0.10208305  1
  Hf  Hf49  1  0.79604809  0.79800502  0.59098983  1
  Zr  Zr50  1  0.50337897  0.69859952  0.48110985  1
  Zr  Zr51  1  0.40553961  0.00520736  -0.00772455  1
  Zr  Zr52  1  0.60385069  0.80256396  0.20467380  1
  Zr  Zr53  1  0.30056403  0.48840926  0.48727392  1
  Zr  Zr54  1  0.30606497  0.70453184  0.09887566  1
  Zr  Zr55  1  0.00479529  0.59753872  0.60130143  1
  Zr  Zr56  1  0.49660608  0.70080328  0.30375893  1
  Zr  Zr57  1  0.40570860  0.79843881  0.60807301  1
  Zr  Zr58  1  0.19599555  0.59355261  0.60588256  1
  Zr  Zr59  1  0.30419020  0.49512749  0.89726988  1
  Zr  Zr60  1  0.21251820  0.00039115  0.38839233  1
  Zr  Zr61  1  -0.00280363  0.00404815  0.60166270  1
  Zr  Zr62  1  0.80127317  0.39544845  0.80177421  1
  Zr  Zr63  1  0.19801079  0.39594049  0.79923464  1
  Zr  Zr64  1  0.09916858  0.90303036  0.29559958  1
  Zr  Zr65  1  0.60952387  0.00409248  0.38857971  1
  Zr  Zr66  1  0.69996319  0.10357141  0.50156897  1
  Zr  Zr67  1  0.30180737  0.69969926  0.89958511  1
  Zr  Zr68  1  0.00715685  0.79980617  0.80442252  1
  Zr  Zr69  1  -0.00048170  0.20829716  0.80071630  1
  Zr  Zr70  1  0.30041313  0.10723288  0.89700867  1
  Zr  Zr71  1  0.10012448  0.10666606  0.49666836  1
  Zr  Zr72  1  0.89437262  0.89399423  0.10114318  1
  Zr  Zr73  1  0.89537387  0.89718735  0.70612735  1
  Zr  Zr74  1  -0.00867384  0.39687544  0.41244364  1
  Zr  Zr75  1  0.50074481  0.10774076  0.29156192  1
  Zr  Zr76  1  0.30228943  0.10433119  0.50851589  1
  Zr  Zr77  1  0.38242593  0.81627746  0.39737386  1
  Zr  Zr78  1  0.29803162  0.10370080  0.70324860  1
  Zr  Zr79  1  0.50020391  0.49432871  0.89971277  1
  Zr  Zr80  1  0.10182905  0.69441979  0.29911454  1
  Zr  Zr81  1  -0.00104695  0.00455781  0.00220353  1
  Zr  Zr82  1  0.50033407  0.70560624  0.90402775  1
  Zr  Zr83  1  0.79715771  0.19888843  0.80073984  1
  Zr  Zr84  1  0.29970289  0.70271748  0.70813807  1
  Zr  Zr85  1  0.00406404  0.19932021  0.00378031  1
  Zr  Zr86  1  0.29795371  0.68537474  0.30367550  1
  Zr  Zr87  1  0.69830019  0.70449723  0.71541961  1
  Zr  Zr88  1  0.48968805  0.30094001  0.49195486  1
  Zr  Zr89  1  0.58929808  0.19578776  0.60728710  1
  Zr  Zr90  1  0.90313787  0.70078817  0.29449274  1
  Zr  Zr91  1  0.78900324  0.59140724  0.81141005  1
  Zr  Zr92  1  0.70005802  0.90539209  0.70553781  1
  Zr  Zr93  1  0.80915421  0.39993187  0.59242836  1
  Zr  Zr94  1  0.58900109  0.59526531  0.19686033  1
  Zr  Zr95  1  0.89471120  0.70532433  0.89674393  1
  Zr  Zr96  1  0.10195915  0.29988212  0.69625928  1
  Zr  Zr97  1  0.39420638  0.00660608  0.39591102  1
  Zr  Zr98  1  0.79117979  0.59393546  -0.00108953  1
  Zr  Zr99  1  0.50758954  0.30384383  0.28888834  1
  Ta  Ta100  1  0.19896947  0.59534308  0.00481231  1
  Ta  Ta101  1  0.20814185  0.20387533  0.39751477  1
  Ta  Ta102  1  0.10458446  0.30120359  0.49760955  1
  Ta  Ta103  1  0.20052420  0.80657236  0.19418995  1
  Ta  Ta104  1  0.10188841  0.30259527  0.11011276  1
  Ta  Ta105  1  0.39114584  0.20225813  0.39232734  1
  Ta  Ta106  1  0.59493963  0.40585505  0.39753254  1
  Ta  Ta107  1  0.90256011  0.30475901  0.90727855  1
  Ta  Ta108  1  0.30067670  0.90093233  0.09567209  1
  Ta  Ta109  1  -0.00813053  0.20870463  0.59275706  1
  Ta  Ta110  1  0.90130707  0.49962968  0.69996080  1
  Ta  Ta111  1  0.61028771  0.20435358  0.38694558  1
  Ta  Ta112  1  0.40467481  0.59650157  0.79455494  1
  Ta  Ta113  1  -0.00231060  0.39947759  0.79849490  1
  Ta  Ta114  1  0.69781179  0.70436887  0.09764053  1
  Ta  Ta115  1  0.79484149  0.39824448  0.00235477  1
  Ta  Ta116  1  0.79429396  0.59675673  0.20144668  1
  Ta  Ta117  1  0.80068960  0.00399485  0.59215489  1
  Ta  Ta118  1  0.69459778  0.49551740  0.30034714  1
  Ta  Ta119  1  0.39156428  0.00386250  0.19557107  1
  Ta  Ta120  1  0.20536456  0.58580506  0.19191895  1
  Ta  Ta121  1  0.19621800  0.79845938  0.00246010  1
  Ta  Ta122  1  0.80979513  0.20003207  0.59701588  1
  Ta  Ta123  1  0.90051773  0.49317809  0.90389570  1
  Ta  Ta124  1  0.00669619  0.79805383  0.00141465  1
  Ta  Ta125  1  0.59651842  0.39248797  0.00590883  1
  Ta  Ta126  1  0.19946604  0.39610610  0.00427710  1
  Ta  Ta127  1  0.29361334  0.90175744  0.52040049  1
  Ta  Ta128  1  0.00090312  0.00335739  0.80501834  1
  Ta  Ta129  1  0.50155636  0.10205533  0.09994993  1
  Ta  Ta130  1  0.69785197  0.90394329  0.49783417  1
  Ta  Ta131  1  0.49577483  0.90143922  0.09709834  1
  Ta  Ta132  1  0.20762142  0.40200234  0.19479399  1
  Ta  Ta133  1  0.01269973  0.79872153  0.18603317  1
  Ta  Ta134  1  0.10781353  0.49158003  0.49934030  1
  Ta  Ta135  1  0.30581680  0.89360770  0.90108928  1
  Ta  Ta136  1  0.59121948  0.40321577  0.59349305  1
  Ta  Ta137  1  0.79595161  0.60445877  0.58997231  1
  Ta  Ta138  1  0.50361138  0.49999256  0.70106779  1
  Ta  Ta139  1  0.59670388  0.00049631  -0.00582950  1
  Ta  Ta140  1  0.30306049  0.29979941  0.69457070  1
  Ta  Ta141  1  0.19686132  0.21032279  -0.00296446  1
  Ta  Ta142  1  0.10612453  0.10926327  0.89295849  1
  Ta  Ta143  1  0.19964134  0.20659640  0.60000004  1
  Ta  Ta144  1  0.90218318  0.70486616  0.49322238  1
  Ta  Ta145  1  0.89909163  0.49529414  0.29650657  1
  Ta  Ta146  1  0.78953519  0.80522528  -0.01284380  1
  Ta  Ta147  1  0.60010491  0.00307507  0.19575107  1
  Ta  Ta148  1  0.80212886  0.00554614  0.39909126  1
  Ta  Ta149  1  0.59216069  0.00696714  0.80784021  1
  Ti  Ti150  1  0.20761117  0.20369555  0.20289215  1
  Ti  Ti151  1  0.29998478  0.30282023  0.50038529  1
  Ti  Ti152  1  0.19845554  0.79872976  0.80658913  1
  Ti  Ti153  1  0.60632776  0.81120133  0.81655475  1
  Ti  Ti154  1  0.79911818  0.20437683  -0.00340057  1
  Ti  Ti155  1  0.49073543  0.30266373  0.90366709  1
  Ti  Ti156  1  0.11262271  0.10647515  0.10517469  1
  Ti  Ti157  1  0.60002052  0.59820450  -0.00171910  1
  Ti  Ti158  1  0.40516388  0.40222508  0.60265609  1
  Ti  Ti159  1  0.29919234  0.29713973  0.89608471  1
  Ti  Ti160  1  0.19647451  0.00236864  0.60700250  1
  Ti  Ti161  1  0.50685302  0.69783381  0.71171320  1
  Ti  Ti162  1  0.59914003  0.80881071  -0.00534720  1
  Ti  Ti163  1  0.30083952  0.49834715  0.70406290  1
  Ti  Ti164  1  0.70219576  0.30069977  0.90596458  1
  Ti  Ti165  1  0.50562441  0.90336494  0.71132628  1
  Ti  Ti166  1  0.39275519  0.80760672  0.19957626  1
  Ti  Ti167  1  0.49905626  0.71441062  0.09654901  1
  Ti  Ti168  1  0.41655594  0.56997874  0.39096131  1
  Ti  Ti169  1  0.10088432  0.10742800  0.70284883  1
  Ti  Ti170  1  0.29573264  0.10310344  0.10003905  1
  Ti  Ti171  1  0.10205075  0.89911598  0.70028042  1
  Ti  Ti172  1  0.40506114  0.20192224  0.60537400  1
  Ti  Ti173  1  0.19571319  0.79412205  0.60046089  1
  Ti  Ti174  1  -0.00322161  0.39881688  0.60320350  1
  Ti  Ti175  1  0.90207441  0.89716922  0.49375489  1
  Ti  Ti176  1  0.90217603  0.10343856  0.89926625  1
  Ti  Ti177  1  0.69275283  0.69652980  0.30180204  1
  Ti  Ti178  1  0.88774335  0.10693913  0.10482070  1
  Ti  Ti179  1  0.40196604  0.20383862  0.00102114  1
  Ti  Ti180  1  0.79679470  -0.00233886  0.80768727  1
  Ti  Ti181  1  0.11252511  0.69454073  0.71196882  1
  Ti  Ti182  1  0.40313623  0.39417579  0.78934018  1
  Ti  Ti183  1  0.11139270  0.10378891  0.29813526  1
  Ti  Ti184  1  0.60240990  0.00846041  0.61108097  1
  Ti  Ti185  1  0.60305474  0.59647624  0.81295995  1
  Ti  Ti186  1  0.29643614  0.29917926  0.09352573  1
  Ti  Ti187  1  0.69851063  0.09996827  0.90003684  1
  Ti  Ti188  1  0.50074312  0.10488238  0.49477723  1
  Ti  Ti189  1  0.69093135  0.29543407  0.11064689  1
  Ti  Ti190  1  0.20143354  0.40008511  0.60206994  1
  Ti  Ti191  1  0.29835575  0.31255866  0.30832220  1
  Ti  Ti192  1  0.10772306  0.69696609  0.09921698  1
  Ti  Ti193  1  0.78692559  0.19938998  0.22019964  1
  Ti  Ti194  1  0.69354077  0.50024669  0.49256243  1
  Ti  Ti195  1  0.89936008  0.50576061  0.50191127  1
  Ti  Ti196  1  0.40199506  0.39413285  0.00991916  1
  Ti  Ti197  1  0.30061660  0.89673970  0.70385540  1
  Ti  Ti198  1  0.40924033  0.80818787  0.80435229  1
  Ti  Ti199  1  0.79789506  0.40075372  0.39987428  1
  Mo  Mo200  1  0.60365654  0.20004546  0.19430212  1
  Mo  Mo201  1  0.19485445  0.59233330  0.39860655  1
  Mo  Mo202  1  0.70292670  0.09272501  0.70180852  1
  Mo  Mo203  1  0.60416575  0.58932592  0.39600310  1
  Mo  Mo204  1  0.20455286  0.59702338  0.80219598  1
  Mo  Mo205  1  0.20138843  0.20492403  0.80103328  1
  Mo  Mo206  1  0.20331101  0.39168883  0.40214831  1
  Mo  Mo207  1  0.29838864  0.49243685  0.29951559  1
  Mo  Mo208  1  0.89385708  0.10559586  0.30525538  1
  Mo  Mo209  1  0.20406969  0.00646349  0.19090041  1
  Mo  Mo210  1  0.89599458  0.10663842  0.49765491  1
  Mo  Mo211  1  0.90153833  0.29699988  0.49928265  1
  Mo  Mo212  1  0.29955690  0.49210436  0.09290980  1
  Mo  Mo213  1  -0.00184848  0.79874665  0.40507081  1
  Mo  Mo214  1  -0.00154962  0.39764797  0.20171716  1
  Mo  Mo215  1  0.40110789  0.80657265  0.00434369  1
  Mo  Mo216  1  0.10973345  0.69873088  0.90649515  1
  Mo  Mo217  1  0.79121424  0.79115498  0.19856171  1
  Mo  Mo218  1  0.09635240  0.49275888  0.69697330  1
  Mo  Mo219  1  0.90373666  0.30384288  0.69642036  1
  Mo  Mo220  1  0.69434661  0.90755277  0.90098809  1
  Mo  Mo221  1  0.49950490  0.09197122  0.70470128  1
  Mo  Mo222  1  0.60207741  0.39480329  0.19783500  1
  Mo  Mo223  1  0.50079663  0.49435624  0.49838342  1
  Mo  Mo224  1  0.88954763  0.49800578  0.10284924  1
  Mo  Mo225  1  0.10863586  0.49530644  0.10093189  1
  Mo  Mo226  1  0.69334967  0.48739937  0.90829201  1
  Mo  Mo227  1  0.29733902  0.90620880  0.27922964  1
  Mo  Mo228  1  0.61087839  0.80517809  0.39990939  1
  Mo  Mo229  1  0.49603287  0.29567107  0.09362482  1
  Mo  Mo230  1  0.49321559  0.31067799  0.69476260  1
  Mo  Mo231  1  0.40328123  -0.01187965  0.79971526  1
  Mo  Mo232  1  0.68891441  0.70928593  0.90875811  1
  Mo  Mo233  1  0.29619488  0.11006500  0.28937518  1
  Mo  Mo234  1  0.79631703  0.81448977  0.81434808  1
  Mo  Mo235  1  0.70003595  0.70113805  0.49028814  1
  Mo  Mo236  1  0.90094731  0.90313557  0.90028842  1
  Mo  Mo237  1  0.09856582  0.30258996  0.90927628  1
  Mo  Mo238  1  0.50441405  0.48788955  0.09556330  1
  Mo  Mo239  1  0.70112528  0.30351847  0.30382571  1
  Mo  Mo240  1  0.39957580  0.39491583  0.39360413  1
  Mo  Mo241  1  0.49927345  0.10037618  0.90245654  1
  Mo  Mo242  1  0.10253713  0.69820419  0.49817392  1
  Mo  Mo243  1  0.70003900  0.10431169  0.29963344  1
  Mo  Mo244  1  0.50600369  0.49186836  0.29826352  1
  Mo  Mo245  1  0.00563692  0.19873996  0.40283355  1
  Mo  Mo246  1  0.10448480  0.89685039  0.09696540  1
  Mo  Mo247  1  0.80363121  0.19627497  0.40198592  1
  Mo  Mo248  1  0.49999462  0.90126529  0.89996496  1
  Mo  Mo249  1  0.70044411  0.90351347  0.30048275  1
