# generated using pymatgen
data_HfZrTaTiMo
_symmetry_space_group_name_H-M   'P 1'
_cell_length_a   16.89046394
_cell_length_b   16.89039255
_cell_length_c   16.89228029
_cell_angle_alpha   90.01090061
_cell_angle_beta   89.96979759
_cell_angle_gamma   90.02290415
_symmetry_Int_Tables_number   1
_chemical_formula_structural   HfZrTaTiMo
_chemical_formula_sum   'Hf50 Zr50 Ta50 Ti50 Mo50'
_cell_volume   4819.13950034
_cell_formula_units_Z   50
loop_
 _symmetry_equiv_pos_site_id
 _symmetry_equiv_pos_as_xyz
  1  'x, y, z'
loop_
 _atom_site_type_symbol
 _atom_site_label
 _atom_site_symmetry_multiplicity
 _atom_site_fract_x
 _atom_site_fract_y
 _atom_site_fract_z
 _atom_site_occupancy
  Hf  Hf0  1  0.30049840  0.70582338  0.29990773  1
  Hf  Hf1  1  0.90161718  0.10613707  0.90308157  1
  Hf  Hf2  1  0.89284520  0.90070302  0.70842690  1
  Hf  Hf3  1  0.80591975  0.01297911  0.37937048  1
  Hf  Hf4  1  0.70308477  0.70993002  0.49795797  1
  Hf  Hf5  1  0.09476183  0.70684026  0.30474421  1
  Hf  Hf6  1  0.30563863  0.29922251  0.67761922  1
  Hf  Hf7  1  -0.00012550  0.00100151  0.80156192  1
  Hf  Hf8  1  0.69748913  0.11194370  0.48557832  1
  Hf  Hf9  1  0.09957761  0.68902781  0.90213358  1
  Hf  Hf10  1  0.20423559  0.20195491  0.40882299  1
  Hf  Hf11  1  0.90297316  0.10220726  0.49255327  1
  Hf  Hf12  1  0.60487217  0.59829429  0.80023767  1
  Hf  Hf13  1  0.30387061  0.29740846  0.90138603  1
  Hf  Hf14  1  0.00739405  0.80062128  0.60061297  1
  Hf  Hf15  1  0.39520287  0.80296461  0.80874983  1
  Hf  Hf16  1  0.80263729  0.20354357  0.00292676  1
  Hf  Hf17  1  0.10449928  0.10201321  0.90207761  1
  Hf  Hf18  1  0.39316853  0.19459781  0.79269284  1
  Hf  Hf19  1  -0.00664915  0.58597078  0.78879727  1
  Hf  Hf20  1  0.48540748  0.71614174  0.50082126  1
  Hf  Hf21  1  0.79836514  0.39666663  0.00147962  1
  Hf  Hf22  1  0.20528385  0.59252982  0.19629609  1
  Hf  Hf23  1  0.30594116  0.50221116  0.69524546  1
  Hf  Hf24  1  0.79331289  0.58874534  0.79552334  1
  Hf  Hf25  1  0.30778263  0.10088831  0.30473608  1
  Hf  Hf26  1  0.09200651  0.90577267  0.49354847  1
  Hf  Hf27  1  0.49584699  0.09442611  0.89542582  1
  Hf  Hf28  1  0.89716461  0.70383358  0.69811813  1
  Hf  Hf29  1  0.81193576  0.39933036  0.79194718  1
  Hf  Hf30  1  0.20489428  0.00782788  0.60108254  1
  Hf  Hf31  1  0.09618328  0.30097843  0.50414150  1
  Hf  Hf32  1  -0.00818989  0.39499077  0.40346409  1
  Hf  Hf33  1  0.80153978  0.00059785  0.59859505  1
  Hf  Hf34  1  0.30304945  0.48828112  0.50226885  1
  Hf  Hf35  1  0.20853699  0.40140496  0.19298741  1
  Hf  Hf36  1  0.10321835  0.69678397  0.09783196  1
  Hf  Hf37  1  0.19949759  0.39943116  0.00244566  1
  Hf  Hf38  1  0.30513640  0.50083662  0.90014709  1
  Hf  Hf39  1  0.00086959  0.00524520  0.60666823  1
  Hf  Hf40  1  0.59015277  0.81588857  0.60249778  1
  Hf  Hf41  1  0.20548575  0.19891503  0.20446838  1
  Hf  Hf42  1  0.90050780  0.88748529  0.30652126  1
  Hf  Hf43  1  0.40409934  0.39781229  0.79484549  1
  Hf  Hf44  1  0.80022140  0.60330056  0.39386170  1
  Hf  Hf45  1  0.79699261  0.59791097  0.19820033  1
  Hf  Hf46  1  0.90214316  0.71021309  0.49072560  1
  Hf  Hf47  1  0.59246374  0.60662468  0.39901149  1
  Hf  Hf48  1  0.49862457  0.49497380  0.50084053  1
  Hf  Hf49  1  0.70691889  0.30687833  0.48674209  1
  Zr  Zr50  1  0.09671169  0.09640614  0.10190840  1
  Zr  Zr51  1  0.70240191  0.89621944  0.29073513  1
  Zr  Zr52  1  0.40768694  0.00330423  0.20172343  1
  Zr  Zr53  1  0.20935119  0.80000760  -0.00744420  1
  Zr  Zr54  1  0.18883724  0.60294495  0.59374482  1
  Zr  Zr55  1  0.09944700  0.29830533  0.30034417  1
  Zr  Zr56  1  -0.00728777  0.37887837  -0.01692043  1
  Zr  Zr57  1  0.70654881  0.89903073  0.48301651  1
  Zr  Zr58  1  0.81078573  0.21265691  0.60100963  1
  Zr  Zr59  1  0.60621161  0.00518246  0.00242873  1
  Zr  Zr60  1  0.00039876  0.80170165  0.19459068  1
  Zr  Zr61  1  0.39906954  0.59381490  0.20092030  1
  Zr  Zr62  1  0.29817185  0.09174649  0.09875903  1
  Zr  Zr63  1  0.20338273  0.20250914  -0.00371008  1
  Zr  Zr64  1  0.30193152  0.68779577  0.89236834  1
  Zr  Zr65  1  0.89009653  0.49096822  0.49969463  1
  Zr  Zr66  1  0.89683854  0.69854094  0.90047284  1
  Zr  Zr67  1  0.60414501  0.00480538  0.20307602  1
  Zr  Zr68  1  0.50411741  0.49055736  0.29850737  1
  Zr  Zr69  1  0.10486234  0.70490308  0.70912374  1
  Zr  Zr70  1  0.50125131  0.29970453  0.49553361  1
  Zr  Zr71  1  0.09752966  0.49492613  0.30496429  1
  Zr  Zr72  1  0.50361653  0.89165543  0.09984599  1
  Zr  Zr73  1  0.08509002  0.50304676  0.09272883  1
  Zr  Zr74  1  0.19532415  0.59545399  0.40923346  1
  Zr  Zr75  1  0.70502167  0.09973734  0.70014979  1
  Zr  Zr76  1  0.50177469  0.29853057  0.90346297  1
  Zr  Zr77  1  0.59904066  -0.00321510  0.59586638  1
  Zr  Zr78  1  0.61005753  0.40250217  0.79499205  1
  Zr  Zr79  1  -0.00008272  0.81023852  -0.00229195  1
  Zr  Zr80  1  0.49015545  0.69926398  0.70666528  1
  Zr  Zr81  1  0.40043791  -0.00146844  0.59934933  1
  Zr  Zr82  1  0.69292183  0.70956280  0.29483342  1
  Zr  Zr83  1  0.30133170  0.89357397  0.29513917  1
  Zr  Zr84  1  -0.01194642  -0.00007565  0.20247875  1
  Zr  Zr85  1  0.60359991  0.19403002  0.00117401  1
  Zr  Zr86  1  0.08603779  0.28756802  0.09993397  1
  Zr  Zr87  1  0.49658858  0.10190924  0.69592550  1
  Zr  Zr88  1  0.69429631  0.29625543  0.11436685  1
  Zr  Zr89  1  0.19314804  0.39242746  0.79779364  1
  Zr  Zr90  1  0.69199191  0.48857826  0.29781693  1
  Zr  Zr91  1  0.70098331  0.89221657  0.90818006  1
  Zr  Zr92  1  0.19923412  0.79592673  0.41409760  1
  Zr  Zr93  1  0.90041747  0.49930974  0.09611701  1
  Zr  Zr94  1  0.70204152  0.71374441  0.70218963  1
  Zr  Zr95  1  0.21196557  0.00436686  0.41124747  1
  Zr  Zr96  1  0.50063689  0.50557985  0.90369009  1
  Zr  Zr97  1  -0.00803223  -0.00370423  0.00513305  1
  Zr  Zr98  1  0.90227484  0.69237721  0.09119853  1
  Zr  Zr99  1  0.60579876  0.60172449  0.60096385  1
  Ta  Ta100  1  0.40021098  0.39459058  0.19965050  1
  Ta  Ta101  1  0.20298655  0.80493770  0.60206976  1
  Ta  Ta102  1  0.49988707  0.89243244  0.30289381  1
  Ta  Ta103  1  -0.01016895  0.20305907  0.39512664  1
  Ta  Ta104  1  0.09634706  0.29751211  0.69536956  1
  Ta  Ta105  1  0.11808853  0.90405958  0.10122236  1
  Ta  Ta106  1  0.40654761  0.20797437  0.20331732  1
  Ta  Ta107  1  0.00401185  0.81024981  0.80607328  1
  Ta  Ta108  1  0.79557853  0.00818037  0.00944409  1
  Ta  Ta109  1  0.80160230  0.39281501  0.20379964  1
  Ta  Ta110  1  0.19973621  0.19456695  0.59914227  1
  Ta  Ta111  1  0.11576657  0.90939114  0.89619980  1
  Ta  Ta112  1  0.50335051  0.10857616  0.49335181  1
  Ta  Ta113  1  0.09572979  0.49730480  0.89762894  1
  Ta  Ta114  1  0.30202107  0.70576986  0.10382982  1
  Ta  Ta115  1  0.60296552  -0.00080075  0.80298570  1
  Ta  Ta116  1  0.50275429  0.29976520  0.69174251  1
  Ta  Ta117  1  0.78933183  0.59644100  -0.00249021  1
  Ta  Ta118  1  0.09982924  0.90267306  0.30214832  1
  Ta  Ta119  1  0.70638972  0.88849236  0.10360333  1
  Ta  Ta120  1  0.69427962  0.70240540  0.09583358  1
  Ta  Ta121  1  0.80086666  0.59344898  0.60251629  1
  Ta  Ta122  1  0.11075169  0.90330217  0.70905118  1
  Ta  Ta123  1  0.80332095  0.20773653  0.80033717  1
  Ta  Ta124  1  0.50157021  0.69771736  0.90663651  1
  Ta  Ta125  1  0.50714289  0.49613708  0.10181418  1
  Ta  Ta126  1  0.60901203  0.19913998  0.79759231  1
  Ta  Ta127  1  0.40443556  0.60234908  0.01195305  1
  Ta  Ta128  1  0.30159650  0.89459394  0.10232376  1
  Ta  Ta129  1  -0.01439321  0.38989212  0.20327796  1
  Ta  Ta130  1  0.70199399  0.29949880  0.89793456  1
  Ta  Ta131  1  0.89655713  0.49536347  0.30149956  1
  Ta  Ta132  1  0.29994734  0.70496526  0.69960682  1
  Ta  Ta133  1  -0.00004152  0.59383728  0.59383559  1
  Ta  Ta134  1  0.69954246  0.49182711  0.49389554  1
  Ta  Ta135  1  0.39804970  0.39408040  0.39592130  1
  Ta  Ta136  1  0.50664881  0.11234527  0.30731208  1
  Ta  Ta137  1  0.60309004  0.39931431  0.00464876  1
  Ta  Ta138  1  0.39790158  0.60347553  0.39923176  1
  Ta  Ta139  1  -0.00008729  0.21371500  0.80355249  1
  Ta  Ta140  1  0.41031022  -0.00235084  0.40450027  1
  Ta  Ta141  1  0.60605858  0.39944509  0.60035923  1
  Ta  Ta142  1  0.90375594  0.90148304  0.48968504  1
  Ta  Ta143  1  0.49789356  0.49863923  0.69346094  1
  Ta  Ta144  1  0.09135363  0.09685871  0.30614017  1
  Ta  Ta145  1  0.29611004  0.90357187  0.70954860  1
  Ta  Ta146  1  0.60347004  0.20557625  0.59868179  1
  Ta  Ta147  1  0.49820375  0.90032471  0.90119265  1
  Ta  Ta148  1  0.40234640  0.19476026  0.00633066  1
  Ta  Ta149  1  0.39824448  -0.00285630  -0.00175931  1
  Ti  Ti150  1  0.00219098  0.59840842  0.40749577  1
  Ti  Ti151  1  0.40192967  0.20756488  0.39725671  1
  Ti  Ti152  1  0.69553698  0.69972360  0.90938801  1
  Ti  Ti153  1  0.39957784  0.60237944  0.59918577  1
  Ti  Ti154  1  0.30931123  0.29722068  0.09957321  1
  Ti  Ti155  1  0.80051083  0.80925936  0.59651868  1
  Ti  Ti156  1  0.31968049  0.88542804  0.50403679  1
  Ti  Ti157  1  0.87985010  0.89967013  0.10141286  1
  Ti  Ti158  1  0.29858258  0.91222625  0.89664954  1
  Ti  Ti159  1  0.59671086  0.00202048  0.39512275  1
  Ti  Ti160  1  0.41521581  0.78761243  0.19944101  1
  Ti  Ti161  1  0.40069963  0.79757663  0.00002582  1
  Ti  Ti162  1  0.70200624  0.11853098  0.29387549  1
  Ti  Ti163  1  0.79844810  0.79920833  0.80918713  1
  Ti  Ti164  1  0.50396995  0.30162328  0.10749935  1
  Ti  Ti165  1  0.58861740  0.80236433  0.39726330  1
  Ti  Ti166  1  0.90109207  0.10660932  0.70739437  1
  Ti  Ti167  1  0.69671623  0.49689455  0.90912973  1
  Ti  Ti168  1  -0.01431711  0.39677628  0.60638045  1
  Ti  Ti169  1  0.70298134  0.90124225  0.70870620  1
  Ti  Ti170  1  0.40251637  0.40162853  0.01097206  1
  Ti  Ti171  1  0.09245058  0.48782649  0.69486401  1
  Ti  Ti172  1  0.68792502  0.50138321  0.10384411  1
  Ti  Ti173  1  0.19242587  0.39948486  0.59223089  1
  Ti  Ti174  1  0.30693629  0.70457059  0.50777566  1
  Ti  Ti175  1  0.10230126  0.10471416  0.70585705  1
  Ti  Ti176  1  0.20167584  0.19882053  0.79237065  1
  Ti  Ti177  1  0.79363684  0.00777684  0.81210669  1
  Ti  Ti178  1  0.88895366  0.90040457  0.90562315  1
  Ti  Ti179  1  0.48978908  0.90564178  0.71297321  1
  Ti  Ti180  1  0.70873211  0.10386651  0.11599562  1
  Ti  Ti181  1  0.59632048  0.80441565  0.80566625  1
  Ti  Ti182  1  0.31818844  0.11561500  0.50804385  1
  Ti  Ti183  1  -0.00743181  0.59927281  0.21121397  1
  Ti  Ti184  1  0.19752775  0.58939379  0.79356317  1
  Ti  Ti185  1  0.69181103  0.29755529  0.30266995  1
  Ti  Ti186  1  0.89931214  0.11533798  0.11168086  1
  Ti  Ti187  1  0.29836908  0.08978859  0.89328175  1
  Ti  Ti188  1  0.19894308  -0.00182387  0.20723178  1
  Ti  Ti189  1  0.59421383  0.79096027  0.00421075  1
  Ti  Ti190  1  0.90300174  0.49899866  0.90144557  1
  Ti  Ti191  1  0.80733911  0.78617181  0.19935014  1
  Ti  Ti192  1  0.20905287  0.59070230  0.00667077  1
  Ti  Ti193  1  0.29894827  0.49271976  0.30895606  1
  Ti  Ti194  1  0.30036231  0.30468070  0.30536541  1
  Ti  Ti195  1  0.70300538  0.30353032  0.69539295  1
  Ti  Ti196  1  -0.00150112  0.20178580  0.60335734  1
  Ti  Ti197  1  0.58749806  0.61541618  0.19280538  1
  Ti  Ti198  1  0.50146738  0.10636804  0.10515595  1
  Ti  Ti199  1  0.09092236  0.10203889  0.49455192  1
  Mo  Mo200  1  0.49858153  0.69726298  0.09593451  1
  Mo  Mo201  1  0.20021990  0.80287701  0.19551280  1
  Mo  Mo202  1  0.00017790  0.00526917  0.39596213  1
  Mo  Mo203  1  0.59469254  0.79681654  0.19650695  1
  Mo  Mo204  1  0.89498533  0.29815578  0.89380642  1
  Mo  Mo205  1  0.21123014  -0.00445808  -0.00271085  1
  Mo  Mo206  1  0.39906149  0.80086629  0.39781987  1
  Mo  Mo207  1  0.40961129  0.39955069  0.59766551  1
  Mo  Mo208  1  0.20169844  0.80706397  0.79980949  1
  Mo  Mo209  1  0.90846300  0.30218415  0.69892160  1
  Mo  Mo210  1  0.80135886  0.20264158  0.20694990  1
  Mo  Mo211  1  0.59884133  0.39791012  0.39847490  1
  Mo  Mo212  1  0.80684299  0.79800870  0.39653415  1
  Mo  Mo213  1  0.89553398  0.29392220  0.11009622  1
  Mo  Mo214  1  0.00376161  0.80077881  0.39982357  1
  Mo  Mo215  1  0.39863440  -0.00274903  0.80411091  1
  Mo  Mo216  1  0.49467073  0.70376809  0.30260182  1
  Mo  Mo217  1  0.00010075  0.39867365  0.79253404  1
  Mo  Mo218  1  0.90490310  0.69115900  0.30076715  1
  Mo  Mo219  1  0.20562891  0.39455486  0.40628083  1
  Mo  Mo220  1  0.60179776  0.20279221  0.39652943  1
  Mo  Mo221  1  0.60304100  0.59835335  0.00300561  1
  Mo  Mo222  1  0.29803528  0.30054535  0.49573192  1
  Mo  Mo223  1  0.70529974  0.10262403  0.89466928  1
  Mo  Mo224  1  0.79973440  0.00696777  0.19137133  1
  Mo  Mo225  1  0.20365549  0.00883565  0.79736497  1
  Mo  Mo226  1  0.90102088  0.29730274  0.50089412  1
  Mo  Mo227  1  0.31181150  0.49494396  0.09636241  1
  Mo  Mo228  1  0.50037619  0.29873767  0.29823292  1
  Mo  Mo229  1  0.79431066  0.79712226  0.00502109  1
  Mo  Mo230  1  0.79675939  0.40213608  0.60209584  1
  Mo  Mo231  1  0.29340304  0.10190673  0.69719928  1
  Mo  Mo232  1  0.09310645  0.70058274  0.50527771  1
  Mo  Mo233  1  0.59601889  0.19988453  0.20538325  1
  Mo  Mo234  1  0.59557893  0.39233233  0.19672043  1
  Mo  Mo235  1  -0.00370729  0.59277805  -0.01561736  1
  Mo  Mo236  1  -0.00779590  0.19863187  0.20737420  1
  Mo  Mo237  1  0.49932203  0.90401019  0.48919192  1
  Mo  Mo238  1  0.70238451  0.49425921  0.68743987  1
  Mo  Mo239  1  0.89977972  0.49825331  0.69073251  1
  Mo  Mo240  1  0.40351131  0.20169961  0.59448739  1
  Mo  Mo241  1  0.89888718  0.10968233  0.29484856  1
  Mo  Mo242  1  -0.00640414  0.19784415  -0.00204111  1
  Mo  Mo243  1  0.80263114  0.20653713  0.39134673  1
  Mo  Mo244  1  0.39293493  0.80573958  0.61087949  1
  Mo  Mo245  1  0.10086816  0.29674332  0.88921706  1
  Mo  Mo246  1  0.40228441  0.60027038  0.79669293  1
  Mo  Mo247  1  0.88971756  0.29924173  0.30321215  1
  Mo  Mo248  1  0.79873100  0.39697820  0.39064184  1
  Mo  Mo249  1  0.09188543  0.49189641  0.50668254  1
