# generated using pymatgen
data_HfZrTaTiMo
_symmetry_space_group_name_H-M   'P 1'
_cell_length_a   16.89943020
_cell_length_b   16.89864241
_cell_length_c   16.89576268
_cell_angle_alpha   90.02049446
_cell_angle_beta   90.04058730
_cell_angle_gamma   89.94844154
_symmetry_Int_Tables_number   1
_chemical_formula_structural   HfZrTaTiMo
_chemical_formula_sum   'Hf50 Zr50 Ta50 Ti50 Mo50'
_cell_volume   4825.04497689
_cell_formula_units_Z   50
loop_
 _symmetry_equiv_pos_site_id
 _symmetry_equiv_pos_as_xyz
  1  'x, y, z'
loop_
 _atom_site_type_symbol
 _atom_site_label
 _atom_site_symmetry_multiplicity
 _atom_site_fract_x
 _atom_site_fract_y
 _atom_site_fract_z
 _atom_site_occupancy
  Hf  Hf0  1  0.00916853  0.00034920  0.40793868  1
  Hf  Hf1  1  0.58906466  0.00718003  0.80422898  1
  Hf  Hf2  1  0.59686346  0.81168816  0.59767023  1
  Hf  Hf3  1  0.09967931  0.70609509  0.10076822  1
  Hf  Hf4  1  0.79951900  0.61076849  0.80531706  1
  Hf  Hf5  1  0.19734434  0.80436139  -0.00587337  1
  Hf  Hf6  1  0.58597867  0.00600994  0.00524789  1
  Hf  Hf7  1  0.01689224  0.59099438  0.60148688  1
  Hf  Hf8  1  0.00630207  0.00050806  0.59625217  1
  Hf  Hf9  1  0.47882042  0.90510787  0.49433132  1
  Hf  Hf10  1  0.10044099  0.71059093  0.50336006  1
  Hf  Hf11  1  0.59748170  0.19897400  0.39477326  1
  Hf  Hf12  1  0.89815009  0.50718744  0.89990342  1
  Hf  Hf13  1  0.59993075  0.39287581  0.19776896  1
  Hf  Hf14  1  0.79757986  0.19084578  -0.00919392  1
  Hf  Hf15  1  0.79919295  0.00147903  0.19474975  1
  Hf  Hf16  1  0.59446731  0.81230023  0.19612853  1
  Hf  Hf17  1  0.39429716  0.60586757  0.20024105  1
  Hf  Hf18  1  0.80846622  0.80088881  0.20285807  1
  Hf  Hf19  1  0.90059150  0.29456563  0.10096869  1
  Hf  Hf20  1  0.78796434  0.19430569  0.19291601  1
  Hf  Hf21  1  0.20305912  0.60198503  0.20407080  1
  Hf  Hf22  1  0.70125734  0.90521548  0.29971770  1
  Hf  Hf23  1  0.60709155  0.39698713  0.39622489  1
  Hf  Hf24  1  0.70382248  0.49842032  0.08381211  1
  Hf  Hf25  1  0.19603889  0.39801117  0.39099048  1
  Hf  Hf26  1  0.10578001  0.89581845  0.69221790  1
  Hf  Hf27  1  0.39425169  0.20100095  0.60652271  1
  Hf  Hf28  1  0.78781466  0.39557470  0.20758361  1
  Hf  Hf29  1  0.40251328  0.39548870  0.19357028  1
  Hf  Hf30  1  0.69479112  0.29433508  0.70662273  1
  Hf  Hf31  1  0.89923344  0.49995062  0.50064346  1
  Hf  Hf32  1  0.30951782  0.29585697  0.90426291  1
  Hf  Hf33  1  0.90242586  0.50261744  0.30652501  1
  Hf  Hf34  1  0.80538541  0.38398626  0.80619048  1
  Hf  Hf35  1  0.48975214  0.90792421  0.29798546  1
  Hf  Hf36  1  0.70105810  0.70471534  0.09709162  1
  Hf  Hf37  1  0.69698904  0.49670214  0.70186354  1
  Hf  Hf38  1  0.20379751  0.39876058  0.20153499  1
  Hf  Hf39  1  0.00330487  0.39781363  0.79114734  1
  Hf  Hf40  1  0.59392774  -0.00050613  0.59826718  1
  Hf  Hf41  1  0.90001770  0.09315800  0.30018073  1
  Hf  Hf42  1  0.59860683  0.59262913  0.19945975  1
  Hf  Hf43  1  0.49615375  0.70949872  0.30154486  1
  Hf  Hf44  1  0.10417175  0.89839271  0.30530388  1
  Hf  Hf45  1  0.91032058  0.70637565  0.69068105  1
  Hf  Hf46  1  0.59771295  0.00343448  0.40293734  1
  Hf  Hf47  1  0.39155783  0.60175687  0.40231830  1
  Hf  Hf48  1  -0.00599019  0.39499985  -0.00905592  1
  Hf  Hf49  1  0.20759955  0.19754394  0.79945678  1
  Zr  Zr50  1  0.70886965  0.70197854  0.50472410  1
  Zr  Zr51  1  0.68973550  0.70345556  0.70059097  1
  Zr  Zr52  1  -0.00865487  0.20126673  0.79419114  1
  Zr  Zr53  1  0.09819033  0.51088381  0.09439298  1
  Zr  Zr54  1  0.21135592  0.18740992  0.19746547  1
  Zr  Zr55  1  0.90168116  0.50523841  0.70285670  1
  Zr  Zr56  1  0.69922202  0.30092122  0.51298377  1
  Zr  Zr57  1  0.79919094  0.59939809  0.20977885  1
  Zr  Zr58  1  0.90583467  0.70344423  0.09690022  1
  Zr  Zr59  1  0.01144385  0.39899766  0.40518347  1
  Zr  Zr60  1  0.00121626  0.18790241  -0.00022037  1
  Zr  Zr61  1  0.79311852  0.20363718  0.39753579  1
  Zr  Zr62  1  0.48478388  0.89516239  0.89516198  1
  Zr  Zr63  1  0.49216211  0.49300917  0.30597519  1
  Zr  Zr64  1  0.39961489  0.60236616  0.79565879  1
  Zr  Zr65  1  0.69241268  0.89824796  0.89967353  1
  Zr  Zr66  1  0.01297380  0.39874389  0.20845685  1
  Zr  Zr67  1  0.39413979  0.40471052  0.61104340  1
  Zr  Zr68  1  0.11856926  0.28824888  0.50595566  1
  Zr  Zr69  1  0.21540026  0.79872787  0.20943583  1
  Zr  Zr70  1  0.28869171  0.50397358  0.50258833  1
  Zr  Zr71  1  0.89909959  0.50396659  0.09552320  1
  Zr  Zr72  1  0.79941194  0.00682313  0.00100533  1
  Zr  Zr73  1  0.29108210  0.10292379  0.49152915  1
  Zr  Zr74  1  0.90571258  0.89121913  0.50447871  1
  Zr  Zr75  1  0.37292423  0.80547381  0.38573708  1
  Zr  Zr76  1  0.69709407  0.10549188  0.70495331  1
  Zr  Zr77  1  0.58555735  0.59593641  0.60262144  1
  Zr  Zr78  1  0.58662872  0.79988526  0.00058240  1
  Zr  Zr79  1  0.10129060  0.51023019  0.89152708  1
  Zr  Zr80  1  0.49878161  0.29491267  0.91127512  1
  Zr  Zr81  1  0.01687507  0.19124194  0.39827820  1
  Zr  Zr82  1  0.28503418  0.70582009  0.50553927  1
  Zr  Zr83  1  0.59343812  0.60692284  -0.00561745  1
  Zr  Zr84  1  0.00431933  0.79742875  0.80470223  1
  Zr  Zr85  1  0.81148790  0.19972159  0.61306635  1
  Zr  Zr86  1  0.69881657  0.70368407  0.30687961  1
  Zr  Zr87  1  0.80204388  0.80437976  0.80007142  1
  Zr  Zr88  1  0.10475797  0.29369430  0.09829079  1
  Zr  Zr89  1  0.40336098  0.61111897  -0.00418102  1
  Zr  Zr90  1  0.50422236  0.29749332  0.70688231  1
  Zr  Zr91  1  0.79889282  0.00404964  0.80376384  1
  Zr  Zr92  1  0.48892585  0.70982286  0.50467688  1
  Zr  Zr93  1  0.31516469  0.29516638  0.09021991  1
  Zr  Zr94  1  0.60173486  0.59529271  0.40614827  1
  Zr  Zr95  1  0.30191577  0.29805384  0.49750140  1
  Zr  Zr96  1  0.90515239  0.29429770  0.29856914  1
  Zr  Zr97  1  0.20678711  0.40466028  -0.00463144  1
  Zr  Zr98  1  0.10562407  0.29469677  0.89724812  1
  Zr  Zr99  1  0.00329679  0.19519368  0.60082820  1
  Ta  Ta100  1  0.60485571  0.81260382  0.40767415  1
  Ta  Ta101  1  0.00914637  0.39850630  0.60074500  1
  Ta  Ta102  1  0.10413472  0.08723992  0.89423943  1
  Ta  Ta103  1  0.20482710  0.18246536  -0.00211338  1
  Ta  Ta104  1  -0.00018377  0.61677720  -0.01473502  1
  Ta  Ta105  1  0.49172281  0.30047199  0.49186422  1
  Ta  Ta106  1  0.30974053  0.29049560  0.30507261  1
  Ta  Ta107  1  0.70264803  0.90212854  0.09749415  1
  Ta  Ta108  1  0.39359148  0.00083648  0.79427949  1
  Ta  Ta109  1  0.28818843  0.93055904  0.30115670  1
  Ta  Ta110  1  0.30064765  0.70872026  0.89144877  1
  Ta  Ta111  1  0.80793076  0.80305054  -0.00541145  1
  Ta  Ta112  1  0.70731239  0.49593755  0.50809315  1
  Ta  Ta113  1  0.11052635  0.29910214  0.69683471  1
  Ta  Ta114  1  0.39493750  0.59975838  0.60930066  1
  Ta  Ta115  1  0.90518002  0.70307310  0.49998426  1
  Ta  Ta116  1  0.21180938  0.40434275  0.79164948  1
  Ta  Ta117  1  0.41049033  0.18884453  0.19882500  1
  Ta  Ta118  1  0.49489423  0.29321105  0.29992034  1
  Ta  Ta119  1  0.79371291  0.39869457  0.39785448  1
  Ta  Ta120  1  0.90956615  0.90492167  0.90325991  1
  Ta  Ta121  1  0.48747694  0.10275009  0.49469229  1
  Ta  Ta122  1  0.79664082  -0.00122717  0.40498520  1
  Ta  Ta123  1  0.70027708  0.09831961  0.50394634  1
  Ta  Ta124  1  0.00059717  0.61169681  0.21383564  1
  Ta  Ta125  1  0.39921714  0.19121554  0.80110946  1
  Ta  Ta126  1  0.59991896  0.39953609  0.80857958  1
  Ta  Ta127  1  0.10857623  0.09447762  0.69977483  1
  Ta  Ta128  1  0.29381354  0.09555758  0.69752019  1
  Ta  Ta129  1  0.20516638  -0.00706020  0.79774685  1
  Ta  Ta130  1  0.91085238  0.89996624  0.09981415  1
  Ta  Ta131  1  0.58945834  0.19478001  0.59383535  1
  Ta  Ta132  1  0.20457438  0.59932797  0.78925580  1
  Ta  Ta133  1  0.90639203  0.89969828  0.30344462  1
  Ta  Ta134  1  0.10313997  0.70586299  0.31426140  1
  Ta  Ta135  1  0.30680198  0.90279250  0.09947384  1
  Ta  Ta136  1  0.69765371  0.49888191  0.89947247  1
  Ta  Ta137  1  0.40161295  0.00736309  0.19616956  1
  Ta  Ta138  1  0.01633727  0.18639202  0.20521221  1
  Ta  Ta139  1  0.39070131  -0.00080170  0.60189929  1
  Ta  Ta140  1  0.00752208  -0.00499099  0.00111794  1
  Ta  Ta141  1  0.50015756  0.49501991  0.89961420  1
  Ta  Ta142  1  0.68937287  0.29198764  0.09124467  1
  Ta  Ta143  1  0.69208276  0.09940657  0.29590809  1
  Ta  Ta144  1  0.39553741  0.40128272  0.80214690  1
  Ta  Ta145  1  0.59303981  0.00966034  0.19252210  1
  Ta  Ta146  1  0.89356490  0.09783587  0.50026969  1
  Ta  Ta147  1  0.30243031  0.08913028  0.90116347  1
  Ta  Ta148  1  0.90279155  0.30174262  0.50116361  1
  Ta  Ta149  1  0.30502939  0.50360855  0.09164287  1
  Ti  Ti150  1  0.12879674  0.08358163  0.30443583  1
  Ti  Ti151  1  0.50116384  0.49555431  0.70827498  1
  Ti  Ti152  1  0.20476821  0.60849458  -0.00552373  1
  Ti  Ti153  1  0.49538260  0.49422554  0.08891899  1
  Ti  Ti154  1  0.10685675  0.69848284  0.88959003  1
  Ti  Ti155  1  0.49290924  0.71508677  0.70738037  1
  Ti  Ti156  1  0.29309800  0.70543681  0.69633132  1
  Ti  Ti157  1  0.39726703  0.80059643  0.00043211  1
  Ti  Ti158  1  0.59828141  0.39462419  -0.00090632  1
  Ti  Ti159  1  0.48995041  0.71169168  0.10869025  1
  Ti  Ti160  1  0.10838434  0.70236606  0.69634015  1
  Ti  Ti161  1  0.49042961  0.49187460  0.50000980  1
  Ti  Ti162  1  0.90224288  0.08799129  0.70448756  1
  Ti  Ti163  1  0.81116662  0.39484518  0.60599898  1
  Ti  Ti164  1  0.79693139  0.38559992  -0.00875995  1
  Ti  Ti165  1  0.49515633  0.10148840  0.70029370  1
  Ti  Ti166  1  0.59239097  0.40017120  0.59940950  1
  Ti  Ti167  1  0.10610641  0.08711683  0.09746259  1
  Ti  Ti168  1  0.30200627  0.89966966  0.89876375  1
  Ti  Ti169  1  0.00359761  0.80334243  -0.00643708  1
  Ti  Ti170  1  0.69411556  0.90114451  0.70391267  1
  Ti  Ti171  1  0.80041254  0.61592368  -0.01197152  1
  Ti  Ti172  1  0.00840729  0.00000133  0.20047521  1
  Ti  Ti173  1  0.40951492  0.17788017  0.00396334  1
  Ti  Ti174  1  0.38300038  0.81112682  0.60756624  1
  Ti  Ti175  1  0.79566795  -0.00569069  0.59747124  1
  Ti  Ti176  1  0.59231814  0.60278036  0.80512476  1
  Ti  Ti177  1  0.91020647  0.09183103  0.89249511  1
  Ti  Ti178  1  0.09860142  0.90671737  0.89309568  1
  Ti  Ti179  1  0.48900550  0.89684169  0.70378377  1
  Ti  Ti180  1  0.30173060  0.70644367  0.09683301  1
  Ti  Ti181  1  0.80138698  0.60090602  0.60213664  1
  Ti  Ti182  1  0.20799499  0.80421239  0.79573040  1
  Ti  Ti183  1  -0.00211634  0.79684251  0.21143515  1
  Ti  Ti184  1  0.80349903  0.80424711  0.40079937  1
  Ti  Ti185  1  0.19690612  0.41069192  0.60940899  1
  Ti  Ti186  1  0.79996308  0.59919569  0.40092247  1
  Ti  Ti187  1  0.59615716  0.18608126  0.00524330  1
  Ti  Ti188  1  0.20054196  -0.00652738  -0.00237470  1
  Ti  Ti189  1  0.79734237  0.80926202  0.60208480  1
  Ti  Ti190  1  0.30336645  0.08676614  0.09404385  1
  Ti  Ti191  1  0.30469699  0.50472055  0.90115718  1
  Ti  Ti192  1  0.30041821  0.49838767  0.30298123  1
  Ti  Ti193  1  0.00400410  0.60532763  0.40436520  1
  Ti  Ti194  1  0.10181083  0.89984746  0.10581337  1
  Ti  Ti195  1  0.69216246  0.28648453  0.89735538  1
  Ti  Ti196  1  0.10218147  0.51462764  0.30770319  1
  Ti  Ti197  1  0.90759315  0.90292211  0.70082232  1
  Ti  Ti198  1  0.91053341  0.09483925  0.10390048  1
  Ti  Ti199  1  0.68800707  0.70902288  0.89433227  1
  Mo  Mo200  1  0.20395654  0.19453387  0.38607379  1
  Mo  Mo201  1  0.20082503  -0.00216471  0.59959903  1
  Mo  Mo202  1  0.68878339  0.09999598  0.10055363  1
  Mo  Mo203  1  0.10936474  0.09485092  0.50727452  1
  Mo  Mo204  1  0.49476126  0.09952139  0.10066990  1
  Mo  Mo205  1  0.50600345  0.29055721  0.09950174  1
  Mo  Mo206  1  0.39252663  -0.00184164  -0.00079276  1
  Mo  Mo207  1  0.11403071  0.28301628  0.29622106  1
  Mo  Mo208  1  0.39385125  0.00792158  0.39633967  1
  Mo  Mo209  1  -0.00186848  0.79959864  0.39962498  1
  Mo  Mo210  1  0.29823737  0.90230303  0.69887384  1
  Mo  Mo211  1  0.20190107  0.19555734  0.61223723  1
  Mo  Mo212  1  0.29093422  0.90635108  0.50384304  1
  Mo  Mo213  1  0.30011555  0.50327063  0.70215293  1
  Mo  Mo214  1  0.19499643  0.59853598  0.39712170  1
  Mo  Mo215  1  0.38934877  0.80261573  0.79206449  1
  Mo  Mo216  1  0.90515008  0.70649831  0.89823657  1
  Mo  Mo217  1  0.20000334  0.60151864  0.61019090  1
  Mo  Mo218  1  0.20078988  -0.00266635  0.18239326  1
  Mo  Mo219  1  0.10377814  0.50305061  0.50075468  1
  Mo  Mo220  1  0.10853405  0.49819175  0.69827070  1
  Mo  Mo221  1  0.19735117  -0.00099528  0.41451516  1
  Mo  Mo222  1  0.39866831  0.39751407  0.39609387  1
  Mo  Mo223  1  0.40292766  0.19789225  0.39304351  1
  Mo  Mo224  1  0.49826655  0.10055846  0.29849929  1
  Mo  Mo225  1  0.20099246  0.80427073  0.60294474  1
  Mo  Mo226  1  0.59322598  0.19676109  0.80660917  1
  Mo  Mo227  1  0.29151397  0.68964832  0.30415393  1
  Mo  Mo228  1  0.00654653  -0.00168038  0.79971274  1
  Mo  Mo229  1  0.58878362  0.80127605  0.79242200  1
  Mo  Mo230  1  0.39495820  0.80698926  0.19585168  1
  Mo  Mo231  1  0.80428107  0.19770399  0.80895644  1
  Mo  Mo232  1  0.70736093  0.90458085  0.50133778  1
  Mo  Mo233  1  0.40627975  0.41190411  -0.00280000  1
  Mo  Mo234  1  0.01219277  0.60574829  0.79932746  1
  Mo  Mo235  1  0.49538743  0.70497536  0.88473080  1
  Mo  Mo236  1  0.59522232  0.20009559  0.19515390  1
  Mo  Mo237  1  0.90728264  0.30565961  0.69440703  1
  Mo  Mo238  1  0.89462944  0.29169163  0.89800551  1
  Mo  Mo239  1  0.48616758  0.90275171  0.10297951  1
  Mo  Mo240  1  0.48967740  0.09990551  0.89849995  1
  Mo  Mo241  1  0.00297574  0.79880546  0.60187230  1
  Mo  Mo242  1  0.90829943  0.70367062  0.31661632  1
  Mo  Mo243  1  0.30581415  0.09758585  0.29926567  1
  Mo  Mo244  1  0.68504145  0.11131060  0.89924546  1
  Mo  Mo245  1  0.19608129  0.81123509  0.40270614  1
  Mo  Mo246  1  0.10853386  0.89466763  0.50200459  1
  Mo  Mo247  1  0.69185752  0.29643463  0.29042548  1
  Mo  Mo248  1  0.70304329  0.49680362  0.31220583  1
  Mo  Mo249  1  0.29833663  0.30125022  0.70563090  1
