# generated using pymatgen
data_HfZrTaTiMo
_symmetry_space_group_name_H-M   'P 1'
_cell_length_a   16.88969524
_cell_length_b   16.88075824
_cell_length_c   16.88382195
_cell_angle_alpha   89.97716091
_cell_angle_beta   90.04437278
_cell_angle_gamma   89.98494303
_symmetry_Int_Tables_number   1
_chemical_formula_structural   HfZrTaTiMo
_chemical_formula_sum   'Hf50 Zr50 Ta50 Ti50 Mo50'
_cell_volume   4813.75903848
_cell_formula_units_Z   50
loop_
 _symmetry_equiv_pos_site_id
 _symmetry_equiv_pos_as_xyz
  1  'x, y, z'
loop_
 _atom_site_type_symbol
 _atom_site_label
 _atom_site_symmetry_multiplicity
 _atom_site_fract_x
 _atom_site_fract_y
 _atom_site_fract_z
 _atom_site_occupancy
  Hf  Hf0  1  0.30176410  0.09668492  0.50260591  1
  Hf  Hf1  1  0.48731960  0.09918840  0.88195022  1
  Hf  Hf2  1  0.00576242  0.19935996  0.60038753  1
  Hf  Hf3  1  0.79352948  0.40386675  0.60194427  1
  Hf  Hf4  1  0.89003208  0.70568613  0.89434191  1
  Hf  Hf5  1  0.29765446  0.89919731  0.29951730  1
  Hf  Hf6  1  0.00588122  -0.00248973  0.60274189  1
  Hf  Hf7  1  0.79774316  -0.00847948  -0.00750367  1
  Hf  Hf8  1  0.89484689  0.10688194  0.89868979  1
  Hf  Hf9  1  0.20789631  0.79749674  0.60389035  1
  Hf  Hf10  1  0.21138753  0.59769035  -0.00257722  1
  Hf  Hf11  1  0.79237865  0.20005594  0.59918603  1
  Hf  Hf12  1  0.59083311  0.40240086  0.19583402  1
  Hf  Hf13  1  0.00973355  0.60900949  0.00179481  1
  Hf  Hf14  1  0.19700139  0.20738517  0.19429165  1
  Hf  Hf15  1  0.31199874  0.48961500  0.69649614  1
  Hf  Hf16  1  0.89188787  0.09489810  0.70163779  1
  Hf  Hf17  1  0.79724432  0.60319723  -0.00256659  1
  Hf  Hf18  1  0.80674138  0.59806764  0.20631885  1
  Hf  Hf19  1  0.59367842  0.39507583  0.40997596  1
  Hf  Hf20  1  0.79789564  0.40141987  -0.00582480  1
  Hf  Hf21  1  0.70171957  0.90240423  0.50660796  1
  Hf  Hf22  1  0.59530186  0.41406489  0.78783712  1
  Hf  Hf23  1  0.81077134  0.59205027  0.40956925  1
  Hf  Hf24  1  0.20033412  0.59335399  0.19575339  1
  Hf  Hf25  1  0.20971678  0.20386614  0.80532820  1
  Hf  Hf26  1  0.09958251  0.10513016  0.30447661  1
  Hf  Hf27  1  0.29668114  0.89993886  0.10324669  1
  Hf  Hf28  1  0.79937049  0.40204360  0.20708893  1
  Hf  Hf29  1  0.20678848  0.19768466  0.60937617  1
  Hf  Hf30  1  0.70142695  0.10255912  0.08892987  1
  Hf  Hf31  1  0.40030720  0.60466158  0.79842362  1
  Hf  Hf32  1  0.89986033  0.08939794  0.49788946  1
  Hf  Hf33  1  0.49699258  0.09486847  0.50912231  1
  Hf  Hf34  1  0.40262907  0.00288028  -0.00216048  1
  Hf  Hf35  1  0.20358129  0.39693504  0.19705857  1
  Hf  Hf36  1  0.40650811  0.60516137  0.60006554  1
  Hf  Hf37  1  0.30340014  0.90303421  0.89002978  1
  Hf  Hf38  1  0.89865575  0.89156915  0.09855916  1
  Hf  Hf39  1  0.79579304  0.20788506  0.40673842  1
  Hf  Hf40  1  0.59389155  0.40612091  -0.00360546  1
  Hf  Hf41  1  0.91090364  0.10037785  0.30680809  1
  Hf  Hf42  1  0.50704457  0.68815587  0.29201300  1
  Hf  Hf43  1  0.08230549  0.29485201  0.09053140  1
  Hf  Hf44  1  0.50002274  0.90209094  0.51176325  1
  Hf  Hf45  1  0.40731264  0.79638810  0.19984269  1
  Hf  Hf46  1  0.69169260  0.50666625  0.09937174  1
  Hf  Hf47  1  0.59884706  0.20073877  0.40670756  1
  Hf  Hf48  1  0.88452487  0.90559215  0.69480346  1
  Hf  Hf49  1  0.91214815  0.49061715  0.09855971  1
  Zr  Zr50  1  0.11095076  0.70177693  0.87993694  1
  Zr  Zr51  1  0.57800938  0.19487977  0.00529921  1
  Zr  Zr52  1  0.90372795  0.30639805  0.50342745  1
  Zr  Zr53  1  0.69292951  0.10552520  0.89028855  1
  Zr  Zr54  1  0.29780900  0.49531965  0.49710785  1
  Zr  Zr55  1  0.90364383  0.90333605  0.30890487  1
  Zr  Zr56  1  0.19939045  0.80349665  0.39983723  1
  Zr  Zr57  1  0.20230842  0.79298775  -0.00481917  1
  Zr  Zr58  1  0.90310052  0.70672921  0.31044543  1
  Zr  Zr59  1  0.10302597  0.68888082  0.49977693  1
  Zr  Zr60  1  0.01342216  0.81442794  0.40440051  1
  Zr  Zr61  1  0.49435861  0.30170678  0.30117205  1
  Zr  Zr62  1  0.58950455  0.19017737  0.20020807  1
  Zr  Zr63  1  0.69367120  0.49673438  0.50409211  1
  Zr  Zr64  1  0.59040719  -0.00570215  0.38731455  1
  Zr  Zr65  1  0.40338902  0.79518432  -0.00282800  1
  Zr  Zr66  1  0.68424804  0.50865165  0.30465613  1
  Zr  Zr67  1  0.37802805  0.20720178  -0.00806016  1
  Zr  Zr68  1  0.09801521  0.69564612  0.69862473  1
  Zr  Zr69  1  0.90445019  0.29860628  0.09618848  1
  Zr  Zr70  1  0.41225814  0.00435223  0.20348079  1
  Zr  Zr71  1  -0.00044557  0.40181330  0.79119404  1
  Zr  Zr72  1  -0.00287274  0.80205711  0.60101802  1
  Zr  Zr73  1  0.40881682  0.59554777  0.40616251  1
  Zr  Zr74  1  0.91310302  0.10810576  0.09583744  1
  Zr  Zr75  1  0.29728280  0.10208579  0.30914986  1
  Zr  Zr76  1  0.80316805  0.60433132  0.60214941  1
  Zr  Zr77  1  0.69673047  0.29105156  0.90106393  1
  Zr  Zr78  1  0.09516319  0.48700226  0.09466653  1
  Zr  Zr79  1  -0.00235670  0.81838065  0.80291727  1
  Zr  Zr80  1  0.80121543  0.20366348  0.20219417  1
  Zr  Zr81  1  0.70117371  0.09759220  0.30183287  1
  Zr  Zr82  1  0.79761713  -0.00427882  0.19937515  1
  Zr  Zr83  1  0.00273066  -0.01065968  -0.01765377  1
  Zr  Zr84  1  0.29607999  0.29688094  0.31404250  1
  Zr  Zr85  1  0.68650076  0.29446707  0.70181794  1
  Zr  Zr86  1  0.68654982  0.69974400  0.10248603  1
  Zr  Zr87  1  0.69676810  0.69952534  0.30877734  1
  Zr  Zr88  1  0.89998766  0.70399969  0.10294299  1
  Zr  Zr89  1  0.79779458  0.40926344  0.79732172  1
  Zr  Zr90  1  0.49301795  0.30023375  0.88005447  1
  Zr  Zr91  1  0.30064937  0.69126088  0.30375420  1
  Zr  Zr92  1  0.10184052  0.49940502  0.88954456  1
  Zr  Zr93  1  0.50672606  0.70943145  0.70399831  1
  Zr  Zr94  1  0.00920304  0.80108603  -0.00518887  1
  Zr  Zr95  1  0.10585956  0.90366542  0.10353468  1
  Zr  Zr96  1  0.39857134  0.19777730  0.19071703  1
  Zr  Zr97  1  0.00502810  0.20430365  0.79615522  1
  Zr  Zr98  1  0.39490268  0.40558953  0.00337104  1
  Zr  Zr99  1  0.20936409  0.37925916  -0.00884218  1
  Ta  Ta100  1  0.40920515  0.80030207  0.40388767  1
  Ta  Ta101  1  0.20928547  0.59864188  0.60319732  1
  Ta  Ta102  1  0.49974886  0.10192434  0.69791324  1
  Ta  Ta103  1  0.20144238  0.00507667  -0.00905700  1
  Ta  Ta104  1  0.20648692  0.39381093  0.79470039  1
  Ta  Ta105  1  0.59409761  0.79872063  0.40498460  1
  Ta  Ta106  1  0.59994221  0.59798597  0.60799674  1
  Ta  Ta107  1  0.59569669  -0.00689386  0.79920124  1
  Ta  Ta108  1  0.01464299  0.79569593  0.20675033  1
  Ta  Ta109  1  0.10420193  0.49648092  0.30892539  1
  Ta  Ta110  1  0.00810874  0.59926980  0.20745084  1
  Ta  Ta111  1  0.59427716  -0.00456221  0.19432867  1
  Ta  Ta112  1  0.10513047  0.30525100  0.69632522  1
  Ta  Ta113  1  0.69219358  0.89270296  0.89971099  1
  Ta  Ta114  1  0.59186129  -0.00715735  -0.00443942  1
  Ta  Ta115  1  0.01108400  0.20672319  0.40575724  1
  Ta  Ta116  1  0.11537229  0.90461510  0.70465572  1
  Ta  Ta117  1  0.30753474  0.69283871  0.10532616  1
  Ta  Ta118  1  0.39758857  0.79812366  0.79979515  1
  Ta  Ta119  1  0.59693688  0.20188913  0.59679989  1
  Ta  Ta120  1  0.30277214  0.90303225  0.69918747  1
  Ta  Ta121  1  0.91125477  0.30180970  0.30122440  1
  Ta  Ta122  1  0.10421824  0.49700242  0.50385917  1
  Ta  Ta123  1  0.09753022  0.10526944  0.09342468  1
  Ta  Ta124  1  0.28895219  0.09927191  0.09428365  1
  Ta  Ta125  1  0.30660926  0.29601097  0.50523064  1
  Ta  Ta126  1  0.90217646  0.50738526  0.89837038  1
  Ta  Ta127  1  0.30464035  0.90508041  0.50422939  1
  Ta  Ta128  1  0.20528716  0.00793458  0.80041893  1
  Ta  Ta129  1  0.69892837  0.30536533  0.30157344  1
  Ta  Ta130  1  0.39157457  0.41167440  0.19747768  1
  Ta  Ta131  1  0.70286612  0.70407464  0.70695150  1
  Ta  Ta132  1  0.00637548  0.39972061  0.40610430  1
  Ta  Ta133  1  0.79543077  0.80102914  0.20384297  1
  Ta  Ta134  1  0.49836044  0.50886606  0.89717665  1
  Ta  Ta135  1  0.20243135  0.39608674  0.60232946  1
  Ta  Ta136  1  0.30291841  0.70066126  0.49848711  1
  Ta  Ta137  1  0.59270447  0.80034901  -0.00270000  1
  Ta  Ta138  1  0.69443266  0.70509464  0.89679794  1
  Ta  Ta139  1  0.40315816  0.40028716  0.40305935  1
  Ta  Ta140  1  0.50700844  0.69797818  0.89979601  1
  Ta  Ta141  1  0.69512378  0.89302422  0.09657248  1
  Ta  Ta142  1  0.10240031  0.10651503  0.90290807  1
  Ta  Ta143  1  0.60319534  0.60039584  0.79591356  1
  Ta  Ta144  1  0.60316737  0.79631200  0.60057897  1
  Ta  Ta145  1  0.19578878  -0.00317441  0.40302088  1
  Ta  Ta146  1  0.69521146  0.08948577  0.51000726  1
  Ta  Ta147  1  0.00015324  0.58955465  0.40538907  1
  Ta  Ta148  1  0.49699240  0.90282432  0.70306497  1
  Ta  Ta149  1  0.69881275  0.29785071  0.09771729  1
  Ti  Ti150  1  0.19338987  0.79181476  0.20222550  1
  Ti  Ti151  1  0.39884363  0.79626518  0.60085656  1
  Ti  Ti152  1  0.69954074  0.89117815  0.30112034  1
  Ti  Ti153  1  0.39665374  0.60387750  -0.00273561  1
  Ti  Ti154  1  0.31415670  0.09834107  0.70796725  1
  Ti  Ti155  1  0.19733714  0.00506385  0.20188958  1
  Ti  Ti156  1  0.21755619  0.60546429  0.79070052  1
  Ti  Ti157  1  0.69918180  0.70365609  0.50062187  1
  Ti  Ti158  1  0.10575875  0.09447459  0.70245636  1
  Ti  Ti159  1  0.00859910  -0.00413448  0.20391200  1
  Ti  Ti160  1  0.49658465  0.50410347  0.29595627  1
  Ti  Ti161  1  0.79842843  0.20468648  0.79551246  1
  Ti  Ti162  1  0.91255055  0.49158779  0.30377985  1
  Ti  Ti163  1  0.49801364  0.48482460  0.52111634  1
  Ti  Ti164  1  0.58622788  0.60378647  0.42386874  1
  Ti  Ti165  1  0.10455014  0.68853111  0.30751184  1
  Ti  Ti166  1  0.69751640  0.51356795  0.89566960  1
  Ti  Ti167  1  0.80155363  0.39934779  0.40300276  1
  Ti  Ti168  1  0.79166978  0.80688710  0.80164207  1
  Ti  Ti169  1  0.30650510  0.49506618  0.89140955  1
  Ti  Ti170  1  0.40727160  0.19678056  0.40307006  1
  Ti  Ti171  1  0.40450804  -0.00680240  0.39401630  1
  Ti  Ti172  1  0.89324554  0.70183290  0.70585912  1
  Ti  Ti173  1  0.49172053  0.29900923  0.51232643  1
  Ti  Ti174  1  0.10973167  0.30009061  0.50250162  1
  Ti  Ti175  1  0.10680628  0.09695154  0.49995102  1
  Ti  Ti176  1  0.69085885  0.09212339  0.69607331  1
  Ti  Ti177  1  0.29897689  0.50085380  0.30525024  1
  Ti  Ti178  1  0.19695596  0.39421439  0.40347992  1
  Ti  Ti179  1  0.10596160  0.50356442  0.69564422  1
  Ti  Ti180  1  0.89134535  0.90296256  0.49903373  1
  Ti  Ti181  1  0.89968177  0.70989832  0.49594270  1
  Ti  Ti182  1  0.78883561  -0.00532509  0.80170759  1
  Ti  Ti183  1  -0.00769525  0.59308728  0.59428096  1
  Ti  Ti184  1  0.49561681  0.52121440  0.09984473  1
  Ti  Ti185  1  0.50372117  0.89719762  0.09728579  1
  Ti  Ti186  1  0.90008424  0.30135493  0.69751936  1
  Ti  Ti187  1  0.49215434  0.30521736  0.09957957  1
  Ti  Ti188  1  0.69261178  0.90030227  0.69738742  1
  Ti  Ti189  1  0.00337467  0.40703244  0.60022617  1
  Ti  Ti190  1  0.89679370  0.50843383  0.70133062  1
  Ti  Ti191  1  0.00481048  -0.00335830  0.80339568  1
  Ti  Ti192  1  0.79445342  -0.00338988  0.40034050  1
  Ti  Ti193  1  0.39768395  -0.00045071  0.60939535  1
  Ti  Ti194  1  0.11296397  0.91085084  0.51132211  1
  Ti  Ti195  1  0.59509806  0.80484674  0.20130427  1
  Ti  Ti196  1  0.90486084  0.29771516  0.90522035  1
  Ti  Ti197  1  0.79659056  0.79623356  0.59917930  1
  Ti  Ti198  1  -0.00636572  0.60012751  0.79428564  1
  Ti  Ti199  1  0.48721513  0.30014889  0.69370261  1
  Mo  Mo200  1  0.20577776  0.00181534  0.60486520  1
  Mo  Mo201  1  0.49884802  0.69534615  0.09558909  1
  Mo  Mo202  1  0.59383660  0.60231342  -0.00900049  1
  Mo  Mo203  1  0.19601818  0.19626506  -0.00223810  1
  Mo  Mo204  1  0.87962179  0.90068647  0.89069182  1
  Mo  Mo205  1  0.30772641  0.69789614  0.89519052  1
  Mo  Mo206  1  0.69852627  0.51051147  0.70030111  1
  Mo  Mo207  1  0.90999846  0.49535790  0.50375832  1
  Mo  Mo208  1  0.30716702  0.29976588  0.69637863  1
  Mo  Mo209  1  0.79168369  0.80297779  0.40538051  1
  Mo  Mo210  1  0.19503344  0.20066393  0.41636571  1
  Mo  Mo211  1  0.00607947  0.20200818  0.21263008  1
  Mo  Mo212  1  0.50343657  0.70843601  0.50542444  1
  Mo  Mo213  1  0.59951444  -0.00249072  0.61162597  1
  Mo  Mo214  1  0.11606596  0.90966212  0.88850746  1
  Mo  Mo215  1  0.10431963  0.91144900  0.29453969  1
  Mo  Mo216  1  0.21070941  0.80541314  0.79322340  1
  Mo  Mo217  1  0.40033432  0.39232966  0.59956828  1
  Mo  Mo218  1  0.30357726  0.30429333  0.88330310  1
  Mo  Mo219  1  0.78575518  0.80040278  -0.00095324  1
  Mo  Mo220  1  0.09852640  0.30257133  0.30885194  1
  Mo  Mo221  1  0.60050894  0.80395045  0.79966132  1
  Mo  Mo222  1  0.00551916  0.40012875  0.21982593  1
  Mo  Mo223  1  -0.00350210  0.39728554  -0.02453402  1
  Mo  Mo224  1  0.40096500  0.19937246  0.60201807  1
  Mo  Mo225  1  0.59266846  0.39560663  0.60298575  1
  Mo  Mo226  1  0.40142858  0.40321842  0.79648914  1
  Mo  Mo227  1  0.50251423  0.89606977  0.89190973  1
  Mo  Mo228  1  0.59011815  0.59968898  0.19160458  1
  Mo  Mo229  1  0.69424964  0.29976074  0.50083583  1
  Mo  Mo230  1  0.50277347  0.88997376  0.30030444  1
  Mo  Mo231  1  0.30452132  0.50193169  0.09636544  1
  Mo  Mo232  1  0.49774844  0.09577272  0.30454431  1
  Mo  Mo233  1  0.49691586  0.08971959  0.09230127  1
  Mo  Mo234  1  0.19740988  0.59297533  0.40402603  1
  Mo  Mo235  1  0.01275817  0.00266249  0.41233857  1
  Mo  Mo236  1  0.50170490  0.50168719  0.69776570  1
  Mo  Mo237  1  0.39938677  -0.00203191  0.79285011  1
  Mo  Mo238  1  0.79834203  0.60527107  0.79970885  1
  Mo  Mo239  1  0.29730751  0.10006461  0.89772026  1
  Mo  Mo240  1  0.39463436  0.20263994  0.78751673  1
  Mo  Mo241  1  0.30100902  0.29968866  0.11048900  1
  Mo  Mo242  1  0.39648547  0.59188258  0.19565712  1
  Mo  Mo243  1  0.00300568  0.20094382  -0.01369123  1
  Mo  Mo244  1  0.80300406  0.20604737  -0.00338788  1
  Mo  Mo245  1  0.79457136  -0.00035710  0.60365043  1
  Mo  Mo246  1  0.10102772  0.29847581  0.89323844  1
  Mo  Mo247  1  0.59184404  0.19276802  0.78451236  1
  Mo  Mo248  1  0.30363033  0.70387578  0.69762691  1
  Mo  Mo249  1  0.10694771  0.69773311  0.11449757  1
