# generated using pymatgen
data_HfZrTaTiMo
_symmetry_space_group_name_H-M   'P 1'
_cell_length_a   16.88457792
_cell_length_b   16.88326541
_cell_length_c   16.88786598
_cell_angle_alpha   90.00859291
_cell_angle_beta   90.01779289
_cell_angle_gamma   90.00345426
_symmetry_Int_Tables_number   1
_chemical_formula_structural   HfZrTaTiMo
_chemical_formula_sum   'Hf50 Zr50 Ta50 Ti50 Mo50'
_cell_volume   4814.16979295
_cell_formula_units_Z   50
loop_
 _symmetry_equiv_pos_site_id
 _symmetry_equiv_pos_as_xyz
  1  'x, y, z'
loop_
 _atom_site_type_symbol
 _atom_site_label
 _atom_site_symmetry_multiplicity
 _atom_site_fract_x
 _atom_site_fract_y
 _atom_site_fract_z
 _atom_site_occupancy
  Hf  Hf0  1  0.50034200  0.09478832  0.90314322  1
  Hf  Hf1  1  -0.00037031  0.80316356  0.80281503  1
  Hf  Hf2  1  0.70445880  0.69904348  0.29312645  1
  Hf  Hf3  1  0.19054572  0.19831867  0.19264560  1
  Hf  Hf4  1  0.41019014  0.00517947  0.38805023  1
  Hf  Hf5  1  0.19914549  0.80345378  0.59982266  1
  Hf  Hf6  1  0.29363434  0.90783429  0.28579594  1
  Hf  Hf7  1  0.41335830  0.00149780  0.19367668  1
  Hf  Hf8  1  0.39648360  0.79995497  0.60046933  1
  Hf  Hf9  1  0.18948710  0.80589336  0.39269800  1
  Hf  Hf10  1  0.89443337  0.69454548  0.70165364  1
  Hf  Hf11  1  0.70513038  0.49514980  0.70816475  1
  Hf  Hf12  1  0.01067038  0.20831313  0.00460711  1
  Hf  Hf13  1  0.51272545  0.90568176  0.50225654  1
  Hf  Hf14  1  0.29508343  0.11020329  0.49349277  1
  Hf  Hf15  1  0.89380441  0.10245254  0.69758573  1
  Hf  Hf16  1  0.50713956  0.70614841  0.29512954  1
  Hf  Hf17  1  0.30635531  0.30273548  0.90256195  1
  Hf  Hf18  1  0.29188613  0.11232753  0.69149147  1
  Hf  Hf19  1  0.89671922  0.69292328  0.10844144  1
  Hf  Hf20  1  0.79664316  0.80805390  0.00467298  1
  Hf  Hf21  1  0.60666109  0.60561607  0.40766014  1
  Hf  Hf22  1  0.59730377  0.80266853  0.80743673  1
  Hf  Hf23  1  0.59797687  0.19347080  0.00682909  1
  Hf  Hf24  1  0.29628443  0.29097772  0.50162475  1
  Hf  Hf25  1  0.90223627  0.89922511  0.29676088  1
  Hf  Hf26  1  -0.00334816  0.20260630  0.39918015  1
  Hf  Hf27  1  0.89425255  0.90039457  0.50312524  1
  Hf  Hf28  1  0.00322626  0.00656864  0.39613384  1
  Hf  Hf29  1  0.10769110  0.69235586  0.70067832  1
  Hf  Hf30  1  0.60557436  0.20537028  0.60636150  1
  Hf  Hf31  1  0.70524265  0.69253687  0.71412306  1
  Hf  Hf32  1  0.00345939  0.58608292  0.59675815  1
  Hf  Hf33  1  0.59698588  -0.00738607  0.20257293  1
  Hf  Hf34  1  0.11189334  0.90525294  0.09701862  1
  Hf  Hf35  1  0.79733393  0.19530490  -0.00398475  1
  Hf  Hf36  1  0.79847521  0.40500441  -0.00304686  1
  Hf  Hf37  1  0.10629919  0.70008680  0.90301155  1
  Hf  Hf38  1  0.10456325  0.09918074  0.89925768  1
  Hf  Hf39  1  0.61093602  0.78783581  0.59008802  1
  Hf  Hf40  1  0.00281580  0.20819288  0.79383807  1
  Hf  Hf41  1  0.40828870  0.20159351  0.79096124  1
  Hf  Hf42  1  0.00104539  0.00944367  0.59504691  1
  Hf  Hf43  1  0.89529620  0.48907945  0.70367933  1
  Hf  Hf44  1  0.49696414  0.30071987  0.90095049  1
  Hf  Hf45  1  0.70112040  0.91281505  0.69210227  1
  Hf  Hf46  1  0.09948837  0.49235777  0.89794862  1
  Hf  Hf47  1  0.40977070  0.80087741  0.18087823  1
  Hf  Hf48  1  0.39955806  0.59661419  0.39919196  1
  Hf  Hf49  1  0.70209456  0.29863044  0.10410100  1
  Zr  Zr50  1  0.00211382  0.38143099  0.59187374  1
  Zr  Zr51  1  0.39411965  0.39561635  0.39600478  1
  Zr  Zr52  1  0.40711522  0.80681637  0.39806731  1
  Zr  Zr53  1  0.69474453  0.29925837  0.89163028  1
  Zr  Zr54  1  0.40092832  0.01165756  0.59650635  1
  Zr  Zr55  1  0.70710266  0.50736611  0.10256054  1
  Zr  Zr56  1  0.49861714  0.50573855  0.29540436  1
  Zr  Zr57  1  0.69628349  0.69342681  0.90977073  1
  Zr  Zr58  1  0.90118893  0.10525318  0.10879880  1
  Zr  Zr59  1  -0.00570343  0.59685385  0.80598071  1
  Zr  Zr60  1  0.10842772  0.89860873  0.90361274  1
  Zr  Zr61  1  0.30491854  0.49311055  0.89827188  1
  Zr  Zr62  1  0.89869596  0.30191831  0.10507231  1
  Zr  Zr63  1  0.20630368  0.60142998  0.18924822  1
  Zr  Zr64  1  0.51141897  0.90764839  0.69708707  1
  Zr  Zr65  1  0.69421550  0.10734281  0.31306948  1
  Zr  Zr66  1  0.09011119  0.68598458  0.29937650  1
  Zr  Zr67  1  0.49407707  0.49574641  0.09641931  1
  Zr  Zr68  1  0.60029227  0.59550045  0.60305839  1
  Zr  Zr69  1  0.01906536  0.01529207  0.20924414  1
  Zr  Zr70  1  0.20356937  0.00273813  0.79574226  1
  Zr  Zr71  1  0.29376741  0.91239792  0.49347689  1
  Zr  Zr72  1  0.39784818  -0.00141613  0.80065938  1
  Zr  Zr73  1  0.18950738  0.40217991  0.60307572  1
  Zr  Zr74  1  0.78824947  0.00332163  0.00249250  1
  Zr  Zr75  1  0.48946085  0.68585065  0.70611104  1
  Zr  Zr76  1  0.58292922  0.19863473  0.20725612  1
  Zr  Zr77  1  0.10632757  0.67821156  0.49126984  1
  Zr  Zr78  1  0.00323040  0.79669982  0.59365138  1
  Zr  Zr79  1  0.29411823  0.68838791  0.50547968  1
  Zr  Zr80  1  0.50190442  0.29487087  0.49612131  1
  Zr  Zr81  1  0.79792152  0.59898200  0.58866023  1
  Zr  Zr82  1  0.19105945  0.38828327  0.00676726  1
  Zr  Zr83  1  0.39573905  0.61111561  0.01217434  1
  Zr  Zr84  1  0.39869238  0.38200676  0.20427736  1
  Zr  Zr85  1  0.90461484  0.90306208  0.10310480  1
  Zr  Zr86  1  0.30013313  0.69978875  0.29747874  1
  Zr  Zr87  1  0.80226195  0.00290279  0.39786695  1
  Zr  Zr88  1  0.80568855  0.39733693  0.39945411  1
  Zr  Zr89  1  0.00334265  0.00856742  0.00214026  1
  Zr  Zr90  1  0.29857329  0.70311146  0.89905626  1
  Zr  Zr91  1  0.89429371  0.90460282  0.69598869  1
  Zr  Zr92  1  0.10145269  0.49829919  0.29941146  1
  Zr  Zr93  1  0.79845236  0.80822292  0.81091867  1
  Zr  Zr94  1  0.59840415  0.39628601  0.39453919  1
  Zr  Zr95  1  0.41109588  0.39901278  0.61399481  1
  Zr  Zr96  1  0.29577681  0.30859275  0.70675309  1
  Zr  Zr97  1  0.59798075  0.39278850  0.20095158  1
  Zr  Zr98  1  0.39434659  0.80723149  0.80069061  1
  Zr  Zr99  1  0.29297492  0.50312291  0.50598917  1
  Ta  Ta100  1  0.90397402  0.69536766  0.48821407  1
  Ta  Ta101  1  0.90350239  0.90872644  0.90273677  1
  Ta  Ta102  1  0.80207946  0.19579544  0.21291898  1
  Ta  Ta103  1  0.30324616  0.10597478  0.90871017  1
  Ta  Ta104  1  0.30059862  0.09453175  0.09502213  1
  Ta  Ta105  1  0.19265726  0.20988783  0.80466669  1
  Ta  Ta106  1  0.79402459  0.80608160  0.20087079  1
  Ta  Ta107  1  0.70131489  0.10387728  0.50379788  1
  Ta  Ta108  1  0.19788130  0.19915747  0.00285152  1
  Ta  Ta109  1  0.00237942  0.39734653  0.19959877  1
  Ta  Ta110  1  0.90371380  0.50633909  0.29198937  1
  Ta  Ta111  1  0.00675114  0.79843642  0.20119514  1
  Ta  Ta112  1  0.90097899  0.29871967  0.29870082  1
  Ta  Ta113  1  0.51925348  0.09674147  0.70345749  1
  Ta  Ta114  1  0.30056853  0.90215895  0.08795818  1
  Ta  Ta115  1  0.49699398  0.69895205  0.90612132  1
  Ta  Ta116  1  0.10038353  0.90547138  0.69848523  1
  Ta  Ta117  1  0.20557044  0.80510926  0.79227547  1
  Ta  Ta118  1  0.19603430  0.80061938  0.19357661  1
  Ta  Ta119  1  0.79860280  0.79705245  0.39887937  1
  Ta  Ta120  1  0.80393058  0.20771013  0.59958247  1
  Ta  Ta121  1  0.10044885  0.10925365  0.49782400  1
  Ta  Ta122  1  0.70079648  0.70077228  0.10079618  1
  Ta  Ta123  1  0.80186022  0.59880953  0.39775056  1
  Ta  Ta124  1  0.90016939  0.10365938  0.89301398  1
  Ta  Ta125  1  0.59478498  0.58743731  0.81215854  1
  Ta  Ta126  1  0.51457168  0.10394856  0.49363228  1
  Ta  Ta127  1  0.00011263  0.59675466  0.00357250  1
  Ta  Ta128  1  0.29820370  0.48576128  0.10143450  1
  Ta  Ta129  1  -0.00117429  0.79486250  0.00221885  1
  Ta  Ta130  1  0.59882706  0.60622027  0.19195672  1
  Ta  Ta131  1  0.19872795  0.59772777  0.00623366  1
  Ta  Ta132  1  0.09623013  0.49820850  0.10394260  1
  Ta  Ta133  1  -0.00094495  0.39615715  0.39857786  1
  Ta  Ta134  1  0.70706910  0.30427128  0.70163161  1
  Ta  Ta135  1  0.90339406  0.50329753  0.10691166  1
  Ta  Ta136  1  0.19081367  0.00844241  0.59554617  1
  Ta  Ta137  1  0.49933552  0.50243445  0.50871137  1
  Ta  Ta138  1  -0.00098191  0.80058270  0.39528111  1
  Ta  Ta139  1  0.78955019  -0.00186153  0.20459248  1
  Ta  Ta140  1  0.79696358  0.00407913  0.80649961  1
  Ta  Ta141  1  -0.00207884  0.40037463  0.00108346  1
  Ta  Ta142  1  0.70559046  0.50567122  0.29546293  1
  Ta  Ta143  1  0.90217681  0.30262081  0.89523305  1
  Ta  Ta144  1  0.70173565  0.49137463  0.49932166  1
  Ta  Ta145  1  0.60296502  0.39906559  0.60546096  1
  Ta  Ta146  1  0.70652630  0.29833235  0.50094372  1
  Ta  Ta147  1  0.17156228  0.21353585  0.60298361  1
  Ta  Ta148  1  0.29533832  0.10154452  0.29374047  1
  Ta  Ta149  1  0.59853203  0.40558000  -0.00522669  1
  Ti  Ti150  1  0.70402780  0.90975646  0.50273494  1
  Ti  Ti151  1  0.48882954  0.29608256  0.08797978  1
  Ti  Ti152  1  0.30077777  0.68402690  0.69886522  1
  Ti  Ti153  1  0.89428039  0.11084958  0.50207487  1
  Ti  Ti154  1  0.40152038  0.19104851  0.19843883  1
  Ti  Ti155  1  0.61217918  0.80713068  0.39727962  1
  Ti  Ti156  1  0.79424377  0.79019239  0.58921108  1
  Ti  Ti157  1  0.90177517  0.69423036  0.29761752  1
  Ti  Ti158  1  0.69828159  0.10055800  0.11012682  1
  Ti  Ti159  1  0.39930034  0.60846957  0.19014413  1
  Ti  Ti160  1  0.79752532  0.19952588  0.79877286  1
  Ti  Ti161  1  0.49640979  0.90306585  0.91309274  1
  Ti  Ti162  1  0.59434000  -0.00235647  0.01570817  1
  Ti  Ti163  1  0.79984409  0.40083419  0.80988248  1
  Ti  Ti164  1  0.89509716  0.30313583  0.69977885  1
  Ti  Ti165  1  0.59210718  0.80308507  0.01113317  1
  Ti  Ti166  1  0.80176274  0.40006115  0.20610520  1
  Ti  Ti167  1  0.49377108  0.69494754  0.50375453  1
  Ti  Ti168  1  0.10561800  0.50035217  0.48639154  1
  Ti  Ti169  1  0.89694529  0.69781287  0.90380246  1
  Ti  Ti170  1  0.48872752  0.49653097  0.89902352  1
  Ti  Ti171  1  0.59544179  0.59579637  0.00086314  1
  Ti  Ti172  1  0.41307421  0.20050941  0.60459382  1
  Ti  Ti173  1  0.30473313  0.29310327  0.09595222  1
  Ti  Ti174  1  0.70408651  0.29510316  0.30696514  1
  Ti  Ti175  1  0.89873671  0.49408934  0.49681629  1
  Ti  Ti176  1  0.19816205  0.39206232  0.39474854  1
  Ti  Ti177  1  0.68892329  0.09823195  0.88884909  1
  Ti  Ti178  1  0.19115221  0.20247486  0.39320348  1
  Ti  Ti179  1  0.59053135  0.40185587  0.79649849  1
  Ti  Ti180  1  0.90058174  0.49739245  0.90062788  1
  Ti  Ti181  1  0.60037303  -0.00496421  0.39163511  1
  Ti  Ti182  1  0.68745059  0.91042814  0.90469471  1
  Ti  Ti183  1  0.40936084  0.19603435  0.38400330  1
  Ti  Ti184  1  0.09862144  0.90660765  0.49723021  1
  Ti  Ti185  1  0.29414166  0.29144408  0.29621913  1
  Ti  Ti186  1  0.60285264  0.81045906  0.19237277  1
  Ti  Ti187  1  0.31124618  0.50301559  0.71056270  1
  Ti  Ti188  1  0.80283999  0.59479272  -0.00554819  1
  Ti  Ti189  1  0.70154765  0.09764830  0.70158020  1
  Ti  Ti190  1  0.09759209  0.69926127  0.09651305  1
  Ti  Ti191  1  -0.00229702  0.00104275  0.79854309  1
  Ti  Ti192  1  0.18634310  0.00666346  0.38546262  1
  Ti  Ti193  1  0.29518215  0.90827849  0.69176894  1
  Ti  Ti194  1  0.09604539  0.10462935  0.69747515  1
  Ti  Ti195  1  0.20463977  0.59246060  0.79945011  1
  Ti  Ti196  1  0.09670002  0.30087970  0.29328615  1
  Ti  Ti197  1  0.29658180  0.90353573  0.91480412  1
  Ti  Ti198  1  0.09911370  0.48976500  0.71231543  1
  Ti  Ti199  1  0.29408770  0.49438847  0.29127508  1
  Mo  Mo200  1  0.50982290  0.89469483  0.30063730  1
  Mo  Mo201  1  -0.00169780  0.59838355  0.19466968  1
  Mo  Mo202  1  0.09981478  0.89588421  0.29628046  1
  Mo  Mo203  1  0.69647289  0.89760612  0.10271302  1
  Mo  Mo204  1  0.10739957  0.10805066  0.30365256  1
  Mo  Mo205  1  0.39638857  0.19684370  0.00739876  1
  Mo  Mo206  1  0.79803070  0.01497107  0.59818329  1
  Mo  Mo207  1  -0.00667974  0.39568192  0.80517041  1
  Mo  Mo208  1  0.60275575  0.20253926  0.40479132  1
  Mo  Mo209  1  -0.01378623  0.58942094  0.40134411  1
  Mo  Mo210  1  0.50262899  0.49416511  0.70736990  1
  Mo  Mo211  1  0.41177678  0.40227218  0.80153849  1
  Mo  Mo212  1  0.50152959  0.89883788  0.08939721  1
  Mo  Mo213  1  0.20078097  0.79619289  0.00381700  1
  Mo  Mo214  1  0.20829003  0.00604050  -0.00008158  1
  Mo  Mo215  1  0.20744663  0.00415955  0.19679463  1
  Mo  Mo216  1  0.79721947  0.58826273  0.81938366  1
  Mo  Mo217  1  0.60821691  0.01114253  0.59370572  1
  Mo  Mo218  1  0.51325511  0.70233956  0.09665023  1
  Mo  Mo219  1  0.09741772  0.30122504  0.90218983  1
  Mo  Mo220  1  0.39991175  -0.00153265  0.00007012  1
  Mo  Mo221  1  0.39905614  0.59498164  0.60609557  1
  Mo  Mo222  1  0.09593012  0.30769099  0.71492940  1
  Mo  Mo223  1  0.00092599  0.20622403  0.20698534  1
  Mo  Mo224  1  0.89687454  0.10543033  0.30014140  1
  Mo  Mo225  1  0.70141919  0.89396882  0.30202512  1
  Mo  Mo226  1  0.40312840  0.59524412  0.80430399  1
  Mo  Mo227  1  0.10962980  0.10295775  0.09847929  1
  Mo  Mo228  1  0.60550912  0.19628717  0.79726144  1
  Mo  Mo229  1  -0.00256063  0.20249029  0.59765644  1
  Mo  Mo230  1  0.49342739  0.09758677  0.09538793  1
  Mo  Mo231  1  0.79765543  0.39464359  0.59821577  1
  Mo  Mo232  1  0.10345716  0.30098284  0.48061494  1
  Mo  Mo233  1  0.20103796  0.39076252  0.19875765  1
  Mo  Mo234  1  0.19922204  0.58903737  0.62314854  1
  Mo  Mo235  1  0.49968614  0.10020283  0.30316746  1
  Mo  Mo236  1  0.40311589  0.80538466  -0.00252405  1
  Mo  Mo237  1  0.60520832  -0.00082635  0.80639050  1
  Mo  Mo238  1  0.80057868  0.60350398  0.20366279  1
  Mo  Mo239  1  0.70857687  0.70138252  0.49004060  1
  Mo  Mo240  1  0.20970223  0.58483156  0.38464596  1
  Mo  Mo241  1  0.49306519  0.29160365  0.30086064  1
  Mo  Mo242  1  0.69399724  0.49875519  0.90087828  1
  Mo  Mo243  1  0.19417396  0.39930442  0.80147507  1
  Mo  Mo244  1  0.29003642  0.70990200  0.09488950  1
  Mo  Mo245  1  0.40183163  0.39624585  0.00476660  1
  Mo  Mo246  1  0.09556523  0.30392434  0.10529717  1
  Mo  Mo247  1  0.80276943  0.20449145  0.40467003  1
  Mo  Mo248  1  0.89911203  0.29694729  0.49891615  1
  Mo  Mo249  1  0.51500781  0.29723815  0.70640609  1
