# generated using pymatgen
data_HfZrTaTiMo
_symmetry_space_group_name_H-M   'P 1'
_cell_length_a   16.87587880
_cell_length_b   16.88921040
_cell_length_c   16.88570676
_cell_angle_alpha   89.98229938
_cell_angle_beta   89.93556108
_cell_angle_gamma   90.03168950
_symmetry_Int_Tables_number   1
_chemical_formula_structural   HfZrTaTiMo
_chemical_formula_sum   'Hf50 Zr50 Ta50 Ti50 Mo50'
_cell_volume   4812.76465195
_cell_formula_units_Z   50
loop_
 _symmetry_equiv_pos_site_id
 _symmetry_equiv_pos_as_xyz
  1  'x, y, z'
loop_
 _atom_site_type_symbol
 _atom_site_label
 _atom_site_symmetry_multiplicity
 _atom_site_fract_x
 _atom_site_fract_y
 _atom_site_fract_z
 _atom_site_occupancy
  Hf  Hf0  1  0.19643986  0.79317437  0.00142658  1
  Hf  Hf1  1  0.10346860  0.50412296  0.89666239  1
  Hf  Hf2  1  0.80474199  0.80432956  0.80126919  1
  Hf  Hf3  1  0.89637456  0.49052874  0.30276542  1
  Hf  Hf4  1  0.69392303  0.50155155  0.90548700  1
  Hf  Hf5  1  0.20518441  0.39563565  0.79659541  1
  Hf  Hf6  1  0.00565864  0.60142775  0.19517241  1
  Hf  Hf7  1  -0.00824211  0.78879029  0.81029744  1
  Hf  Hf8  1  0.50003806  0.90008484  0.29829178  1
  Hf  Hf9  1  0.79570244  0.40317206  0.79796043  1
  Hf  Hf10  1  0.29891542  0.50544061  0.30475058  1
  Hf  Hf11  1  0.39663955  -0.00418568  0.41261732  1
  Hf  Hf12  1  0.90412093  0.30084498  0.29340724  1
  Hf  Hf13  1  0.79806661  0.19927381  0.79506915  1
  Hf  Hf14  1  0.79303520  0.81282112  0.40447774  1
  Hf  Hf15  1  0.39944850  0.79913553  0.41079001  1
  Hf  Hf16  1  0.79634999  -0.00393107  0.21346188  1
  Hf  Hf17  1  0.00472640  -0.00169531  -0.00907143  1
  Hf  Hf18  1  0.20425462  0.59702382  0.41539175  1
  Hf  Hf19  1  0.10288713  0.70116337  0.30783346  1
  Hf  Hf20  1  0.69626396  0.89636413  0.09438093  1
  Hf  Hf21  1  0.59401217  0.00779827  -0.00265769  1
  Hf  Hf22  1  0.90151135  0.50528933  0.89669634  1
  Hf  Hf23  1  0.30159150  0.69596465  0.70560111  1
  Hf  Hf24  1  0.89772625  0.50115798  0.09850920  1
  Hf  Hf25  1  0.30207685  0.70024440  0.90282609  1
  Hf  Hf26  1  0.30110141  0.09524838  0.29874493  1
  Hf  Hf27  1  0.10503428  0.10234440  0.09952714  1
  Hf  Hf28  1  -0.00524500  0.59589583  0.60111096  1
  Hf  Hf29  1  0.90408948  0.10303767  0.30361878  1
  Hf  Hf30  1  0.20752436  -0.00929851  0.18683679  1
  Hf  Hf31  1  0.38426552  -0.00478515  0.61866061  1
  Hf  Hf32  1  0.29741236  0.29856226  0.29967324  1
  Hf  Hf33  1  0.90320036  0.29963678  0.89153565  1
  Hf  Hf34  1  0.00793142  0.61530455  -0.00576951  1
  Hf  Hf35  1  0.39986523  0.79896668  0.19000698  1
  Hf  Hf36  1  0.20105045  0.79577195  0.18861549  1
  Hf  Hf37  1  0.49569324  0.89720434  0.89882712  1
  Hf  Hf38  1  0.40262780  0.20110720  0.40259761  1
  Hf  Hf39  1  0.60158488  0.59482274  0.60139484  1
  Hf  Hf40  1  0.69661656  0.09627248  0.69999389  1
  Hf  Hf41  1  0.00851758  -0.00755937  0.19920189  1
  Hf  Hf42  1  -0.00406198  0.19684562  0.59305128  1
  Hf  Hf43  1  0.00351988  0.39650924  -0.00022155  1
  Hf  Hf44  1  0.11045941  0.90428964  0.88401883  1
  Hf  Hf45  1  0.90369490  0.31155466  0.48525255  1
  Hf  Hf46  1  0.28938928  0.10454233  0.50972536  1
  Hf  Hf47  1  0.80156833  0.80535431  0.60436013  1
  Hf  Hf48  1  0.69966118  0.10777791  0.10350304  1
  Hf  Hf49  1  0.59027026  0.20252131  0.80727907  1
  Zr  Zr50  1  0.89703316  0.90329195  0.10089447  1
  Zr  Zr51  1  0.79367607  0.20050457  0.39790529  1
  Zr  Zr52  1  0.80974041  0.80137634  -0.01073603  1
  Zr  Zr53  1  0.50236818  0.69987122  0.50550877  1
  Zr  Zr54  1  0.20545118  0.40354757  0.18885180  1
  Zr  Zr55  1  0.09289866  0.09180027  0.70547127  1
  Zr  Zr56  1  0.40033453  0.60248203  0.19444332  1
  Zr  Zr57  1  0.40154199  0.40757437  0.40654068  1
  Zr  Zr58  1  -0.00324404  0.40484086  0.59483306  1
  Zr  Zr59  1  0.01557648  0.19904330  -0.02353892  1
  Zr  Zr60  1  0.59751688  0.40326146  0.59820036  1
  Zr  Zr61  1  0.60045844  0.59411672  0.39690814  1
  Zr  Zr62  1  -0.00414325  0.59144924  0.40635334  1
  Zr  Zr63  1  0.50290946  0.89940619  0.70576700  1
  Zr  Zr64  1  0.10043732  0.29552740  0.10265763  1
  Zr  Zr65  1  0.00453771  0.80103357  -0.00337084  1
  Zr  Zr66  1  0.89358151  0.69967924  0.50049667  1
  Zr  Zr67  1  0.00688750  0.79754972  0.19302964  1
  Zr  Zr68  1  0.69256351  0.90482970  0.70398049  1
  Zr  Zr69  1  0.51843751  0.90973682  0.50951336  1
  Zr  Zr70  1  0.40793993  0.19664850  -0.00358588  1
  Zr  Zr71  1  0.59469789  -0.00149762  0.19248045  1
  Zr  Zr72  1  0.09550715  0.71223789  0.50842842  1
  Zr  Zr73  1  0.79061431  0.59995714  0.20182470  1
  Zr  Zr74  1  0.80608160  0.20452989  0.00246619  1
  Zr  Zr75  1  0.30996437  0.09020869  0.88987338  1
  Zr  Zr76  1  0.21165655  0.20149913  -0.00716611  1
  Zr  Zr77  1  0.31301149  0.50175981  0.89400214  1
  Zr  Zr78  1  0.38940851  0.40215612  0.60769343  1
  Zr  Zr79  1  0.69230803  0.08077287  0.49532295  1
  Zr  Zr80  1  0.50536208  0.30328356  0.29457350  1
  Zr  Zr81  1  0.40248036  0.41065372  0.19561842  1
  Zr  Zr82  1  0.50315885  0.09756427  0.50900578  1
  Zr  Zr83  1  0.10636005  0.10197481  0.30126950  1
  Zr  Zr84  1  0.90887868  0.11102314  0.10659312  1
  Zr  Zr85  1  0.79260681  0.79982436  0.20785416  1
  Zr  Zr86  1  0.10034697  0.89325412  0.31783364  1
  Zr  Zr87  1  0.59438493  0.40026424  0.80084298  1
  Zr  Zr88  1  0.10238668  0.49424946  0.29913619  1
  Zr  Zr89  1  0.51314754  0.30108828  0.10477979  1
  Zr  Zr90  1  0.50284431  0.09865537  0.29831550  1
  Zr  Zr91  1  0.09653206  0.89474396  0.69819816  1
  Zr  Zr92  1  0.29307547  0.29317109  0.50984736  1
  Zr  Zr93  1  0.79791739  0.20131892  0.59387838  1
  Zr  Zr94  1  0.09824848  0.29380987  0.69524894  1
  Zr  Zr95  1  0.48395600  0.50646916  0.71464880  1
  Zr  Zr96  1  0.59530707  0.60130539  0.19835594  1
  Zr  Zr97  1  0.68836274  0.70912466  0.90178448  1
  Zr  Zr98  1  0.79704297  0.41602493  0.59399664  1
  Zr  Zr99  1  0.30086511  0.89688962  0.30329627  1
  Ta  Ta100  1  0.69717218  0.30052589  0.69867182  1
  Ta  Ta101  1  0.60751165  0.80273416  0.40027058  1
  Ta  Ta102  1  0.90016178  0.30006629  0.70022317  1
  Ta  Ta103  1  0.79797314  0.39586735  0.00526790  1
  Ta  Ta104  1  0.21055710  0.39659910  -0.00856605  1
  Ta  Ta105  1  0.59713094  0.20288881  0.60336023  1
  Ta  Ta106  1  0.69552218  0.69997292  0.70221924  1
  Ta  Ta107  1  0.40685364  0.00093301  0.00712111  1
  Ta  Ta108  1  0.39127415  0.59790467  0.59972144  1
  Ta  Ta109  1  0.09828739  0.50370423  0.70365987  1
  Ta  Ta110  1  0.89511469  0.69712546  0.10062698  1
  Ta  Ta111  1  0.70345008  0.09959953  0.89703664  1
  Ta  Ta112  1  0.90481534  0.09498160  0.88290138  1
  Ta  Ta113  1  0.80337072  -0.00665983  0.59693686  1
  Ta  Ta114  1  0.39656333  0.79928080  0.60565295  1
  Ta  Ta115  1  0.50357919  0.49623739  0.08777791  1
  Ta  Ta116  1  0.59499294  0.60565939  0.80579882  1
  Ta  Ta117  1  0.39918033  0.18978885  0.18838689  1
  Ta  Ta118  1  0.20466041  -0.00172297  -0.00352598  1
  Ta  Ta119  1  0.50139710  0.70279340  0.70560636  1
  Ta  Ta120  1  0.19505790  0.39606911  0.41072443  1
  Ta  Ta121  1  0.30485682  0.89715871  0.89538372  1
  Ta  Ta122  1  0.49346013  0.09790436  0.70763691  1
  Ta  Ta123  1  0.20593347  0.60575774  0.18381072  1
  Ta  Ta124  1  0.60018938  0.19815584  -0.00239375  1
  Ta  Ta125  1  0.69820270  0.29905294  0.90393307  1
  Ta  Ta126  1  0.19922845  -0.00281531  0.60503398  1
  Ta  Ta127  1  0.60218128  0.20652857  0.40120935  1
  Ta  Ta128  1  0.30050979  0.69870779  0.30372921  1
  Ta  Ta129  1  0.00040895  0.39811006  0.19250813  1
  Ta  Ta130  1  0.70312454  0.69727590  0.50681782  1
  Ta  Ta131  1  0.60025628  0.40446930  0.39986441  1
  Ta  Ta132  1  0.20059277  0.59305699  0.60502775  1
  Ta  Ta133  1  0.49764124  0.70361585  0.30400372  1
  Ta  Ta134  1  0.09861305  0.09446001  0.50493175  1
  Ta  Ta135  1  0.79666041  0.60571086  0.80326322  1
  Ta  Ta136  1  0.19813121  0.60178648  0.79909609  1
  Ta  Ta137  1  0.00874183  0.20279714  0.40346554  1
  Ta  Ta138  1  0.79548307  0.60199502  0.00096206  1
  Ta  Ta139  1  0.21229259  0.19934949  0.19317327  1
  Ta  Ta140  1  0.69230371  0.30273417  0.28919343  1
  Ta  Ta141  1  0.80273801  0.00253999  -0.01115262  1
  Ta  Ta142  1  0.00325843  0.39833878  0.79671906  1
  Ta  Ta143  1  0.40251648  0.60423468  0.00347879  1
  Ta  Ta144  1  0.90136396  0.08923341  0.49527339  1
  Ta  Ta145  1  0.39990505  0.79841094  0.80083125  1
  Ta  Ta146  1  0.19950045  0.40740100  0.60078017  1
  Ta  Ta147  1  0.19460791  0.19857911  0.80783973  1
  Ta  Ta148  1  0.89998193  0.70302012  0.30604140  1
  Ta  Ta149  1  0.09298924  0.90126833  0.50856747  1
  Ti  Ti150  1  0.90642198  0.90529077  0.49894274  1
  Ti  Ti151  1  0.49662019  0.50198546  0.90473757  1
  Ti  Ti152  1  0.69262926  0.30396406  0.49825048  1
  Ti  Ti153  1  0.90619992  0.89768823  0.31064228  1
  Ti  Ti154  1  0.69560627  0.49016173  0.29434889  1
  Ti  Ti155  1  0.60663050  0.79880312  0.59939614  1
  Ti  Ti156  1  0.70122340  0.50970351  0.70339639  1
  Ti  Ti157  1  0.39930923  0.20147010  0.80050029  1
  Ti  Ti158  1  -0.01103033  0.80135962  0.60756405  1
  Ti  Ti159  1  0.90094516  0.09462191  0.69905535  1
  Ti  Ti160  1  0.10958696  0.50404136  0.09013833  1
  Ti  Ti161  1  0.49859763  0.70636707  0.09128863  1
  Ti  Ti162  1  0.78597533  0.40618681  0.40252035  1
  Ti  Ti163  1  0.20350243  0.79887660  0.60944363  1
  Ti  Ti164  1  0.69279354  0.49489463  0.09864514  1
  Ti  Ti165  1  0.79508205  0.39079231  0.18661575  1
  Ti  Ti166  1  0.09807843  0.69675026  0.70737964  1
  Ti  Ti167  1  0.69841914  0.70142876  0.30725110  1
  Ti  Ti168  1  0.79405680  0.59142095  0.40735142  1
  Ti  Ti169  1  0.59858286  0.79758038  0.20183097  1
  Ti  Ti170  1  0.79659050  0.20949707  0.19669161  1
  Ti  Ti171  1  0.09762242  0.49272841  0.50087017  1
  Ti  Ti172  1  0.20555537  0.79766171  0.41066840  1
  Ti  Ti173  1  0.49624743  0.50193805  0.50140232  1
  Ti  Ti174  1  0.49533061  0.31021264  0.90765471  1
  Ti  Ti175  1  0.59397028  0.60480011  0.00052561  1
  Ti  Ti176  1  0.39218302  0.38454707  0.80027602  1
  Ti  Ti177  1  0.58672319  0.80367344  0.00108227  1
  Ti  Ti178  1  0.19988315  -0.00426579  0.41075551  1
  Ti  Ti179  1  0.09960713  0.29958085  0.29814831  1
  Ti  Ti180  1  0.90505883  0.91645257  0.70753299  1
  Ti  Ti181  1  0.89956536  0.50584378  0.70561774  1
  Ti  Ti182  1  0.69475588  0.10113344  0.30208043  1
  Ti  Ti183  1  0.21889238  -0.00176401  0.78423974  1
  Ti  Ti184  1  0.31190223  0.30613873  0.09119743  1
  Ti  Ti185  1  0.29997397  0.69984852  0.50788353  1
  Ti  Ti186  1  0.49762829  0.29673753  0.69768517  1
  Ti  Ti187  1  0.00210487  -0.00043798  0.40492338  1
  Ti  Ti188  1  0.69756124  0.70402412  0.09555375  1
  Ti  Ti189  1  0.40113761  0.19699611  0.60941867  1
  Ti  Ti190  1  0.31055740  0.89606954  0.08508668  1
  Ti  Ti191  1  0.59263296  0.00885154  0.80845300  1
  Ti  Ti192  1  0.60551708  0.39445935  0.00278896  1
  Ti  Ti193  1  0.39995832  0.60090798  0.40514926  1
  Ti  Ti194  1  0.89466441  0.68873250  0.70303440  1
  Ti  Ti195  1  0.29040043  0.89528404  0.51146611  1
  Ti  Ti196  1  0.19178102  0.20518467  0.40540168  1
  Ti  Ti197  1  0.29268559  0.28418568  0.69834758  1
  Ti  Ti198  1  0.50178250  0.29925638  0.50474226  1
  Ti  Ti199  1  0.69654898  0.90626285  0.89410342  1
  Mo  Mo200  1  0.60558215  0.41047632  0.19947283  1
  Mo  Mo201  1  0.70123400  0.89791095  0.50431235  1
  Mo  Mo202  1  0.30154302  0.50299799  0.08493146  1
  Mo  Mo203  1  0.29607886  0.50317250  0.50382986  1
  Mo  Mo204  1  0.80383502  -0.00455318  0.40140447  1
  Mo  Mo205  1  0.90110300  0.30438363  0.10319963  1
  Mo  Mo206  1  -0.00764209  0.80506412  0.40369090  1
  Mo  Mo207  1  0.10904613  0.69810350  0.88957981  1
  Mo  Mo208  1  0.29363826  0.50420522  0.70193791  1
  Mo  Mo209  1  0.50099256  0.50647040  0.30403044  1
  Mo  Mo210  1  0.89277382  0.50073553  0.49224729  1
  Mo  Mo211  1  0.29846231  0.11256982  0.70075976  1
  Mo  Mo212  1  0.69118936  0.90104186  0.30342059  1
  Mo  Mo213  1  0.49745853  0.70036969  0.90201268  1
  Mo  Mo214  1  0.60916023  -0.00510914  0.38903892  1
  Mo  Mo215  1  -0.00634516  -0.00275077  0.59666759  1
  Mo  Mo216  1  0.01115374  0.39539614  0.39303859  1
  Mo  Mo217  1  0.29319181  0.88547860  0.70513883  1
  Mo  Mo218  1  0.80123336  0.00149253  0.79942311  1
  Mo  Mo219  1  0.50171321  0.10284618  0.09938107  1
  Mo  Mo220  1  0.10875361  0.09142417  0.88931073  1
  Mo  Mo221  1  0.40492089  0.60945758  0.80524069  1
  Mo  Mo222  1  0.39846655  -0.00548827  0.80107873  1
  Mo  Mo223  1  0.59921341  0.00726290  0.61509573  1
  Mo  Mo224  1  0.49893053  0.89340872  0.09596754  1
  Mo  Mo225  1  0.30225806  0.69627975  0.09470221  1
  Mo  Mo226  1  0.70061323  0.50275040  0.49584442  1
  Mo  Mo227  1  0.79600869  0.60214680  0.60878256  1
  Mo  Mo228  1  0.89969339  0.91283957  0.89009732  1
  Mo  Mo229  1  0.19306601  0.19291973  0.60518502  1
  Mo  Mo230  1  0.10272296  0.69580612  0.09714866  1
  Mo  Mo231  1  0.50097044  0.09863125  0.89619510  1
  Mo  Mo232  1  0.10801739  0.90242087  0.08691750  1
  Mo  Mo233  1  0.40070724  0.80039182  -0.00076823  1
  Mo  Mo234  1  0.89183572  0.69103233  0.89921110  1
  Mo  Mo235  1  0.20030203  0.79258114  0.80061226  1
  Mo  Mo236  1  0.59794598  0.79603154  0.80241027  1
  Mo  Mo237  1  0.60503240  0.20007089  0.20136838  1
  Mo  Mo238  1  -0.00234879  0.19777997  0.79281703  1
  Mo  Mo239  1  -0.00034938  0.59952565  0.79449277  1
  Mo  Mo240  1  0.01157013  0.20455624  0.21045096  1
  Mo  Mo241  1  0.20475888  0.59562454  0.00083411  1
  Mo  Mo242  1  -0.00351644  -0.00050388  0.79745355  1
  Mo  Mo243  1  0.30579726  0.29971571  0.89450726  1
  Mo  Mo244  1  0.30470665  0.09238394  0.09794196  1
  Mo  Mo245  1  0.70115113  0.30257042  0.09903609  1
  Mo  Mo246  1  0.39997875  -0.00026446  0.18158191  1
  Mo  Mo247  1  0.10490176  0.30570897  0.89264982  1
  Mo  Mo248  1  0.40567579  0.40284614  -0.00351751  1
  Mo  Mo249  1  0.10075646  0.29732870  0.49716851  1
