# generated using pymatgen
data_HfZrTaTiMo
_symmetry_space_group_name_H-M   'P 1'
_cell_length_a   16.88780003
_cell_length_b   16.88605954
_cell_length_c   16.88329116
_cell_angle_alpha   90.03796902
_cell_angle_beta   89.98710914
_cell_angle_gamma   90.04235465
_symmetry_Int_Tables_number   1
_chemical_formula_structural   HfZrTaTiMo
_chemical_formula_sum   'Hf50 Zr50 Ta50 Ti50 Mo50'
_cell_volume   4814.57858023
_cell_formula_units_Z   50
loop_
 _symmetry_equiv_pos_site_id
 _symmetry_equiv_pos_as_xyz
  1  'x, y, z'
loop_
 _atom_site_type_symbol
 _atom_site_label
 _atom_site_symmetry_multiplicity
 _atom_site_fract_x
 _atom_site_fract_y
 _atom_site_fract_z
 _atom_site_occupancy
  Hf  Hf0  1  0.60401878  0.40909869  0.20593228  1
  Hf  Hf1  1  0.41128852  0.00073121  0.40071251  1
  Hf  Hf2  1  0.00183095  0.60043704  0.60420523  1
  Hf  Hf3  1  0.30798794  0.10843157  0.30778988  1
  Hf  Hf4  1  0.50404129  0.50245861  0.89359338  1
  Hf  Hf5  1  0.78956945  0.59509845  0.39996261  1
  Hf  Hf6  1  -0.00412991  0.80279848  -0.00299025  1
  Hf  Hf7  1  0.70568958  0.30067929  0.10309758  1
  Hf  Hf8  1  0.89081967  0.30212628  0.29084053  1
  Hf  Hf9  1  0.20118297  0.79452954  0.19298988  1
  Hf  Hf10  1  0.59382844  0.79476099  0.79243607  1
  Hf  Hf11  1  0.30458655  0.10342781  0.70051763  1
  Hf  Hf12  1  0.20194200  0.00823106  0.19059148  1
  Hf  Hf13  1  0.09106788  0.69197016  0.88890969  1
  Hf  Hf14  1  0.10091184  0.50005143  0.49847992  1
  Hf  Hf15  1  0.30381575  0.90506063  0.90336406  1
  Hf  Hf16  1  0.60450773  0.40353789  -0.00504749  1
  Hf  Hf17  1  0.30475008  0.90056889  0.30009919  1
  Hf  Hf18  1  0.80107520  0.59618390  0.80116606  1
  Hf  Hf19  1  0.31518356  0.30518345  0.30838226  1
  Hf  Hf20  1  0.10620632  0.09381290  0.51584017  1
  Hf  Hf21  1  0.58975015  0.79328643  0.39660360  1
  Hf  Hf22  1  0.10524506  0.49914333  0.10028854  1
  Hf  Hf23  1  0.21374274  0.60567661  0.79132096  1
  Hf  Hf24  1  0.50327010  0.69091098  0.89939823  1
  Hf  Hf25  1  0.00329205  -0.00222177  -0.00214230  1
  Hf  Hf26  1  0.68826314  0.50850681  0.69447602  1
  Hf  Hf27  1  0.00753820  0.79065432  0.39476427  1
  Hf  Hf28  1  -0.00567892  0.20893533  0.40456617  1
  Hf  Hf29  1  0.39181754  0.59878217  -0.00059305  1
  Hf  Hf30  1  0.79817192  0.79444827  -0.00373981  1
  Hf  Hf31  1  0.59383863  0.20377188  0.80152735  1
  Hf  Hf32  1  0.59708894  0.80394999  0.20503910  1
  Hf  Hf33  1  0.89857555  0.29685230  0.89908022  1
  Hf  Hf34  1  0.80086999  0.40649318  0.59311520  1
  Hf  Hf35  1  -0.00705019  0.39850475  0.00521600  1
  Hf  Hf36  1  0.01613654  0.79574940  0.19332267  1
  Hf  Hf37  1  0.30361681  0.90094841  0.51068944  1
  Hf  Hf38  1  0.88779759  0.08893604  0.30353580  1
  Hf  Hf39  1  0.89087208  0.69745741  0.11108072  1
  Hf  Hf40  1  0.20217976  0.39072962  0.59433842  1
  Hf  Hf41  1  0.10675289  0.29941966  0.90707685  1
  Hf  Hf42  1  0.49378180  0.49894923  0.70359734  1
  Hf  Hf43  1  -0.00345258  0.60614604  0.00336002  1
  Hf  Hf44  1  0.60273727  0.00161030  0.79649576  1
  Hf  Hf45  1  0.19267007  0.79182126  0.00421222  1
  Hf  Hf46  1  0.49734806  0.30164228  0.30418162  1
  Hf  Hf47  1  0.90010663  0.69572592  0.70484727  1
  Hf  Hf48  1  0.30772052  0.10452491  0.51403046  1
  Hf  Hf49  1  0.19767331  0.79674117  0.79699821  1
  Zr  Zr50  1  0.89158391  0.69956782  0.29816740  1
  Zr  Zr51  1  0.01422677  -0.00148549  0.19048074  1
  Zr  Zr52  1  0.31025965  0.49901767  0.29708518  1
  Zr  Zr53  1  0.69330050  0.69685782  0.69484090  1
  Zr  Zr54  1  0.00057445  0.19963618  0.19345053  1
  Zr  Zr55  1  0.88859027  0.09684270  0.09918891  1
  Zr  Zr56  1  0.00465722  0.21408827  0.59153657  1
  Zr  Zr57  1  0.49450182  0.89964525  0.09233700  1
  Zr  Zr58  1  0.10517874  0.49905394  0.89794491  1
  Zr  Zr59  1  0.10772954  0.90502187  0.50914057  1
  Zr  Zr60  1  0.59510752  0.39735130  0.58714175  1
  Zr  Zr61  1  0.79623871  0.40459384  0.79835899  1
  Zr  Zr62  1  0.69540261  0.09418091  0.49846714  1
  Zr  Zr63  1  0.50053762  0.89967313  0.50887149  1
  Zr  Zr64  1  0.19933095  0.60579230  0.39687418  1
  Zr  Zr65  1  0.30682688  0.09404174  0.90145511  1
  Zr  Zr66  1  0.21507315  0.39844107  0.79035636  1
  Zr  Zr67  1  0.89794872  0.90004366  0.49541946  1
  Zr  Zr68  1  0.50202086  0.69421351  0.09814115  1
  Zr  Zr69  1  0.88779133  0.90197079  0.10492898  1
  Zr  Zr70  1  0.79433956  0.59570843  -0.00281853  1
  Zr  Zr71  1  0.48915862  0.10295816  0.69609267  1
  Zr  Zr72  1  0.30825707  0.90800172  0.09330526  1
  Zr  Zr73  1  0.41598356  0.60989271  0.40123223  1
  Zr  Zr74  1  0.31102944  0.49362518  0.49896272  1
  Zr  Zr75  1  0.91029141  0.09620716  0.69356000  1
  Zr  Zr76  1  0.49603224  0.30754460  0.10848059  1
  Zr  Zr77  1  0.19958900  0.21678053  0.42014511  1
  Zr  Zr78  1  0.00077873  0.39918078  0.78969552  1
  Zr  Zr79  1  0.20256613  0.79578677  0.39891718  1
  Zr  Zr80  1  0.20870259  0.20816174  0.80255172  1
  Zr  Zr81  1  0.69616580  0.29373428  0.69103233  1
  Zr  Zr82  1  0.20494882  0.20090616  0.19225092  1
  Zr  Zr83  1  0.39231521  0.78225268  0.79521391  1
  Zr  Zr84  1  0.80017626  0.19302924  0.79574057  1
  Zr  Zr85  1  0.30329582  0.90904003  0.69535751  1
  Zr  Zr86  1  0.78838242  0.40345724  0.40158053  1
  Zr  Zr87  1  0.00169835  0.79611066  0.60530902  1
  Zr  Zr88  1  0.89569232  0.49952044  0.11337191  1
  Zr  Zr89  1  0.10334520  0.10256790  0.31017887  1
  Zr  Zr90  1  0.59723384  0.19899583  0.00033082  1
  Zr  Zr91  1  0.89416188  0.89962769  0.29981031  1
  Zr  Zr92  1  0.90049443  0.08956868  0.49529339  1
  Zr  Zr93  1  0.69693358  0.89538923  0.89798208  1
  Zr  Zr94  1  0.20537400  0.40030767  0.19716577  1
  Zr  Zr95  1  -0.00692926  0.39883770  0.40610096  1
  Zr  Zr96  1  0.59635752  0.00080533  0.20379065  1
  Zr  Zr97  1  0.39861121  0.20743793  -0.00223879  1
  Zr  Zr98  1  0.79670331  -0.00614996  0.60628891  1
  Zr  Zr99  1  0.49157355  0.89904965  0.90336743  1
  Ta  Ta100  1  0.70274491  0.09938564  0.90138526  1
  Ta  Ta101  1  0.69427021  0.69513762  0.50762175  1
  Ta  Ta102  1  0.10284148  0.50515149  0.69805827  1
  Ta  Ta103  1  0.68987582  0.68861358  0.89986260  1
  Ta  Ta104  1  0.49595382  0.50246329  0.10251052  1
  Ta  Ta105  1  0.90555141  0.50474773  0.89401449  1
  Ta  Ta106  1  -0.00443169  0.40259805  0.59899135  1
  Ta  Ta107  1  -0.00030348  0.19673614  0.00104330  1
  Ta  Ta108  1  0.10095943  0.49904566  0.29958278  1
  Ta  Ta109  1  0.09991932  0.10265356  0.89834386  1
  Ta  Ta110  1  0.89946654  0.29983867  0.69459491  1
  Ta  Ta111  1  0.60310938  0.00254453  0.00125941  1
  Ta  Ta112  1  0.50129627  0.10957300  0.50572373  1
  Ta  Ta113  1  0.77457903  0.80039300  0.19828787  1
  Ta  Ta114  1  0.80030234  0.19942874  0.00037266  1
  Ta  Ta115  1  0.49739272  0.90038971  0.69614425  1
  Ta  Ta116  1  0.70132267  0.29786637  0.90086637  1
  Ta  Ta117  1  0.79315121  0.20088895  0.39797852  1
  Ta  Ta118  1  0.20556382  0.60376395  0.60439631  1
  Ta  Ta119  1  -0.00046533  -0.00274558  0.80431529  1
  Ta  Ta120  1  0.09996065  0.30819178  0.29928248  1
  Ta  Ta121  1  0.59892362  0.19973901  0.39993926  1
  Ta  Ta122  1  0.60160823  0.19113535  0.20420715  1
  Ta  Ta123  1  0.19443504  0.00073285  0.80302228  1
  Ta  Ta124  1  0.79699496  0.79707035  0.59870215  1
  Ta  Ta125  1  0.31191091  0.49870111  0.88937831  1
  Ta  Ta126  1  0.30889528  0.69592697  0.29393310  1
  Ta  Ta127  1  0.78683814  0.19270215  0.20408376  1
  Ta  Ta128  1  0.69375634  0.29763810  0.30119204  1
  Ta  Ta129  1  0.79694485  0.40436340  -0.00477571  1
  Ta  Ta130  1  0.20952946  0.60348445  0.00143982  1
  Ta  Ta131  1  0.39640803  0.60266966  0.60874557  1
  Ta  Ta132  1  0.10490523  0.09887616  0.70033926  1
  Ta  Ta133  1  0.49610315  0.09483060  0.89630185  1
  Ta  Ta134  1  0.89958338  0.09699593  0.90011190  1
  Ta  Ta135  1  0.10921982  0.90146217  0.29984812  1
  Ta  Ta136  1  0.09871252  0.90670454  0.70086507  1
  Ta  Ta137  1  0.00371402  0.19762037  0.80078123  1
  Ta  Ta138  1  0.69706453  0.89362417  0.69587440  1
  Ta  Ta139  1  0.69235463  0.89417979  0.50257576  1
  Ta  Ta140  1  0.80261318  -0.00567480  0.80112096  1
  Ta  Ta141  1  0.89156351  0.69631866  0.50089253  1
  Ta  Ta142  1  0.78744366  0.79588921  0.40371959  1
  Ta  Ta143  1  0.30736875  0.70471414  0.50459213  1
  Ta  Ta144  1  0.01364749  0.60461715  0.20741886  1
  Ta  Ta145  1  0.89645501  0.51074487  0.50234897  1
  Ta  Ta146  1  0.00142431  0.60330230  0.39681715  1
  Ta  Ta147  1  0.40483874  0.79344195  0.20565113  1
  Ta  Ta148  1  0.59811061  0.60118330  0.20612288  1
  Ta  Ta149  1  0.10173159  0.30152159  0.09592331  1
  Ti  Ti150  1  0.61279417  0.79567813  0.01088402  1
  Ti  Ti151  1  0.19276825  0.00675397  0.00523083  1
  Ti  Ti152  1  0.50671290  0.69970753  0.51665032  1
  Ti  Ti153  1  0.69822270  0.90384204  0.31273703  1
  Ti  Ti154  1  0.69998411  0.09679784  0.09512353  1
  Ti  Ti155  1  0.39983737  0.19457131  0.19324231  1
  Ti  Ti156  1  0.10119919  0.90239973  0.89712294  1
  Ti  Ti157  1  0.40158293  0.39857517  -0.00842370  1
  Ti  Ti158  1  0.59591439  0.00176372  0.39406865  1
  Ti  Ti159  1  0.30617643  0.30726245  0.10073895  1
  Ti  Ti160  1  0.49465585  0.09625061  0.09486087  1
  Ti  Ti161  1  0.69225103  0.50835148  0.09677676  1
  Ti  Ti162  1  0.31564375  0.30126950  0.68535323  1
  Ti  Ti163  1  0.10384435  0.29550584  0.69524960  1
  Ti  Ti164  1  0.10361209  0.69741361  0.50455998  1
  Ti  Ti165  1  -0.00669480  0.80374790  0.80502906  1
  Ti  Ti166  1  0.69280151  0.29110366  0.49669364  1
  Ti  Ti167  1  0.77776549  -0.00291780  0.20364148  1
  Ti  Ti168  1  0.59966469  0.59464610  0.40191928  1
  Ti  Ti169  1  0.49802533  0.10916997  0.30456333  1
  Ti  Ti170  1  0.20614287  0.00142285  0.40304702  1
  Ti  Ti171  1  0.19938581  0.78777826  0.61127129  1
  Ti  Ti172  1  0.40482932  0.00487179  0.20133753  1
  Ti  Ti173  1  0.00225997  0.40064415  0.20116714  1
  Ti  Ti174  1  0.69266254  0.69622474  0.30274647  1
  Ti  Ti175  1  0.40315550  0.22289457  0.80872233  1
  Ti  Ti176  1  0.20245905  0.60687560  0.19315316  1
  Ti  Ti177  1  0.49506886  0.30136093  0.68941398  1
  Ti  Ti178  1  0.78959976  0.40927599  0.20483991  1
  Ti  Ti179  1  0.20093400  0.39612465  0.40291971  1
  Ti  Ti180  1  0.80369905  0.79878166  0.80509509  1
  Ti  Ti181  1  0.89991169  0.89773983  0.70341800  1
  Ti  Ti182  1  0.40431524  0.79022042  0.60771769  1
  Ti  Ti183  1  0.69675551  0.10278387  0.69359709  1
  Ti  Ti184  1  0.78172724  0.59656953  0.20637657  1
  Ti  Ti185  1  0.59750586  -0.00012478  0.60407437  1
  Ti  Ti186  1  0.31058017  0.49956349  0.10593911  1
  Ti  Ti187  1  0.49470719  0.49931458  0.29760083  1
  Ti  Ti188  1  0.20571109  0.19862114  0.00681042  1
  Ti  Ti189  1  0.21526441  0.40296153  -0.00018464  1
  Ti  Ti190  1  0.80387155  0.20385690  0.58879150  1
  Ti  Ti191  1  0.40748742  0.79732101  0.39550041  1
  Ti  Ti192  1  0.38349244  0.78198332  0.00161047  1
  Ti  Ti193  1  0.89268205  0.30021397  0.10325623  1
  Ti  Ti194  1  0.79558852  -0.00448558  -0.00735687  1
  Ti  Ti195  1  0.59973640  0.40587305  0.40214906  1
  Ti  Ti196  1  0.00865056  -0.00633940  0.39755140  1
  Ti  Ti197  1  0.90218577  0.50414455  0.29889352  1
  Ti  Ti198  1  0.49810541  0.50018950  0.50393870  1
  Ti  Ti199  1  0.59724713  0.39281690  0.80217263  1
  Mo  Mo200  1  0.88723454  0.30387098  0.50101834  1
  Mo  Mo201  1  0.58853292  0.59894853  0.59497610  1
  Mo  Mo202  1  0.31651439  0.30184465  0.50292449  1
  Mo  Mo203  1  0.40613622  0.00394975  0.59984038  1
  Mo  Mo204  1  0.49769423  0.69400101  0.69595542  1
  Mo  Mo205  1  0.09933760  0.30886845  0.50095817  1
  Mo  Mo206  1  0.90556315  0.49908580  0.69574061  1
  Mo  Mo207  1  0.49451289  0.90035958  0.30161546  1
  Mo  Mo208  1  0.10467215  0.90525878  0.09649210  1
  Mo  Mo209  1  0.89766944  0.90228812  0.89220731  1
  Mo  Mo210  1  0.69824657  0.49594700  0.89497079  1
  Mo  Mo211  1  0.69070401  0.51197649  0.49921167  1
  Mo  Mo212  1  0.10692233  0.10814047  0.08293892  1
  Mo  Mo213  1  0.29755895  0.69548613  0.90262366  1
  Mo  Mo214  1  0.50198303  0.69659906  0.29851996  1
  Mo  Mo215  1  0.59691132  0.20041213  0.59556313  1
  Mo  Mo216  1  0.00361575  -0.00595429  0.61258903  1
  Mo  Mo217  1  0.69551143  0.69509138  0.10282973  1
  Mo  Mo218  1  0.10226041  0.69076461  0.09501208  1
  Mo  Mo219  1  0.20115881  0.00509531  0.60977224  1
  Mo  Mo220  1  0.30695046  0.10154365  0.10006721  1
  Mo  Mo221  1  0.10840642  0.69451576  0.29695034  1
  Mo  Mo222  1  -0.00056405  0.59608306  0.79617559  1
  Mo  Mo223  1  0.40406184  0.59848611  0.19857936  1
  Mo  Mo224  1  0.30122742  0.69466342  0.10587332  1
  Mo  Mo225  1  0.39764785  0.59495464  0.79668706  1
  Mo  Mo226  1  0.40457804  0.21149924  0.59688267  1
  Mo  Mo227  1  0.78625258  -0.00763711  0.39935243  1
  Mo  Mo228  1  0.30078550  0.70110459  0.69172697  1
  Mo  Mo229  1  0.59842757  0.79899772  0.59985307  1
  Mo  Mo230  1  0.69419252  0.10067529  0.30367255  1
  Mo  Mo231  1  0.40183740  0.39331311  0.79628998  1
  Mo  Mo232  1  0.40812854  0.20207559  0.40737836  1
  Mo  Mo233  1  0.10022143  0.70271720  0.69996829  1
  Mo  Mo234  1  0.50095946  0.30758821  0.89332357  1
  Mo  Mo235  1  0.40479633  -0.00737350  0.80055574  1
  Mo  Mo236  1  0.40363124  0.40449229  0.19746995  1
  Mo  Mo237  1  0.68922400  0.50199310  0.30205864  1
  Mo  Mo238  1  0.40067146  0.40075315  0.59807327  1
  Mo  Mo239  1  0.49929621  0.29955556  0.49421885  1
  Mo  Mo240  1  0.41732970  0.40216229  0.40602424  1
  Mo  Mo241  1  0.20380801  0.20693881  0.60800945  1
  Mo  Mo242  1  0.80150947  0.60129579  0.59640722  1
  Mo  Mo243  1  0.60200738  0.59435455  0.00373435  1
  Mo  Mo244  1  0.40720604  0.01116136  0.00047860  1
  Mo  Mo245  1  0.89673084  0.70184306  0.89274828  1
  Mo  Mo246  1  0.30456662  0.49908538  0.69640058  1
  Mo  Mo247  1  0.59928249  0.59966186  0.80035464  1
  Mo  Mo248  1  0.30352781  0.31028044  0.91168120  1
  Mo  Mo249  1  0.69692151  0.90446936  0.09604476  1
