# generated using pymatgen
data_HfZrTaTiMo
_symmetry_space_group_name_H-M   'P 1'
_cell_length_a   16.88643835
_cell_length_b   16.88497071
_cell_length_c   16.89302252
_cell_angle_alpha   90.00693305
_cell_angle_beta   89.98536039
_cell_angle_gamma   90.05423748
_symmetry_Int_Tables_number   1
_chemical_formula_structural   HfZrTaTiMo
_chemical_formula_sum   'Hf50 Zr50 Ta50 Ti50 Mo50'
_cell_volume   4816.65476658
_cell_formula_units_Z   50
loop_
 _symmetry_equiv_pos_site_id
 _symmetry_equiv_pos_as_xyz
  1  'x, y, z'
loop_
 _atom_site_type_symbol
 _atom_site_label
 _atom_site_symmetry_multiplicity
 _atom_site_fract_x
 _atom_site_fract_y
 _atom_site_fract_z
 _atom_site_occupancy
  Hf  Hf0  1  0.51791079  0.91238942  0.49770821  1
  Hf  Hf1  1  0.89959882  0.49966582  0.09878009  1
  Hf  Hf2  1  0.18940923  0.00258764  0.80475284  1
  Hf  Hf3  1  0.80793244  0.79784116  0.00553449  1
  Hf  Hf4  1  0.18980173  0.00572296  0.59151707  1
  Hf  Hf5  1  0.40601168  0.19699529  0.20745834  1
  Hf  Hf6  1  0.70043657  0.09459040  0.69423068  1
  Hf  Hf7  1  0.50520040  0.50304882  0.09813406  1
  Hf  Hf8  1  0.59468611  0.59610711  0.38728628  1
  Hf  Hf9  1  0.79987288  0.19948027  0.80123458  1
  Hf  Hf10  1  0.70043151  0.30237683  0.49889616  1
  Hf  Hf11  1  0.40270964  0.39874193  -0.00812267  1
  Hf  Hf12  1  0.29005465  0.71092192  0.10318151  1
  Hf  Hf13  1  0.90742045  0.89530310  0.29814406  1
  Hf  Hf14  1  0.09426594  0.10054353  0.29789207  1
  Hf  Hf15  1  0.70922511  0.50535572  0.90152926  1
  Hf  Hf16  1  0.70404844  0.70552148  0.29778549  1
  Hf  Hf17  1  0.69928981  0.90388706  0.10536234  1
  Hf  Hf18  1  0.39999944  0.60003905  0.80327295  1
  Hf  Hf19  1  0.29430142  0.90149843  0.70414705  1
  Hf  Hf20  1  0.89819435  0.09000507  0.69745175  1
  Hf  Hf21  1  0.90245647  0.09503559  0.89970510  1
  Hf  Hf22  1  0.17880316  0.79960835  0.82035660  1
  Hf  Hf23  1  0.40268502  0.00291123  0.20285930  1
  Hf  Hf24  1  0.49618719  0.30950785  0.50724853  1
  Hf  Hf25  1  0.00157716  0.60979468  0.38205410  1
  Hf  Hf26  1  -0.00779947  0.19874325  0.40427419  1
  Hf  Hf27  1  0.59718655  0.19160686  0.59137805  1
  Hf  Hf28  1  0.60264194  0.79895145  0.20222130  1
  Hf  Hf29  1  0.90001815  0.89966337  0.70389182  1
  Hf  Hf30  1  0.90231310  0.29001375  0.69241230  1
  Hf  Hf31  1  0.50175485  0.70134838  0.49554323  1
  Hf  Hf32  1  0.51466932  0.71374330  0.71031561  1
  Hf  Hf33  1  0.69644130  0.89357158  0.70464952  1
  Hf  Hf34  1  0.59903087  0.40047963  -0.00399612  1
  Hf  Hf35  1  0.29949874  0.10508587  0.90476302  1
  Hf  Hf36  1  0.61397694  0.60639876  0.60346563  1
  Hf  Hf37  1  0.59898502  0.19757736  -0.00112184  1
  Hf  Hf38  1  0.90536139  0.69238609  0.51182438  1
  Hf  Hf39  1  -0.00321774  0.39871806  0.80073657  1
  Hf  Hf40  1  0.39478400  0.80023198  0.60253747  1
  Hf  Hf41  1  -0.00155810  0.20255167  0.00601310  1
  Hf  Hf42  1  0.40348801  0.00802104  0.59349747  1
  Hf  Hf43  1  -0.00705926  0.39405571  0.40189904  1
  Hf  Hf44  1  0.51093698  0.70168739  0.90108394  1
  Hf  Hf45  1  0.60464301  0.00297880  0.80930380  1
  Hf  Hf46  1  0.29957205  0.29881723  0.09608470  1
  Hf  Hf47  1  0.70606469  0.30600339  0.10574221  1
  Hf  Hf48  1  0.10003678  0.29698028  0.29752990  1
  Hf  Hf49  1  0.70273106  0.70112587  0.89742914  1
  Zr  Zr50  1  0.29384820  0.11669992  0.48814422  1
  Zr  Zr51  1  -0.00302382  0.39138310  -0.00502613  1
  Zr  Zr52  1  0.80653661  0.39843811  0.60202906  1
  Zr  Zr53  1  0.80301876  0.00477712  0.19629940  1
  Zr  Zr54  1  0.90265633  0.50448963  0.50156088  1
  Zr  Zr55  1  0.40104462  0.60029788  -0.00308714  1
  Zr  Zr56  1  0.18674454  0.60482341  0.20459760  1
  Zr  Zr57  1  0.40168637  0.19871978  0.60095273  1
  Zr  Zr58  1  0.79566662  0.78877536  0.60271099  1
  Zr  Zr59  1  0.20152922  0.40504115  0.20159935  1
  Zr  Zr60  1  0.29493957  0.49728502  0.70142524  1
  Zr  Zr61  1  0.79993294  0.80148642  0.40811432  1
  Zr  Zr62  1  0.59474005  0.19276102  0.38450265  1
  Zr  Zr63  1  0.69780160  0.30023161  0.89562454  1
  Zr  Zr64  1  0.11781734  0.30300141  0.49410429  1
  Zr  Zr65  1  0.10253568  0.88760555  0.11230505  1
  Zr  Zr66  1  0.40593478  0.40825940  0.38411167  1
  Zr  Zr67  1  0.10015224  0.50176389  0.69919536  1
  Zr  Zr68  1  0.80752477  0.40131350  0.79861567  1
  Zr  Zr69  1  0.50660023  0.90027279  0.69978085  1
  Zr  Zr70  1  0.51023691  0.89276301  0.90236352  1
  Zr  Zr71  1  0.79614661  0.60515609  0.39822729  1
  Zr  Zr72  1  0.20371455  -0.00333602  0.20642745  1
  Zr  Zr73  1  0.29024863  0.90097622  0.91831221  1
  Zr  Zr74  1  0.40349412  0.80815417  0.39873683  1
  Zr  Zr75  1  0.40007456  0.00148715  0.80561640  1
  Zr  Zr76  1  0.59845832  0.39896609  0.38699192  1
  Zr  Zr77  1  0.19323664  0.19804441  0.80014294  1
  Zr  Zr78  1  0.19201117  0.80641173  0.39090596  1
  Zr  Zr79  1  0.40189637  0.80181643  0.00405322  1
  Zr  Zr80  1  0.29793031  0.30636025  0.69628935  1
  Zr  Zr81  1  0.29188681  0.50296167  0.09137717  1
  Zr  Zr82  1  0.70293483  0.49598947  0.50079861  1
  Zr  Zr83  1  0.30062735  0.09468079  0.09033381  1
  Zr  Zr84  1  0.80932357  0.19842838  0.00640318  1
  Zr  Zr85  1  0.19784772  0.80117151  0.59676037  1
  Zr  Zr86  1  0.79830407  0.19411146  0.39647479  1
  Zr  Zr87  1  0.29239858  0.49533463  0.50061747  1
  Zr  Zr88  1  0.01020046  0.79335677  -0.00636016  1
  Zr  Zr89  1  0.29686668  0.68501820  0.48457710  1
  Zr  Zr90  1  0.49494494  0.49931569  0.50906667  1
  Zr  Zr91  1  0.29090934  0.29293551  0.31516193  1
  Zr  Zr92  1  0.19958781  -0.00295259  0.39653309  1
  Zr  Zr93  1  0.59550444  0.40137858  0.20506712  1
  Zr  Zr94  1  0.09093827  0.89789030  0.69997890  1
  Zr  Zr95  1  0.00005679  0.19412631  0.58831905  1
  Zr  Zr96  1  0.89576654  0.49762773  0.29155096  1
  Zr  Zr97  1  0.09549690  0.69547802  0.50119885  1
  Zr  Zr98  1  0.40153394  0.59728630  0.20531973  1
  Zr  Zr99  1  0.40054494  0.60761663  0.61179145  1
  Ta  Ta100  1  0.10353402  0.50400596  0.49565185  1
  Ta  Ta101  1  0.60952779  0.59753061  0.79510143  1
  Ta  Ta102  1  0.18896382  0.39900509  -0.00603966  1
  Ta  Ta103  1  0.40657064  0.20362380  -0.00385624  1
  Ta  Ta104  1  0.50843486  0.90368615  0.29849116  1
  Ta  Ta105  1  0.80949084  0.79194263  0.80396031  1
  Ta  Ta106  1  -0.00195421  -0.00039859  0.58783504  1
  Ta  Ta107  1  0.80230517  0.00138787  0.00390460  1
  Ta  Ta108  1  0.50496119  0.70430437  0.10404635  1
  Ta  Ta109  1  0.50489577  0.90288772  0.10689568  1
  Ta  Ta110  1  0.00128096  0.20086212  0.80242178  1
  Ta  Ta111  1  0.70931908  0.50089286  0.09916758  1
  Ta  Ta112  1  0.60697453  0.60159516  0.19843593  1
  Ta  Ta113  1  0.60391618  0.00428306  0.00471773  1
  Ta  Ta114  1  -0.00435422  0.00049405  0.01008464  1
  Ta  Ta115  1  0.29881230  0.10145027  0.70145681  1
  Ta  Ta116  1  0.40170685  0.39997330  0.20273597  1
  Ta  Ta117  1  0.79926781  0.60746597  0.19372760  1
  Ta  Ta118  1  0.79664631  -0.01247561  0.58741789  1
  Ta  Ta119  1  -0.00181580  0.39453538  0.19549730  1
  Ta  Ta120  1  0.69082544  0.29615905  0.69667396  1
  Ta  Ta121  1  0.08896905  0.50545721  0.09704933  1
  Ta  Ta122  1  0.00144678  0.39962116  0.59570101  1
  Ta  Ta123  1  0.90268483  0.09221218  0.29733730  1
  Ta  Ta124  1  0.40336488  0.40143050  0.80589854  1
  Ta  Ta125  1  0.29815541  0.70477980  0.29623906  1
  Ta  Ta126  1  0.40786698  0.01073800  0.39130200  1
  Ta  Ta127  1  0.29671188  0.30191594  0.90099878  1
  Ta  Ta128  1  0.28597100  0.69553061  0.90397745  1
  Ta  Ta129  1  0.80242782  0.19632561  0.20145429  1
  Ta  Ta130  1  0.91409361  0.69569946  0.10597337  1
  Ta  Ta131  1  0.29910159  0.30973611  0.50125556  1
  Ta  Ta132  1  0.50584817  0.49198379  0.70108492  1
  Ta  Ta133  1  0.90215791  0.51467148  0.89920834  1
  Ta  Ta134  1  0.28273266  0.69999640  0.71367554  1
  Ta  Ta135  1  0.19121436  0.20231332  0.00369908  1
  Ta  Ta136  1  0.50118759  0.29620341  0.10275576  1
  Ta  Ta137  1  0.70028293  0.91035487  0.30852697  1
  Ta  Ta138  1  0.28685050  0.50047380  0.89756453  1
  Ta  Ta139  1  0.10090126  0.30338374  0.69415216  1
  Ta  Ta140  1  -0.00682697  0.79007487  0.80882499  1
  Ta  Ta141  1  0.90063664  0.90212699  0.90231816  1
  Ta  Ta142  1  0.09037353  0.69103253  0.70782183  1
  Ta  Ta143  1  0.50598982  0.30333212  0.70440578  1
  Ta  Ta144  1  0.50474073  0.10406730  0.70532594  1
  Ta  Ta145  1  0.80585446  0.60945857  0.00344454  1
  Ta  Ta146  1  0.00077224  -0.00202110  0.40242014  1
  Ta  Ta147  1  0.69330297  0.07889101  0.49019941  1
  Ta  Ta148  1  0.38825562  0.79446872  0.80534845  1
  Ta  Ta149  1  0.20305352  0.19201896  0.19876263  1
  Ti  Ti150  1  0.71256866  0.49314672  0.29144664  1
  Ti  Ti151  1  0.90451292  0.89640413  0.49741887  1
  Ti  Ti152  1  0.19579895  0.39977488  0.80629702  1
  Ti  Ti153  1  0.60773913  0.80019994  0.00886060  1
  Ti  Ti154  1  0.09483664  0.51039415  0.89933481  1
  Ti  Ti155  1  0.29937302  0.89482467  0.10355044  1
  Ti  Ti156  1  0.80487579  0.79607733  0.19590763  1
  Ti  Ti157  1  0.60228944  0.40327954  0.79783613  1
  Ti  Ti158  1  0.79794067  -0.00573612  0.80677133  1
  Ti  Ti159  1  0.30320309  0.90497155  0.49681806  1
  Ti  Ti160  1  0.50865382  0.50533980  0.89532883  1
  Ti  Ti161  1  0.60069634  0.01293649  0.20888004  1
  Ti  Ti162  1  0.81176089  0.39448474  -0.00383841  1
  Ti  Ti163  1  0.50710315  0.10263124  0.10316161  1
  Ti  Ti164  1  0.18283669  -0.00139132  0.00287333  1
  Ti  Ti165  1  0.90807093  0.89899161  0.10524027  1
  Ti  Ti166  1  0.09726434  0.49558627  0.30128761  1
  Ti  Ti167  1  0.49351762  0.70546201  0.29702417  1
  Ti  Ti168  1  0.19628746  0.60264970  0.60374037  1
  Ti  Ti169  1  0.61497394  0.79596241  0.59005537  1
  Ti  Ti170  1  0.60789840  0.80136711  0.40208571  1
  Ti  Ti171  1  0.08926080  0.71912980  0.28397259  1
  Ti  Ti172  1  0.41020017  0.19700870  0.39488001  1
  Ti  Ti173  1  0.40078544  0.20398419  0.80171987  1
  Ti  Ti174  1  0.89097722  0.08638512  0.49349139  1
  Ti  Ti175  1  0.30836062  0.89057567  0.29014825  1
  Ti  Ti176  1  0.70642291  0.50116805  0.70144311  1
  Ti  Ti177  1  0.79865438  0.19266757  0.58916011  1
  Ti  Ti178  1  0.18382878  0.60596159  -0.00076888  1
  Ti  Ti179  1  -0.01113510  0.20158709  0.19395853  1
  Ti  Ti180  1  0.50248054  0.29541785  0.89027432  1
  Ti  Ti181  1  0.29353474  0.51482073  0.31428865  1
  Ti  Ti182  1  0.90398398  0.51894953  0.69809629  1
  Ti  Ti183  1  0.88955756  0.30329292  0.29405879  1
  Ti  Ti184  1  0.70217252  0.09900040  0.90279750  1
  Ti  Ti185  1  0.41475897  0.00256535  0.00232151  1
  Ti  Ti186  1  0.19566897  0.19560885  0.59958619  1
  Ti  Ti187  1  0.69666635  0.10471573  0.10624805  1
  Ti  Ti188  1  0.10243945  0.29934087  0.10634776  1
  Ti  Ti189  1  0.50183426  0.10645889  0.89681193  1
  Ti  Ti190  1  0.70459808  0.89726158  0.90555735  1
  Ti  Ti191  1  0.00433979  -0.00344766  0.80733628  1
  Ti  Ti192  1  0.09303787  0.09745796  0.10789599  1
  Ti  Ti193  1  0.10112797  0.29658944  0.89682831  1
  Ti  Ti194  1  -0.00402740  0.79502856  0.60877208  1
  Ti  Ti195  1  0.61095308  0.60492303  0.00866280  1
  Ti  Ti196  1  0.70578694  0.29850410  0.29220826  1
  Ti  Ti197  1  0.08470268  0.89143678  0.49411426  1
  Ti  Ti198  1  0.09416833  0.10026448  0.90703875  1
  Ti  Ti199  1  0.09208206  0.10120485  0.69665494  1
  Mo  Mo200  1  0.60345464  0.00267337  0.60143021  1
  Mo  Mo201  1  0.20179592  0.80042202  0.20373644  1
  Mo  Mo202  1  0.70371027  0.09685612  0.29589553  1
  Mo  Mo203  1  0.19574973  0.40018174  0.59672583  1
  Mo  Mo204  1  0.90615148  0.09933044  0.10483870  1
  Mo  Mo205  1  0.30254510  0.10209698  0.30197385  1
  Mo  Mo206  1  -0.00022085  0.59813922  -0.00040115  1
  Mo  Mo207  1  0.08802822  0.89863260  0.30205123  1
  Mo  Mo208  1  -0.00416472  0.79697341  0.19749269  1
  Mo  Mo209  1  0.19417035  0.19447043  0.39409830  1
  Mo  Mo210  1  0.80347683  0.60347491  0.79709540  1
  Mo  Mo211  1  -0.00092631  -0.00023289  0.19976940  1
  Mo  Mo212  1  0.89221383  0.30097460  0.49830333  1
  Mo  Mo213  1  0.69896303  0.89994658  0.49885074  1
  Mo  Mo214  1  0.89958153  0.69706329  0.90197229  1
  Mo  Mo215  1  0.79952466  0.39057638  0.39228140  1
  Mo  Mo216  1  0.00066425  0.59924875  0.19719287  1
  Mo  Mo217  1  0.00331954  0.59592561  0.60712177  1
  Mo  Mo218  1  0.49854436  0.50846600  0.29222795  1
  Mo  Mo219  1  0.39963520  0.60572809  0.39159152  1
  Mo  Mo220  1  0.90639676  0.29681552  0.89478113  1
  Mo  Mo221  1  0.89897347  0.30058243  0.11085205  1
  Mo  Mo222  1  -0.00290784  0.60170397  0.80367643  1
  Mo  Mo223  1  0.80107880  0.59972534  0.61222450  1
  Mo  Mo224  1  0.61657700  0.80036072  0.80730587  1
  Mo  Mo225  1  0.60459432  0.19814319  0.19604463  1
  Mo  Mo226  1  0.09392414  0.68381999  0.90141987  1
  Mo  Mo227  1  0.90262206  0.69488968  0.70702874  1
  Mo  Mo228  1  0.80443457  -0.00391997  0.40006742  1
  Mo  Mo229  1  0.70257288  0.69893711  0.09971073  1
  Mo  Mo230  1  0.70691794  0.69728005  0.70468521  1
  Mo  Mo231  1  0.19663971  0.79542976  0.00404073  1
  Mo  Mo232  1  0.08883706  0.91410003  0.90874949  1
  Mo  Mo233  1  0.60307737  0.39881467  0.61297307  1
  Mo  Mo234  1  0.50417025  0.09677023  0.29622595  1
  Mo  Mo235  1  0.89989961  0.70527603  0.28714820  1
  Mo  Mo236  1  0.09784367  0.69525519  0.09890015  1
  Mo  Mo237  1  0.69516386  0.69862930  0.49702555  1
  Mo  Mo238  1  0.80018672  0.39888011  0.19847233  1
  Mo  Mo239  1  0.50101569  0.09783207  0.49429016  1
  Mo  Mo240  1  0.40066145  0.39707942  0.61141026  1
  Mo  Mo241  1  0.59786817  0.19703540  0.79811373  1
  Mo  Mo242  1  0.49639604  0.29623115  0.29093159  1
  Mo  Mo243  1  0.09655573  0.09742722  0.49668605  1
  Mo  Mo244  1  0.19464823  0.60032343  0.80759522  1
  Mo  Mo245  1  0.19695644  0.41107413  0.39847365  1
  Mo  Mo246  1  -0.00325985  0.80164172  0.39577726  1
  Mo  Mo247  1  0.40555178  0.80509645  0.20181516  1
  Mo  Mo248  1  0.60223680  0.00039057  0.39166478  1
  Mo  Mo249  1  0.18947572  0.60251721  0.38814631  1
