# generated using pymatgen
data_HfZrTaTiMo
_symmetry_space_group_name_H-M   'P 1'
_cell_length_a   16.88550235
_cell_length_b   16.88163283
_cell_length_c   16.88277615
_cell_angle_alpha   89.97974061
_cell_angle_beta   89.99396961
_cell_angle_gamma   89.95926524
_symmetry_Int_Tables_number   1
_chemical_formula_structural   HfZrTaTiMo
_chemical_formula_sum   'Hf50 Zr50 Ta50 Ti50 Mo50'
_cell_volume   4812.51569499
_cell_formula_units_Z   50
loop_
 _symmetry_equiv_pos_site_id
 _symmetry_equiv_pos_as_xyz
  1  'x, y, z'
loop_
 _atom_site_type_symbol
 _atom_site_label
 _atom_site_symmetry_multiplicity
 _atom_site_fract_x
 _atom_site_fract_y
 _atom_site_fract_z
 _atom_site_occupancy
  Hf  Hf0  1  0.30778051  0.70428687  0.70330276  1
  Hf  Hf1  1  0.19861560  0.60366435  0.79549871  1
  Hf  Hf2  1  0.09835438  0.10438190  0.51547707  1
  Hf  Hf3  1  0.89413512  0.50681101  0.49345537  1
  Hf  Hf4  1  0.70418102  0.91354245  0.49995418  1
  Hf  Hf5  1  0.29243779  0.50144680  0.29797587  1
  Hf  Hf6  1  0.80299068  0.00518335  0.79736327  1
  Hf  Hf7  1  0.70412885  0.68659993  0.49056765  1
  Hf  Hf8  1  0.79410868  0.20172589  0.20528048  1
  Hf  Hf9  1  0.39303571  0.79723799  0.39653089  1
  Hf  Hf10  1  0.80473419  0.39684271  0.38989908  1
  Hf  Hf11  1  0.61241186  0.79309482  0.60625541  1
  Hf  Hf12  1  0.18919621  0.01127829  0.80134333  1
  Hf  Hf13  1  0.80019290  0.00347785  0.39652526  1
  Hf  Hf14  1  0.40584348  0.20341022  0.80118631  1
  Hf  Hf15  1  0.80551145  0.58133020  0.20002115  1
  Hf  Hf16  1  0.90155795  0.29546272  0.91456330  1
  Hf  Hf17  1  0.79749843  0.39330975  0.80326617  1
  Hf  Hf18  1  0.50201454  0.90753262  0.49621404  1
  Hf  Hf19  1  0.69182868  0.49645465  0.90077524  1
  Hf  Hf20  1  0.79710930  0.60308759  0.60430950  1
  Hf  Hf21  1  0.90066538  0.10445382  0.10333663  1
  Hf  Hf22  1  0.10184522  0.90306340  0.30356626  1
  Hf  Hf23  1  0.09653353  0.09897027  0.30261471  1
  Hf  Hf24  1  0.78454449  0.00347137  0.01160501  1
  Hf  Hf25  1  0.10136230  0.49227803  0.89219530  1
  Hf  Hf26  1  0.29120394  0.30560029  0.28980404  1
  Hf  Hf27  1  0.90096643  0.10147642  0.90927998  1
  Hf  Hf28  1  0.40474706  0.59654851  0.20213544  1
  Hf  Hf29  1  0.40729595  0.00591882  -0.00028187  1
  Hf  Hf30  1  0.01078882  0.00107790  -0.00133141  1
  Hf  Hf31  1  0.79691119  0.58584319  0.00793563  1
  Hf  Hf32  1  0.80492694  0.80566058  0.59559182  1
  Hf  Hf33  1  0.39976780  0.39806811  0.39574812  1
  Hf  Hf34  1  0.39963954  0.79949994  0.59481946  1
  Hf  Hf35  1  0.69998100  0.69471057  0.30001846  1
  Hf  Hf36  1  0.29547074  0.10942640  0.89876999  1
  Hf  Hf37  1  0.69168803  0.89728392  0.89932955  1
  Hf  Hf38  1  0.00571990  0.59774865  0.00333622  1
  Hf  Hf39  1  0.88825412  0.29647993  0.51112163  1
  Hf  Hf40  1  0.50712966  0.68452371  0.70196470  1
  Hf  Hf41  1  0.49796705  0.29956369  0.68534356  1
  Hf  Hf42  1  0.68191508  0.30101564  0.30459151  1
  Hf  Hf43  1  0.50217885  0.89251275  0.70995105  1
  Hf  Hf44  1  0.89826485  0.89790961  0.09754091  1
  Hf  Hf45  1  0.70387034  0.30158902  0.68712822  1
  Hf  Hf46  1  0.60187725  0.00823524  0.60270162  1
  Hf  Hf47  1  0.20032479  0.79825022  0.00178816  1
  Hf  Hf48  1  0.19996033  0.39766398  0.58769823  1
  Hf  Hf49  1  0.60514063  0.80344872  0.39725049  1
  Zr  Zr50  1  0.50462745  0.69155211  0.49825790  1
  Zr  Zr51  1  0.19727957  0.59931843  0.59310398  1
  Zr  Zr52  1  0.40180126  0.79218043  0.21302550  1
  Zr  Zr53  1  0.40767997  0.01276807  0.60444741  1
  Zr  Zr54  1  -0.00764838  0.20399584  0.40089392  1
  Zr  Zr55  1  0.29464201  0.11337849  0.10593438  1
  Zr  Zr56  1  0.69286527  0.50431201  0.30693425  1
  Zr  Zr57  1  0.28836524  0.10283658  0.29667369  1
  Zr  Zr58  1  0.69308275  0.70185387  0.10661957  1
  Zr  Zr59  1  0.89974549  0.70472507  0.90458914  1
  Zr  Zr60  1  0.69566806  0.69392387  0.90128066  1
  Zr  Zr61  1  0.40600665  0.20160001  0.38391747  1
  Zr  Zr62  1  0.20222724  0.78468922  0.21567966  1
  Zr  Zr63  1  0.51027913  0.29903452  0.49104548  1
  Zr  Zr64  1  0.41243925  0.02073889  0.20311165  1
  Zr  Zr65  1  0.89774295  0.70206131  0.09816926  1
  Zr  Zr66  1  0.19623367  0.59730653  0.00211114  1
  Zr  Zr67  1  0.01029687  0.39695620  0.58945140  1
  Zr  Zr68  1  0.59416343  0.40691789  0.18670308  1
  Zr  Zr69  1  0.68918611  0.50743039  0.70343755  1
  Zr  Zr70  1  0.59426050  0.00968238  0.00080748  1
  Zr  Zr71  1  0.50511372  0.50599793  0.49684984  1
  Zr  Zr72  1  0.10200470  0.50167692  0.28291750  1
  Zr  Zr73  1  0.00436090  0.39379833  0.39557853  1
  Zr  Zr74  1  0.29909023  0.90508501  0.11023798  1
  Zr  Zr75  1  0.30069065  0.90481320  0.70124734  1
  Zr  Zr76  1  0.59558399  0.19718398  0.80116505  1
  Zr  Zr77  1  0.19702116  0.00162419  -0.00052389  1
  Zr  Zr78  1  0.90405547  0.68589215  0.30902782  1
  Zr  Zr79  1  0.30632378  0.49766584  0.89745180  1
  Zr  Zr80  1  0.41220929  0.01417371  0.80174068  1
  Zr  Zr81  1  0.79597987  0.81235469  0.20685922  1
  Zr  Zr82  1  0.30390795  0.69256996  0.10046084  1
  Zr  Zr83  1  0.30615096  0.49237674  0.70142941  1
  Zr  Zr84  1  0.09746747  0.30765632  0.10782370  1
  Zr  Zr85  1  0.50729552  0.91253984  0.30340195  1
  Zr  Zr86  1  0.80151987  0.20137653  0.80119492  1
  Zr  Zr87  1  0.10477243  0.90574486  0.69046549  1
  Zr  Zr88  1  0.20433159  0.38946681  -0.00262161  1
  Zr  Zr89  1  0.89658012  0.89297303  0.90618374  1
  Zr  Zr90  1  0.00358545  0.38527833  0.79295492  1
  Zr  Zr91  1  0.90745964  0.70008656  0.69776626  1
  Zr  Zr92  1  0.50838733  0.89288071  0.10901503  1
  Zr  Zr93  1  0.40674852  0.39181420  0.00183234  1
  Zr  Zr94  1  0.79400881  0.79762301  0.78756486  1
  Zr  Zr95  1  0.00309852  0.79447032  0.20728986  1
  Zr  Zr96  1  0.30063097  0.10464517  0.50169195  1
  Zr  Zr97  1  0.00859279  0.18702442  0.79517675  1
  Zr  Zr98  1  0.90225052  0.49545777  0.90075908  1
  Zr  Zr99  1  0.89817548  0.49153997  0.69491117  1
  Ta  Ta100  1  -0.00512638  -0.00371733  0.40968689  1
  Ta  Ta101  1  0.78789587  0.20230466  0.00883650  1
  Ta  Ta102  1  0.30196625  0.29343114  0.69315838  1
  Ta  Ta103  1  0.00669133  0.60196895  0.79320244  1
  Ta  Ta104  1  0.29491186  0.90769297  0.49953228  1
  Ta  Ta105  1  0.29449777  0.49527792  0.10779122  1
  Ta  Ta106  1  0.29915576  0.50276280  0.48918330  1
  Ta  Ta107  1  0.59051550  0.39259968  0.80197584  1
  Ta  Ta108  1  0.40752660  0.20370050  -0.00315228  1
  Ta  Ta109  1  0.50509791  0.50014865  0.30383855  1
  Ta  Ta110  1  0.79371684  0.19651760  0.40086482  1
  Ta  Ta111  1  0.29475230  0.91159054  0.30682892  1
  Ta  Ta112  1  0.79310848  0.39545523  0.01481279  1
  Ta  Ta113  1  0.10268290  0.49414188  0.69894890  1
  Ta  Ta114  1  0.20044589  0.79997402  0.80025413  1
  Ta  Ta115  1  0.19174802  -0.00069681  0.40951475  1
  Ta  Ta116  1  0.40490732  0.39912276  0.19730714  1
  Ta  Ta117  1  0.59036755  0.59178126  0.00933911  1
  Ta  Ta118  1  0.40648460  0.79737492  -0.00382896  1
  Ta  Ta119  1  0.89118386  0.09765506  0.50918949  1
  Ta  Ta120  1  0.00166191  0.00172601  0.79709605  1
  Ta  Ta121  1  -0.00476693  0.20607202  0.20827771  1
  Ta  Ta122  1  0.11070271  0.28329806  0.68822350  1
  Ta  Ta123  1  -0.00424127  -0.00249006  0.59799397  1
  Ta  Ta124  1  0.39681782  0.40024132  0.59207964  1
  Ta  Ta125  1  0.91242916  0.48804692  0.10450054  1
  Ta  Ta126  1  0.49926506  0.49742328  0.70020415  1
  Ta  Ta127  1  0.00178191  0.80521859  0.59091179  1
  Ta  Ta128  1  0.19811287  0.80104527  0.59004985  1
  Ta  Ta129  1  0.90547673  0.69922768  0.49508726  1
  Ta  Ta130  1  0.10014747  0.70276871  0.89354224  1
  Ta  Ta131  1  -0.00472167  0.00192437  0.20367845  1
  Ta  Ta132  1  0.10286901  0.90388805  0.11205833  1
  Ta  Ta133  1  0.60899628  0.01528021  0.19397861  1
  Ta  Ta134  1  0.59492144  0.79741758  0.00182903  1
  Ta  Ta135  1  0.69234784  0.30137198  0.91109636  1
  Ta  Ta136  1  0.70745847  0.10256114  0.69025644  1
  Ta  Ta137  1  0.19955856  0.79930815  0.40459269  1
  Ta  Ta138  1  0.09485195  0.70253903  0.49444845  1
  Ta  Ta139  1  0.19003409  0.21231182  0.40395995  1
  Ta  Ta140  1  0.51137297  0.10453508  0.48789429  1
  Ta  Ta141  1  0.00890010  0.59864322  0.59510607  1
  Ta  Ta142  1  0.28722619  0.11223358  0.69298227  1
  Ta  Ta143  1  0.00732296  0.80471561  0.79691058  1
  Ta  Ta144  1  0.30711091  0.70351491  0.89754157  1
  Ta  Ta145  1  0.80793636  0.80715841  0.40147960  1
  Ta  Ta146  1  0.50109073  0.49965092  0.89636995  1
  Ta  Ta147  1  0.01905169  0.79944885  0.00449194  1
  Ta  Ta148  1  0.30675187  0.89430267  0.89469337  1
  Ta  Ta149  1  0.60181243  0.40486679  0.59615683  1
  Ti  Ti150  1  0.69306970  0.90718170  0.29580346  1
  Ti  Ti151  1  0.80075414  0.39640174  0.19781456  1
  Ti  Ti152  1  0.50547102  0.69919976  0.10537115  1
  Ti  Ti153  1  0.79271342  0.00510236  0.20088793  1
  Ti  Ti154  1  0.00482074  0.39784547  0.00244361  1
  Ti  Ti155  1  0.89893316  0.09968603  0.30113557  1
  Ti  Ti156  1  -0.01126751  0.39293622  0.21168596  1
  Ti  Ti157  1  0.30040315  0.29592160  0.10495728  1
  Ti  Ti158  1  0.90289143  0.90530911  0.30227878  1
  Ti  Ti159  1  0.90306199  0.90570478  0.69588961  1
  Ti  Ti160  1  0.69787300  0.10545741  0.90059553  1
  Ti  Ti161  1  0.60137538  0.78808310  0.80013332  1
  Ti  Ti162  1  0.10006629  0.68547748  0.11650853  1
  Ti  Ti163  1  0.40390420  0.38800369  0.80403509  1
  Ti  Ti164  1  0.10672774  0.28931715  0.89398624  1
  Ti  Ti165  1  0.69846703  0.90926646  0.70304749  1
  Ti  Ti166  1  0.00139971  0.80598916  0.40550758  1
  Ti  Ti167  1  0.40109235  0.00869448  0.39731598  1
  Ti  Ti168  1  0.69867338  0.30105613  0.49782779  1
  Ti  Ti169  1  0.20550792  0.38465888  0.79613963  1
  Ti  Ti170  1  0.60538036  0.19475859  0.59151681  1
  Ti  Ti171  1  0.19437564  0.60927431  0.39417116  1
  Ti  Ti172  1  0.30175206  0.29462969  0.50144945  1
  Ti  Ti173  1  0.10148180  0.09854678  0.11040660  1
  Ti  Ti174  1  0.49893782  0.89223546  0.89522733  1
  Ti  Ti175  1  0.59471509  0.01502004  0.79722442  1
  Ti  Ti176  1  0.19657276  0.20274460  -0.00394335  1
  Ti  Ti177  1  0.39527139  0.59386423  0.59631761  1
  Ti  Ti178  1  0.09983857  0.70465532  0.69551788  1
  Ti  Ti179  1  0.39629564  0.60657435  0.39219525  1
  Ti  Ti180  1  0.00865530  0.59134608  0.39889126  1
  Ti  Ti181  1  0.59410329  0.39972891  0.00306737  1
  Ti  Ti182  1  0.50120716  0.28975824  0.10592223  1
  Ti  Ti183  1  0.49874378  0.69701473  0.90007520  1
  Ti  Ti184  1  0.01202959  0.19764352  0.00588678  1
  Ti  Ti185  1  0.90105919  0.29856448  0.10150115  1
  Ti  Ti186  1  0.80200717  0.60156417  0.79847363  1
  Ti  Ti187  1  0.19004269  0.39615683  0.40513756  1
  Ti  Ti188  1  0.89638652  0.29217615  0.68711199  1
  Ti  Ti189  1  0.59601220  0.19705930  0.00474884  1
  Ti  Ti190  1  0.51681548  0.69050058  0.29809222  1
  Ti  Ti191  1  0.68790147  0.10430452  0.30692842  1
  Ti  Ti192  1  0.18508065  0.20832402  0.20501097  1
  Ti  Ti193  1  0.69824814  0.49895152  0.49606527  1
  Ti  Ti194  1  0.10243357  0.89612762  0.89695308  1
  Ti  Ti195  1  0.90068584  0.10281952  0.68746229  1
  Ti  Ti196  1  0.40372502  0.59897696  0.80524789  1
  Ti  Ti197  1  0.40623310  0.59699795  0.00248064  1
  Ti  Ti198  1  0.69148071  0.29644358  0.10144268  1
  Ti  Ti199  1  0.29686667  0.69687334  0.49583778  1
  Mo  Mo200  1  -0.00511963  0.19516598  0.60393207  1
  Mo  Mo201  1  0.70303932  0.10589397  0.49789445  1
  Mo  Mo202  1  0.19881688  0.00108538  0.59800648  1
  Mo  Mo203  1  0.50778757  0.11073797  0.68719107  1
  Mo  Mo204  1  0.69689663  0.49356519  0.09804472  1
  Mo  Mo205  1  0.40438912  0.79418021  0.80902998  1
  Mo  Mo206  1  0.78975536  0.39962737  0.59301979  1
  Mo  Mo207  1  0.80363470  0.00132014  0.60522734  1
  Mo  Mo208  1  0.69647703  0.89995537  0.10414472  1
  Mo  Mo209  1  0.30035763  0.29534459  0.89326603  1
  Mo  Mo210  1  0.10176171  0.29596998  0.50073031  1
  Mo  Mo211  1  0.59979670  0.80126731  0.20311382  1
  Mo  Mo212  1  0.50328041  0.11528031  0.10254321  1
  Mo  Mo213  1  0.59977840  0.59782112  0.39766552  1
  Mo  Mo214  1  0.19867090  0.59593701  0.19968402  1
  Mo  Mo215  1  0.49279895  0.50362715  0.09498779  1
  Mo  Mo216  1  0.39988483  0.20418688  0.59659965  1
  Mo  Mo217  1  0.88883742  0.29538332  0.29677868  1
  Mo  Mo218  1  0.60440990  0.19976872  0.39838008  1
  Mo  Mo219  1  0.80531629  0.59710088  0.40113962  1
  Mo  Mo220  1  0.09861700  0.69711268  0.31138302  1
  Mo  Mo221  1  0.09574390  0.49594900  0.10173154  1
  Mo  Mo222  1  0.69805148  0.10855044  0.10576121  1
  Mo  Mo223  1  0.20147023  0.20451178  0.79667534  1
  Mo  Mo224  1  0.79460423  0.19630523  0.59442232  1
  Mo  Mo225  1  0.60561284  0.00817299  0.39675822  1
  Mo  Mo226  1  0.51354545  0.11058597  0.29953783  1
  Mo  Mo227  1  0.90398230  0.49395379  0.29501931  1
  Mo  Mo228  1  0.60020886  0.40062074  0.40391689  1
  Mo  Mo229  1  0.20518976  0.39797984  0.19277803  1
  Mo  Mo230  1  0.69660377  0.69629166  0.70283852  1
  Mo  Mo231  1  0.20292641  0.20262314  0.59591772  1
  Mo  Mo232  1  0.09866576  0.10541488  0.90303336  1
  Mo  Mo233  1  0.19067257  0.00346389  0.20732663  1
  Mo  Mo234  1  0.59322462  0.59991403  0.19719618  1
  Mo  Mo235  1  0.09846471  0.89982856  0.49846917  1
  Mo  Mo236  1  0.29443833  0.69230471  0.31061913  1
  Mo  Mo237  1  0.90192748  0.90101512  0.49662463  1
  Mo  Mo238  1  0.58816258  0.59485750  0.80861331  1
  Mo  Mo239  1  0.40670007  0.21164602  0.19549697  1
  Mo  Mo240  1  0.10515006  0.50781574  0.49367421  1
  Mo  Mo241  1  0.49913234  0.30532029  0.29207787  1
  Mo  Mo242  1  0.59615322  0.20014046  0.19979153  1
  Mo  Mo243  1  0.60323765  0.59310686  0.60069130  1
  Mo  Mo244  1  0.00116054  0.59280537  0.19608544  1
  Mo  Mo245  1  0.09967169  0.30067211  0.29964482  1
  Mo  Mo246  1  0.50529596  0.30279859  0.90785861  1
  Mo  Mo247  1  0.50307845  0.10720211  0.90677596  1
  Mo  Mo248  1  0.09694889  0.09782288  0.69585716  1
  Mo  Mo249  1  0.77875129  0.81022270  0.00611767  1
