# generated using pymatgen
data_HfZrTaTiMo
_symmetry_space_group_name_H-M   'P 1'
_cell_length_a   16.88460473
_cell_length_b   16.88496274
_cell_length_c   16.88724733
_cell_angle_alpha   89.97998420
_cell_angle_beta   89.93437885
_cell_angle_gamma   90.03113900
_symmetry_Int_Tables_number   1
_chemical_formula_structural   HfZrTaTiMo
_chemical_formula_sum   'Hf50 Zr50 Ta50 Ti50 Mo50'
_cell_volume   4814.48117833
_cell_formula_units_Z   50
loop_
 _symmetry_equiv_pos_site_id
 _symmetry_equiv_pos_as_xyz
  1  'x, y, z'
loop_
 _atom_site_type_symbol
 _atom_site_label
 _atom_site_symmetry_multiplicity
 _atom_site_fract_x
 _atom_site_fract_y
 _atom_site_fract_z
 _atom_site_occupancy
  Hf  Hf0  1  0.30564187  0.29697414  0.90597705  1
  Hf  Hf1  1  0.20381186  0.60946025  0.00292561  1
  Hf  Hf2  1  0.70259167  0.69546718  0.49793015  1
  Hf  Hf3  1  0.59359514  0.39814126  0.01214525  1
  Hf  Hf4  1  0.89386880  0.09528325  0.91504882  1
  Hf  Hf5  1  0.40291127  0.79613656  0.60298687  1
  Hf  Hf6  1  0.79300506  0.39934232  0.00093804  1
  Hf  Hf7  1  0.20268850  0.20066564  0.19553493  1
  Hf  Hf8  1  0.30028114  0.90475586  0.71198143  1
  Hf  Hf9  1  0.30382637  0.10529895  0.50088513  1
  Hf  Hf10  1  0.19700336  0.80878517  0.00254474  1
  Hf  Hf11  1  0.09995138  0.69902917  0.69607329  1
  Hf  Hf12  1  0.50053694  0.09914936  0.28277216  1
  Hf  Hf13  1  0.18975197  0.80326563  0.20885484  1
  Hf  Hf14  1  0.90049390  0.09056374  0.29952341  1
  Hf  Hf15  1  -0.00682403  0.40310002  0.00121147  1
  Hf  Hf16  1  0.20394650  0.40127890  0.79564555  1
  Hf  Hf17  1  0.01154168  0.19796763  0.00902920  1
  Hf  Hf18  1  0.19985143  -0.00398040  0.00348185  1
  Hf  Hf19  1  0.49820594  0.70405936  0.29370198  1
  Hf  Hf20  1  0.10329472  0.50205542  0.10976194  1
  Hf  Hf21  1  0.69138069  0.50254952  0.89875991  1
  Hf  Hf22  1  0.60183778  0.58983338  0.40066712  1
  Hf  Hf23  1  0.49957849  0.72407696  0.88053413  1
  Hf  Hf24  1  0.21229993  0.39899352  0.39964702  1
  Hf  Hf25  1  0.39963082  0.60660825  0.79461804  1
  Hf  Hf26  1  0.49663892  0.10077013  0.90608885  1
  Hf  Hf27  1  0.31023453  0.71591238  0.10853921  1
  Hf  Hf28  1  0.91030835  0.69689737  0.69130271  1
  Hf  Hf29  1  0.49568044  0.50042835  0.69115090  1
  Hf  Hf30  1  -0.00044423  0.01425838  0.60297025  1
  Hf  Hf31  1  0.80591371  0.60092589  0.39163275  1
  Hf  Hf32  1  0.00386211  0.61080185  0.38213464  1
  Hf  Hf33  1  0.58474756  0.19440535  0.40872869  1
  Hf  Hf34  1  0.69921948  0.08161156  0.50256472  1
  Hf  Hf35  1  0.49259689  0.49573154  0.90595818  1
  Hf  Hf36  1  0.21134101  0.20160094  0.39104555  1
  Hf  Hf37  1  0.10759598  0.50161066  0.29555901  1
  Hf  Hf38  1  0.59744191  0.39892401  0.40163213  1
  Hf  Hf39  1  -0.00249521  0.41198870  0.79721969  1
  Hf  Hf40  1  0.90164388  0.90148010  0.90844870  1
  Hf  Hf41  1  -0.00669465  0.59908124  0.00157368  1
  Hf  Hf42  1  0.70274299  0.30526984  0.70211877  1
  Hf  Hf43  1  0.71083244  0.29476135  0.50091828  1
  Hf  Hf44  1  0.60529259  0.80387811  0.39704033  1
  Hf  Hf45  1  0.40348910  -0.00148554  0.60175933  1
  Hf  Hf46  1  0.19789611  0.39152394  0.00756126  1
  Hf  Hf47  1  0.89569354  0.90764900  0.49638045  1
  Hf  Hf48  1  0.50273771  0.88763933  0.72190832  1
  Hf  Hf49  1  0.79217935  0.19557109  0.80708933  1
  Zr  Zr50  1  0.69610297  0.49864894  0.70414431  1
  Zr  Zr51  1  0.70496763  0.69185051  0.28669662  1
  Zr  Zr52  1  0.40526150  0.39725600  0.19300160  1
  Zr  Zr53  1  0.20890409  0.39829074  0.59883651  1
  Zr  Zr54  1  0.79035671  -0.01117515  0.19263741  1
  Zr  Zr55  1  0.69288199  0.08784660  0.70050125  1
  Zr  Zr56  1  0.40976578  0.61419408  -0.00011437  1
  Zr  Zr57  1  0.89500725  0.29424512  0.90209523  1
  Zr  Zr58  1  0.70379100  0.70093261  0.09203460  1
  Zr  Zr59  1  0.19649356  0.00000484  0.39906039  1
  Zr  Zr60  1  0.88827911  0.28747316  0.09786991  1
  Zr  Zr61  1  0.00753146  0.00070660  0.40191222  1
  Zr  Zr62  1  0.59597538  0.21110616  0.80855346  1
  Zr  Zr63  1  0.10436276  0.30532188  0.29218363  1
  Zr  Zr64  1  0.39564502  0.59951525  0.39410474  1
  Zr  Zr65  1  0.49881373  0.08875262  0.70841720  1
  Zr  Zr66  1  0.68996771  0.08769046  0.30589330  1
  Zr  Zr67  1  0.91166945  0.51131879  0.50393363  1
  Zr  Zr68  1  0.80351041  0.79285649  0.80295226  1
  Zr  Zr69  1  0.30717203  0.09625779  0.89641921  1
  Zr  Zr70  1  0.90163132  0.90208764  0.69814750  1
  Zr  Zr71  1  0.40606757  0.01314007  0.40094263  1
  Zr  Zr72  1  0.59754835  0.79457731  0.60131344  1
  Zr  Zr73  1  0.20221600  0.80714733  0.59983075  1
  Zr  Zr74  1  0.89845823  0.30406822  0.69944079  1
  Zr  Zr75  1  0.61095864  0.81764420  0.19917007  1
  Zr  Zr76  1  0.59157534  0.80721282  0.00084522  1
  Zr  Zr77  1  0.10513818  0.50307737  0.90221302  1
  Zr  Zr78  1  0.39651008  0.39418023  0.79099656  1
  Zr  Zr79  1  0.91144502  0.70667812  0.50481264  1
  Zr  Zr80  1  0.30688942  0.50097607  0.09603784  1
  Zr  Zr81  1  0.10180720  0.29651742  0.69755568  1
  Zr  Zr82  1  0.48341783  0.91063462  0.11231610  1
  Zr  Zr83  1  0.70283974  0.89603191  0.90412214  1
  Zr  Zr84  1  0.58983016  0.19758610  0.59668627  1
  Zr  Zr85  1  0.80500062  0.59569346  -0.00407227  1
  Zr  Zr86  1  -0.00745360  0.39618350  0.19185246  1
  Zr  Zr87  1  0.10056542  0.69739844  0.50500684  1
  Zr  Zr88  1  0.60120635  0.40184478  0.58738163  1
  Zr  Zr89  1  0.20028415  0.19276108  0.79724341  1
  Zr  Zr90  1  0.81563016  0.18391786  0.60163742  1
  Zr  Zr91  1  0.80029056  0.40550049  0.40001127  1
  Zr  Zr92  1  0.31578515  0.09081740  0.10379848  1
  Zr  Zr93  1  0.79399049  0.18784225  0.19551138  1
  Zr  Zr94  1  -0.00064997  0.18328038  0.79372629  1
  Zr  Zr95  1  0.69400322  0.29623598  0.29281924  1
  Zr  Zr96  1  0.79449226  0.80043546  0.59689814  1
  Zr  Zr97  1  0.00054067  0.19737925  0.40366040  1
  Zr  Zr98  1  0.30781537  0.89915384  0.29976284  1
  Zr  Zr99  1  -0.00244546  0.40172918  0.39922784  1
  Ta  Ta100  1  0.79747133  0.59455739  0.60364821  1
  Ta  Ta101  1  0.30134447  0.89904268  0.49796106  1
  Ta  Ta102  1  0.80664929  0.41023084  0.59744278  1
  Ta  Ta103  1  0.69613157  0.09768226  0.91236577  1
  Ta  Ta104  1  0.29506494  0.70626454  0.89292944  1
  Ta  Ta105  1  0.00280454  0.19520538  0.19701359  1
  Ta  Ta106  1  0.50576725  0.90448449  0.49797572  1
  Ta  Ta107  1  0.00005415  0.80027936  0.00550309  1
  Ta  Ta108  1  0.48523216  0.49556577  0.49801891  1
  Ta  Ta109  1  0.00280130  0.19607134  0.59747527  1
  Ta  Ta110  1  0.59429438  -0.00191195  0.00850369  1
  Ta  Ta111  1  0.10288950  0.30013566  0.50333451  1
  Ta  Ta112  1  0.09776191  0.90313693  0.70494683  1
  Ta  Ta113  1  0.29908122  0.50877709  0.69153598  1
  Ta  Ta114  1  0.19718034  0.19697983  0.00650839  1
  Ta  Ta115  1  0.09468408  0.70128459  0.10341868  1
  Ta  Ta116  1  0.10088699  0.29643662  0.90103790  1
  Ta  Ta117  1  0.59407059  0.60587778  0.79818423  1
  Ta  Ta118  1  0.80101719  0.00384980  0.80006391  1
  Ta  Ta119  1  0.09876976  0.70372316  0.89984044  1
  Ta  Ta120  1  0.80705858  0.59686930  0.79942535  1
  Ta  Ta121  1  0.49474206  0.29847862  0.30069458  1
  Ta  Ta122  1  0.69552870  0.90406518  0.69939684  1
  Ta  Ta123  1  0.49812365  0.69516610  0.49876887  1
  Ta  Ta124  1  0.20428300  0.60998259  0.20477853  1
  Ta  Ta125  1  0.19854866  -0.00010086  0.20503087  1
  Ta  Ta126  1  0.29788879  0.70089743  0.49837706  1
  Ta  Ta127  1  0.89388380  0.29387609  0.29776037  1
  Ta  Ta128  1  0.69679036  0.49668503  0.28500856  1
  Ta  Ta129  1  0.19940072  0.59991769  0.79712507  1
  Ta  Ta130  1  0.00511319  0.40413897  0.60147720  1
  Ta  Ta131  1  0.30386713  0.50199052  0.90087739  1
  Ta  Ta132  1  0.19721286  0.00442739  0.60339674  1
  Ta  Ta133  1  0.40419944  0.80076328  0.40620808  1
  Ta  Ta134  1  0.30098614  0.49748012  0.29304249  1
  Ta  Ta135  1  0.40283967  0.20370440  0.59654760  1
  Ta  Ta136  1  -0.00260907  0.59783235  0.80144693  1
  Ta  Ta137  1  0.80432135  0.80382593  0.38680690  1
  Ta  Ta138  1  0.69591239  0.69516995  0.70405295  1
  Ta  Ta139  1  0.00645807  0.80308016  0.38652023  1
  Ta  Ta140  1  0.50056102  0.49204151  0.29430920  1
  Ta  Ta141  1  0.00447914  0.79892809  0.80391385  1
  Ta  Ta142  1  0.90387715  0.90332809  0.29444562  1
  Ta  Ta143  1  0.10773742  0.50651685  0.50396506  1
  Ta  Ta144  1  0.59047655  0.59175905  0.18872397  1
  Ta  Ta145  1  0.80631629  0.19031341  0.40321481  1
  Ta  Ta146  1  0.80775589  0.80441516  0.19452551  1
  Ta  Ta147  1  0.29520128  0.69954133  0.69912377  1
  Ta  Ta148  1  0.09602716  0.90194412  0.89746875  1
  Ta  Ta149  1  -0.00314246  0.80027183  0.20159921  1
  Ti  Ti150  1  0.39891147  0.60623341  0.59777586  1
  Ti  Ti151  1  0.59123035  0.60443897  0.00207166  1
  Ti  Ti152  1  0.69371795  0.29380278  0.10374148  1
  Ti  Ti153  1  0.19483615  0.00243961  0.80101945  1
  Ti  Ti154  1  0.49562064  0.71254388  0.10603686  1
  Ti  Ti155  1  0.67950761  0.09869728  0.10334855  1
  Ti  Ti156  1  0.19636132  0.80272069  0.80543607  1
  Ti  Ti157  1  0.09789538  0.09114354  0.10774422  1
  Ti  Ti158  1  -0.00600770  0.60885998  0.19916629  1
  Ti  Ti159  1  0.69766128  0.50253010  0.10586772  1
  Ti  Ti160  1  0.50438605  0.28824261  0.11043644  1
  Ti  Ti161  1  0.80338818  0.40730567  0.80692262  1
  Ti  Ti162  1  0.40470447  0.20215726  0.01188190  1
  Ti  Ti163  1  0.69718190  0.69977451  0.89793397  1
  Ti  Ti164  1  0.10876079  0.10912729  0.50500286  1
  Ti  Ti165  1  0.39158228  0.81397897  -0.01460304  1
  Ti  Ti166  1  0.20691321  0.20035993  0.60405563  1
  Ti  Ti167  1  0.10008914  0.09451184  0.90395689  1
  Ti  Ti168  1  0.89419468  0.50358129  0.28208915  1
  Ti  Ti169  1  0.19446511  0.79863465  0.39716903  1
  Ti  Ti170  1  0.09850094  0.09617618  0.29148384  1
  Ti  Ti171  1  0.40377171  0.59951817  0.19745794  1
  Ti  Ti172  1  0.70030733  0.90772397  0.49598133  1
  Ti  Ti173  1  0.39213491  0.20162022  0.20876961  1
  Ti  Ti174  1  0.30314094  0.70432822  0.30067650  1
  Ti  Ti175  1  0.60163273  0.20353403  0.00236295  1
  Ti  Ti176  1  0.59416875  0.39494123  0.80593346  1
  Ti  Ti177  1  0.00301036  -0.00522731  0.00832065  1
  Ti  Ti178  1  0.49473379  0.30806232  0.68755447  1
  Ti  Ti179  1  0.09791214  0.89599281  0.50464448  1
  Ti  Ti180  1  0.59968159  0.59738337  0.59591446  1
  Ti  Ti181  1  0.79772902  0.40176780  0.19298424  1
  Ti  Ti182  1  0.31506992  0.30174488  0.49598097  1
  Ti  Ti183  1  0.30210524  0.30014904  0.10222180  1
  Ti  Ti184  1  0.90432960  0.08950881  0.10161480  1
  Ti  Ti185  1  0.59861138  -0.00749771  0.81768635  1
  Ti  Ti186  1  0.30287216  0.09848658  0.70118803  1
  Ti  Ti187  1  0.49279592  0.30132076  0.90921241  1
  Ti  Ti188  1  0.30279884  0.50583910  0.50111039  1
  Ti  Ti189  1  0.08961002  0.90382234  0.10903679  1
  Ti  Ti190  1  0.79184376  -0.00385616  0.01153565  1
  Ti  Ti191  1  0.00121735  0.00361056  0.79913258  1
  Ti  Ti192  1  0.90452231  0.29976073  0.50094139  1
  Ti  Ti193  1  0.89664414  0.70220191  0.10304905  1
  Ti  Ti194  1  0.40101412  0.20608416  0.78766184  1
  Ti  Ti195  1  0.50368739  0.90911927  0.30160620  1
  Ti  Ti196  1  0.90368857  0.70339033  0.90211151  1
  Ti  Ti197  1  0.39995544  -0.01051606  -0.01044742  1
  Ti  Ti198  1  0.20351956  0.60542727  0.39477578  1
  Ti  Ti199  1  0.30446204  0.90101487  0.10972879  1
  Mo  Mo200  1  0.89433108  0.50394826  0.10745614  1
  Mo  Mo201  1  0.80221408  0.59449779  0.19392657  1
  Mo  Mo202  1  0.69169594  0.30028147  0.90404227  1
  Mo  Mo203  1  0.38108621  0.80013324  0.79927290  1
  Mo  Mo204  1  0.30666248  0.29103039  0.69370472  1
  Mo  Mo205  1  0.39867207  0.40163951  0.39604056  1
  Mo  Mo206  1  0.50147564  0.69481747  0.69415715  1
  Mo  Mo207  1  0.00831789  0.81670185  0.60311197  1
  Mo  Mo208  1  0.49385098  0.90659313  0.89975691  1
  Mo  Mo209  1  0.10499116  0.29523586  0.09814175  1
  Mo  Mo210  1  0.79721687  -0.00501380  0.60369011  1
  Mo  Mo211  1  0.90211019  0.89691191  0.09681606  1
  Mo  Mo212  1  0.10400943  0.50468460  0.69785818  1
  Mo  Mo213  1  0.59765565  -0.00647720  0.39815743  1
  Mo  Mo214  1  0.21008267  0.40041002  0.19915239  1
  Mo  Mo215  1  0.00328039  -0.00208365  0.19624030  1
  Mo  Mo216  1  0.40090937  0.20751489  0.39828430  1
  Mo  Mo217  1  0.80054868  -0.00767628  0.39828801  1
  Mo  Mo218  1  0.59705298  -0.01198536  0.59735689  1
  Mo  Mo219  1  0.09723904  0.89888135  0.29863277  1
  Mo  Mo220  1  0.39637781  0.40048103  0.59274576  1
  Mo  Mo221  1  0.81055707  0.79632864  0.00486780  1
  Mo  Mo222  1  0.70249180  0.90067712  0.09435288  1
  Mo  Mo223  1  0.00792881  0.58412224  0.61232459  1
  Mo  Mo224  1  0.61512308  0.79667791  0.79964198  1
  Mo  Mo225  1  0.59369695  0.20223348  0.19521387  1
  Mo  Mo226  1  0.77963759  0.19095623  0.00302677  1
  Mo  Mo227  1  0.89477108  0.50315185  0.89704237  1
  Mo  Mo228  1  0.59800664  0.00157562  0.19493076  1
  Mo  Mo229  1  0.89758157  0.09683476  0.49809251  1
  Mo  Mo230  1  0.50056714  0.10454276  0.09652724  1
  Mo  Mo231  1  0.70613194  0.50398444  0.49984859  1
  Mo  Mo232  1  0.40131908  0.80191459  0.21435920  1
  Mo  Mo233  1  0.90086598  0.09438336  0.70710885  1
  Mo  Mo234  1  0.48572377  0.30282170  0.49378128  1
  Mo  Mo235  1  0.39556941  0.00224751  0.20731933  1
  Mo  Mo236  1  0.10166404  0.69988510  0.29576818  1
  Mo  Mo237  1  0.30073303  0.10338919  0.29636793  1
  Mo  Mo238  1  0.49934432  0.09704027  0.50478690  1
  Mo  Mo239  1  0.59936313  0.39919580  0.19833668  1
  Mo  Mo240  1  0.29285170  0.89964757  0.89697093  1
  Mo  Mo241  1  0.50198371  0.50240923  0.09940212  1
  Mo  Mo242  1  0.20682694  0.59826362  0.59774600  1
  Mo  Mo243  1  0.70789041  0.90037363  0.30520191  1
  Mo  Mo244  1  0.90140971  0.70847698  0.28953471  1
  Mo  Mo245  1  0.10651629  0.09440679  0.69569757  1
  Mo  Mo246  1  0.39842640  -0.00147401  0.80533978  1
  Mo  Mo247  1  0.89905194  0.50138262  0.70185449  1
  Mo  Mo248  1  0.40261815  0.38503280  0.00345106  1
  Mo  Mo249  1  0.30789376  0.30256970  0.29671053  1
