# generated using pymatgen
data_HfZrTaTiMo
_symmetry_space_group_name_H-M   'P 1'
_cell_length_a   16.88699955
_cell_length_b   16.88963931
_cell_length_c   16.88713977
_cell_angle_alpha   90.02058085
_cell_angle_beta   90.01402346
_cell_angle_gamma   89.96590098
_symmetry_Int_Tables_number   1
_chemical_formula_structural   HfZrTaTiMo
_chemical_formula_sum   'Hf50 Zr50 Ta50 Ti50 Mo50'
_cell_volume   4816.46985660
_cell_formula_units_Z   50
loop_
 _symmetry_equiv_pos_site_id
 _symmetry_equiv_pos_as_xyz
  1  'x, y, z'
loop_
 _atom_site_type_symbol
 _atom_site_label
 _atom_site_symmetry_multiplicity
 _atom_site_fract_x
 _atom_site_fract_y
 _atom_site_fract_z
 _atom_site_occupancy
  Hf  Hf0  1  0.09981461  0.91426604  0.69726348  1
  Hf  Hf1  1  0.40162484  0.00266067  0.00788805  1
  Hf  Hf2  1  0.90363877  0.10879031  0.49715712  1
  Hf  Hf3  1  0.79891339  0.20597671  0.20712155  1
  Hf  Hf4  1  0.19827660  0.79761188  0.60179807  1
  Hf  Hf5  1  -0.00225355  0.01466920  0.21130890  1
  Hf  Hf6  1  0.19654863  0.79450195  0.40038868  1
  Hf  Hf7  1  0.90680768  0.69014314  0.69976345  1
  Hf  Hf8  1  0.30443868  0.49380900  0.29152988  1
  Hf  Hf9  1  0.89583744  0.70411234  0.10115018  1
  Hf  Hf10  1  0.50108157  0.89667895  0.49242388  1
  Hf  Hf11  1  0.19235225  0.39506800  0.00558127  1
  Hf  Hf12  1  0.79979275  0.59694665  0.79685610  1
  Hf  Hf13  1  0.40885301  0.19821615  0.20020387  1
  Hf  Hf14  1  0.49593429  0.49464502  0.09847713  1
  Hf  Hf15  1  0.90683570  0.29425046  0.49604752  1
  Hf  Hf16  1  0.79128363  0.20253036  0.39079958  1
  Hf  Hf17  1  0.30439672  0.70578623  0.29457318  1
  Hf  Hf18  1  0.89771714  0.89412552  0.29600369  1
  Hf  Hf19  1  0.00526543  0.60739244  0.38972376  1
  Hf  Hf20  1  0.80306208  0.59417432  0.00323350  1
  Hf  Hf21  1  0.69778546  0.69516383  0.30308208  1
  Hf  Hf22  1  0.69319836  0.89367046  0.49322559  1
  Hf  Hf23  1  0.91062942  0.49854998  0.90127510  1
  Hf  Hf24  1  0.30098942  0.69442565  0.50430992  1
  Hf  Hf25  1  0.79976559  0.79555370  0.39299622  1
  Hf  Hf26  1  0.00332245  0.79963840  0.79157481  1
  Hf  Hf27  1  0.10685904  0.68651878  0.89915863  1
  Hf  Hf28  1  0.40610513  0.20134088  0.39656290  1
  Hf  Hf29  1  0.59192151  0.60335623  0.80136616  1
  Hf  Hf30  1  0.11292543  0.69810542  0.09630928  1
  Hf  Hf31  1  0.19652937  0.60059758  0.20308403  1
  Hf  Hf32  1  0.48386493  0.50242694  0.89800746  1
  Hf  Hf33  1  0.80481986  0.80662493  0.79340190  1
  Hf  Hf34  1  0.89568158  0.11021265  0.10132507  1
  Hf  Hf35  1  0.39681034  -0.00305204  0.39661322  1
  Hf  Hf36  1  0.29380628  0.50254810  0.70370636  1
  Hf  Hf37  1  0.11194861  0.90461898  0.11072291  1
  Hf  Hf38  1  0.40822109  0.58970085  0.59625128  1
  Hf  Hf39  1  0.68955017  0.30641197  0.69836976  1
  Hf  Hf40  1  0.67823684  0.32315065  0.30128572  1
  Hf  Hf41  1  0.17902970  0.21375951  0.21188837  1
  Hf  Hf42  1  0.58889200  0.79677196  0.60667637  1
  Hf  Hf43  1  0.80376271  0.39395211  0.19952797  1
  Hf  Hf44  1  0.30069681  0.30298680  0.29706095  1
  Hf  Hf45  1  0.59776627  0.00073112  0.60125036  1
  Hf  Hf46  1  0.00965950  0.59401478  0.59340254  1
  Hf  Hf47  1  0.20393704  0.39857028  0.40022699  1
  Hf  Hf48  1  0.10108673  0.28819905  0.49634332  1
  Hf  Hf49  1  0.10161475  0.10341855  0.10215413  1
  Zr  Zr50  1  0.21201284  0.20248781  0.61740218  1
  Zr  Zr51  1  0.30214285  0.68889562  0.70621678  1
  Zr  Zr52  1  0.79120875  0.40017940  0.80035685  1
  Zr  Zr53  1  0.59781332  0.20127127  0.20057826  1
  Zr  Zr54  1  0.11172937  0.67453703  0.70508641  1
  Zr  Zr55  1  0.80105615  0.00280180  0.60536986  1
  Zr  Zr56  1  0.10405922  0.91385789  0.89357170  1
  Zr  Zr57  1  0.19586915  0.39243949  0.79643289  1
  Zr  Zr58  1  0.79963288  0.40487838  0.59408279  1
  Zr  Zr59  1  0.20355830  -0.00012353  0.39682610  1
  Zr  Zr60  1  0.00224101  0.00252049  0.39471044  1
  Zr  Zr61  1  0.89583525  0.89761516  0.90268402  1
  Zr  Zr62  1  0.59698610  0.20017894  0.59642413  1
  Zr  Zr63  1  0.80168148  0.80327122  0.60363501  1
  Zr  Zr64  1  0.40618796  0.59889143  0.20003184  1
  Zr  Zr65  1  0.21060759  0.80867165  0.79788647  1
  Zr  Zr66  1  0.90160743  0.29344226  0.70042880  1
  Zr  Zr67  1  -0.00215348  0.00346875  0.00264358  1
  Zr  Zr68  1  0.29786744  0.09984709  0.11211036  1
  Zr  Zr69  1  0.70523582  0.71375118  0.90646996  1
  Zr  Zr70  1  0.10126842  0.10266916  0.50760545  1
  Zr  Zr71  1  0.00374914  0.80207743  0.00131793  1
  Zr  Zr72  1  0.59778266  -0.00267091  0.19641777  1
  Zr  Zr73  1  0.30642188  0.30505465  0.89645125  1
  Zr  Zr74  1  0.60017017  0.20639807  0.80614693  1
  Zr  Zr75  1  0.79794406  0.00159192  -0.00038690  1
  Zr  Zr76  1  0.10264804  0.49385339  0.49668875  1
  Zr  Zr77  1  0.51876604  0.48670710  0.30263077  1
  Zr  Zr78  1  0.69686003  0.49794390  0.90058292  1
  Zr  Zr79  1  0.69437085  0.09930879  0.09342013  1
  Zr  Zr80  1  0.20057218  0.20770028  0.00125941  1
  Zr  Zr81  1  0.59223948  0.19923040  0.39729621  1
  Zr  Zr82  1  0.01232995  0.19465574  0.35758911  1
  Zr  Zr83  1  0.60121878  0.80748337  0.20069513  1
  Zr  Zr84  1  0.69063688  0.90626659  0.90155505  1
  Zr  Zr85  1  0.30418222  0.10547948  0.50437850  1
  Zr  Zr86  1  0.90435490  0.90140800  0.49932065  1
  Zr  Zr87  1  0.09874769  0.10503467  0.89122632  1
  Zr  Zr88  1  0.89356899  0.69213804  0.50044318  1
  Zr  Zr89  1  0.50490122  0.70114810  0.30722388  1
  Zr  Zr90  1  0.70570250  0.70440976  0.10486387  1
  Zr  Zr91  1  0.30935668  0.68473710  0.90370061  1
  Zr  Zr92  1  0.59088215  0.60898510  0.00271559  1
  Zr  Zr93  1  0.21393078  0.81239991  -0.00497129  1
  Zr  Zr94  1  0.40794382  0.40089395  0.40963908  1
  Zr  Zr95  1  0.89893324  0.30491206  0.89858643  1
  Zr  Zr96  1  0.39761427  0.20406721  0.79185248  1
  Zr  Zr97  1  0.61021445  0.39113865  -0.00386075  1
  Zr  Zr98  1  0.00476368  0.78593931  0.21095224  1
  Zr  Zr99  1  0.69498662  0.69532799  0.69356777  1
  Ta  Ta100  1  0.50060098  0.30448100  0.10006920  1
  Ta  Ta101  1  0.30227330  0.29773730  0.50541269  1
  Ta  Ta102  1  0.49910837  0.09680896  0.90153792  1
  Ta  Ta103  1  0.40504041  0.80357271  0.80168129  1
  Ta  Ta104  1  0.80273853  0.40320929  0.39620223  1
  Ta  Ta105  1  0.10177295  0.90111959  0.50380279  1
  Ta  Ta106  1  0.09968485  0.50034484  0.90255962  1
  Ta  Ta107  1  0.90514573  0.49388952  0.10337948  1
  Ta  Ta108  1  0.91026739  0.50023207  0.69932670  1
  Ta  Ta109  1  0.69112749  0.90456684  0.70797755  1
  Ta  Ta110  1  0.29955243  0.50236306  0.90329989  1
  Ta  Ta111  1  0.90610582  0.69515427  0.90035859  1
  Ta  Ta112  1  0.79308224  0.00573067  0.39036588  1
  Ta  Ta113  1  0.00442702  0.39720437  0.60123329  1
  Ta  Ta114  1  0.09238910  0.29177234  0.69992684  1
  Ta  Ta115  1  0.69778877  0.10130482  0.70311636  1
  Ta  Ta116  1  0.50038157  0.90695894  0.89958057  1
  Ta  Ta117  1  0.59477349  0.20120574  -0.00139010  1
  Ta  Ta118  1  0.40174674  0.59205112  0.40775318  1
  Ta  Ta119  1  0.09790609  0.49300196  0.29191780  1
  Ta  Ta120  1  0.49717370  0.09872237  0.70064065  1
  Ta  Ta121  1  0.89636197  0.11219785  0.89618312  1
  Ta  Ta122  1  0.70038406  0.50394116  0.30265611  1
  Ta  Ta123  1  0.39735265  0.79967315  0.40386173  1
  Ta  Ta124  1  0.30505070  0.70213650  0.09920694  1
  Ta  Ta125  1  0.30166782  0.89745785  0.50601140  1
  Ta  Ta126  1  0.40110700  0.80393317  0.60681420  1
  Ta  Ta127  1  0.79283842  0.19821847  0.59851833  1
  Ta  Ta128  1  0.29865924  0.50127995  0.09466843  1
  Ta  Ta129  1  0.69292186  0.50407093  0.49159936  1
  Ta  Ta130  1  0.09617604  0.49541432  0.10312223  1
  Ta  Ta131  1  0.20076084  0.59844758  0.39935840  1
  Ta  Ta132  1  0.10951163  0.89490102  0.29608447  1
  Ta  Ta133  1  0.58878517  0.80779597  0.00405060  1
  Ta  Ta134  1  0.78868910  0.21703617  -0.00135727  1
  Ta  Ta135  1  0.40486909  0.80366844  -0.00228392  1
  Ta  Ta136  1  0.09188115  0.10349208  0.70330013  1
  Ta  Ta137  1  0.68911132  0.69180945  0.49450511  1
  Ta  Ta138  1  0.90394180  0.49644902  0.29639942  1
  Ta  Ta139  1  0.80060311  0.00663106  0.79505881  1
  Ta  Ta140  1  0.21177690  0.00155561  -0.00052373  1
  Ta  Ta141  1  0.00834907  0.79658485  0.59681883  1
  Ta  Ta142  1  0.70369236  0.49664741  0.10818765  1
  Ta  Ta143  1  -0.00377125  0.21001208  0.00520466  1
  Ta  Ta144  1  0.49760472  0.30864160  0.89706184  1
  Ta  Ta145  1  0.40708054  0.20147452  0.00333804  1
  Ta  Ta146  1  0.79162309  -0.00071280  0.20847549  1
  Ta  Ta147  1  0.40127331  -0.00502075  0.60543546  1
  Ta  Ta148  1  0.00910613  0.79229692  0.40202351  1
  Ta  Ta149  1  0.30477556  0.09943291  0.89697565  1
  Ti  Ti150  1  0.49196032  0.90386841  0.10370536  1
  Ti  Ti151  1  0.39377373  0.39967652  0.60097907  1
  Ti  Ti152  1  0.00238137  0.59689705  0.00713860  1
  Ti  Ti153  1  0.69574588  0.30792137  0.49915360  1
  Ti  Ti154  1  0.80871550  0.59798136  0.20722129  1
  Ti  Ti155  1  -0.00028029  0.38223933  0.20017606  1
  Ti  Ti156  1  -0.01646165  0.00234959  0.79435152  1
  Ti  Ti157  1  0.89136695  0.89385972  0.10651434  1
  Ti  Ti158  1  -0.00754354  0.00157257  0.60509072  1
  Ti  Ti159  1  0.90078023  0.10962837  0.70226632  1
  Ti  Ti160  1  0.69804997  0.09825648  0.49751114  1
  Ti  Ti161  1  -0.00053966  0.59997534  0.20299442  1
  Ti  Ti162  1  0.59836093  0.00713820  0.80041326  1
  Ti  Ti163  1  0.21192576  0.00688719  0.79477803  1
  Ti  Ti164  1  0.59034074  0.59480129  0.59665524  1
  Ti  Ti165  1  0.39672395  0.39503855  0.00302936  1
  Ti  Ti166  1  0.90088601  0.49615978  0.49554523  1
  Ti  Ti167  1  0.79691762  0.58976404  0.59742119  1
  Ti  Ti168  1  0.08951516  0.29652656  0.89422970  1
  Ti  Ti169  1  0.20389333  0.20162088  0.79623798  1
  Ti  Ti170  1  -0.00336608  0.39652584  0.39201386  1
  Ti  Ti171  1  0.68889450  0.49859117  0.69536646  1
  Ti  Ti172  1  0.49061531  0.70669385  0.10007267  1
  Ti  Ti173  1  0.20974631  -0.00061965  0.60519195  1
  Ti  Ti174  1  0.31431161  0.91377573  0.88919935  1
  Ti  Ti175  1  0.58936986  0.79763743  0.80373085  1
  Ti  Ti176  1  0.48997847  0.69573745  0.70868788  1
  Ti  Ti177  1  0.19839527  0.39783563  0.60212617  1
  Ti  Ti178  1  0.30304027  0.89590224  0.28808705  1
  Ti  Ti179  1  0.69629138  0.10086352  0.90129774  1
  Ti  Ti180  1  0.29482591  0.10092200  0.29560872  1
  Ti  Ti181  1  0.50361573  0.69837112  0.49362852  1
  Ti  Ti182  1  0.60138780  0.59797278  0.19595661  1
  Ti  Ti183  1  0.49326525  0.30962998  0.70005286  1
  Ti  Ti184  1  0.70816771  0.89377020  0.09585590  1
  Ti  Ti185  1  0.30668724  0.89608233  0.11534789  1
  Ti  Ti186  1  0.49631408  0.30094109  0.50996945  1
  Ti  Ti187  1  0.49623241  0.09662278  0.50286300  1
  Ti  Ti188  1  0.49598625  0.90730680  0.71075965  1
  Ti  Ti189  1  0.31114749  0.09270718  0.70324026  1
  Ti  Ti190  1  0.80380921  0.59411349  0.39545562  1
  Ti  Ti191  1  0.60528152  -0.00117067  0.38880649  1
  Ti  Ti192  1  0.30432122  0.30902901  0.11031278  1
  Ti  Ti193  1  0.49591454  0.08644664  0.29369296  1
  Ti  Ti194  1  0.49480061  0.89428080  0.29977051  1
  Ti  Ti195  1  0.00009355  0.39366645  0.00879775  1
  Ti  Ti196  1  0.00751142  0.40411163  0.79205761  1
  Ti  Ti197  1  0.79187709  0.19861086  0.80158731  1
  Ti  Ti198  1  0.58981009  0.40847848  0.59466746  1
  Ti  Ti199  1  0.49593891  0.49067557  0.70842132  1
  Mo  Mo200  1  0.30405912  0.30895602  0.69255733  1
  Mo  Mo201  1  0.59067139  0.40298538  0.79422570  1
  Mo  Mo202  1  0.00147999  0.58987461  0.80334713  1
  Mo  Mo203  1  0.30461683  0.90547888  0.69741666  1
  Mo  Mo204  1  0.49616044  0.30842981  0.29126033  1
  Mo  Mo205  1  0.90470641  0.90651121  0.69901714  1
  Mo  Mo206  1  0.40104620  -0.00228697  0.20541535  1
  Mo  Mo207  1  0.89619576  0.69091486  0.29731375  1
  Mo  Mo208  1  0.12098645  0.08441903  0.29068703  1
  Mo  Mo209  1  0.50261391  0.49881815  0.50718261  1
  Mo  Mo210  1  0.89847850  0.30281879  0.09789453  1
  Mo  Mo211  1  0.60130450  0.39950641  0.42074067  1
  Mo  Mo212  1  0.09925799  0.48795300  0.69868287  1
  Mo  Mo213  1  0.39941435  0.40145425  0.79405514  1
  Mo  Mo214  1  0.20707654  0.20449299  0.39595357  1
  Mo  Mo215  1  0.69838231  0.30194071  0.09809341  1
  Mo  Mo216  1  0.80519036  0.40033531  0.01012090  1
  Mo  Mo217  1  0.40307195  0.39476966  0.19413518  1
  Mo  Mo218  1  0.69735397  0.29690035  0.89865441  1
  Mo  Mo219  1  0.60283158  0.40260417  0.18592573  1
  Mo  Mo220  1  0.59660846  0.79646562  0.40125143  1
  Mo  Mo221  1  0.80147434  0.79915722  0.00124856  1
  Mo  Mo222  1  0.59189412  -0.00005025  -0.00087010  1
  Mo  Mo223  1  -0.00478836  0.19827048  0.60993162  1
  Mo  Mo224  1  0.90179170  0.30601197  0.30099272  1
  Mo  Mo225  1  0.40470707  0.00201339  0.80050322  1
  Mo  Mo226  1  0.49893294  0.10250273  0.09239526  1
  Mo  Mo227  1  0.20027440  0.58805103  0.00691424  1
  Mo  Mo228  1  0.08961105  0.30377569  0.10129594  1
  Mo  Mo229  1  0.20418078  0.58893683  0.58521811  1
  Mo  Mo230  1  0.88341784  0.10139387  0.29668455  1
  Mo  Mo231  1  0.19891844  0.58410402  0.81328399  1
  Mo  Mo232  1  0.40234087  0.59895726  0.79803978  1
  Mo  Mo233  1  0.19712121  0.40412433  0.19494695  1
  Mo  Mo234  1  -0.00428697  0.20814988  0.19421472  1
  Mo  Mo235  1  0.10477837  0.69457424  0.30069138  1
  Mo  Mo236  1  0.59882915  0.59729962  0.40513023  1
  Mo  Mo237  1  0.69166710  0.09293137  0.30193633  1
  Mo  Mo238  1  0.80082002  0.80735562  0.20043071  1
  Mo  Mo239  1  0.69919993  0.89851258  0.30187489  1
  Mo  Mo240  1  0.09879680  0.32157486  0.29959618  1
  Mo  Mo241  1  0.10449392  0.70106754  0.49865078  1
  Mo  Mo242  1  0.29820922  0.49831157  0.50267513  1
  Mo  Mo243  1  0.20761100  0.79924392  0.20170104  1
  Mo  Mo244  1  0.39680472  0.60436517  0.00608156  1
  Mo  Mo245  1  0.40649351  0.20020861  0.60146018  1
  Mo  Mo246  1  0.00027517  0.19884772  0.80456503  1
  Mo  Mo247  1  0.40236657  0.80469378  0.19668240  1
  Mo  Mo248  1  0.49775286  0.71156731  0.89981731  1
  Mo  Mo249  1  0.20687826  -0.00536331  0.20012082  1
