# generated using pymatgen
data_HfZrTaTiMo
_symmetry_space_group_name_H-M   'P 1'
_cell_length_a   16.88445901
_cell_length_b   16.88778217
_cell_length_c   16.88632656
_cell_angle_alpha   89.96468849
_cell_angle_beta   90.01057279
_cell_angle_gamma   90.00337106
_symmetry_Int_Tables_number   1
_chemical_formula_structural   HfZrTaTiMo
_chemical_formula_sum   'Hf50 Zr50 Ta50 Ti50 Mo50'
_cell_volume   4814.98414631
_cell_formula_units_Z   50
loop_
 _symmetry_equiv_pos_site_id
 _symmetry_equiv_pos_as_xyz
  1  'x, y, z'
loop_
 _atom_site_type_symbol
 _atom_site_label
 _atom_site_symmetry_multiplicity
 _atom_site_fract_x
 _atom_site_fract_y
 _atom_site_fract_z
 _atom_site_occupancy
  Hf  Hf0  1  0.90134104  0.89486116  0.29954355  1
  Hf  Hf1  1  0.60191580  0.39927936  0.79245244  1
  Hf  Hf2  1  -0.00268313  0.00231787  0.59435724  1
  Hf  Hf3  1  0.89446068  0.69660138  0.69765130  1
  Hf  Hf4  1  -0.00259815  0.40567413  0.59157025  1
  Hf  Hf5  1  0.89901660  0.10763007  0.30224624  1
  Hf  Hf6  1  0.49439883  0.50012761  0.69220040  1
  Hf  Hf7  1  0.29267613  0.10130254  0.09402482  1
  Hf  Hf8  1  0.30100836  0.69630934  0.30261933  1
  Hf  Hf9  1  0.29969300  0.89415959  0.90808772  1
  Hf  Hf10  1  0.49812184  0.70080071  0.90698258  1
  Hf  Hf11  1  0.40000367  0.80587485  0.20241524  1
  Hf  Hf12  1  0.89895701  0.50959201  0.89566123  1
  Hf  Hf13  1  -0.00341104  0.40016382  0.79780121  1
  Hf  Hf14  1  0.60009049  -0.00656690  0.20279618  1
  Hf  Hf15  1  0.20740385  0.20001491  0.59014924  1
  Hf  Hf16  1  0.51328598  0.89513994  0.68988480  1
  Hf  Hf17  1  0.10239522  0.30460458  0.29570665  1
  Hf  Hf18  1  0.49133014  0.68989828  0.69750315  1
  Hf  Hf19  1  0.40391217  0.00179262  -0.00734430  1
  Hf  Hf20  1  0.60478621  0.21021686  0.20356734  1
  Hf  Hf21  1  0.59867594  0.19273459  0.40413116  1
  Hf  Hf22  1  0.69513898  0.11145527  0.90612129  1
  Hf  Hf23  1  0.29647921  0.89824879  0.30640570  1
  Hf  Hf24  1  0.69773109  0.49344059  0.50315704  1
  Hf  Hf25  1  0.89265570  0.29814050  0.68335635  1
  Hf  Hf26  1  0.30283967  0.69195559  0.50074962  1
  Hf  Hf27  1  0.50579682  0.30978575  0.49896107  1
  Hf  Hf28  1  0.30385444  0.08666185  0.49033163  1
  Hf  Hf29  1  0.49640894  0.31225510  0.30614805  1
  Hf  Hf30  1  -0.00142320  0.79872507  0.80474185  1
  Hf  Hf31  1  0.10367547  0.30068611  0.70115833  1
  Hf  Hf32  1  0.79691263  0.79541069  0.40384592  1
  Hf  Hf33  1  0.40524273  0.00102160  0.79689468  1
  Hf  Hf34  1  0.00918633  0.78445278  0.19538294  1
  Hf  Hf35  1  0.00216837  0.61122438  0.01795819  1
  Hf  Hf36  1  0.59950993  0.79684861  0.39896845  1
  Hf  Hf37  1  0.00688052  0.01241338  0.19676281  1
  Hf  Hf38  1  0.29676883  0.68972318  0.69523838  1
  Hf  Hf39  1  0.80547882  0.39655078  0.79584479  1
  Hf  Hf40  1  0.39586705  0.80592611  0.79549736  1
  Hf  Hf41  1  0.70292432  0.10932769  0.09570111  1
  Hf  Hf42  1  0.20257511  0.19711481  0.39795095  1
  Hf  Hf43  1  0.70786984  0.89345710  0.89260083  1
  Hf  Hf44  1  0.39912301  0.20017182  0.20721688  1
  Hf  Hf45  1  0.90025156  0.29970807  0.30219671  1
  Hf  Hf46  1  0.89636995  0.69168989  0.51070220  1
  Hf  Hf47  1  0.60867097  0.40544369  0.01495689  1
  Hf  Hf48  1  0.41263882  0.19198333  0.79621770  1
  Hf  Hf49  1  0.49797377  0.69519115  0.10064872  1
  Zr  Zr50  1  0.51346714  0.29395215  0.90410707  1
  Zr  Zr51  1  0.60777022  0.78934276  0.79045149  1
  Zr  Zr52  1  0.39352685  0.80656894  0.59781980  1
  Zr  Zr53  1  0.39985471  -0.00056130  0.19935940  1
  Zr  Zr54  1  0.28629872  0.30867339  0.10287165  1
  Zr  Zr55  1  0.28721799  0.10623295  0.89599027  1
  Zr  Zr56  1  0.20645753  0.40196196  0.41108621  1
  Zr  Zr57  1  0.90283425  0.88655907  0.10146569  1
  Zr  Zr58  1  0.78551950  0.40692841  0.19949974  1
  Zr  Zr59  1  0.29847421  0.29759611  0.70180681  1
  Zr  Zr60  1  0.10536102  0.49740194  0.90262009  1
  Zr  Zr61  1  0.69256160  0.31448581  0.31568895  1
  Zr  Zr62  1  0.39634517  0.40456472  0.00133326  1
  Zr  Zr63  1  0.10157477  0.69768728  0.90226311  1
  Zr  Zr64  1  0.10234480  0.10552161  0.70394053  1
  Zr  Zr65  1  -0.00796537  0.00399955  -0.00333308  1
  Zr  Zr66  1  -0.01307606  -0.00009743  0.80667910  1
  Zr  Zr67  1  0.00069533  0.40741178  0.19950983  1
  Zr  Zr68  1  0.79928096  -0.00112635  0.19248423  1
  Zr  Zr69  1  0.60342113  0.00843176  0.79089063  1
  Zr  Zr70  1  0.80637752  -0.00066212  -0.00791174  1
  Zr  Zr71  1  0.19393748  0.18918820  0.20770033  1
  Zr  Zr72  1  0.40225749  0.00109993  0.60382884  1
  Zr  Zr73  1  0.29596292  0.49615024  0.29226688  1
  Zr  Zr74  1  0.69872054  0.70545640  0.10953119  1
  Zr  Zr75  1  0.20017730  -0.00812849  0.60264567  1
  Zr  Zr76  1  0.41039657  0.57791702  0.40280618  1
  Zr  Zr77  1  -0.00485501  0.40428906  0.00242290  1
  Zr  Zr78  1  0.79665376  0.00508235  0.60074519  1
  Zr  Zr79  1  0.78919383  0.59929096  0.40316517  1
  Zr  Zr80  1  0.80155240  0.00111619  0.40691065  1
  Zr  Zr81  1  0.40153002  0.20412343  -0.00393782  1
  Zr  Zr82  1  0.00595903  0.80226046  0.59727249  1
  Zr  Zr83  1  0.10146169  0.90080446  0.30235300  1
  Zr  Zr84  1  0.31098519  0.68948760  0.90239970  1
  Zr  Zr85  1  0.60529712  0.60655714  0.59232823  1
  Zr  Zr86  1  0.79857771  0.59964970  0.20357903  1
  Zr  Zr87  1  0.51097702  0.10616537  0.08899232  1
  Zr  Zr88  1  0.70162909  0.50363003  0.89549159  1
  Zr  Zr89  1  0.39356095  0.39911668  0.80059730  1
  Zr  Zr90  1  0.70558175  0.29490561  0.90489584  1
  Zr  Zr91  1  0.20308643  0.79429584  0.01235455  1
  Zr  Zr92  1  0.00162340  0.40691097  0.40603674  1
  Zr  Zr93  1  0.10098615  0.10792269  0.90429411  1
  Zr  Zr94  1  0.49218226  0.51593950  0.89861500  1
  Zr  Zr95  1  -0.01355678  0.20239371  0.80551006  1
  Zr  Zr96  1  0.88732086  0.89165414  0.70171457  1
  Zr  Zr97  1  0.00527773  0.59942952  0.40163642  1
  Zr  Zr98  1  0.80167656  0.59978875  0.00854678  1
  Zr  Zr99  1  0.49924868  0.89153955  0.08860989  1
  Ta  Ta100  1  0.20396071  0.40293024  0.59731063  1
  Ta  Ta101  1  0.09964903  0.29967039  0.09273127  1
  Ta  Ta102  1  0.80485950  0.79672614  0.00266502  1
  Ta  Ta103  1  0.40305061  0.40470700  0.20008783  1
  Ta  Ta104  1  0.39157952  0.40266134  0.58547547  1
  Ta  Ta105  1  0.49753997  0.70041164  0.49725837  1
  Ta  Ta106  1  0.60409015  0.00576388  0.59721960  1
  Ta  Ta107  1  0.50012409  0.50537440  0.10523856  1
  Ta  Ta108  1  0.29695271  0.10106070  0.70279233  1
  Ta  Ta109  1  0.60173237  0.19681476  0.78330898  1
  Ta  Ta110  1  0.69802066  0.30330971  0.68417003  1
  Ta  Ta111  1  0.89952141  0.70088808  0.29748714  1
  Ta  Ta112  1  0.19909031  0.80144899  0.59969280  1
  Ta  Ta113  1  0.19566342  0.59960321  0.40206731  1
  Ta  Ta114  1  0.70506312  0.69875988  0.89906829  1
  Ta  Ta115  1  0.10230563  0.69098464  0.69504125  1
  Ta  Ta116  1  0.79439613  0.20299935  0.40622144  1
  Ta  Ta117  1  0.29813212  0.89550003  0.48694916  1
  Ta  Ta118  1  0.50262257  0.30171158  0.68661377  1
  Ta  Ta119  1  0.19296006  0.78993425  0.40344805  1
  Ta  Ta120  1  0.10808701  0.29899041  0.90431565  1
  Ta  Ta121  1  0.10161890  0.50524340  0.69628350  1
  Ta  Ta122  1  0.00414941  0.79119005  0.40132266  1
  Ta  Ta123  1  0.10007940  0.89600152  0.09653467  1
  Ta  Ta124  1  0.70319759  0.89704786  0.29915100  1
  Ta  Ta125  1  0.50277819  0.89719689  0.49534838  1
  Ta  Ta126  1  0.69361635  0.89450761  0.50695626  1
  Ta  Ta127  1  0.89860796  0.50425439  0.30452786  1
  Ta  Ta128  1  0.00683545  0.60208987  0.20330809  1
  Ta  Ta129  1  0.89685547  0.50890343  0.68754466  1
  Ta  Ta130  1  0.09794328  0.89556291  0.90605595  1
  Ta  Ta131  1  0.69713837  0.30733762  0.50456869  1
  Ta  Ta132  1  0.20175796  0.59550317  0.79782012  1
  Ta  Ta133  1  0.59961337  0.80460640  0.20682790  1
  Ta  Ta134  1  0.60484857  0.59973365  0.00596334  1
  Ta  Ta135  1  0.19566011  -0.00230092  0.19546008  1
  Ta  Ta136  1  0.79965393  0.40125033  0.01094705  1
  Ta  Ta137  1  0.50098062  0.69601385  0.30170859  1
  Ta  Ta138  1  0.70779584  0.49845274  0.69094648  1
  Ta  Ta139  1  0.19836209  0.80056920  0.79311940  1
  Ta  Ta140  1  0.70176794  0.09818893  0.30279270  1
  Ta  Ta141  1  0.19901379  -0.01050221  0.79996018  1
  Ta  Ta142  1  0.80026764  0.01094415  0.79889737  1
  Ta  Ta143  1  0.10324808  0.89968091  0.49288327  1
  Ta  Ta144  1  0.20415819  0.59778801  0.01116407  1
  Ta  Ta145  1  0.89774383  0.29533633  0.10289980  1
  Ta  Ta146  1  0.50515439  0.89365577  0.90076824  1
  Ta  Ta147  1  0.10064888  0.29721690  0.50264440  1
  Ta  Ta148  1  0.39719169  0.20047549  0.40231861  1
  Ta  Ta149  1  0.40262533  0.19902259  0.59355324  1
  Ti  Ti150  1  0.90134064  0.10789659  0.49622613  1
  Ti  Ti151  1  0.60797850  0.60146819  0.79388785  1
  Ti  Ti152  1  0.29853846  0.50653578  0.69039706  1
  Ti  Ti153  1  0.00093591  0.00095547  0.40188251  1
  Ti  Ti154  1  0.89577431  0.29694310  0.49788899  1
  Ti  Ti155  1  0.00545924  0.19843024  0.40248349  1
  Ti  Ti156  1  0.79382109  0.20716912  0.20344086  1
  Ti  Ti157  1  0.11600975  0.49590003  0.10731151  1
  Ti  Ti158  1  0.60546874  -0.00778296  -0.00355279  1
  Ti  Ti159  1  0.89894655  0.11863861  0.09119414  1
  Ti  Ti160  1  0.20236679  0.40678165  0.79877841  1
  Ti  Ti161  1  0.89963329  0.50181365  0.10719458  1
  Ti  Ti162  1  0.89706745  0.70415797  0.90151987  1
  Ti  Ti163  1  0.89521647  0.10694888  0.69449327  1
  Ti  Ti164  1  0.79499411  0.19717992  0.79210804  1
  Ti  Ti165  1  0.10852957  0.50409772  0.29250776  1
  Ti  Ti166  1  0.60353086  0.58731935  0.21222245  1
  Ti  Ti167  1  0.00249334  0.59984622  0.79628066  1
  Ti  Ti168  1  0.89707512  0.29131909  0.91416879  1
  Ti  Ti169  1  0.41311732  -0.00894139  0.39341270  1
  Ti  Ti170  1  0.50150328  0.09804741  0.30306933  1
  Ti  Ti171  1  0.80622088  0.40607096  0.40528723  1
  Ti  Ti172  1  0.58231152  0.43291039  0.39647420  1
  Ti  Ti173  1  0.49879599  0.09369656  0.49795605  1
  Ti  Ti174  1  0.10646160  0.50957596  0.51240294  1
  Ti  Ti175  1  0.10184839  0.09383202  0.48980294  1
  Ti  Ti176  1  0.19951806  0.79450027  0.19938429  1
  Ti  Ti177  1  0.28357713  0.29830672  0.90159698  1
  Ti  Ti178  1  0.50387611  0.30564811  0.10530406  1
  Ti  Ti179  1  0.89861370  0.89270952  0.50148876  1
  Ti  Ti180  1  0.29815095  0.08748697  0.30542738  1
  Ti  Ti181  1  0.79397681  0.60573992  0.79353425  1
  Ti  Ti182  1  0.69642906  0.09880339  0.49795499  1
  Ti  Ti183  1  0.29752745  0.50217003  0.10338056  1
  Ti  Ti184  1  0.10188047  0.10802753  0.08996958  1
  Ti  Ti185  1  0.00434455  0.19842136  0.19775094  1
  Ti  Ti186  1  0.59754120  0.19202394  0.60000196  1
  Ti  Ti187  1  0.00262341  0.19691596  0.59012889  1
  Ti  Ti188  1  0.59996880  -0.00462836  0.39800267  1
  Ti  Ti189  1  0.09877983  0.89790260  0.70293540  1
  Ti  Ti190  1  0.19662780  -0.00664612  0.00445535  1
  Ti  Ti191  1  0.29930603  0.50496409  0.90480681  1
  Ti  Ti192  1  0.79173138  0.19753741  0.59097688  1
  Ti  Ti193  1  0.40069383  0.59671854  0.20102603  1
  Ti  Ti194  1  0.70612102  0.88747121  0.69273029  1
  Ti  Ti195  1  0.30659031  0.69501717  0.10331877  1
  Ti  Ti196  1  0.30226848  0.30743072  0.30194045  1
  Ti  Ti197  1  0.61059637  0.80021528  0.00162755  1
  Ti  Ti198  1  0.10408106  0.69494031  0.50890683  1
  Ti  Ti199  1  0.69574987  0.69981642  0.29990151  1
  Mo  Mo200  1  0.80240175  0.39983694  0.59466562  1
  Mo  Mo201  1  0.40051089  0.79937798  0.00383994  1
  Mo  Mo202  1  0.88590866  0.11917957  0.89831579  1
  Mo  Mo203  1  0.90099931  0.69843362  0.10609309  1
  Mo  Mo204  1  0.39892347  0.39531717  0.39950940  1
  Mo  Mo205  1  0.49844334  0.50040352  0.50706018  1
  Mo  Mo206  1  0.19401909  0.20748415  0.00025391  1
  Mo  Mo207  1  0.10593818  0.69534297  0.30244835  1
  Mo  Mo208  1  0.59898882  0.40248904  0.60015438  1
  Mo  Mo209  1  0.80019704  0.79255712  0.80487635  1
  Mo  Mo210  1  0.29082389  0.90048914  0.70300043  1
  Mo  Mo211  1  0.89960169  0.88249526  0.90012175  1
  Mo  Mo212  1  0.69670598  0.70618754  0.50601591  1
  Mo  Mo213  1  0.20005748  0.40220695  0.19741697  1
  Mo  Mo214  1  0.50432488  0.89755148  0.30709281  1
  Mo  Mo215  1  0.69844964  0.89340011  0.09850443  1
  Mo  Mo216  1  0.89355795  0.50098491  0.50194378  1
  Mo  Mo217  1  0.60373365  0.21134170  0.01046023  1
  Mo  Mo218  1  0.19882612  0.59749314  0.59901027  1
  Mo  Mo219  1  0.59356593  0.40933435  0.20199646  1
  Mo  Mo220  1  0.19914549  0.60283087  0.19795840  1
  Mo  Mo221  1  0.19562974  -0.00327100  0.39687388  1
  Mo  Mo222  1  0.70771442  0.69411474  0.69867811  1
  Mo  Mo223  1  0.00328835  0.59698836  0.60174697  1
  Mo  Mo224  1  0.29149975  0.90239987  0.10479223  1
  Mo  Mo225  1  0.69399426  0.50400117  0.30807897  1
  Mo  Mo226  1  0.19930068  0.40662462  -0.00057989  1
  Mo  Mo227  1  0.39642033  0.59822335  0.01516025  1
  Mo  Mo228  1  0.50252550  0.10550567  0.68826443  1
  Mo  Mo229  1  0.40433924  0.79844991  0.39949129  1
  Mo  Mo230  1  0.09332083  0.09946734  0.30719043  1
  Mo  Mo231  1  0.51588102  0.09331810  0.89547955  1
  Mo  Mo232  1  0.79532536  0.79787126  0.20619228  1
  Mo  Mo233  1  0.11061751  0.69454062  0.10680693  1
  Mo  Mo234  1  0.79020023  0.79501330  0.59807018  1
  Mo  Mo235  1  -0.00283665  0.20666063  0.00586329  1
  Mo  Mo236  1  0.70412862  0.11053765  0.69321199  1
  Mo  Mo237  1  -0.00156382  0.79763886  -0.00012698  1
  Mo  Mo238  1  0.29731940  0.50057431  0.50352251  1
  Mo  Mo239  1  0.49803097  0.50249982  0.28919602  1
  Mo  Mo240  1  0.80174198  0.20740023  0.00787695  1
  Mo  Mo241  1  0.69352997  0.50353823  0.10538526  1
  Mo  Mo242  1  0.60135150  0.79837202  0.59363815  1
  Mo  Mo243  1  0.39824172  0.59246999  0.59449554  1
  Mo  Mo244  1  0.39030734  0.59431673  0.79373559  1
  Mo  Mo245  1  0.30526012  0.29740313  0.49671519  1
  Mo  Mo246  1  0.70349301  0.30192609  0.10468095  1
  Mo  Mo247  1  0.59845361  0.60530395  0.39631974  1
  Mo  Mo248  1  0.20118292  0.20308274  0.79995291  1
  Mo  Mo249  1  0.79735790  0.59831285  0.60005917  1
