# generated using pymatgen
data_HfZrTaTiMo
_symmetry_space_group_name_H-M   'P 1'
_cell_length_a   16.88657305
_cell_length_b   16.88819667
_cell_length_c   16.88403912
_cell_angle_alpha   89.98631349
_cell_angle_beta   90.00670269
_cell_angle_gamma   89.98263577
_symmetry_Int_Tables_number   1
_chemical_formula_structural   HfZrTaTiMo
_chemical_formula_sum   'Hf50 Zr50 Ta50 Ti50 Mo50'
_cell_volume   4815.05347992
_cell_formula_units_Z   50
loop_
 _symmetry_equiv_pos_site_id
 _symmetry_equiv_pos_as_xyz
  1  'x, y, z'
loop_
 _atom_site_type_symbol
 _atom_site_label
 _atom_site_symmetry_multiplicity
 _atom_site_fract_x
 _atom_site_fract_y
 _atom_site_fract_z
 _atom_site_occupancy
  Hf  Hf0  1  0.60484306  -0.00007054  0.79863486  1
  Hf  Hf1  1  0.30214486  0.29982349  0.08028204  1
  Hf  Hf2  1  0.90024603  0.49472972  0.29679572  1
  Hf  Hf3  1  0.09446934  0.69595563  0.90160975  1
  Hf  Hf4  1  0.49810261  0.69453401  0.71022090  1
  Hf  Hf5  1  0.50160537  0.50362843  0.70596255  1
  Hf  Hf6  1  0.01417409  0.80266233  0.41243790  1
  Hf  Hf7  1  0.70871317  0.89539336  0.69663688  1
  Hf  Hf8  1  0.10062470  0.50127554  0.48980921  1
  Hf  Hf9  1  0.70896585  0.71288067  0.49534477  1
  Hf  Hf10  1  0.39572079  0.40205188  0.20094430  1
  Hf  Hf11  1  0.48923020  0.89722101  0.49911950  1
  Hf  Hf12  1  0.40041096  -0.00688975  0.79859888  1
  Hf  Hf13  1  0.48741590  0.29591437  0.90093462  1
  Hf  Hf14  1  0.19352873  0.00027671  0.79897957  1
  Hf  Hf15  1  0.39681387  0.40389156  0.59288968  1
  Hf  Hf16  1  0.70152329  0.90081308  0.09969047  1
  Hf  Hf17  1  0.31671662  0.50366006  0.71600450  1
  Hf  Hf18  1  0.49952486  0.09202576  0.29306262  1
  Hf  Hf19  1  0.19703773  0.19706183  0.19065273  1
  Hf  Hf20  1  0.90334837  0.29624255  0.90058748  1
  Hf  Hf21  1  0.60673617  0.39498657  0.80638453  1
  Hf  Hf22  1  0.59258452  0.40473450  0.19730801  1
  Hf  Hf23  1  0.19918638  0.00600020  0.00520784  1
  Hf  Hf24  1  0.39780119  0.60106618  0.39574691  1
  Hf  Hf25  1  0.49694997  0.51302094  0.89156817  1
  Hf  Hf26  1  0.70730720  0.90403132  0.29065427  1
  Hf  Hf27  1  0.49810882  0.10859665  0.70820403  1
  Hf  Hf28  1  0.49259632  0.90619171  0.29336294  1
  Hf  Hf29  1  0.20177688  0.80518457  0.80139960  1
  Hf  Hf30  1  0.80372008  0.01040341  0.80269117  1
  Hf  Hf31  1  0.70073829  0.49841481  0.70402446  1
  Hf  Hf32  1  0.60335294  0.60704498  0.59853804  1
  Hf  Hf33  1  -0.00232905  0.60198666  0.19508980  1
  Hf  Hf34  1  0.48062000  0.51031187  0.08815925  1
  Hf  Hf35  1  0.59581165  0.80142229  0.60748823  1
  Hf  Hf36  1  0.19706199  0.60757465  0.59192706  1
  Hf  Hf37  1  -0.01361220  0.19493913  0.40476859  1
  Hf  Hf38  1  0.31686735  0.49869687  0.91137411  1
  Hf  Hf39  1  0.09772896  0.90405421  0.29798047  1
  Hf  Hf40  1  0.40365060  0.80374653  0.80661398  1
  Hf  Hf41  1  0.90463968  0.89778106  0.69870579  1
  Hf  Hf42  1  0.39575507  0.60371667  0.58824206  1
  Hf  Hf43  1  0.69684994  0.70243814  0.29512528  1
  Hf  Hf44  1  0.39646375  0.39979686  0.38958608  1
  Hf  Hf45  1  -0.00120906  0.40472690  0.00049642  1
  Hf  Hf46  1  0.00293337  0.39473100  0.19244232  1
  Hf  Hf47  1  0.10354137  0.09702719  0.49790908  1
  Hf  Hf48  1  0.81015876  0.00452912  0.40171781  1
  Hf  Hf49  1  0.60341258  0.19814576  0.59545930  1
  Zr  Zr50  1  0.01071694  0.00158430  0.01346827  1
  Zr  Zr51  1  0.80239695  0.60060169  0.39914463  1
  Zr  Zr52  1  0.49971409  0.30139742  0.49594793  1
  Zr  Zr53  1  0.39523144  0.19953965  0.59268905  1
  Zr  Zr54  1  -0.00556875  0.39313449  0.39707241  1
  Zr  Zr55  1  0.60386155  0.00230726  0.40428674  1
  Zr  Zr56  1  0.50003866  0.28586086  0.08741100  1
  Zr  Zr57  1  0.70459747  0.90078356  0.91329475  1
  Zr  Zr58  1  0.59837826  0.39850093  0.39011218  1
  Zr  Zr59  1  0.29980542  0.10102260  0.70258043  1
  Zr  Zr60  1  0.79887952  0.60737065  0.60651933  1
  Zr  Zr61  1  -0.00055275  0.79791550  0.00817319  1
  Zr  Zr62  1  0.10664373  0.69160944  0.30436199  1
  Zr  Zr63  1  0.49792134  0.10975429  0.90735970  1
  Zr  Zr64  1  0.10351683  0.30213706  0.50140925  1
  Zr  Zr65  1  0.69781370  0.50183541  0.29436422  1
  Zr  Zr66  1  0.79827493  0.79274305  0.80637245  1
  Zr  Zr67  1  0.39147284  0.19815930  0.19902836  1
  Zr  Zr68  1  0.70176354  0.29717124  0.09775441  1
  Zr  Zr69  1  0.19770915  0.60365987  0.80005013  1
  Zr  Zr70  1  0.31425861  0.90650022  0.10235349  1
  Zr  Zr71  1  0.90486918  0.89656849  0.50970171  1
  Zr  Zr72  1  0.70002582  0.49154807  0.49932112  1
  Zr  Zr73  1  0.30152695  0.08859972  0.30272941  1
  Zr  Zr74  1  0.59934720  0.80379768  0.39589107  1
  Zr  Zr75  1  0.00332514  0.80303047  0.80385755  1
  Zr  Zr76  1  0.49610561  0.30055013  0.70889809  1
  Zr  Zr77  1  -0.00925514  0.19654484  0.60348707  1
  Zr  Zr78  1  0.59682495  0.00269934  0.60240108  1
  Zr  Zr79  1  0.10175583  0.29104491  0.30417094  1
  Zr  Zr80  1  0.90133923  0.09974842  0.91314468  1
  Zr  Zr81  1  0.30657344  0.68427380  0.10496494  1
  Zr  Zr82  1  0.50295692  0.90509296  0.91540390  1
  Zr  Zr83  1  0.30283003  0.70714299  0.69491838  1
  Zr  Zr84  1  0.80143252  0.39441725  0.80696251  1
  Zr  Zr85  1  0.09221444  0.31114691  0.70685855  1
  Zr  Zr86  1  0.20120888  0.41049835  0.60485203  1
  Zr  Zr87  1  0.89795460  0.49540415  0.50390761  1
  Zr  Zr88  1  0.80847929  0.60363855  0.18382937  1
  Zr  Zr89  1  0.90599600  0.49700200  0.70947096  1
  Zr  Zr90  1  0.00074392  0.18977011  0.79495927  1
  Zr  Zr91  1  0.19500376  0.40662375  0.80797144  1
  Zr  Zr92  1  0.60213921  0.40313853  -0.00330034  1
  Zr  Zr93  1  0.89431589  0.29189054  0.09175038  1
  Zr  Zr94  1  0.20183181  0.80209157  0.19837693  1
  Zr  Zr95  1  0.60473071  0.19844925  0.39877945  1
  Zr  Zr96  1  0.19869198  0.39814534  0.19650214  1
  Zr  Zr97  1  0.19854324  0.59615980  -0.00178011  1
  Zr  Zr98  1  0.89830696  0.71451791  0.30786480  1
  Zr  Zr99  1  0.70041517  0.09142003  0.10534488  1
  Ta  Ta100  1  0.70344484  0.51557448  0.90294472  1
  Ta  Ta101  1  0.50681206  0.50685355  0.49037674  1
  Ta  Ta102  1  0.20507395  0.79632778  0.40657438  1
  Ta  Ta103  1  0.19297752  0.40217135  -0.00059068  1
  Ta  Ta104  1  0.30137171  0.89837436  0.50145537  1
  Ta  Ta105  1  0.19157196  0.80164556  0.58862275  1
  Ta  Ta106  1  0.69996412  0.51080877  0.09081114  1
  Ta  Ta107  1  0.40510501  0.79494615  0.20198997  1
  Ta  Ta108  1  0.50129483  0.69499704  0.29650557  1
  Ta  Ta109  1  0.71406411  0.89943523  0.50456548  1
  Ta  Ta110  1  0.49746865  0.70282681  0.49336983  1
  Ta  Ta111  1  0.40241765  0.79319596  0.00184290  1
  Ta  Ta112  1  0.30279898  0.10276022  0.90587400  1
  Ta  Ta113  1  0.19582375  0.00284385  0.19381113  1
  Ta  Ta114  1  0.19835656  -0.00990745  0.40391024  1
  Ta  Ta115  1  0.00647185  0.00277933  0.80133186  1
  Ta  Ta116  1  0.19229348  0.19424316  0.80409115  1
  Ta  Ta117  1  0.09930389  0.29694928  0.90436413  1
  Ta  Ta118  1  0.29527191  0.50912980  0.29388314  1
  Ta  Ta119  1  0.80619991  0.19295941  0.20290126  1
  Ta  Ta120  1  0.00108114  0.80468586  0.19211371  1
  Ta  Ta121  1  0.90603676  0.09316191  0.29316587  1
  Ta  Ta122  1  0.90389540  0.70883133  0.50770005  1
  Ta  Ta123  1  0.10233529  0.90232981  0.90683582  1
  Ta  Ta124  1  0.29023049  0.29811884  0.49612002  1
  Ta  Ta125  1  0.00438076  0.60549846  0.59816890  1
  Ta  Ta126  1  0.19626870  0.19577613  0.60628520  1
  Ta  Ta127  1  0.20286805  0.80099407  0.00100616  1
  Ta  Ta128  1  0.70653773  0.29432091  0.29220535  1
  Ta  Ta129  1  0.39091310  0.79467476  0.39563180  1
  Ta  Ta130  1  0.59403872  0.79861453  0.19160011  1
  Ta  Ta131  1  0.71195623  0.10238656  0.50128951  1
  Ta  Ta132  1  0.80418171  0.19871989  0.39888796  1
  Ta  Ta133  1  -0.01515098  0.59880050  0.00895833  1
  Ta  Ta134  1  0.29908245  0.29551180  0.89640927  1
  Ta  Ta135  1  0.29973020  0.29874337  0.70689049  1
  Ta  Ta136  1  0.90107586  0.90424143  0.91016155  1
  Ta  Ta137  1  0.19881811  -0.00461889  0.59957074  1
  Ta  Ta138  1  0.70552801  0.09719091  0.29429983  1
  Ta  Ta139  1  0.00201611  0.19308751  0.19215372  1
  Ta  Ta140  1  0.09739054  0.50228133  0.09750121  1
  Ta  Ta141  1  0.30170926  0.90237031  0.90931869  1
  Ta  Ta142  1  0.29880784  0.09393560  0.49800036  1
  Ta  Ta143  1  0.70755034  0.29629308  0.69426393  1
  Ta  Ta144  1  0.69574240  0.70016488  0.09475386  1
  Ta  Ta145  1  0.90448757  0.70272377  0.69788732  1
  Ta  Ta146  1  0.39901783  -0.00464046  0.60246265  1
  Ta  Ta147  1  0.89295844  0.90559174  0.10421883  1
  Ta  Ta148  1  0.09541440  0.09270052  0.29869267  1
  Ta  Ta149  1  0.80874856  0.01159610  0.60319828  1
  Ti  Ti150  1  0.60144698  0.39684033  0.59933765  1
  Ti  Ti151  1  0.50239477  0.91095645  0.10342880  1
  Ti  Ti152  1  0.90056436  0.69260789  0.90087825  1
  Ti  Ti153  1  0.39174890  0.20458819  0.39557361  1
  Ti  Ti154  1  0.09591698  0.89884501  0.69212834  1
  Ti  Ti155  1  0.79596134  0.60862062  0.80070776  1
  Ti  Ti156  1  0.80463306  0.79766850  0.19339632  1
  Ti  Ti157  1  0.59938886  0.79822963  0.80210543  1
  Ti  Ti158  1  0.71014091  0.29867257  0.50359345  1
  Ti  Ti159  1  0.59265396  0.79256324  0.00480567  1
  Ti  Ti160  1  0.00300839  0.01005651  0.60653935  1
  Ti  Ti161  1  0.61819312  0.19810607  0.80805293  1
  Ti  Ti162  1  0.19220021  0.19377737  -0.00043607  1
  Ti  Ti163  1  0.78983636  0.18510409  -0.00082171  1
  Ti  Ti164  1  0.30407287  0.89409931  0.68947582  1
  Ti  Ti165  1  0.29844880  0.69449714  0.29687620  1
  Ti  Ti166  1  0.59279141  0.59863904  0.19759981  1
  Ti  Ti167  1  0.00064234  -0.00130495  0.40487544  1
  Ti  Ti168  1  0.50111951  0.29117202  0.29447547  1
  Ti  Ti169  1  0.49773298  0.69692527  0.10268518  1
  Ti  Ti170  1  0.01588113  0.19468792  0.00946569  1
  Ti  Ti171  1  0.89455844  0.29454877  0.29236096  1
  Ti  Ti172  1  0.59483675  0.60949266  -0.00283341  1
  Ti  Ti173  1  0.60175968  0.19482136  0.19661006  1
  Ti  Ti174  1  0.10189183  0.69737948  0.09988391  1
  Ti  Ti175  1  0.20547586  0.19559796  0.39793667  1
  Ti  Ti176  1  0.49091545  0.09173793  0.09741157  1
  Ti  Ti177  1  0.89805594  0.09074503  0.10679700  1
  Ti  Ti178  1  0.60376690  0.01227133  -0.00039553  1
  Ti  Ti179  1  0.09247163  0.70237924  0.69817430  1
  Ti  Ti180  1  0.70477477  0.29180921  0.90893652  1
  Ti  Ti181  1  0.20267510  0.40381776  0.38636033  1
  Ti  Ti182  1  0.69332309  0.69663182  0.90296674  1
  Ti  Ti183  1  0.80197290  0.38709684  0.39980346  1
  Ti  Ti184  1  0.30411833  0.90217586  0.30121764  1
  Ti  Ti185  1  0.00225968  0.60130866  0.40195472  1
  Ti  Ti186  1  0.48673645  0.09494948  0.49046149  1
  Ti  Ti187  1  -0.01287919  0.39309104  0.60206248  1
  Ti  Ti188  1  0.08162247  0.50475241  0.89366622  1
  Ti  Ti189  1  0.80585756  0.78918813  0.00390605  1
  Ti  Ti190  1  0.19444629  0.58897627  0.19893203  1
  Ti  Ti191  1  0.89817782  0.51051428  0.89771752  1
  Ti  Ti192  1  0.90348818  0.90377054  0.29396506  1
  Ti  Ti193  1  0.79948331  0.40061712  0.19101046  1
  Ti  Ti194  1  0.80306402  0.41556393  0.00281321  1
  Ti  Ti195  1  0.08572522  0.50497927  0.70592210  1
  Ti  Ti196  1  0.80195477  0.19798325  0.79571658  1
  Ti  Ti197  1  0.29342035  0.50180959  0.48783473  1
  Ti  Ti198  1  0.70642826  0.10694064  0.69640367  1
  Ti  Ti199  1  0.81177268  0.19951769  0.59910482  1
  Mo  Mo200  1  0.60834603  0.19403399  -0.00293683  1
  Mo  Mo201  1  0.10077330  0.10176803  0.10616562  1
  Mo  Mo202  1  0.61057276  0.60794200  0.80347557  1
  Mo  Mo203  1  0.00047597  -0.00221671  0.20203355  1
  Mo  Mo204  1  0.50001951  0.89627103  0.69954527  1
  Mo  Mo205  1  0.89579685  0.70943437  0.09941407  1
  Mo  Mo206  1  0.80286501  0.80218238  0.60332304  1
  Mo  Mo207  1  0.10101908  0.29712432  0.08868757  1
  Mo  Mo208  1  0.90100824  0.09745909  0.49948114  1
  Mo  Mo209  1  0.69992768  0.70127673  0.70814951  1
  Mo  Mo210  1  0.40265542  0.61376963  -0.00087584  1
  Mo  Mo211  1  0.50596163  0.70451168  0.90597023  1
  Mo  Mo212  1  0.59253532  0.60426640  0.39909350  1
  Mo  Mo213  1  0.39826478  -0.00179599  0.19785474  1
  Mo  Mo214  1  0.80155957  0.38600762  0.60375498  1
  Mo  Mo215  1  0.79802129  0.60791041  -0.00759485  1
  Mo  Mo216  1  0.10154142  0.50387200  0.29630703  1
  Mo  Mo217  1  0.39043140  0.19203910  0.00028612  1
  Mo  Mo218  1  0.39041330  -0.00595611  0.40377557  1
  Mo  Mo219  1  0.39833079  0.80143774  0.59509610  1
  Mo  Mo220  1  0.10061469  0.69670562  0.49999254  1
  Mo  Mo221  1  0.40023927  0.00205659  0.00320478  1
  Mo  Mo222  1  0.38424097  0.19893878  0.80300699  1
  Mo  Mo223  1  0.59576602  -0.00188040  0.19385315  1
  Mo  Mo224  1  -0.00155127  0.40313452  0.80969303  1
  Mo  Mo225  1  0.80563768  -0.00089219  0.00338392  1
  Mo  Mo226  1  0.20432860  0.59797978  0.39614267  1
  Mo  Mo227  1  0.70059270  0.10553462  0.90086544  1
  Mo  Mo228  1  0.29929575  0.10081942  0.09532232  1
  Mo  Mo229  1  0.39976717  0.39196001  0.80019396  1
  Mo  Mo230  1  0.29864623  0.70641104  0.49385491  1
  Mo  Mo231  1  0.29308081  0.49570737  0.10039651  1
  Mo  Mo232  1  0.88610994  0.29788081  0.50345801  1
  Mo  Mo233  1  0.39545881  0.39499226  -0.00238923  1
  Mo  Mo234  1  0.80804417  -0.00078069  0.20290951  1
  Mo  Mo235  1  0.00831639  0.79303844  0.60432872  1
  Mo  Mo236  1  0.39939300  0.61906875  0.81265240  1
  Mo  Mo237  1  0.80872170  0.81003067  0.39907187  1
  Mo  Mo238  1  0.10366984  0.90468644  0.50367144  1
  Mo  Mo239  1  0.10172291  0.09175926  0.69665087  1
  Mo  Mo240  1  0.49526345  0.51012444  0.29362223  1
  Mo  Mo241  1  0.30363436  0.70678893  0.90500160  1
  Mo  Mo242  1  0.10471587  0.10178633  0.90113089  1
  Mo  Mo243  1  0.89853856  0.09682452  0.70151390  1
  Mo  Mo244  1  -0.00452475  0.60362640  0.79935984  1
  Mo  Mo245  1  0.89165096  0.29785468  0.70073999  1
  Mo  Mo246  1  0.10493021  0.89670426  0.10337822  1
  Mo  Mo247  1  0.89554384  0.49775308  0.09649681  1
  Mo  Mo248  1  0.29819642  0.29999033  0.31070927  1
  Mo  Mo249  1  0.40129595  0.60031008  0.20457704  1
