# generated using pymatgen
data_HfZrTaTiMo
_symmetry_space_group_name_H-M   'P 1'
_cell_length_a   16.89339758
_cell_length_b   16.88739460
_cell_length_c   16.89376329
_cell_angle_alpha   90.01095709
_cell_angle_beta   90.03315063
_cell_angle_gamma   89.98018528
_symmetry_Int_Tables_number   1
_chemical_formula_structural   HfZrTaTiMo
_chemical_formula_sum   'Hf50 Zr50 Ta50 Ti50 Mo50'
_cell_volume   4819.54403618
_cell_formula_units_Z   50
loop_
 _symmetry_equiv_pos_site_id
 _symmetry_equiv_pos_as_xyz
  1  'x, y, z'
loop_
 _atom_site_type_symbol
 _atom_site_label
 _atom_site_symmetry_multiplicity
 _atom_site_fract_x
 _atom_site_fract_y
 _atom_site_fract_z
 _atom_site_occupancy
  Hf  Hf0  1  0.71920186  0.50186622  0.11615719  1
  Hf  Hf1  1  0.78704616  0.20305523  0.59664435  1
  Hf  Hf2  1  0.31199247  0.29703878  0.10380759  1
  Hf  Hf3  1  0.39912827  0.39762230  0.80168661  1
  Hf  Hf4  1  0.10032093  0.10370537  0.49768250  1
  Hf  Hf5  1  0.79402189  0.79367894  0.39733669  1
  Hf  Hf6  1  0.10783250  0.70177793  0.10251120  1
  Hf  Hf7  1  0.60741968  0.39637146  0.00307337  1
  Hf  Hf8  1  0.39938865  0.40766299  0.39828507  1
  Hf  Hf9  1  0.30644893  0.89171027  0.10490920  1
  Hf  Hf10  1  0.31167997  0.89892612  0.70127907  1
  Hf  Hf11  1  0.49960305  0.70113541  0.69351253  1
  Hf  Hf12  1  0.70332900  0.69843029  0.10318987  1
  Hf  Hf13  1  0.90464251  0.89202372  0.90378628  1
  Hf  Hf14  1  0.19764489  -0.00726055  0.59803172  1
  Hf  Hf15  1  0.90115223  0.89607251  0.69758667  1
  Hf  Hf16  1  0.89723049  0.89874861  0.49945930  1
  Hf  Hf17  1  0.79412853  0.59495231  0.39332287  1
  Hf  Hf18  1  0.20319293  0.79838284  0.39497802  1
  Hf  Hf19  1  0.09274668  0.89528564  0.89879929  1
  Hf  Hf20  1  0.79416839  0.19386656  0.80379761  1
  Hf  Hf21  1  0.50794261  0.49326894  0.89360996  1
  Hf  Hf22  1  0.68681633  0.09774395  0.70283689  1
  Hf  Hf23  1  0.50308200  0.90086106  0.10036703  1
  Hf  Hf24  1  0.89622698  0.90481370  0.30072128  1
  Hf  Hf25  1  0.60293969  0.40425055  0.20788898  1
  Hf  Hf26  1  0.50025918  0.29185786  0.10569489  1
  Hf  Hf27  1  0.08867523  0.31321709  0.30652554  1
  Hf  Hf28  1  0.21733604  0.60060263  -0.00439114  1
  Hf  Hf29  1  0.20560308  -0.00153872  -0.00318405  1
  Hf  Hf30  1  0.19871229  0.80222727  0.59614728  1
  Hf  Hf31  1  0.00277110  0.79271381  0.21229155  1
  Hf  Hf32  1  0.90057132  0.29835456  0.90850038  1
  Hf  Hf33  1  0.40816921  0.00611991  0.59274719  1
  Hf  Hf34  1  0.30421433  0.30621725  0.29966509  1
  Hf  Hf35  1  0.09980348  0.89892147  0.10062342  1
  Hf  Hf36  1  0.69935029  0.28562447  0.10518518  1
  Hf  Hf37  1  0.59867142  0.60196521  -0.00005416  1
  Hf  Hf38  1  0.20284699  0.40267023  0.00235259  1
  Hf  Hf39  1  0.19680862  0.20244096  0.20377974  1
  Hf  Hf40  1  -0.00929342  0.60358175  0.39088582  1
  Hf  Hf41  1  0.10977298  0.10819110  0.69794095  1
  Hf  Hf42  1  0.10989152  0.10944729  0.90074287  1
  Hf  Hf43  1  0.50148216  0.30865691  0.49547904  1
  Hf  Hf44  1  0.69348008  0.29794100  0.30212958  1
  Hf  Hf45  1  0.59720333  0.79928746  0.40347391  1
  Hf  Hf46  1  0.70578782  0.49930872  0.89293499  1
  Hf  Hf47  1  0.20962886  0.80086137  0.80057992  1
  Hf  Hf48  1  0.79052600  0.40054449  0.39712759  1
  Hf  Hf49  1  0.69717364  0.69333037  0.68863963  1
  Zr  Zr50  1  0.00464371  0.59642384  0.00202630  1
  Zr  Zr51  1  0.39999968  -0.00121081  0.21113836  1
  Zr  Zr52  1  0.21107315  0.79669099  -0.00667954  1
  Zr  Zr53  1  0.00648197  0.21259450  0.80009752  1
  Zr  Zr54  1  0.58995736  0.19601501  0.59797146  1
  Zr  Zr55  1  0.80725904  0.19217923  0.21494726  1
  Zr  Zr56  1  0.20118449  0.21858813  0.41088197  1
  Zr  Zr57  1  0.29738625  0.28668128  0.89806142  1
  Zr  Zr58  1  0.49864264  0.69415526  0.50568798  1
  Zr  Zr59  1  0.89366188  0.48441981  0.27971789  1
  Zr  Zr60  1  0.69715610  0.90089224  0.69448114  1
  Zr  Zr61  1  0.01155386  0.79930510  0.59422676  1
  Zr  Zr62  1  0.29879744  0.49636873  0.69777316  1
  Zr  Zr63  1  0.88536373  0.50350773  0.69894320  1
  Zr  Zr64  1  -0.00286852  0.00712903  0.20466634  1
  Zr  Zr65  1  0.79751016  0.00265062  0.80778030  1
  Zr  Zr66  1  -0.00476582  0.01235519  0.80284952  1
  Zr  Zr67  1  0.89882326  0.29776953  0.50079930  1
  Zr  Zr68  1  0.69547208  0.50765974  0.69821854  1
  Zr  Zr69  1  0.50263826  0.28813236  0.89808906  1
  Zr  Zr70  1  0.39780290  0.19588007  0.59720893  1
  Zr  Zr71  1  0.89346852  0.69743342  0.50527835  1
  Zr  Zr72  1  0.00410570  0.59846159  0.79745014  1
  Zr  Zr73  1  0.10601925  0.50021553  0.89604586  1
  Zr  Zr74  1  0.89904514  0.70430296  0.09096353  1
  Zr  Zr75  1  0.10035616  0.10195852  0.30768498  1
  Zr  Zr76  1  0.11062837  0.49415396  0.49219104  1
  Zr  Zr77  1  0.90218473  0.30722164  0.11092196  1
  Zr  Zr78  1  0.20645296  0.40991137  0.19532309  1
  Zr  Zr79  1  0.60188045  0.80450719  -0.00827813  1
  Zr  Zr80  1  0.89785619  0.90051846  0.09667016  1
  Zr  Zr81  1  0.39774554  0.60030946  0.39286627  1
  Zr  Zr82  1  0.89549455  0.10291372  0.10055745  1
  Zr  Zr83  1  0.00658471  0.39723946  0.60620763  1
  Zr  Zr84  1  0.88797575  0.69886642  0.70154322  1
  Zr  Zr85  1  0.70918455  0.69414431  0.89529874  1
  Zr  Zr86  1  0.40181185  0.19433710  0.40262729  1
  Zr  Zr87  1  0.39981310  0.60162243  0.80570929  1
  Zr  Zr88  1  0.90307620  0.10654740  0.68506930  1
  Zr  Zr89  1  0.39724676  0.60084381  -0.00390803  1
  Zr  Zr90  1  0.50074024  0.70265212  0.29001807  1
  Zr  Zr91  1  0.29842578  0.10011483  0.10372822  1
  Zr  Zr92  1  0.00555942  0.59705398  0.59961117  1
  Zr  Zr93  1  0.29620253  0.29474761  0.70159885  1
  Zr  Zr94  1  0.68624897  0.09337538  0.29371139  1
  Zr  Zr95  1  0.19916686  0.60721891  0.60640161  1
  Zr  Zr96  1  0.10423037  0.50396291  0.30227273  1
  Zr  Zr97  1  0.50028379  0.50151255  0.10280158  1
  Zr  Zr98  1  0.79571628  0.38533742  0.79686541  1
  Zr  Zr99  1  0.69496428  0.90772009  0.29562226  1
  Ta  Ta100  1  0.59150564  0.19415857  0.39764004  1
  Ta  Ta101  1  0.89723417  0.49698766  0.90056722  1
  Ta  Ta102  1  0.69731789  0.90891622  0.49393813  1
  Ta  Ta103  1  0.79358443  0.80302396  0.80273210  1
  Ta  Ta104  1  0.00548748  0.39988310  -0.00034698  1
  Ta  Ta105  1  0.39282201  0.40596478  -0.00075796  1
  Ta  Ta106  1  0.79676310  0.00482010  0.58989413  1
  Ta  Ta107  1  0.79897626  0.79994816  0.20241041  1
  Ta  Ta108  1  0.59141676  -0.00098533  0.59108835  1
  Ta  Ta109  1  0.00529787  -0.00365599  0.59325942  1
  Ta  Ta110  1  0.50806252  0.09647296  0.10330071  1
  Ta  Ta111  1  0.39117540  0.59787155  0.20125352  1
  Ta  Ta112  1  0.30458696  0.10223592  0.89425720  1
  Ta  Ta113  1  0.60566299  0.59439123  0.39928068  1
  Ta  Ta114  1  -0.00233853  0.01020372  -0.00265801  1
  Ta  Ta115  1  0.80001422  0.19543662  0.40108947  1
  Ta  Ta116  1  0.49428165  0.70726765  0.10092857  1
  Ta  Ta117  1  0.59894680  0.80194492  0.80171934  1
  Ta  Ta118  1  0.59923940  0.39522049  0.60417906  1
  Ta  Ta119  1  0.50311858  0.90172703  0.70197602  1
  Ta  Ta120  1  0.69225107  0.09136518  0.10323317  1
  Ta  Ta121  1  0.30426338  0.69887385  0.50011779  1
  Ta  Ta122  1  0.11372211  0.49232062  0.70491375  1
  Ta  Ta123  1  -0.00121466  0.60421701  0.20296456  1
  Ta  Ta124  1  0.09604355  0.90033697  0.70833080  1
  Ta  Ta125  1  0.30141808  0.90261798  0.49276855  1
  Ta  Ta126  1  0.21232237  0.61195454  0.80829157  1
  Ta  Ta127  1  0.69996379  0.69395919  0.29260226  1
  Ta  Ta128  1  0.69284409  0.09673427  0.49288182  1
  Ta  Ta129  1  0.40258896  -0.00008904  -0.00488629  1
  Ta  Ta130  1  0.10408115  0.90319617  0.30650631  1
  Ta  Ta131  1  0.20724328  -0.00181667  0.80112861  1
  Ta  Ta132  1  0.49021970  0.89370637  0.89695567  1
  Ta  Ta133  1  0.09852212  0.10350347  0.10032335  1
  Ta  Ta134  1  0.29296178  0.09152914  0.31211231  1
  Ta  Ta135  1  0.79965419  0.39671545  0.00147840  1
  Ta  Ta136  1  0.70003904  0.91045923  0.10177459  1
  Ta  Ta137  1  0.50223041  0.50275210  0.69157472  1
  Ta  Ta138  1  0.39524331  0.80626795  0.39277785  1
  Ta  Ta139  1  0.00491343  0.39593713  0.80060923  1
  Ta  Ta140  1  0.59733196  -0.00509104  0.81289086  1
  Ta  Ta141  1  0.40506736  0.18827377  0.00002541  1
  Ta  Ta142  1  0.00086723  -0.00243700  0.40623506  1
  Ta  Ta143  1  0.29877368  0.50232248  0.50158525  1
  Ta  Ta144  1  0.79148429  0.00483973  -0.00716983  1
  Ta  Ta145  1  0.31356397  0.70403855  0.69306269  1
  Ta  Ta146  1  0.90249677  0.70545932  0.89860450  1
  Ta  Ta147  1  0.10718918  0.69355138  0.48412271  1
  Ta  Ta148  1  0.29304983  0.09238360  0.49525768  1
  Ta  Ta149  1  0.80414823  0.01061940  0.39964031  1
  Ti  Ti150  1  0.59394060  0.60808317  0.80121611  1
  Ti  Ti151  1  0.68854180  0.30030010  0.49331266  1
  Ti  Ti152  1  0.40604922  0.18799199  0.20996133  1
  Ti  Ti153  1  0.68919841  0.49817683  0.50330989  1
  Ti  Ti154  1  0.89877354  0.29865339  0.69526029  1
  Ti  Ti155  1  -0.01051745  0.40075545  0.40713911  1
  Ti  Ti156  1  0.09181186  0.70854607  0.89926033  1
  Ti  Ti157  1  0.19965822  0.21395502  0.59411999  1
  Ti  Ti158  1  0.90079571  0.49556853  0.10119017  1
  Ti  Ti159  1  0.31084660  0.70703831  0.10789359  1
  Ti  Ti160  1  0.00462664  0.20093390  0.00118430  1
  Ti  Ti161  1  0.60422597  0.80171635  0.19811756  1
  Ti  Ti162  1  0.01174238  0.21090477  0.59443444  1
  Ti  Ti163  1  0.49946903  0.29304196  0.70623008  1
  Ti  Ti164  1  0.78693491  0.80095565  0.59123305  1
  Ti  Ti165  1  0.00476552  0.79642732  0.39592053  1
  Ti  Ti166  1  0.20975991  0.60645584  0.20957155  1
  Ti  Ti167  1  0.40006762  -0.00039780  0.80572333  1
  Ti  Ti168  1  0.49894621  0.09801934  0.71473536  1
  Ti  Ti169  1  0.50258543  0.50101954  0.50708177  1
  Ti  Ti170  1  0.39985013  0.39949773  0.59922736  1
  Ti  Ti171  1  0.40175541  -0.00539510  0.39933679  1
  Ti  Ti172  1  -0.00346267  0.20264595  0.21297365  1
  Ti  Ti173  1  0.19221450  0.38577319  0.80396885  1
  Ti  Ti174  1  0.20022301  -0.00286433  0.20669400  1
  Ti  Ti175  1  0.50193080  0.09607656  0.90050407  1
  Ti  Ti176  1  0.60217912  0.18660562  -0.00336187  1
  Ti  Ti177  1  0.59930480  0.80763678  0.59032332  1
  Ti  Ti178  1  0.09303483  0.30045590  0.10381681  1
  Ti  Ti179  1  0.33099539  0.72866712  0.89598401  1
  Ti  Ti180  1  0.39849034  0.41508076  0.20215854  1
  Ti  Ti181  1  0.60381022  0.38698086  0.78962239  1
  Ti  Ti182  1  0.69292603  0.28965849  0.89887432  1
  Ti  Ti183  1  0.10015995  0.50499247  0.10612838  1
  Ti  Ti184  1  0.20762756  0.79681390  0.21365548  1
  Ti  Ti185  1  0.90447085  0.10462212  0.49737692  1
  Ti  Ti186  1  0.60156186  0.59709653  0.20377542  1
  Ti  Ti187  1  0.80733924  0.59369871  -0.00148567  1
  Ti  Ti188  1  0.58132416  0.00048155  0.40286752  1
  Ti  Ti189  1  0.88715715  0.49916105  0.50940200  1
  Ti  Ti190  1  0.78387393  0.39281795  0.60098965  1
  Ti  Ti191  1  0.79073042  0.80923099  -0.00396452  1
  Ti  Ti192  1  0.49982684  0.89677248  0.29518406  1
  Ti  Ti193  1  0.79408565  0.19142009  -0.00567594  1
  Ti  Ti194  1  0.29903140  0.10416366  0.70631172  1
  Ti  Ti195  1  0.50182038  0.29906564  0.29824671  1
  Ti  Ti196  1  0.10079892  0.70511892  0.71084354  1
  Ti  Ti197  1  0.19756646  0.20508164  0.00522049  1
  Ti  Ti198  1  0.50621876  0.50082416  0.30399487  1
  Ti  Ti199  1  0.40554665  0.80987942  0.58844259  1
  Mo  Mo200  1  0.78568217  0.59709901  0.58043484  1
  Mo  Mo201  1  0.40886107  0.80426470  0.79034952  1
  Mo  Mo202  1  0.59540728  0.59148680  0.59267882  1
  Mo  Mo203  1  0.40675919  0.80303639  0.00419497  1
  Mo  Mo204  1  0.40340477  0.18728308  0.80001631  1
  Mo  Mo205  1  0.09891216  0.30416524  0.50091090  1
  Mo  Mo206  1  0.49729561  0.89816922  0.49775764  1
  Mo  Mo207  1  0.59629120  0.19241950  0.80215894  1
  Mo  Mo208  1  0.19983533  -0.00675501  0.40258007  1
  Mo  Mo209  1  0.30089049  0.31531015  0.50501977  1
  Mo  Mo210  1  0.69580543  0.50235564  0.29989900  1
  Mo  Mo211  1  0.59362729  -0.00285294  0.19701135  1
  Mo  Mo212  1  0.20285322  0.19487502  0.79707933  1
  Mo  Mo213  1  -0.00138946  0.79487175  0.79866646  1
  Mo  Mo214  1  0.79724159  0.38932925  0.19866904  1
  Mo  Mo215  1  0.00644232  0.79878912  -0.00159039  1
  Mo  Mo216  1  0.09739295  0.89669445  0.49440952  1
  Mo  Mo217  1  0.49751634  0.09448592  0.49098642  1
  Mo  Mo218  1  0.29994283  0.70210255  0.29694920  1
  Mo  Mo219  1  0.29912673  0.50491459  0.30234771  1
  Mo  Mo220  1  0.69839331  0.90183102  0.90091523  1
  Mo  Mo221  1  0.80937200  0.61097231  0.20120663  1
  Mo  Mo222  1  0.30239780  0.50454539  0.10416574  1
  Mo  Mo223  1  0.20209340  0.39388171  0.59460078  1
  Mo  Mo224  1  0.59720742  0.00270567  -0.00298385  1
  Mo  Mo225  1  0.21032569  0.40571543  0.40291592  1
  Mo  Mo226  1  0.29783690  0.89983881  0.30263362  1
  Mo  Mo227  1  0.58794432  0.19641974  0.20492896  1
  Mo  Mo228  1  0.59533921  0.40386867  0.40296503  1
  Mo  Mo229  1  0.80586316  0.60550275  0.80829725  1
  Mo  Mo230  1  0.90290865  0.10105645  0.31328562  1
  Mo  Mo231  1  0.49486572  0.09584558  0.30003950  1
  Mo  Mo232  1  0.10590619  0.30385563  0.69815277  1
  Mo  Mo233  1  0.10172987  0.69937034  0.29870083  1
  Mo  Mo234  1  0.29713651  0.48890772  0.89533339  1
  Mo  Mo235  1  0.31060794  0.90794836  0.89606965  1
  Mo  Mo236  1  0.00756349  0.40556812  0.18741696  1
  Mo  Mo237  1  0.89842990  0.10691458  0.91377022  1
  Mo  Mo238  1  0.68926002  0.29592368  0.69874775  1
  Mo  Mo239  1  0.79513120  -0.00250586  0.19722747  1
  Mo  Mo240  1  0.39947497  0.79685181  0.20344409  1
  Mo  Mo241  1  -0.00681461  0.20218290  0.40219469  1
  Mo  Mo242  1  0.89568199  0.70124152  0.29607249  1
  Mo  Mo243  1  0.69363651  0.69940353  0.49759016  1
  Mo  Mo244  1  0.20885431  0.60538277  0.39736673  1
  Mo  Mo245  1  0.39868525  0.59463204  0.59747522  1
  Mo  Mo246  1  0.69173900  0.09944108  0.90604695  1
  Mo  Mo247  1  0.50483241  0.70535440  0.89677198  1
  Mo  Mo248  1  0.90391822  0.29788892  0.30762767  1
  Mo  Mo249  1  0.09771152  0.30094166  0.90887585  1
