# generated using pymatgen
data_HfZrTaTiMo
_symmetry_space_group_name_H-M   'P 1'
_cell_length_a   16.88735179
_cell_length_b   16.88990182
_cell_length_c   16.88890975
_cell_angle_alpha   89.99102076
_cell_angle_beta   90.03966545
_cell_angle_gamma   90.04711066
_symmetry_Int_Tables_number   1
_chemical_formula_structural   HfZrTaTiMo
_chemical_formula_sum   'Hf50 Zr50 Ta50 Ti50 Mo50'
_cell_volume   4817.14849823
_cell_formula_units_Z   50
loop_
 _symmetry_equiv_pos_site_id
 _symmetry_equiv_pos_as_xyz
  1  'x, y, z'
loop_
 _atom_site_type_symbol
 _atom_site_label
 _atom_site_symmetry_multiplicity
 _atom_site_fract_x
 _atom_site_fract_y
 _atom_site_fract_z
 _atom_site_occupancy
  Hf  Hf0  1  0.50397906  0.49403712  0.30158720  1
  Hf  Hf1  1  0.79343563  0.19161258  0.00136850  1
  Hf  Hf2  1  0.69264802  0.10566412  0.30044448  1
  Hf  Hf3  1  0.30919277  0.30595165  0.91522465  1
  Hf  Hf4  1  0.59674917  0.40515713  0.79845317  1
  Hf  Hf5  1  0.70202528  0.68910530  0.09741116  1
  Hf  Hf6  1  0.00366693  0.59504457  0.78144500  1
  Hf  Hf7  1  0.89879312  0.30341275  0.89307271  1
  Hf  Hf8  1  0.69882144  0.90019407  0.10006591  1
  Hf  Hf9  1  0.60618533  0.79825427  0.60108611  1
  Hf  Hf10  1  0.60969106  0.01307745  0.80222123  1
  Hf  Hf11  1  0.70745246  0.50645338  0.50414099  1
  Hf  Hf12  1  0.90635441  0.70037404  0.10989863  1
  Hf  Hf13  1  0.40347526  0.00661269  0.80473555  1
  Hf  Hf14  1  0.19562093  0.20040997  0.80400589  1
  Hf  Hf15  1  0.19523092  0.59435260  -0.00354864  1
  Hf  Hf16  1  0.60746227  0.79825373  0.40552472  1
  Hf  Hf17  1  0.29897404  0.29281393  0.50416164  1
  Hf  Hf18  1  0.79496130  0.20438495  0.40723549  1
  Hf  Hf19  1  0.40521720  0.39430065  0.60912844  1
  Hf  Hf20  1  0.59867146  0.79952123  0.20206464  1
  Hf  Hf21  1  0.38595576  0.59556186  0.80694937  1
  Hf  Hf22  1  0.49231552  0.89945445  0.49990810  1
  Hf  Hf23  1  0.00713826  0.00411540  0.79158706  1
  Hf  Hf24  1  0.50163631  0.90148103  0.90397761  1
  Hf  Hf25  1  0.30130520  0.69635070  0.09156241  1
  Hf  Hf26  1  0.19572712  0.60399317  0.19694162  1
  Hf  Hf27  1  0.29406428  0.90682518  0.09879771  1
  Hf  Hf28  1  0.60063297  0.39550734  0.60717310  1
  Hf  Hf29  1  0.90052713  0.69785028  0.89000453  1
  Hf  Hf30  1  0.90592898  0.10514441  0.30310594  1
  Hf  Hf31  1  0.40222850  0.40244748  0.80145779  1
  Hf  Hf32  1  0.68968658  0.30022319  0.90429150  1
  Hf  Hf33  1  0.09889083  0.90171075  0.49970089  1
  Hf  Hf34  1  0.90068488  0.29570741  0.29002198  1
  Hf  Hf35  1  0.00616375  0.19725544  -0.00285895  1
  Hf  Hf36  1  0.90452307  0.89330718  0.10171478  1
  Hf  Hf37  1  0.60178115  0.60855563  0.60385545  1
  Hf  Hf38  1  0.20166006  0.19580434  0.39359436  1
  Hf  Hf39  1  0.10170100  0.49196394  0.50347190  1
  Hf  Hf40  1  0.28915773  0.70407937  0.70612654  1
  Hf  Hf41  1  0.79832348  0.00893780  0.00178511  1
  Hf  Hf42  1  0.49343490  0.89470924  0.70081916  1
  Hf  Hf43  1  0.49373582  0.68835205  0.09409653  1
  Hf  Hf44  1  0.40807591  0.19864176  0.60146021  1
  Hf  Hf45  1  0.20608126  0.19503771  0.20364754  1
  Hf  Hf46  1  0.80322758  0.00210699  0.60062447  1
  Hf  Hf47  1  -0.00373752  0.60495900  0.40159965  1
  Hf  Hf48  1  0.79215816  0.38514635  0.60296344  1
  Hf  Hf49  1  0.09480587  0.71667855  0.50648085  1
  Zr  Zr50  1  0.70960433  0.68536073  0.89525680  1
  Zr  Zr51  1  0.19941435  0.61507990  0.39480378  1
  Zr  Zr52  1  0.59882597  0.78748823  -0.00216190  1
  Zr  Zr53  1  0.49826817  0.90389371  0.09494933  1
  Zr  Zr54  1  0.29039758  0.48561348  0.50358369  1
  Zr  Zr55  1  0.78011893  0.19679777  0.78869488  1
  Zr  Zr56  1  0.90624824  0.89137825  0.50239414  1
  Zr  Zr57  1  0.60014665  0.00065632  0.40274696  1
  Zr  Zr58  1  0.70968077  0.70069156  0.30236883  1
  Zr  Zr59  1  0.19327735  0.00506835  0.80190310  1
  Zr  Zr60  1  0.10419499  0.69430766  0.88386738  1
  Zr  Zr61  1  0.00084179  0.40938298  0.00461426  1
  Zr  Zr62  1  0.10592145  0.30121906  0.50496598  1
  Zr  Zr63  1  0.30288510  0.10563077  0.69889638  1
  Zr  Zr64  1  0.19805918  0.20251715  0.00300239  1
  Zr  Zr65  1  0.79926786  0.00373920  0.19972719  1
  Zr  Zr66  1  0.00746209  0.59469937  0.00829592  1
  Zr  Zr67  1  0.29836303  0.90140296  0.69332992  1
  Zr  Zr68  1  0.70235474  0.89516563  0.90318310  1
  Zr  Zr69  1  0.00313988  0.00632766  -0.00640189  1
  Zr  Zr70  1  0.39239111  0.79649100  0.20447309  1
  Zr  Zr71  1  0.61359930  0.20187693  0.60973511  1
  Zr  Zr72  1  0.10033818  0.49361880  0.30139878  1
  Zr  Zr73  1  0.38476535  0.60864852  0.40136349  1
  Zr  Zr74  1  0.20201794  0.00453699  0.39113561  1
  Zr  Zr75  1  0.19416656  0.00866370  -0.00847060  1
  Zr  Zr76  1  0.68795195  0.29900339  0.10170484  1
  Zr  Zr77  1  0.59820560  0.79042227  0.79809135  1
  Zr  Zr78  1  0.90303931  0.88971962  0.89114748  1
  Zr  Zr79  1  0.89845656  0.49764706  0.29620076  1
  Zr  Zr80  1  0.00129822  0.19599526  0.60198911  1
  Zr  Zr81  1  0.10191165  0.89749348  0.10439746  1
  Zr  Zr82  1  -0.01471538  0.40329464  0.59962526  1
  Zr  Zr83  1  0.80420418  0.39909267  0.40860115  1
  Zr  Zr84  1  0.50089943  0.50050124  0.49998473  1
  Zr  Zr85  1  0.89690062  0.29818266  0.10612372  1
  Zr  Zr86  1  0.40051585  0.00929274  0.20694168  1
  Zr  Zr87  1  0.49290329  0.70171841  0.50291725  1
  Zr  Zr88  1  0.30299218  0.48488591  0.09495985  1
  Zr  Zr89  1  0.40501117  0.38818561  0.39782795  1
  Zr  Zr90  1  0.00070909  -0.00374323  0.20741670  1
  Zr  Zr91  1  0.80122395  0.00391636  0.79908118  1
  Zr  Zr92  1  0.69349782  0.30409141  0.29254810  1
  Zr  Zr93  1  0.70001182  0.50316114  0.90300974  1
  Zr  Zr94  1  0.49788807  0.69754944  0.30399290  1
  Zr  Zr95  1  0.30066465  0.48770047  0.29397727  1
  Zr  Zr96  1  0.60248182  0.00136067  0.60446572  1
  Zr  Zr97  1  0.19717705  0.60631243  0.60119095  1
  Zr  Zr98  1  0.89868621  0.71692539  0.69269082  1
  Zr  Zr99  1  0.89757336  0.50037038  0.88786169  1
  Ta  Ta100  1  0.90049984  0.10819870  0.89210641  1
  Ta  Ta101  1  0.39976658  0.59088288  0.19740353  1
  Ta  Ta102  1  0.70443579  0.10423096  0.49990953  1
  Ta  Ta103  1  0.50850960  0.28935960  0.49115743  1
  Ta  Ta104  1  0.19325379  0.79380011  0.20259463  1
  Ta  Ta105  1  0.59732519  0.00383653  0.19940574  1
  Ta  Ta106  1  0.40426120  0.20222824  0.19904664  1
  Ta  Ta107  1  0.38959589  0.60294876  0.60193738  1
  Ta  Ta108  1  0.80264591  -0.00052941  0.40136264  1
  Ta  Ta109  1  0.10016326  0.30789056  0.70389007  1
  Ta  Ta110  1  0.80619087  0.79216731  0.00253151  1
  Ta  Ta111  1  0.00253222  0.40371957  0.19518249  1
  Ta  Ta112  1  0.80151883  0.59458842  0.20103617  1
  Ta  Ta113  1  0.20467079  0.39940340  0.80187926  1
  Ta  Ta114  1  0.38292682  0.80625009  0.39961107  1
  Ta  Ta115  1  0.09582779  0.09291105  0.49706441  1
  Ta  Ta116  1  0.10425998  0.49129317  0.69819392  1
  Ta  Ta117  1  -0.00384414  0.39305028  0.40143965  1
  Ta  Ta118  1  0.29211511  0.90452974  0.29519936  1
  Ta  Ta119  1  0.71571904  0.88853842  0.70102858  1
  Ta  Ta120  1  0.09669368  0.31111543  0.89583716  1
  Ta  Ta121  1  0.89906754  0.10482089  0.69623864  1
  Ta  Ta122  1  -0.00691860  0.60306351  0.59380915  1
  Ta  Ta123  1  0.00496320  0.19957650  0.79592645  1
  Ta  Ta124  1  0.40224168  0.00710872  0.59313507  1
  Ta  Ta125  1  -0.00332472  0.79465436  0.38708278  1
  Ta  Ta126  1  0.49499307  0.51213430  0.69972592  1
  Ta  Ta127  1  0.61236219  0.60078285  0.40102090  1
  Ta  Ta128  1  0.48505377  0.69981894  0.70358569  1
  Ta  Ta129  1  0.79482810  0.39900750  0.79023607  1
  Ta  Ta130  1  0.29819827  0.09963562  0.50133056  1
  Ta  Ta131  1  0.80976343  0.60629490  0.40351134  1
  Ta  Ta132  1  0.49797034  0.90209403  0.30562731  1
  Ta  Ta133  1  0.30707285  0.29880022  0.29033201  1
  Ta  Ta134  1  0.70066684  0.49755010  0.29774430  1
  Ta  Ta135  1  0.40303790  0.00910568  -0.00256466  1
  Ta  Ta136  1  0.79935575  0.40555294  0.00673712  1
  Ta  Ta137  1  0.60122439  0.59326289  0.20062999  1
  Ta  Ta138  1  0.31245707  0.11320535  0.90409981  1
  Ta  Ta139  1  0.50425977  0.10823933  0.09539491  1
  Ta  Ta140  1  0.00859754  0.79018581  0.00159380  1
  Ta  Ta141  1  0.48891147  0.68715806  0.90253436  1
  Ta  Ta142  1  0.19816084  0.79504881  -0.00457304  1
  Ta  Ta143  1  0.10190827  0.30332632  0.10113960  1
  Ta  Ta144  1  0.50195413  0.29557836  0.90880100  1
  Ta  Ta145  1  0.71522442  0.69729492  0.70123129  1
  Ta  Ta146  1  0.39531624  0.00341288  0.40070597  1
  Ta  Ta147  1  0.19833020  0.80888238  0.80216537  1
  Ta  Ta148  1  0.70507125  0.89995246  0.30280749  1
  Ta  Ta149  1  0.30617243  0.10279667  0.09921015  1
  Ti  Ti150  1  0.60746066  0.39464157  0.40764387  1
  Ti  Ti151  1  0.19421332  0.19466244  0.60564971  1
  Ti  Ti152  1  0.00489649  0.20172838  0.40134954  1
  Ti  Ti153  1  0.50496073  0.11522682  0.90600431  1
  Ti  Ti154  1  0.91097722  0.10602578  0.10703843  1
  Ti  Ti155  1  0.10250865  0.49236823  0.88600203  1
  Ti  Ti156  1  0.59420883  0.60078207  0.79628210  1
  Ti  Ti157  1  0.00713820  0.60320781  0.20074652  1
  Ti  Ti158  1  0.58975734  0.40416774  0.19085163  1
  Ti  Ti159  1  0.71220665  0.89691615  0.49775465  1
  Ti  Ti160  1  0.42729362  0.41796254  -0.00109155  1
  Ti  Ti161  1  0.29795028  0.29661934  0.70485900  1
  Ti  Ti162  1  0.70631792  0.51167765  0.70109254  1
  Ti  Ti163  1  0.90636661  0.09553634  0.49570059  1
  Ti  Ti164  1  0.10191161  0.10017933  0.11290432  1
  Ti  Ti165  1  0.09354793  0.29553993  0.29160899  1
  Ti  Ti166  1  0.09383228  0.89077460  0.89648927  1
  Ti  Ti167  1  0.09298941  0.09820620  0.29981957  1
  Ti  Ti168  1  0.88953100  0.50514846  0.69263275  1
  Ti  Ti169  1  0.69898921  0.49497987  0.10327191  1
  Ti  Ti170  1  0.20170819  0.79818089  0.39222439  1
  Ti  Ti171  1  0.58341284  0.57674199  0.00287756  1
  Ti  Ti172  1  0.39187819  0.79755468  -0.00980834  1
  Ti  Ti173  1  0.09852740  0.71385876  0.69703906  1
  Ti  Ti174  1  0.89735953  0.89464285  0.30466175  1
  Ti  Ti175  1  0.29111741  0.49804199  0.69979684  1
  Ti  Ti176  1  0.30943133  0.30507085  0.09953607  1
  Ti  Ti177  1  0.50218555  0.10689113  0.70967785  1
  Ti  Ti178  1  0.39857720  0.19273271  0.39368657  1
  Ti  Ti179  1  0.90022262  0.29030149  0.50317505  1
  Ti  Ti180  1  0.50631033  0.29328191  0.29723266  1
  Ti  Ti181  1  0.50318517  0.10568100  0.49369851  1
  Ti  Ti182  1  0.29856018  0.90366851  0.90339028  1
  Ti  Ti183  1  0.19550500  0.39413607  0.19413790  1
  Ti  Ti184  1  0.50480870  0.10727316  0.30176219  1
  Ti  Ti185  1  0.72293668  0.70481124  0.50722950  1
  Ti  Ti186  1  0.09946235  0.89865178  0.30029261  1
  Ti  Ti187  1  0.50262286  0.28691975  0.71780125  1
  Ti  Ti188  1  0.81255045  0.58963354  0.01203830  1
  Ti  Ti189  1  0.00236845  -0.00168168  0.60818643  1
  Ti  Ti190  1  0.19306852  0.00504335  0.60359252  1
  Ti  Ti191  1  0.49939892  0.29879367  0.09412220  1
  Ti  Ti192  1  0.79008184  0.19028439  0.19180740  1
  Ti  Ti193  1  0.19721756  0.38589110  0.38985714  1
  Ti  Ti194  1  0.89862872  0.29512702  0.70500651  1
  Ti  Ti195  1  0.38756626  0.79675265  0.59384257  1
  Ti  Ti196  1  0.39097852  0.79707252  0.81134142  1
  Ti  Ti197  1  0.29250588  0.90277258  0.50144966  1
  Ti  Ti198  1  0.80471212  0.79722275  0.20521745  1
  Ti  Ti199  1  0.29561644  0.49491286  0.90698849  1
  Mo  Mo200  1  0.79771082  0.41061773  0.19202092  1
  Mo  Mo201  1  0.50186313  0.50293187  0.89450213  1
  Mo  Mo202  1  0.01176613  0.20216112  0.19911331  1
  Mo  Mo203  1  0.59751865  0.40220110  0.00345566  1
  Mo  Mo204  1  0.59688854  0.19984620  0.40194352  1
  Mo  Mo205  1  0.19892339  0.58794505  0.79852788  1
  Mo  Mo206  1  0.00808710  0.80685633  0.79457718  1
  Mo  Mo207  1  -0.00188396  0.39834315  0.79042543  1
  Mo  Mo208  1  0.69262130  0.10348151  0.91012293  1
  Mo  Mo209  1  0.40992117  0.38955016  0.19562969  1
  Mo  Mo210  1  0.90107541  0.70061176  0.29531275  1
  Mo  Mo211  1  0.69513398  0.29860389  0.50021877  1
  Mo  Mo212  1  0.19944878  0.00293897  0.20395475  1
  Mo  Mo213  1  -0.00097867  -0.00174035  0.39893102  1
  Mo  Mo214  1  0.09604245  0.11243140  0.89217772  1
  Mo  Mo215  1  0.50054196  0.49848454  0.10722386  1
  Mo  Mo216  1  0.10193758  0.49510849  0.10792487  1
  Mo  Mo217  1  0.80560224  0.19660100  0.59654829  1
  Mo  Mo218  1  0.90590398  0.90371947  0.69712025  1
  Mo  Mo219  1  0.09956104  0.89724594  0.69350016  1
  Mo  Mo220  1  0.80534749  0.60280622  0.59557096  1
  Mo  Mo221  1  0.10124040  0.70111582  0.10048388  1
  Mo  Mo222  1  0.90066619  0.70263813  0.49778555  1
  Mo  Mo223  1  0.80418040  0.59475715  0.78757254  1
  Mo  Mo224  1  0.39663859  0.59289948  -0.00379773  1
  Mo  Mo225  1  0.29180885  0.71875310  0.50401267  1
  Mo  Mo226  1  0.59630941  0.20042702  0.00240801  1
  Mo  Mo227  1  0.29531017  0.70779367  0.29481715  1
  Mo  Mo228  1  0.80257281  0.79988094  0.79982991  1
  Mo  Mo229  1  0.00351519  0.79712669  0.20848215  1
  Mo  Mo230  1  0.00164323  0.80607913  0.60396298  1
  Mo  Mo231  1  0.68394188  0.09876223  0.10192871  1
  Mo  Mo232  1  0.29694791  0.70708146  0.90008202  1
  Mo  Mo233  1  0.80554621  0.80256801  0.39900336  1
  Mo  Mo234  1  0.58806492  0.19895139  0.20036650  1
  Mo  Mo235  1  0.90053133  0.50415152  0.50169588  1
  Mo  Mo236  1  0.40335510  0.20493088  0.80539602  1
  Mo  Mo237  1  0.18949817  0.39961749  -0.00321107  1
  Mo  Mo238  1  0.09793975  0.10336936  0.69132271  1
  Mo  Mo239  1  0.59535138  0.19854198  0.80444974  1
  Mo  Mo240  1  0.20805768  0.39159134  0.61548717  1
  Mo  Mo241  1  0.80173144  0.80357388  0.59764989  1
  Mo  Mo242  1  0.70294948  0.09500447  0.69176023  1
  Mo  Mo243  1  0.59959557  0.01284109  0.00168727  1
  Mo  Mo244  1  0.19760083  0.81013865  0.60549423  1
  Mo  Mo245  1  0.09631776  0.70615707  0.29715537  1
  Mo  Mo246  1  0.40318774  0.20120536  0.00717118  1
  Mo  Mo247  1  0.69675547  0.30304945  0.70561784  1
  Mo  Mo248  1  0.89804918  0.50235648  0.10814433  1
  Mo  Mo249  1  0.31044761  0.10428302  0.29993917  1
