# generated using pymatgen
data_HfZrTaTiMo
_symmetry_space_group_name_H-M   'P 1'
_cell_length_a   16.88144561
_cell_length_b   16.87875917
_cell_length_c   16.87530700
_cell_angle_alpha   89.95698975
_cell_angle_beta   90.03755861
_cell_angle_gamma   89.96338433
_symmetry_Int_Tables_number   1
_chemical_formula_structural   HfZrTaTiMo
_chemical_formula_sum   'Hf50 Zr50 Ta50 Ti50 Mo50'
_cell_volume   4808.41040367
_cell_formula_units_Z   50
loop_
 _symmetry_equiv_pos_site_id
 _symmetry_equiv_pos_as_xyz
  1  'x, y, z'
loop_
 _atom_site_type_symbol
 _atom_site_label
 _atom_site_symmetry_multiplicity
 _atom_site_fract_x
 _atom_site_fract_y
 _atom_site_fract_z
 _atom_site_occupancy
  Hf  Hf0  1  0.80794581  0.40864385  0.39055203  1
  Hf  Hf1  1  0.69183610  0.69737443  0.49023984  1
  Hf  Hf2  1  0.19743355  0.59030112  0.00340907  1
  Hf  Hf3  1  0.69550397  0.10081293  0.89731660  1
  Hf  Hf4  1  0.50331941  0.50746463  0.10527955  1
  Hf  Hf5  1  0.59703549  0.00137764  0.60524370  1
  Hf  Hf6  1  0.40195642  0.79534180  0.80056816  1
  Hf  Hf7  1  0.80540313  -0.00660528  0.79834072  1
  Hf  Hf8  1  0.90254042  0.29558870  0.29519214  1
  Hf  Hf9  1  0.49819592  0.48622643  0.69512160  1
  Hf  Hf10  1  0.39866997  0.40160632  -0.00002834  1
  Hf  Hf11  1  0.09770000  0.89016068  0.90109799  1
  Hf  Hf12  1  0.07323391  0.69701709  0.69053553  1
  Hf  Hf13  1  0.20014472  0.20318434  0.80251008  1
  Hf  Hf14  1  0.70241225  0.50997992  0.09884011  1
  Hf  Hf15  1  0.40753378  -0.00556509  -0.00078347  1
  Hf  Hf16  1  -0.00022860  -0.00408942  0.80916500  1
  Hf  Hf17  1  0.49124681  0.10399050  0.71041613  1
  Hf  Hf18  1  0.39910122  0.20378041  0.19405887  1
  Hf  Hf19  1  0.80124942  0.40008818  -0.00320319  1
  Hf  Hf20  1  0.30071523  0.90222319  0.49123671  1
  Hf  Hf21  1  0.31036823  0.68814938  0.90835753  1
  Hf  Hf22  1  0.91242752  0.88415270  0.69863186  1
  Hf  Hf23  1  0.11009818  0.11386583  0.49680569  1
  Hf  Hf24  1  0.90301562  0.69382485  0.29600434  1
  Hf  Hf25  1  0.49783673  0.50613322  0.90341566  1
  Hf  Hf26  1  -0.00126887  0.00541406  0.59236217  1
  Hf  Hf27  1  0.80752522  0.79425899  0.40120404  1
  Hf  Hf28  1  0.40415652  -0.00517567  0.20235101  1
  Hf  Hf29  1  0.49798360  0.69211724  0.10358081  1
  Hf  Hf30  1  0.10557112  0.70590612  0.29096339  1
  Hf  Hf31  1  0.80765577  0.00456689  0.39432798  1
  Hf  Hf32  1  0.29700248  0.30336231  0.90002971  1
  Hf  Hf33  1  0.51005354  0.30169679  0.30687663  1
  Hf  Hf34  1  0.18600431  0.79347797  0.58683699  1
  Hf  Hf35  1  0.19016211  0.77710337  0.00785445  1
  Hf  Hf36  1  0.59058478  -0.00405000  -0.00218317  1
  Hf  Hf37  1  0.10681920  0.30748133  0.69477592  1
  Hf  Hf38  1  0.00173488  0.58974033  0.39900936  1
  Hf  Hf39  1  0.29482131  0.89072586  0.90157195  1
  Hf  Hf40  1  0.40115045  0.40306363  0.40359496  1
  Hf  Hf41  1  0.59675722  0.20683159  -0.00345837  1
  Hf  Hf42  1  0.90573877  0.49536416  0.09337443  1
  Hf  Hf43  1  0.40295987  0.79101779  0.60078938  1
  Hf  Hf44  1  0.09628725  0.89470046  0.10790520  1
  Hf  Hf45  1  0.41165849  0.60920933  0.40486996  1
  Hf  Hf46  1  0.80195627  0.79594289  0.60432311  1
  Hf  Hf47  1  0.90286124  0.30387599  0.70513472  1
  Hf  Hf48  1  0.18689388  0.40331380  0.39804516  1
  Hf  Hf49  1  0.10482286  0.92154267  0.48000964  1
  Zr  Zr50  1  0.30776002  0.10397695  0.89796663  1
  Zr  Zr51  1  0.90072432  0.90002681  0.10337334  1
  Zr  Zr52  1  0.70348516  0.10627614  0.49658746  1
  Zr  Zr53  1  0.91063433  0.11587813  0.90204450  1
  Zr  Zr54  1  0.92156194  0.69730186  0.51816577  1
  Zr  Zr55  1  0.40511900  0.39872266  0.19807536  1
  Zr  Zr56  1  0.59590177  0.00058958  0.39836257  1
  Zr  Zr57  1  0.19752458  0.00357051  0.00047721  1
  Zr  Zr58  1  0.19309378  0.59954378  0.80360189  1
  Zr  Zr59  1  0.29929036  0.70725714  0.49084454  1
  Zr  Zr60  1  0.90209027  0.10659284  0.69915813  1
  Zr  Zr61  1  0.29912803  0.88482817  0.10663911  1
  Zr  Zr62  1  0.28866630  0.29984287  0.30262689  1
  Zr  Zr63  1  0.59322888  0.20083113  0.60326498  1
  Zr  Zr64  1  0.19490520  0.60638183  0.39939334  1
  Zr  Zr65  1  0.69895154  0.89231086  0.30323612  1
  Zr  Zr66  1  0.80581326  0.59643949  0.60447758  1
  Zr  Zr67  1  0.69857123  0.89510078  0.50442364  1
  Zr  Zr68  1  0.01039359  0.80141001  0.40124808  1
  Zr  Zr69  1  0.68992198  0.30967598  0.69959073  1
  Zr  Zr70  1  0.60385574  0.20596295  0.19207972  1
  Zr  Zr71  1  0.09781518  0.10928210  0.70047003  1
  Zr  Zr72  1  0.50343287  0.10831141  0.30314698  1
  Zr  Zr73  1  0.29709234  0.89612482  0.69877046  1
  Zr  Zr74  1  0.70582207  0.69267060  0.90575511  1
  Zr  Zr75  1  0.49855425  0.88965872  0.49804444  1
  Zr  Zr76  1  0.60015804  -0.00491237  0.19702244  1
  Zr  Zr77  1  0.29493660  0.50026215  0.51112168  1
  Zr  Zr78  1  0.80589272  0.00277754  0.00177539  1
  Zr  Zr79  1  0.78926241  0.20719703  0.80048941  1
  Zr  Zr80  1  0.69843158  0.30112679  0.49196991  1
  Zr  Zr81  1  0.81257077  0.59561199  0.79511699  1
  Zr  Zr82  1  0.79503775  0.79394027  0.19725860  1
  Zr  Zr83  1  0.60126091  0.60045213  0.79806006  1
  Zr  Zr84  1  0.08684404  0.10459485  0.10331211  1
  Zr  Zr85  1  0.30286965  0.51023891  0.29176380  1
  Zr  Zr86  1  0.59157692  0.60626807  0.59699084  1
  Zr  Zr87  1  0.28668740  0.29859517  0.50790264  1
  Zr  Zr88  1  0.70680711  0.30647084  0.10507712  1
  Zr  Zr89  1  0.69484281  0.49503273  0.50076489  1
  Zr  Zr90  1  0.69945146  0.89729171  0.89678913  1
  Zr  Zr91  1  0.69809966  0.48401492  0.70438162  1
  Zr  Zr92  1  0.28690547  0.30492695  0.09871486  1
  Zr  Zr93  1  0.09394451  0.09380288  0.30988360  1
  Zr  Zr94  1  0.89082205  0.68463786  0.09226854  1
  Zr  Zr95  1  0.30164140  0.10678655  0.69840382  1
  Zr  Zr96  1  0.90916666  0.30466614  0.90387302  1
  Zr  Zr97  1  0.09935983  0.89497559  0.69947186  1
  Zr  Zr98  1  0.20211357  -0.01083804  0.21458832  1
  Zr  Zr99  1  0.09021813  0.30765630  0.09790941  1
  Ta  Ta100  1  0.80082444  0.20120725  0.00789510  1
  Ta  Ta101  1  -0.00443073  0.79206120  -0.00224953  1
  Ta  Ta102  1  0.39965845  0.20229958  0.40648000  1
  Ta  Ta103  1  0.19548256  0.19507860  0.20132723  1
  Ta  Ta104  1  0.00022777  0.40882938  0.79954051  1
  Ta  Ta105  1  0.09534615  0.49186682  0.90640446  1
  Ta  Ta106  1  0.80170404  0.20298462  0.59857837  1
  Ta  Ta107  1  0.30310069  0.30759887  0.69667564  1
  Ta  Ta108  1  0.20542911  0.00487550  0.59864364  1
  Ta  Ta109  1  0.09911828  0.50075271  0.51409003  1
  Ta  Ta110  1  0.59869266  0.79880053  0.00366506  1
  Ta  Ta111  1  0.58609725  0.20731306  0.80863046  1
  Ta  Ta112  1  0.80515202  0.59449661  0.39697842  1
  Ta  Ta113  1  -0.00442830  -0.00184038  -0.00065486  1
  Ta  Ta114  1  0.70085520  0.89590948  0.09715897  1
  Ta  Ta115  1  0.40161157  0.00348210  0.59743904  1
  Ta  Ta116  1  0.50962417  0.50915749  0.29728717  1
  Ta  Ta117  1  0.49844265  0.10324522  0.09632479  1
  Ta  Ta118  1  0.29536934  0.49469041  0.69644100  1
  Ta  Ta119  1  0.29679458  0.10408320  0.30909554  1
  Ta  Ta120  1  0.40048757  -0.00169184  0.39490650  1
  Ta  Ta121  1  0.41282541  0.80111738  0.00257163  1
  Ta  Ta122  1  0.19635125  0.60530363  0.18679523  1
  Ta  Ta123  1  0.59606633  0.79863235  0.80235876  1
  Ta  Ta124  1  0.19981725  -0.00084716  0.80159412  1
  Ta  Ta125  1  0.29837252  0.10379125  0.49601724  1
  Ta  Ta126  1  0.90015763  0.10989958  0.49405409  1
  Ta  Ta127  1  0.19766016  0.20013080  0.00274024  1
  Ta  Ta128  1  0.40599558  -0.00754825  0.80665856  1
  Ta  Ta129  1  0.00770231  0.59375862  0.19452917  1
  Ta  Ta130  1  0.50181716  0.89973244  0.70251434  1
  Ta  Ta131  1  0.80775420  0.79455506  0.80102035  1
  Ta  Ta132  1  0.69288662  0.68814950  0.29945489  1
  Ta  Ta133  1  0.90155997  0.30065025  0.49801523  1
  Ta  Ta134  1  0.40813324  0.20498080  -0.00140887  1
  Ta  Ta135  1  0.09797055  0.30447645  0.90547956  1
  Ta  Ta136  1  0.40044674  0.20426621  0.59765527  1
  Ta  Ta137  1  0.39643860  0.40185442  0.80320273  1
  Ta  Ta138  1  -0.00184341  0.20489750  0.39864041  1
  Ta  Ta139  1  0.39854709  0.60103607  0.60272821  1
  Ta  Ta140  1  0.19239823  0.78555135  0.80194987  1
  Ta  Ta141  1  0.80272636  0.79581423  -0.00500076  1
  Ta  Ta142  1  0.69590234  0.89680008  0.70365993  1
  Ta  Ta143  1  0.59895662  0.79570404  0.19490627  1
  Ta  Ta144  1  0.91087498  0.90383097  0.29854223  1
  Ta  Ta145  1  0.80348176  0.40617258  0.20570231  1
  Ta  Ta146  1  0.80142860  0.00828718  0.20213360  1
  Ta  Ta147  1  0.70612453  0.11622216  0.30396545  1
  Ta  Ta148  1  0.49908284  0.69447535  0.90519241  1
  Ta  Ta149  1  0.10045611  0.50088077  0.69815016  1
  Ti  Ti150  1  0.28958773  0.69111450  0.69464430  1
  Ti  Ti151  1  0.70419798  0.29561320  0.30352364  1
  Ti  Ti152  1  0.80092335  0.00158607  0.60295344  1
  Ti  Ti153  1  0.19230255  0.41326700  0.19128719  1
  Ti  Ti154  1  0.50165769  0.49665143  0.50329083  1
  Ti  Ti155  1  0.59579944  0.79452917  0.60749122  1
  Ti  Ti156  1  0.09972592  0.50045323  0.29209096  1
  Ti  Ti157  1  0.69274127  0.50551405  0.30027035  1
  Ti  Ti158  1  0.49564622  0.10516263  0.49772268  1
  Ti  Ti159  1  0.58283301  0.78831300  0.39139476  1
  Ti  Ti160  1  0.81112571  0.19165150  0.19605040  1
  Ti  Ti161  1  0.00063592  0.79403990  0.19546071  1
  Ti  Ti162  1  0.90437358  0.90377290  0.49850454  1
  Ti  Ti163  1  -0.01204057  0.00998987  0.20445087  1
  Ti  Ti164  1  0.00956833  0.60038911  -0.00182539  1
  Ti  Ti165  1  0.00205189  0.40047414  0.39825399  1
  Ti  Ti166  1  0.60659660  0.60495519  0.00289703  1
  Ti  Ti167  1  0.90535291  0.50198049  0.90086460  1
  Ti  Ti168  1  0.20179804  0.40803129  0.80540846  1
  Ti  Ti169  1  0.09935137  0.30204744  0.50334969  1
  Ti  Ti170  1  0.69702895  0.09833171  0.70471287  1
  Ti  Ti171  1  0.49772894  0.69588000  0.70499680  1
  Ti  Ti172  1  0.59399501  0.39470917  0.00013407  1
  Ti  Ti173  1  0.30016039  0.10173323  0.10116987  1
  Ti  Ti174  1  0.20250277  0.81651982  0.37695046  1
  Ti  Ti175  1  0.80092151  0.59084772  0.20761940  1
  Ti  Ti176  1  0.09558890  0.10862952  0.90332249  1
  Ti  Ti177  1  0.50087778  0.30555191  0.50326547  1
  Ti  Ti178  1  -0.00250829  0.20705548  0.59510149  1
  Ti  Ti179  1  0.90854753  0.29520121  0.10165174  1
  Ti  Ti180  1  0.30294688  0.70862016  0.28905846  1
  Ti  Ti181  1  0.90820885  0.69273790  0.89612985  1
  Ti  Ti182  1  0.31291834  0.69426413  0.10794299  1
  Ti  Ti183  1  0.90472959  0.49494414  0.50312412  1
  Ti  Ti184  1  0.49367452  0.30667956  0.70370349  1
  Ti  Ti185  1  0.60568772  0.40136687  0.20061225  1
  Ti  Ti186  1  0.69606938  0.31229288  0.89322075  1
  Ti  Ti187  1  0.41057575  0.80419789  0.20752157  1
  Ti  Ti188  1  0.70232359  0.09874824  0.10043936  1
  Ti  Ti189  1  0.59909746  0.40529817  0.39877539  1
  Ti  Ti190  1  0.50296031  0.69171654  0.29199630  1
  Ti  Ti191  1  -0.00175576  0.40688068  0.20455648  1
  Ti  Ti192  1  0.80865733  0.39926467  0.60046729  1
  Ti  Ti193  1  0.09586655  0.29508240  0.29305271  1
  Ti  Ti194  1  0.69945067  0.49412688  0.89923588  1
  Ti  Ti195  1  0.59064838  -0.00190506  0.80444464  1
  Ti  Ti196  1  0.30509826  0.50625677  0.09868095  1
  Ti  Ti197  1  -0.00234982  0.40357525  0.60041334  1
  Ti  Ti198  1  0.70127312  0.70466334  0.70416179  1
  Ti  Ti199  1  0.39431203  0.59326894  0.79487515  1
  Mo  Mo200  1  0.89836514  0.10479833  0.10229544  1
  Mo  Mo201  1  0.80382258  0.40492739  0.80694458  1
  Mo  Mo202  1  -0.00148172  0.40242754  -0.00224094  1
  Mo  Mo203  1  0.39723910  0.59924270  0.00503173  1
  Mo  Mo204  1  0.19676419  0.60157148  0.60547975  1
  Mo  Mo205  1  0.40047843  0.39791038  0.60282082  1
  Mo  Mo206  1  0.09007587  0.90115090  0.29154487  1
  Mo  Mo207  1  0.40610582  0.79915007  0.38439157  1
  Mo  Mo208  1  0.09003594  0.69139964  0.89953149  1
  Mo  Mo209  1  0.50086521  0.89109192  0.89709296  1
  Mo  Mo210  1  0.90209894  0.69920469  0.70655333  1
  Mo  Mo211  1  0.29873077  0.49713703  0.89442616  1
  Mo  Mo212  1  0.89916716  0.10472415  0.29802639  1
  Mo  Mo213  1  0.31066782  0.89619035  0.30255390  1
  Mo  Mo214  1  0.90318168  0.88667558  0.90172232  1
  Mo  Mo215  1  -0.01257910  0.00839047  0.39690303  1
  Mo  Mo216  1  0.58725638  0.39736518  0.59006368  1
  Mo  Mo217  1  0.19543400  0.20568080  0.39542293  1
  Mo  Mo218  1  0.80400979  0.20584203  0.39839706  1
  Mo  Mo219  1  0.50017059  0.69818972  0.50201020  1
  Mo  Mo220  1  0.59744370  0.59670344  0.39563270  1
  Mo  Mo221  1  0.20363823  0.20303755  0.59989025  1
  Mo  Mo222  1  0.59754248  0.20620937  0.40225319  1
  Mo  Mo223  1  -0.00321787  0.78832824  0.81327124  1
  Mo  Mo224  1  0.01315559  0.21244695  0.80221070  1
  Mo  Mo225  1  0.50550176  0.30423831  0.09645842  1
  Mo  Mo226  1  -0.00067855  0.59213098  0.80356865  1
  Mo  Mo227  1  0.09032677  0.69682123  0.10060472  1
  Mo  Mo228  1  0.39693337  0.60307629  0.20337948  1
  Mo  Mo229  1  0.21363816  0.00365217  0.39898715  1
  Mo  Mo230  1  -0.00214083  0.57949667  0.60557398  1
  Mo  Mo231  1  0.49834873  0.10385153  0.89905883  1
  Mo  Mo232  1  0.10255479  0.68931447  0.49971086  1
  Mo  Mo233  1  0.90692303  0.49186929  0.69978921  1
  Mo  Mo234  1  0.59021730  0.39601808  0.81500922  1
  Mo  Mo235  1  0.40243995  0.21287557  0.79884959  1
  Mo  Mo236  1  0.19404537  0.40308270  0.60447584  1
  Mo  Mo237  1  0.50534957  0.89310845  0.10149243  1
  Mo  Mo238  1  0.69855613  0.69951871  0.09965674  1
  Mo  Mo239  1  0.19899819  0.40532041  -0.00240268  1
  Mo  Mo240  1  0.90620232  0.49787778  0.29441547  1
  Mo  Mo241  1  0.00266440  0.81527470  0.58448931  1
  Mo  Mo242  1  0.80170787  0.59549415  -0.00854786  1
  Mo  Mo243  1  0.49494282  0.30547287  0.89831880  1
  Mo  Mo244  1  0.09840625  0.49837821  0.10032825  1
  Mo  Mo245  1  -0.00103530  0.20254486  0.20377256  1
  Mo  Mo246  1  0.20558085  0.79260999  0.19957599  1
  Mo  Mo247  1  0.60586734  0.60263500  0.20134921  1
  Mo  Mo248  1  0.00164368  0.20183526  0.00342323  1
  Mo  Mo249  1  0.50049172  0.88919278  0.29932333  1
