# generated using pymatgen
data_HfZrTaTiMo
_symmetry_space_group_name_H-M   'P 1'
_cell_length_a   16.88302379
_cell_length_b   16.88017352
_cell_length_c   16.88396626
_cell_angle_alpha   89.98365015
_cell_angle_beta   89.97139773
_cell_angle_gamma   90.03593560
_symmetry_Int_Tables_number   1
_chemical_formula_structural   HfZrTaTiMo
_chemical_formula_sum   'Hf50 Zr50 Ta50 Ti50 Mo50'
_cell_volume   4811.73229862
_cell_formula_units_Z   50
loop_
 _symmetry_equiv_pos_site_id
 _symmetry_equiv_pos_as_xyz
  1  'x, y, z'
loop_
 _atom_site_type_symbol
 _atom_site_label
 _atom_site_symmetry_multiplicity
 _atom_site_fract_x
 _atom_site_fract_y
 _atom_site_fract_z
 _atom_site_occupancy
  Hf  Hf0  1  0.00024183  0.79922384  0.19498415  1
  Hf  Hf1  1  0.39584494  0.80394370  0.78670387  1
  Hf  Hf2  1  0.50484569  0.70205445  0.10027306  1
  Hf  Hf3  1  0.80627389  0.19408472  0.40834200  1
  Hf  Hf4  1  0.20516011  -0.00302961  0.79056362  1
  Hf  Hf5  1  0.89703480  0.29487570  0.10647140  1
  Hf  Hf6  1  0.69919352  0.50508440  0.89275367  1
  Hf  Hf7  1  0.88676746  0.09930863  0.70025828  1
  Hf  Hf8  1  0.19719751  0.20244003  0.59758529  1
  Hf  Hf9  1  0.28988839  0.29983403  0.30542175  1
  Hf  Hf10  1  0.50311368  0.90419733  0.50130944  1
  Hf  Hf11  1  0.29807567  0.90395279  0.49511623  1
  Hf  Hf12  1  0.61400213  -0.00230303  -0.00930071  1
  Hf  Hf13  1  -0.01600924  0.19982297  0.58053720  1
  Hf  Hf14  1  0.69680132  0.69428577  0.49567834  1
  Hf  Hf15  1  0.39877934  0.20499370  0.20140955  1
  Hf  Hf16  1  0.09761363  0.89507291  0.69328397  1
  Hf  Hf17  1  0.30527354  0.30028919  0.90132213  1
  Hf  Hf18  1  0.19900403  0.79691525  0.39560442  1
  Hf  Hf19  1  0.60560852  0.80422996  0.59445869  1
  Hf  Hf20  1  0.50320856  0.30309061  0.50327098  1
  Hf  Hf21  1  0.19767837  0.80328832  0.20355086  1
  Hf  Hf22  1  0.51703042  0.89405196  0.10563244  1
  Hf  Hf23  1  0.30041383  0.50534773  0.50063874  1
  Hf  Hf24  1  0.70359702  0.88720809  0.29008676  1
  Hf  Hf25  1  0.10331381  0.69910324  0.69749770  1
  Hf  Hf26  1  0.89437009  0.50593506  0.70882081  1
  Hf  Hf27  1  0.89199578  0.29753915  0.70175208  1
  Hf  Hf28  1  0.18174304  -0.00321177  0.38142817  1
  Hf  Hf29  1  0.30278082  0.50296867  0.90811846  1
  Hf  Hf30  1  0.80670713  0.59503634  0.58134815  1
  Hf  Hf31  1  0.59960503  0.59500065  0.40343013  1
  Hf  Hf32  1  0.50934506  0.69756484  0.69568993  1
  Hf  Hf33  1  0.79042447  0.20144564  -0.00154553  1
  Hf  Hf34  1  0.69890298  0.29944357  0.50097973  1
  Hf  Hf35  1  0.60768359  0.80390054  0.80623244  1
  Hf  Hf36  1  0.40121735  0.80077161  -0.00088305  1
  Hf  Hf37  1  0.00078694  0.79688370  0.40199298  1
  Hf  Hf38  1  0.80473085  0.80039353  0.40629124  1
  Hf  Hf39  1  0.40508657  0.60650280  0.59563222  1
  Hf  Hf40  1  0.61027428  -0.00230796  0.39902847  1
  Hf  Hf41  1  0.88963799  0.49635504  0.29771511  1
  Hf  Hf42  1  0.10833698  0.50321612  0.69285301  1
  Hf  Hf43  1  0.60623558  0.59975117  0.00445528  1
  Hf  Hf44  1  0.29119274  0.50853344  0.30720695  1
  Hf  Hf45  1  0.89649268  0.10193368  0.90706631  1
  Hf  Hf46  1  0.28932430  0.10198735  0.48657190  1
  Hf  Hf47  1  0.50713748  0.69993692  0.30390232  1
  Hf  Hf48  1  0.50483559  0.91549593  0.70048962  1
  Hf  Hf49  1  -0.00576655  0.40556878  0.58207236  1
  Zr  Zr50  1  0.60266214  0.19944863  0.39537747  1
  Zr  Zr51  1  0.20731040  0.20506818  0.00968035  1
  Zr  Zr52  1  0.50391997  0.49965293  0.70587241  1
  Zr  Zr53  1  0.10674303  0.49125095  0.90930522  1
  Zr  Zr54  1  0.39390696  0.60214166  0.20790425  1
  Zr  Zr55  1  0.80682230  0.80808047  0.59633308  1
  Zr  Zr56  1  0.10311721  0.49752911  0.30193228  1
  Zr  Zr57  1  -0.00954570  -0.00986526  0.79671280  1
  Zr  Zr58  1  0.30004214  0.69379485  0.90215776  1
  Zr  Zr59  1  0.39801643  0.80031920  0.21188923  1
  Zr  Zr60  1  0.10447397  0.68724098  0.29363459  1
  Zr  Zr61  1  0.10084490  0.29229459  0.30475307  1
  Zr  Zr62  1  0.20575903  0.79294775  0.59261378  1
  Zr  Zr63  1  0.80372570  0.81029446  0.79990367  1
  Zr  Zr64  1  0.50935809  0.10300983  0.09782671  1
  Zr  Zr65  1  0.09435560  0.30849032  0.69229514  1
  Zr  Zr66  1  -0.00635806  0.60526813  0.00536888  1
  Zr  Zr67  1  0.39180919  0.39316404  0.01339994  1
  Zr  Zr68  1  0.29966963  0.90569669  0.10433281  1
  Zr  Zr69  1  0.79417213  0.39848047  0.80022777  1
  Zr  Zr70  1  0.31714109  0.10564973  0.89610529  1
  Zr  Zr71  1  0.90991164  0.30238049  0.90855149  1
  Zr  Zr72  1  0.79316311  0.40193670  0.59646463  1
  Zr  Zr73  1  0.10902012  0.50109672  0.09845378  1
  Zr  Zr74  1  0.70775288  0.68766478  0.70282902  1
  Zr  Zr75  1  0.00237091  0.60249024  0.58598694  1
  Zr  Zr76  1  0.00069273  0.39965028  0.19969174  1
  Zr  Zr77  1  0.09301712  0.10069113  0.90915238  1
  Zr  Zr78  1  0.50369712  0.29477898  0.09966517  1
  Zr  Zr79  1  -0.00733814  0.59793278  0.40838356  1
  Zr  Zr80  1  0.79162400  0.40228368  0.00561740  1
  Zr  Zr81  1  0.89832863  0.30441233  0.31163729  1
  Zr  Zr82  1  0.40431371  0.00298664  0.20467035  1
  Zr  Zr83  1  0.10594976  0.70209129  0.89971526  1
  Zr  Zr84  1  0.00208458  0.20232868  0.80077652  1
  Zr  Zr85  1  -0.00060155  0.59981138  0.80538917  1
  Zr  Zr86  1  0.29575033  0.30108800  0.49528325  1
  Zr  Zr87  1  0.09380662  0.09679648  0.68854643  1
  Zr  Zr88  1  0.70504131  0.10196686  0.10751420  1
  Zr  Zr89  1  0.20119060  0.20760657  0.79491428  1
  Zr  Zr90  1  0.49600208  0.50308684  0.10051015  1
  Zr  Zr91  1  0.60298518  0.39410038  -0.00095684  1
  Zr  Zr92  1  0.30239083  0.90362520  0.89543563  1
  Zr  Zr93  1  0.39236448  0.00392122  0.60597152  1
  Zr  Zr94  1  0.40826502  0.00062705  0.38983519  1
  Zr  Zr95  1  0.59509704  0.19413193  0.80053592  1
  Zr  Zr96  1  0.20048920  0.00099702  0.00337924  1
  Zr  Zr97  1  0.50495396  0.90796087  0.89513674  1
  Zr  Zr98  1  0.40064906  0.20114428  0.60707882  1
  Zr  Zr99  1  0.41012193  0.19888762  0.39142679  1
  Ta  Ta100  1  0.89749536  0.90128752  0.10042018  1
  Ta  Ta101  1  0.70325305  0.70308342  0.90638121  1
  Ta  Ta102  1  0.29435972  0.69235650  0.09749560  1
  Ta  Ta103  1  0.09147359  0.09947040  0.48779268  1
  Ta  Ta104  1  0.59883884  0.60248082  0.80682457  1
  Ta  Ta105  1  0.89430748  0.49588764  0.10060811  1
  Ta  Ta106  1  0.41030451  0.00655794  -0.00000885  1
  Ta  Ta107  1  -0.00258234  0.19192947  0.20306272  1
  Ta  Ta108  1  0.39905757  0.40099537  0.60288576  1
  Ta  Ta109  1  0.79527922  0.59799771  0.19183325  1
  Ta  Ta110  1  0.60015954  0.40059002  0.39784194  1
  Ta  Ta111  1  0.80140841  -0.00480446  0.59376983  1
  Ta  Ta112  1  0.50067478  0.50029060  0.30276658  1
  Ta  Ta113  1  0.60197547  0.40152158  0.20670250  1
  Ta  Ta114  1  0.60489108  0.20745836  0.21154413  1
  Ta  Ta115  1  0.80009954  0.80292099  0.00136441  1
  Ta  Ta116  1  0.69948317  0.09606031  0.50910748  1
  Ta  Ta117  1  0.79555078  -0.00369384  0.80210750  1
  Ta  Ta118  1  0.79696722  0.60328277  0.00666462  1
  Ta  Ta119  1  0.89905269  0.89788561  0.29497459  1
  Ta  Ta120  1  0.60939594  0.59575218  0.20124894  1
  Ta  Ta121  1  0.20583570  0.39843609  0.79669328  1
  Ta  Ta122  1  0.89950487  0.09629323  0.30032554  1
  Ta  Ta123  1  0.89174326  0.70076663  0.90094705  1
  Ta  Ta124  1  0.09637183  0.29854254  0.09578862  1
  Ta  Ta125  1  0.40265954  0.79603706  0.40084114  1
  Ta  Ta126  1  0.00186360  -0.00200993  0.20504998  1
  Ta  Ta127  1  0.19445222  0.80140710  0.00515783  1
  Ta  Ta128  1  0.60106256  0.40499910  0.60205508  1
  Ta  Ta129  1  0.40570981  0.40448179  0.39795673  1
  Ta  Ta130  1  0.88882217  0.69703032  0.29517422  1
  Ta  Ta131  1  -0.00800434  0.79918990  0.59380952  1
  Ta  Ta132  1  -0.00628404  0.80157360  0.79899084  1
  Ta  Ta133  1  0.80270536  -0.00488535  0.40344574  1
  Ta  Ta134  1  0.49605395  0.49918338  0.89773274  1
  Ta  Ta135  1  0.40003902  0.79831710  0.59590449  1
  Ta  Ta136  1  0.89997940  0.69858168  0.70237550  1
  Ta  Ta137  1  0.09512498  0.09956299  0.10595699  1
  Ta  Ta138  1  -0.00985078  0.60185248  0.19472397  1
  Ta  Ta139  1  0.70477675  0.69726547  0.29613203  1
  Ta  Ta140  1  0.69613838  0.91426667  0.69769081  1
  Ta  Ta141  1  0.70505128  0.49820206  0.30276442  1
  Ta  Ta142  1  0.80564222  -0.00243259  0.20114420  1
  Ta  Ta143  1  -0.01358248  -0.00648473  0.58861131  1
  Ta  Ta144  1  0.39738418  0.39819613  0.20845399  1
  Ta  Ta145  1  0.09530678  0.90396537  0.49902877  1
  Ta  Ta146  1  0.50109242  0.30462164  0.70519728  1
  Ta  Ta147  1  0.09673566  0.89565385  0.90231798  1
  Ta  Ta148  1  -0.00191612  0.80197056  0.00219224  1
  Ta  Ta149  1  0.50081288  0.50129412  0.50148275  1
  Ti  Ti150  1  0.18935746  0.60765371  0.41992482  1
  Ti  Ti151  1  0.10791078  0.69347691  0.09872292  1
  Ti  Ti152  1  0.89875876  0.50060138  0.90631392  1
  Ti  Ti153  1  0.19451371  0.19321232  0.19931213  1
  Ti  Ti154  1  0.69842312  0.71164715  0.10482540  1
  Ti  Ti155  1  0.89056084  0.70546197  0.10159788  1
  Ti  Ti156  1  0.70407414  0.09849733  0.88914533  1
  Ti  Ti157  1  0.70394318  0.29841001  0.11503283  1
  Ti  Ti158  1  0.09841925  0.30809995  0.91450155  1
  Ti  Ti159  1  0.69436587  0.50555459  0.70240681  1
  Ti  Ti160  1  0.29790699  0.90499904  0.29916348  1
  Ti  Ti161  1  0.00345935  0.40249207  0.80314272  1
  Ti  Ti162  1  0.71044040  0.30348229  0.29618655  1
  Ti  Ti163  1  0.59743985  0.19669552  0.60840186  1
  Ti  Ti164  1  0.28587521  0.10120779  0.29496289  1
  Ti  Ti165  1  0.50959349  0.09602848  0.51067115  1
  Ti  Ti166  1  0.19183361  0.40279120  0.41106695  1
  Ti  Ti167  1  0.79811685  -0.00578659  -0.00020083  1
  Ti  Ti168  1  0.71023173  0.10160671  0.29593213  1
  Ti  Ti169  1  0.40418885  0.60331651  0.80118160  1
  Ti  Ti170  1  0.60692503  -0.00266095  0.20657871  1
  Ti  Ti171  1  0.60154577  0.19894101  -0.00816763  1
  Ti  Ti172  1  0.90132417  0.89882484  0.90889751  1
  Ti  Ti173  1  0.30838171  0.10423476  0.70817095  1
  Ti  Ti174  1  0.70441594  0.89105543  0.10250700  1
  Ti  Ti175  1  0.20461113  0.39936636  0.59991205  1
  Ti  Ti176  1  0.51156420  0.09864833  0.29372851  1
  Ti  Ti177  1  0.79668490  0.19681200  0.59744341  1
  Ti  Ti178  1  0.29989624  0.50251786  0.69860801  1
  Ti  Ti179  1  -0.00250716  -0.00368301  0.00796849  1
  Ti  Ti180  1  0.21008346  0.39409559  0.18763191  1
  Ti  Ti181  1  0.50296097  0.69727542  0.90504540  1
  Ti  Ti182  1  0.30256547  0.10182688  0.10228902  1
  Ti  Ti183  1  0.20434947  0.80522519  0.79606000  1
  Ti  Ti184  1  0.29438406  0.50802048  0.09639925  1
  Ti  Ti185  1  0.09861690  0.90688195  0.10177503  1
  Ti  Ti186  1  0.90041062  0.09968431  0.10202035  1
  Ti  Ti187  1  0.59875032  0.80373353  0.40089018  1
  Ti  Ti188  1  0.49302894  0.29743265  0.89577439  1
  Ti  Ti189  1  -0.00710875  -0.00120879  0.39652151  1
  Ti  Ti190  1  0.69515224  0.29815484  0.88859659  1
  Ti  Ti191  1  0.09251125  0.29635711  0.48666318  1
  Ti  Ti192  1  0.30772303  0.69480094  0.48997721  1
  Ti  Ti193  1  0.88305531  0.48235908  0.47450510  1
  Ti  Ti194  1  0.69439226  0.29713455  0.70383321  1
  Ti  Ti195  1  0.19880208  0.00076704  0.59814287  1
  Ti  Ti196  1  0.39575598  0.39725364  0.79392598  1
  Ti  Ti197  1  0.20436490  0.59525103  0.79847688  1
  Ti  Ti198  1  0.69633696  0.09562422  0.69825516  1
  Ti  Ti199  1  0.29704195  0.69325469  0.69739638  1
  Mo  Mo200  1  0.20332375  0.60405673  0.00276337  1
  Mo  Mo201  1  0.61047196  0.79677058  -0.00004122  1
  Mo  Mo202  1  0.79517081  0.59984990  0.39199741  1
  Mo  Mo203  1  0.20083385  0.39689189  0.00334551  1
  Mo  Mo204  1  0.08936890  0.09961918  0.29574126  1
  Mo  Mo205  1  0.50197254  0.31025157  0.29861542  1
  Mo  Mo206  1  0.30063424  0.89880722  0.69378644  1
  Mo  Mo207  1  0.59548540  0.39870706  0.79861282  1
  Mo  Mo208  1  0.51159076  0.89471807  0.30276804  1
  Mo  Mo209  1  0.19112673  0.19262766  0.39794685  1
  Mo  Mo210  1  0.80423909  0.79703176  0.19413337  1
  Mo  Mo211  1  0.89787281  0.89961222  0.69629496  1
  Mo  Mo212  1  0.69259834  0.49752137  0.49623928  1
  Mo  Mo213  1  0.29602117  0.29526074  0.11007860  1
  Mo  Mo214  1  0.09987521  0.70478476  0.50263867  1
  Mo  Mo215  1  0.60793576  0.00668918  0.79857903  1
  Mo  Mo216  1  0.00533854  0.39866086  0.40735996  1
  Mo  Mo217  1  0.89395520  0.29973773  0.49751256  1
  Mo  Mo218  1  0.40795277  0.20665583  0.79802574  1
  Mo  Mo219  1  0.60426432  0.59161988  0.59800999  1
  Mo  Mo220  1  0.60802363  0.79329915  0.20131863  1
  Mo  Mo221  1  0.78565109  0.39589250  0.39788247  1
  Mo  Mo222  1  0.20237865  0.60249111  0.19621515  1
  Mo  Mo223  1  0.89724846  0.70294376  0.49571824  1
  Mo  Mo224  1  0.40314835  0.60181664  -0.00082097  1
  Mo  Mo225  1  0.89428171  0.09370130  0.49594077  1
  Mo  Mo226  1  0.78916448  0.19534916  0.79937135  1
  Mo  Mo227  1  0.60486368  0.00899209  0.59954850  1
  Mo  Mo228  1  0.00049996  0.19683361  0.01229459  1
  Mo  Mo229  1  0.40744598  0.01129380  0.79786093  1
  Mo  Mo230  1  0.49929777  0.70414223  0.49807067  1
  Mo  Mo231  1  0.08926129  0.90034101  0.29687306  1
  Mo  Mo232  1  0.29960457  0.69576166  0.31100569  1
  Mo  Mo233  1  0.70051657  0.49942736  0.10795181  1
  Mo  Mo234  1  -0.00211347  0.39796071  0.00379556  1
  Mo  Mo235  1  0.80140380  0.19287168  0.20633899  1
  Mo  Mo236  1  0.30494731  0.31018468  0.70204542  1
  Mo  Mo237  1  0.40589732  0.19635718  0.00128617  1
  Mo  Mo238  1  -0.00178254  0.19198159  0.39750133  1
  Mo  Mo239  1  0.19360157  0.00566185  0.20014345  1
  Mo  Mo240  1  0.70782899  0.90231528  0.90234866  1
  Mo  Mo241  1  0.70023002  0.90493568  0.49820805  1
  Mo  Mo242  1  0.40429536  0.60205572  0.40326410  1
  Mo  Mo243  1  0.79097020  0.39943959  0.20060137  1
  Mo  Mo244  1  0.79917892  0.60192219  0.80948812  1
  Mo  Mo245  1  0.49874103  0.10371727  0.70660935  1
  Mo  Mo246  1  0.90334766  0.90235105  0.49222086  1
  Mo  Mo247  1  0.11271195  0.49708302  0.50187551  1
  Mo  Mo248  1  0.50376179  0.10356750  0.90213857  1
  Mo  Mo249  1  0.20937841  0.60237125  0.59971865  1
