# generated using pymatgen
data_HfZrTaTiMo
_symmetry_space_group_name_H-M   'P 1'
_cell_length_a   16.88594556
_cell_length_b   16.88607521
_cell_length_c   16.89394741
_cell_angle_alpha   89.95618564
_cell_angle_beta   90.02967508
_cell_angle_gamma   89.98890336
_symmetry_Int_Tables_number   1
_chemical_formula_structural   HfZrTaTiMo
_chemical_formula_sum   'Hf50 Zr50 Ta50 Ti50 Mo50'
_cell_volume   4817.09319580
_cell_formula_units_Z   50
loop_
 _symmetry_equiv_pos_site_id
 _symmetry_equiv_pos_as_xyz
  1  'x, y, z'
loop_
 _atom_site_type_symbol
 _atom_site_label
 _atom_site_symmetry_multiplicity
 _atom_site_fract_x
 _atom_site_fract_y
 _atom_site_fract_z
 _atom_site_occupancy
  Hf  Hf0  1  -0.00413770  0.39477918  0.00960873  1
  Hf  Hf1  1  0.70686510  0.09785850  0.10365212  1
  Hf  Hf2  1  0.70220033  0.30975300  0.88985849  1
  Hf  Hf3  1  0.70204668  0.89985352  0.30012023  1
  Hf  Hf4  1  0.39668755  0.39762505  0.59902158  1
  Hf  Hf5  1  0.59149547  0.80862628  0.59377821  1
  Hf  Hf6  1  0.89293651  0.49628235  0.49933962  1
  Hf  Hf7  1  0.59850776  0.79872459  0.79861529  1
  Hf  Hf8  1  0.10031727  0.30127047  0.30078305  1
  Hf  Hf9  1  0.00043072  0.00845632  0.00699018  1
  Hf  Hf10  1  0.00948671  0.60346162  0.00299203  1
  Hf  Hf11  1  0.49418329  0.10138339  0.30526993  1
  Hf  Hf12  1  -0.00113567  0.60221265  0.39677408  1
  Hf  Hf13  1  0.40191632  0.80281041  0.59264782  1
  Hf  Hf14  1  0.60132811  0.59973968  0.80125637  1
  Hf  Hf15  1  0.39828245  0.59938365  0.59471383  1
  Hf  Hf16  1  0.19910966  0.79500473  0.79974110  1
  Hf  Hf17  1  0.50032040  0.90201387  0.09455685  1
  Hf  Hf18  1  0.19722504  0.60224504  -0.00152262  1
  Hf  Hf19  1  0.28720414  0.50138332  0.70216916  1
  Hf  Hf20  1  0.29365412  0.49724456  0.09968142  1
  Hf  Hf21  1  0.89356385  0.30206134  0.50909800  1
  Hf  Hf22  1  0.70376843  0.29969479  0.50048047  1
  Hf  Hf23  1  0.29732828  0.89894349  0.30142626  1
  Hf  Hf24  1  0.20446433  0.19879620  0.40547625  1
  Hf  Hf25  1  0.89826674  0.69292350  0.68288876  1
  Hf  Hf26  1  0.59443909  0.60198361  0.59950899  1
  Hf  Hf27  1  0.10367010  0.70128473  0.49991880  1
  Hf  Hf28  1  0.80246883  0.60498658  0.80296376  1
  Hf  Hf29  1  0.59831805  0.20203333  0.00382618  1
  Hf  Hf30  1  0.70354656  0.49770740  0.69826550  1
  Hf  Hf31  1  0.19587163  0.00635159  0.79823513  1
  Hf  Hf32  1  0.89723445  0.10340353  0.50655722  1
  Hf  Hf33  1  0.20626135  0.00246029  0.40950615  1
  Hf  Hf34  1  0.90030988  0.29534454  0.88762096  1
  Hf  Hf35  1  0.49911212  0.68964908  0.10455837  1
  Hf  Hf36  1  0.19619500  0.00590819  0.00561232  1
  Hf  Hf37  1  0.61035718  0.39125056  0.01695026  1
  Hf  Hf38  1  0.90321086  0.90109215  0.29534255  1
  Hf  Hf39  1  0.49324379  0.29977778  0.90645486  1
  Hf  Hf40  1  0.48955919  0.90845561  0.88982370  1
  Hf  Hf41  1  0.20436717  -0.00192972  0.60071794  1
  Hf  Hf42  1  0.61320078  0.39591780  0.20237756  1
  Hf  Hf43  1  0.39415119  0.39756560  0.20537732  1
  Hf  Hf44  1  0.59158958  0.39071766  0.60785706  1
  Hf  Hf45  1  0.10043918  0.11627837  0.52165118  1
  Hf  Hf46  1  0.00007448  0.00578378  0.79344703  1
  Hf  Hf47  1  0.60620188  0.21019546  0.19724961  1
  Hf  Hf48  1  0.39544870  0.60000581  0.80231131  1
  Hf  Hf49  1  0.69737896  0.69924078  0.30539163  1
  Zr  Zr50  1  0.00841119  -0.00337599  0.40123351  1
  Zr  Zr51  1  0.09265774  0.49158629  0.30033379  1
  Zr  Zr52  1  0.39897545  0.78891915  0.20842557  1
  Zr  Zr53  1  0.79577600  0.19628309  0.38927014  1
  Zr  Zr54  1  0.69602389  0.90795165  0.70247799  1
  Zr  Zr55  1  0.39744054  0.79601280  0.40367199  1
  Zr  Zr56  1  0.39589410  0.39557097  0.79489846  1
  Zr  Zr57  1  -0.00300966  0.19830232  0.00928241  1
  Zr  Zr58  1  0.80479002  0.20533294  0.00595317  1
  Zr  Zr59  1  0.19959933  0.00382931  0.20107716  1
  Zr  Zr60  1  0.31912752  0.90293790  0.71232873  1
  Zr  Zr61  1  0.90486603  0.70403526  0.91005727  1
  Zr  Zr62  1  0.59586192  0.19455581  0.60284991  1
  Zr  Zr63  1  0.90638771  0.89467176  0.10041051  1
  Zr  Zr64  1  0.39822158  0.00674686  0.57747567  1
  Zr  Zr65  1  0.50152318  0.90259644  0.30212664  1
  Zr  Zr66  1  0.59714141  0.00583498  0.19798677  1
  Zr  Zr67  1  -0.00083055  -0.00685022  0.60404256  1
  Zr  Zr68  1  0.20700166  0.19454768  0.00842562  1
  Zr  Zr69  1  0.38786210  0.20253807  0.19297599  1
  Zr  Zr70  1  0.10495958  0.50105828  0.69408716  1
  Zr  Zr71  1  0.80489579  0.80910498  0.59029282  1
  Zr  Zr72  1  0.50042735  0.50260559  0.30656664  1
  Zr  Zr73  1  0.49855583  0.29943417  0.30832470  1
  Zr  Zr74  1  0.70418184  0.10155464  0.89088940  1
  Zr  Zr75  1  0.11041633  0.48758739  0.89684701  1
  Zr  Zr76  1  0.40369215  0.20685766  0.60289577  1
  Zr  Zr77  1  0.10348280  0.29203769  0.69241760  1
  Zr  Zr78  1  0.61100970  0.58954190  0.20258706  1
  Zr  Zr79  1  0.50936821  0.48751065  0.89936323  1
  Zr  Zr80  1  0.70519438  0.69934100  0.09818765  1
  Zr  Zr81  1  0.49181949  0.49629850  0.10044714  1
  Zr  Zr82  1  -0.00082937  0.79494787  0.79436475  1
  Zr  Zr83  1  0.10601569  0.69451536  0.68782549  1
  Zr  Zr84  1  0.70274755  0.69722362  0.49951846  1
  Zr  Zr85  1  0.89623843  0.49627449  0.90491639  1
  Zr  Zr86  1  0.30181874  0.90104644  0.90260692  1
  Zr  Zr87  1  0.79984650  0.80259396  -0.00076653  1
  Zr  Zr88  1  0.89951070  0.30632967  0.30072991  1
  Zr  Zr89  1  0.10353103  0.29860485  0.89881505  1
  Zr  Zr90  1  0.09012905  0.89288069  0.90988306  1
  Zr  Zr91  1  0.69934407  0.49949694  0.49864355  1
  Zr  Zr92  1  0.19820776  0.59597889  0.39695498  1
  Zr  Zr93  1  0.59139937  0.20393017  0.78802788  1
  Zr  Zr94  1  0.29592843  0.89307405  0.10037066  1
  Zr  Zr95  1  -0.00256574  0.19670739  0.39869256  1
  Zr  Zr96  1  0.40007600  0.79073388  -0.00265092  1
  Zr  Zr97  1  0.89621014  0.50013207  0.69055534  1
  Zr  Zr98  1  0.69825059  0.90626831  0.89911687  1
  Zr  Zr99  1  0.39347743  0.59397113  -0.01053193  1
  Ta  Ta100  1  0.18946884  0.78501935  0.00518416  1
  Ta  Ta101  1  0.00015763  0.39840181  0.59843485  1
  Ta  Ta102  1  0.00619627  0.59920840  0.80216276  1
  Ta  Ta103  1  0.39526697  0.00688805  0.19519544  1
  Ta  Ta104  1  0.89421559  0.09748777  0.12022627  1
  Ta  Ta105  1  0.90642201  0.69723437  0.10907844  1
  Ta  Ta106  1  -0.00764299  0.40109247  0.19432514  1
  Ta  Ta107  1  0.29446815  0.69847890  0.49787979  1
  Ta  Ta108  1  0.80085270  0.80005550  0.79713995  1
  Ta  Ta109  1  0.19591534  0.60282235  0.20915848  1
  Ta  Ta110  1  0.29377113  0.69423766  0.11037095  1
  Ta  Ta111  1  0.70722983  0.49685818  0.90421545  1
  Ta  Ta112  1  0.20707254  0.20031862  0.79742781  1
  Ta  Ta113  1  0.81376103  0.79916148  0.40152163  1
  Ta  Ta114  1  0.49192730  0.10704436  0.09320961  1
  Ta  Ta115  1  0.80359909  -0.00124729  0.40187748  1
  Ta  Ta116  1  0.21119603  0.80767205  0.59371582  1
  Ta  Ta117  1  0.38486169  0.39962810  0.40567247  1
  Ta  Ta118  1  0.39028214  0.59651085  0.39567074  1
  Ta  Ta119  1  0.80539922  0.60256735  0.39438410  1
  Ta  Ta120  1  0.59746426  0.00625011  0.59569821  1
  Ta  Ta121  1  0.10224940  0.49685833  0.10780333  1
  Ta  Ta122  1  0.90544904  0.69977608  0.29228346  1
  Ta  Ta123  1  0.29830574  0.10648996  0.69737520  1
  Ta  Ta124  1  0.50086411  0.30281468  0.49017476  1
  Ta  Ta125  1  0.00165729  0.79998742  0.39666607  1
  Ta  Ta126  1  0.50104459  0.49895085  0.70180467  1
  Ta  Ta127  1  0.00632086  0.00159963  0.20637362  1
  Ta  Ta128  1  0.70408050  0.10067578  0.50300547  1
  Ta  Ta129  1  0.09669345  0.30671631  0.50059636  1
  Ta  Ta130  1  0.09827566  0.10734539  0.89556768  1
  Ta  Ta131  1  0.60709177  0.59609371  -0.00254009  1
  Ta  Ta132  1  0.10622052  0.30180259  0.11219086  1
  Ta  Ta133  1  0.09694179  0.88723906  0.11052149  1
  Ta  Ta134  1  -0.00122209  0.39750506  0.78938005  1
  Ta  Ta135  1  0.70144516  0.69729919  0.90179412  1
  Ta  Ta136  1  0.70178460  0.70117415  0.69645018  1
  Ta  Ta137  1  0.49938777  0.49609265  0.49235251  1
  Ta  Ta138  1  0.29565057  0.30752685  0.90459066  1
  Ta  Ta139  1  0.39342391  0.19642097  0.41170403  1
  Ta  Ta140  1  0.49536016  0.70283401  0.70132836  1
  Ta  Ta141  1  0.70170933  0.90515618  0.10154182  1
  Ta  Ta142  1  0.89916349  0.90408727  0.89813900  1
  Ta  Ta143  1  0.80548589  0.00293043  0.00059845  1
  Ta  Ta144  1  0.10407612  0.10712244  0.29579976  1
  Ta  Ta145  1  0.79775590  0.00145566  0.59935529  1
  Ta  Ta146  1  0.59538236  0.00815571  -0.00390994  1
  Ta  Ta147  1  0.80188911  0.79847545  0.20251463  1
  Ta  Ta148  1  0.60567987  0.01093733  0.40485640  1
  Ta  Ta149  1  0.39545040  0.20298109  0.79956275  1
  Ti  Ti150  1  0.80334293  0.59679872  0.20672789  1
  Ti  Ti151  1  0.10042671  0.89275740  0.69517191  1
  Ti  Ti152  1  0.71162612  0.30178533  0.69516522  1
  Ti  Ti153  1  -0.00655661  0.20100881  0.20329168  1
  Ti  Ti154  1  0.89937356  0.50981781  0.10451600  1
  Ti  Ti155  1  0.90084848  0.10117368  0.89517059  1
  Ti  Ti156  1  0.80690766  0.00440607  0.79333656  1
  Ti  Ti157  1  0.50188641  0.68951319  0.48800229  1
  Ti  Ti158  1  0.50310761  0.70030417  0.89910954  1
  Ti  Ti159  1  0.49952851  0.91362847  0.48516347  1
  Ti  Ti160  1  0.60100671  0.79890400  0.19750953  1
  Ti  Ti161  1  0.10073931  0.10980043  0.11357800  1
  Ti  Ti162  1  0.71661651  0.50314631  0.09524510  1
  Ti  Ti163  1  0.89774837  0.89790790  0.70000615  1
  Ti  Ti164  1  0.20163875  0.40231645  0.40562016  1
  Ti  Ti165  1  0.30026665  0.69951600  0.69540299  1
  Ti  Ti166  1  0.71073647  0.09490462  0.29352881  1
  Ti  Ti167  1  0.79873236  0.39596129  0.19786061  1
  Ti  Ti168  1  0.89920371  0.10989293  0.69040155  1
  Ti  Ti169  1  0.29341711  0.29877023  0.30406894  1
  Ti  Ti170  1  0.10455613  0.89252997  0.49837781  1
  Ti  Ti171  1  0.60830556  0.40092474  0.39266265  1
  Ti  Ti172  1  0.39819774  0.01418745  0.00050837  1
  Ti  Ti173  1  0.20321144  0.39920818  0.20426500  1
  Ti  Ti174  1  0.00381367  0.59376665  0.58638975  1
  Ti  Ti175  1  0.79269880  0.40418854  0.38695969  1
  Ti  Ti176  1  0.59363156  0.01308372  0.79656344  1
  Ti  Ti177  1  0.59888352  0.80168416  0.40360827  1
  Ti  Ti178  1  0.30066804  0.10210508  0.30081927  1
  Ti  Ti179  1  0.19544784  0.79858497  0.39108971  1
  Ti  Ti180  1  0.30689052  0.10577017  0.89947785  1
  Ti  Ti181  1  0.09404507  0.70128214  0.11735129  1
  Ti  Ti182  1  0.80640547  0.39797987  0.79078340  1
  Ti  Ti183  1  0.29751143  0.30491166  0.09254187  1
  Ti  Ti184  1  0.60004881  0.80014870  -0.00206824  1
  Ti  Ti185  1  0.48735441  0.09064572  0.70364550  1
  Ti  Ti186  1  0.20005479  0.60460124  0.80945596  1
  Ti  Ti187  1  0.70052269  0.90650025  0.49339739  1
  Ti  Ti188  1  -0.00648259  0.80384004  0.58546009  1
  Ti  Ti189  1  0.19895993  0.39704307  0.59608428  1
  Ti  Ti190  1  0.00220194  0.19465161  0.78785660  1
  Ti  Ti191  1  0.60502758  0.19742973  0.39777532  1
  Ti  Ti192  1  0.29240010  0.29755102  0.50629645  1
  Ti  Ti193  1  0.90102192  0.49930781  0.29702053  1
  Ti  Ti194  1  0.29126081  0.50261485  0.50353119  1
  Ti  Ti195  1  0.29892495  0.70497535  0.89824482  1
  Ti  Ti196  1  0.80087593  0.19561026  0.78291867  1
  Ti  Ti197  1  0.50385039  0.69025384  0.30417761  1
  Ti  Ti198  1  0.49512066  0.90667813  0.70541381  1
  Ti  Ti199  1  0.80624647  0.39378662  0.01294602  1
  Mo  Mo200  1  0.70173910  0.30341202  0.30144296  1
  Mo  Mo201  1  0.29326584  0.69610685  0.30168244  1
  Mo  Mo202  1  0.48395518  0.29939107  0.09497774  1
  Mo  Mo203  1  0.10333900  0.69552248  0.89592305  1
  Mo  Mo204  1  0.80087097  0.19941901  0.20418478  1
  Mo  Mo205  1  0.49603544  0.30389502  0.70434360  1
  Mo  Mo206  1  0.10445257  0.10415251  0.70611138  1
  Mo  Mo207  1  0.71222084  0.50135349  0.30115323  1
  Mo  Mo208  1  -0.00631689  0.20529415  0.60710631  1
  Mo  Mo209  1  0.89996379  0.90060812  0.49536794  1
  Mo  Mo210  1  0.29109645  0.49131427  0.89956530  1
  Mo  Mo211  1  0.79639135  0.60355487  0.59244461  1
  Mo  Mo212  1  0.90616866  0.69948758  0.49182468  1
  Mo  Mo213  1  0.29487738  0.30010232  0.70201352  1
  Mo  Mo214  1  0.20568360  0.60415659  0.59234487  1
  Mo  Mo215  1  0.90262527  0.09264110  0.29512234  1
  Mo  Mo216  1  0.39974734  0.01966462  0.80558812  1
  Mo  Mo217  1  0.79944310  0.39417107  0.60467827  1
  Mo  Mo218  1  0.70639016  0.09634700  0.69539995  1
  Mo  Mo219  1  0.29503524  0.49534441  0.30099705  1
  Mo  Mo220  1  0.19827798  0.39760942  0.01067969  1
  Mo  Mo221  1  0.71928123  0.29985873  0.10568263  1
  Mo  Mo222  1  0.39672735  0.20233612  -0.00265689  1
  Mo  Mo223  1  -0.00224587  0.59591545  0.19912831  1
  Mo  Mo224  1  0.79555673  0.19588666  0.60816529  1
  Mo  Mo225  1  0.59456638  0.59820630  0.40067720  1
  Mo  Mo226  1  0.29893631  0.10578270  0.50288482  1
  Mo  Mo227  1  0.90457945  0.29703771  0.11201750  1
  Mo  Mo228  1  0.29663827  0.89356247  0.49126355  1
  Mo  Mo229  1  0.09758116  0.70635957  0.29584766  1
  Mo  Mo230  1  0.10065817  0.89792818  0.30112676  1
  Mo  Mo231  1  0.90159807  0.29771245  0.69967703  1
  Mo  Mo232  1  0.00610031  0.79565107  0.00950523  1
  Mo  Mo233  1  0.00237164  0.79674659  0.20595148  1
  Mo  Mo234  1  0.79945662  0.59549587  0.00436252  1
  Mo  Mo235  1  0.40330254  0.78613691  0.79676178  1
  Mo  Mo236  1  0.00024505  0.40352072  0.40545010  1
  Mo  Mo237  1  0.19343873  0.79279543  0.20416483  1
  Mo  Mo238  1  0.80216734  -0.00418061  0.20181180  1
  Mo  Mo239  1  0.49421317  0.10172421  0.90118050  1
  Mo  Mo240  1  0.39135266  0.39376568  0.00391945  1
  Mo  Mo241  1  0.20194865  0.39213953  0.80009893  1
  Mo  Mo242  1  0.20889983  0.20449551  0.60191208  1
  Mo  Mo243  1  0.20166198  0.20469924  0.20439110  1
  Mo  Mo244  1  0.50873168  0.10693656  0.49083690  1
  Mo  Mo245  1  0.38420226  0.59960235  0.21527398  1
  Mo  Mo246  1  0.09749737  0.49007150  0.50095776  1
  Mo  Mo247  1  0.39941222  0.00857736  0.39377660  1
  Mo  Mo248  1  0.60728334  0.40076188  0.79622245  1
  Mo  Mo249  1  0.30279311  0.09890656  0.09756982  1
