# generated using pymatgen
data_HfZrTaTiMo
_symmetry_space_group_name_H-M   'P 1'
_cell_length_a   16.87949088
_cell_length_b   16.88495151
_cell_length_c   16.88242749
_cell_angle_alpha   90.00108343
_cell_angle_beta   89.99952439
_cell_angle_gamma   89.99686358
_symmetry_Int_Tables_number   1
_chemical_formula_structural   HfZrTaTiMo
_chemical_formula_sum   'Hf50 Zr50 Ta50 Ti50 Mo50'
_cell_volume   4811.65026976
_cell_formula_units_Z   50
loop_
 _symmetry_equiv_pos_site_id
 _symmetry_equiv_pos_as_xyz
  1  'x, y, z'
loop_
 _atom_site_type_symbol
 _atom_site_label
 _atom_site_symmetry_multiplicity
 _atom_site_fract_x
 _atom_site_fract_y
 _atom_site_fract_z
 _atom_site_occupancy
  Hf  Hf0  1  0.90995834  0.10830635  0.71018898  1
  Hf  Hf1  1  0.70850159  0.10347019  0.29983228  1
  Hf  Hf2  1  0.59553255  0.19577722  -0.00463828  1
  Hf  Hf3  1  0.70219836  0.90368157  0.50410581  1
  Hf  Hf4  1  0.11101338  0.49611720  0.08999952  1
  Hf  Hf5  1  0.40407743  0.39817575  0.60970852  1
  Hf  Hf6  1  0.00151449  0.80350655  -0.00341680  1
  Hf  Hf7  1  0.00441205  0.40946963  0.59193290  1
  Hf  Hf8  1  0.59985082  0.80047087  0.39336993  1
  Hf  Hf9  1  0.79760803  0.79915193  0.20346670  1
  Hf  Hf10  1  0.20795575  0.00768392  0.79964968  1
  Hf  Hf11  1  0.49790711  0.49880300  0.49367665  1
  Hf  Hf12  1  0.11702322  0.90443100  0.91547981  1
  Hf  Hf13  1  0.69534334  0.10488803  0.49953022  1
  Hf  Hf14  1  0.29642379  0.68945220  0.50107353  1
  Hf  Hf15  1  0.59129669  0.00796387  0.80352248  1
  Hf  Hf16  1  0.79608285  0.59988823  0.40217081  1
  Hf  Hf17  1  0.90325519  0.89833878  0.69963447  1
  Hf  Hf18  1  0.19858153  0.80454393  0.39352529  1
  Hf  Hf19  1  0.90231896  0.70206728  0.50506813  1
  Hf  Hf20  1  0.69901811  0.91345013  0.10135841  1
  Hf  Hf21  1  0.39356284  0.57829210  0.80058638  1
  Hf  Hf22  1  0.79542764  0.60319445  0.19690965  1
  Hf  Hf23  1  0.10063990  0.91067606  0.50156084  1
  Hf  Hf24  1  0.49801690  0.49074930  0.09897854  1
  Hf  Hf25  1  0.50361176  0.10662799  0.50535856  1
  Hf  Hf26  1  0.69755675  0.90189727  0.69810561  1
  Hf  Hf27  1  0.59078498  0.59541301  0.60419822  1
  Hf  Hf28  1  0.11796800  0.30492296  0.50461057  1
  Hf  Hf29  1  0.69855578  0.49449161  0.30347469  1
  Hf  Hf30  1  0.80497586  0.58359749  0.59477067  1
  Hf  Hf31  1  0.80144536  0.80419924  0.38671119  1
  Hf  Hf32  1  0.90376815  0.49845599  0.30566024  1
  Hf  Hf33  1  0.59579898  0.00133027  0.39673128  1
  Hf  Hf34  1  0.39179964  0.59553568  0.00254973  1
  Hf  Hf35  1  0.90595741  0.29165629  0.09782242  1
  Hf  Hf36  1  0.69699844  0.69453090  0.90277627  1
  Hf  Hf37  1  0.59300766  0.20197550  0.19840941  1
  Hf  Hf38  1  0.81653720  0.19436911  -0.01604592  1
  Hf  Hf39  1  0.81144113  0.40184722  0.19521179  1
  Hf  Hf40  1  0.90540781  0.69916331  0.69949830  1
  Hf  Hf41  1  0.79901023  0.00988410  0.60989652  1
  Hf  Hf42  1  0.80802504  0.20995740  0.40405286  1
  Hf  Hf43  1  0.39246764  0.81027165  0.40032043  1
  Hf  Hf44  1  0.59206803  0.39102378  0.39871290  1
  Hf  Hf45  1  0.79857433  0.80095116  0.00385458  1
  Hf  Hf46  1  0.69109845  0.48488267  0.69879154  1
  Hf  Hf47  1  0.39985710  0.20388863  0.40429698  1
  Hf  Hf48  1  0.10119457  0.10187301  0.29371811  1
  Hf  Hf49  1  0.79737120  0.21055244  0.60362777  1
  Zr  Zr50  1  0.11177815  0.70627439  0.10255646  1
  Zr  Zr51  1  0.71028600  0.10325082  0.10535490  1
  Zr  Zr52  1  0.20629999  0.00709753  0.19104843  1
  Zr  Zr53  1  0.00237608  0.20232428  0.58733265  1
  Zr  Zr54  1  0.59425426  0.80121719  0.00279467  1
  Zr  Zr55  1  0.39703453  0.79908415  0.60046437  1
  Zr  Zr56  1  0.89347434  0.49524902  0.90265522  1
  Zr  Zr57  1  0.69334674  0.49173272  0.90490635  1
  Zr  Zr58  1  0.49125058  0.69479038  0.30041621  1
  Zr  Zr59  1  0.49310585  0.90584594  0.09284119  1
  Zr  Zr60  1  0.79748570  0.38593785  0.79951320  1
  Zr  Zr61  1  0.20234729  0.19680149  0.39620222  1
  Zr  Zr62  1  0.19790483  0.80163128  0.79877140  1
  Zr  Zr63  1  0.29711728  0.30004081  0.29632441  1
  Zr  Zr64  1  0.70920374  0.29867311  0.09372832  1
  Zr  Zr65  1  0.28588521  0.49489502  0.50388000  1
  Zr  Zr66  1  0.10242872  0.11279755  0.90402208  1
  Zr  Zr67  1  0.40159029  0.59012152  0.61041453  1
  Zr  Zr68  1  0.80801276  0.00992165  -0.00412847  1
  Zr  Zr69  1  0.69752448  0.70556574  0.69359792  1
  Zr  Zr70  1  0.00844257  0.79550650  0.39366533  1
  Zr  Zr71  1  0.69928108  0.49177381  0.08637070  1
  Zr  Zr72  1  0.91401938  0.30383005  0.70647375  1
  Zr  Zr73  1  0.00697222  0.00221345  0.80440887  1
  Zr  Zr74  1  -0.00228676  0.01372944  0.00810859  1
  Zr  Zr75  1  0.79937951  0.80611689  0.80592305  1
  Zr  Zr76  1  0.59672873  0.39461424  0.20271299  1
  Zr  Zr77  1  0.29443246  0.29458260  0.69957740  1
  Zr  Zr78  1  0.29077618  0.69718986  0.29642695  1
  Zr  Zr79  1  0.10192068  0.49857900  0.30155254  1
  Zr  Zr80  1  0.38815039  0.80507284  0.19975997  1
  Zr  Zr81  1  0.29064138  0.68938810  0.70832164  1
  Zr  Zr82  1  0.20936145  0.59061633  0.19676408  1
  Zr  Zr83  1  0.28887649  0.89866532  0.08403301  1
  Zr  Zr84  1  0.89978817  0.89967726  0.50278836  1
  Zr  Zr85  1  0.69890191  0.70821877  0.50697535  1
  Zr  Zr86  1  0.50212626  0.48160136  0.91081145  1
  Zr  Zr87  1  0.90465963  0.70208957  0.10101406  1
  Zr  Zr88  1  -0.00084534  0.59284283  -0.00004343  1
  Zr  Zr89  1  0.90070894  0.09271503  0.48948396  1
  Zr  Zr90  1  0.10834936  0.68545969  0.89809873  1
  Zr  Zr91  1  0.00424807  0.39467358  0.00188380  1
  Zr  Zr92  1  0.78997187  0.19990010  0.80473866  1
  Zr  Zr93  1  0.19357678  0.79647481  0.59960306  1
  Zr  Zr94  1  0.59012386  0.80701724  0.80281797  1
  Zr  Zr95  1  0.48281759  0.70705560  0.89807953  1
  Zr  Zr96  1  0.10844990  0.29854270  0.70297092  1
  Zr  Zr97  1  0.79435246  0.59604857  0.79542398  1
  Zr  Zr98  1  0.60578901  0.79404008  0.20050933  1
  Zr  Zr99  1  0.38950574  0.00622337  0.39713845  1
  Ta  Ta100  1  0.39551092  0.58913863  0.19550043  1
  Ta  Ta101  1  0.69275680  0.91513781  0.90726304  1
  Ta  Ta102  1  0.90716802  0.69474537  0.29973533  1
  Ta  Ta103  1  0.39860653  0.00423010  0.80172913  1
  Ta  Ta104  1  0.69222993  0.30085331  0.50347414  1
  Ta  Ta105  1  0.91068089  0.49925800  0.70457408  1
  Ta  Ta106  1  0.29606800  0.91294609  0.50825158  1
  Ta  Ta107  1  0.90019352  0.90288889  0.89957320  1
  Ta  Ta108  1  0.10033660  0.90489885  0.69778064  1
  Ta  Ta109  1  0.19690579  0.38998118  0.19578566  1
  Ta  Ta110  1  0.68503721  0.10818810  0.69796524  1
  Ta  Ta111  1  0.00540291  0.20681235  0.39606860  1
  Ta  Ta112  1  0.00190528  0.39461249  0.40478373  1
  Ta  Ta113  1  0.80418976  0.39678945  0.59362203  1
  Ta  Ta114  1  0.30187673  0.90623653  0.69968409  1
  Ta  Ta115  1  0.20609593  0.40753872  0.80878418  1
  Ta  Ta116  1  0.90609464  0.30032195  0.29881077  1
  Ta  Ta117  1  0.58661638  0.59409488  0.79630924  1
  Ta  Ta118  1  0.49641054  0.90420988  0.50341196  1
  Ta  Ta119  1  0.00724774  0.39676081  0.19941053  1
  Ta  Ta120  1  0.10323567  0.90163624  0.28633147  1
  Ta  Ta121  1  0.49575690  0.69811854  0.49505894  1
  Ta  Ta122  1  0.58977878  0.00311321  0.60699081  1
  Ta  Ta123  1  0.59409033  0.60758231  0.00770238  1
  Ta  Ta124  1  0.49510246  0.90855107  0.29580125  1
  Ta  Ta125  1  0.11022039  0.30102834  0.90630908  1
  Ta  Ta126  1  0.29762077  0.30241991  0.50922681  1
  Ta  Ta127  1  0.59990641  0.60364498  0.19788209  1
  Ta  Ta128  1  0.01426804  0.40687415  0.80883104  1
  Ta  Ta129  1  0.30871133  0.89456609  0.90065618  1
  Ta  Ta130  1  0.90530945  0.10364290  0.29376601  1
  Ta  Ta131  1  0.20714761  0.20342840  0.01021184  1
  Ta  Ta132  1  0.39819953  0.39201180  0.80260381  1
  Ta  Ta133  1  0.39764782  0.19716044  0.18928113  1
  Ta  Ta134  1  0.10366437  0.09509182  0.49492702  1
  Ta  Ta135  1  0.00709543  0.59304789  0.59780506  1
  Ta  Ta136  1  0.59400487  0.20188005  0.80256335  1
  Ta  Ta137  1  0.00582487  0.80102745  0.80351806  1
  Ta  Ta138  1  0.90420018  0.69728294  0.89344346  1
  Ta  Ta139  1  0.49481373  0.10438630  0.29498025  1
  Ta  Ta140  1  0.40256956  0.20129623  0.60050585  1
  Ta  Ta141  1  0.49316578  0.10008693  0.90325919  1
  Ta  Ta142  1  -0.00040663  -0.00387443  0.38460783  1
  Ta  Ta143  1  0.00990087  0.20510936  0.19844180  1
  Ta  Ta144  1  0.90902665  0.90509860  0.10873385  1
  Ta  Ta145  1  0.59234986  0.00655792  0.19988552  1
  Ta  Ta146  1  0.48952473  0.90399660  0.70196293  1
  Ta  Ta147  1  0.48888917  0.29831175  0.29558432  1
  Ta  Ta148  1  0.60026972  0.60175068  0.39542965  1
  Ta  Ta149  1  0.00107958  0.59483115  0.19999154  1
  Ti  Ti150  1  0.50305441  0.28849303  0.69822234  1
  Ti  Ti151  1  0.80707075  0.39789789  0.41238488  1
  Ti  Ti152  1  0.69231749  0.49135847  0.49956617  1
  Ti  Ti153  1  0.81620349  -0.00050095  0.20567766  1
  Ti  Ti154  1  0.68888094  0.30772814  0.90879299  1
  Ti  Ti155  1  0.39656347  0.39745948  0.39916320  1
  Ti  Ti156  1  0.10831956  0.50609700  0.70540380  1
  Ti  Ti157  1  0.10427455  0.10954328  0.09999204  1
  Ti  Ti158  1  0.39099288  0.40291944  0.20217420  1
  Ti  Ti159  1  0.10347688  0.89990495  0.10235342  1
  Ti  Ti160  1  0.19951238  0.00798715  0.60690361  1
  Ti  Ti161  1  0.29511296  0.70525071  0.09124363  1
  Ti  Ti162  1  0.00559531  0.00779353  0.60278372  1
  Ti  Ti163  1  0.00925998  0.79640297  0.60408948  1
  Ti  Ti164  1  0.29583724  0.70088827  0.90210432  1
  Ti  Ti165  1  0.20800431  0.20121610  0.80789546  1
  Ti  Ti166  1  0.30179813  0.10173979  0.90930114  1
  Ti  Ti167  1  0.00439490  0.59576851  0.40625889  1
  Ti  Ti168  1  0.49230643  0.70549685  0.70530629  1
  Ti  Ti169  1  0.49428129  0.49887597  0.29739213  1
  Ti  Ti170  1  0.19922697  0.40155388  0.39300065  1
  Ti  Ti171  1  0.10491112  0.11259598  0.69786649  1
  Ti  Ti172  1  0.49447827  0.09537341  0.09606658  1
  Ti  Ti173  1  0.29886808  0.48279390  0.08816157  1
  Ti  Ti174  1  0.48870891  0.70056450  0.10077462  1
  Ti  Ti175  1  0.70738413  0.29869281  0.29970083  1
  Ti  Ti176  1  0.39933532  0.00127002  -0.00730269  1
  Ti  Ti177  1  0.39573924  0.00394494  0.19873062  1
  Ti  Ti178  1  0.40352753  0.19783979  0.80232043  1
  Ti  Ti179  1  0.09625986  0.68675634  0.70656264  1
  Ti  Ti180  1  0.29440290  0.10151260  0.50919936  1
  Ti  Ti181  1  0.59497715  0.20845859  0.39685721  1
  Ti  Ti182  1  0.20454647  -0.00158934  0.39209081  1
  Ti  Ti183  1  0.80131195  0.60046961  0.00731931  1
  Ti  Ti184  1  0.59221016  0.38832593  0.59887568  1
  Ti  Ti185  1  0.79568639  0.01236843  0.80809059  1
  Ti  Ti186  1  0.39905067  0.20113616  0.00165785  1
  Ti  Ti187  1  0.19242559  0.59799966  0.39692343  1
  Ti  Ti188  1  0.70248428  0.91504741  0.29698104  1
  Ti  Ti189  1  0.40145394  0.00779569  0.60595764  1
  Ti  Ti190  1  0.00304036  0.79998159  0.20550199  1
  Ti  Ti191  1  0.58869510  0.38628950  0.79770668  1
  Ti  Ti192  1  0.58617867  0.80439900  0.59899255  1
  Ti  Ti193  1  0.30330307  0.10589870  0.69722031  1
  Ti  Ti194  1  0.39217517  0.58976966  0.39137264  1
  Ti  Ti195  1  0.10374468  0.68843459  0.50355090  1
  Ti  Ti196  1  0.30018183  0.30068836  0.09943037  1
  Ti  Ti197  1  0.49011518  0.30618499  0.09241040  1
  Ti  Ti198  1  0.30031108  0.10630836  0.28766505  1
  Ti  Ti199  1  0.30360981  0.30317586  0.90843378  1
  Mo  Mo200  1  0.20015636  0.58981802  0.80314461  1
  Mo  Mo201  1  0.09366814  0.69678033  0.29921974  1
  Mo  Mo202  1  0.20670535  0.39272049  -0.00137136  1
  Mo  Mo203  1  0.49575820  0.30029882  0.49649784  1
  Mo  Mo204  1  0.50381538  0.48280857  0.70795630  1
  Mo  Mo205  1  0.90736473  0.90228848  0.29215562  1
  Mo  Mo206  1  0.20732477  0.01605271  -0.00137493  1
  Mo  Mo207  1  0.20576079  0.18634559  0.59821639  1
  Mo  Mo208  1  0.18714960  0.59567625  0.60404927  1
  Mo  Mo209  1  0.90784152  0.10192940  0.88821686  1
  Mo  Mo210  1  0.69585900  0.69433860  0.09857109  1
  Mo  Mo211  1  0.29195929  0.49179739  0.70581825  1
  Mo  Mo212  1  0.31038440  0.10348987  0.09140274  1
  Mo  Mo213  1  0.10240382  0.50216575  0.49444045  1
  Mo  Mo214  1  0.00956790  0.20972398  0.80882021  1
  Mo  Mo215  1  0.69086454  0.09983992  0.89519801  1
  Mo  Mo216  1  0.80751910  0.38925448  -0.00358461  1
  Mo  Mo217  1  0.49039980  0.90842972  0.89849843  1
  Mo  Mo218  1  0.00857463  0.20166517  0.00291366  1
  Mo  Mo219  1  0.89881149  0.30622754  0.49487030  1
  Mo  Mo220  1  0.48950206  0.28966488  0.89499962  1
  Mo  Mo221  1  0.21378374  0.59319505  -0.00527750  1
  Mo  Mo222  1  0.81021923  0.80864160  0.60084643  1
  Mo  Mo223  1  0.90897356  0.10370557  0.11661080  1
  Mo  Mo224  1  0.09791758  0.30196616  0.29926781  1
  Mo  Mo225  1  0.19418665  0.80464152  0.19837768  1
  Mo  Mo226  1  0.20360389  0.20252596  0.19133873  1
  Mo  Mo227  1  0.39385098  0.79470562  -0.00382256  1
  Mo  Mo228  1  0.20053290  0.40887706  0.61013957  1
  Mo  Mo229  1  0.69983999  0.69178647  0.29893179  1
  Mo  Mo230  1  0.68457418  0.29830879  0.69257817  1
  Mo  Mo231  1  0.30247679  0.49336294  0.30081296  1
  Mo  Mo232  1  0.20288891  0.79213918  -0.00159989  1
  Mo  Mo233  1  0.00224905  0.59699714  0.79520508  1
  Mo  Mo234  1  0.39406506  0.38805141  0.00089706  1
  Mo  Mo235  1  0.59007409  0.38343613  -0.00001231  1
  Mo  Mo236  1  0.80491834  -0.00076156  0.38624506  1
  Mo  Mo237  1  0.29856655  0.49099237  0.90629443  1
  Mo  Mo238  1  0.90351524  0.49595424  0.10412950  1
  Mo  Mo239  1  0.10958869  0.49743444  0.89754283  1
  Mo  Mo240  1  0.00593894  0.00409549  0.19584336  1
  Mo  Mo241  1  0.39375324  0.81059690  0.79809771  1
  Mo  Mo242  1  0.59597941  0.20397877  0.60371072  1
  Mo  Mo243  1  0.90425118  0.49954569  0.49962769  1
  Mo  Mo244  1  0.92095919  0.29484461  0.89953822  1
  Mo  Mo245  1  0.81141002  0.20356238  0.20896947  1
  Mo  Mo246  1  0.59264990  0.00747917  -0.00038690  1
  Mo  Mo247  1  0.49015127  0.10370604  0.70411713  1
  Mo  Mo248  1  0.29544076  0.90984299  0.29997359  1
  Mo  Mo249  1  0.10761718  0.29584778  0.10192782  1
