# generated using pymatgen
data_HfZrTaTiMo
_symmetry_space_group_name_H-M   'P 1'
_cell_length_a   16.87046552
_cell_length_b   16.87698009
_cell_length_c   16.87913311
_cell_angle_alpha   90.04913663
_cell_angle_beta   90.00474835
_cell_angle_gamma   89.99263030
_symmetry_Int_Tables_number   1
_chemical_formula_structural   HfZrTaTiMo
_chemical_formula_sum   'Hf50 Zr50 Ta50 Ti50 Mo50'
_cell_volume   4805.86733087
_cell_formula_units_Z   50
loop_
 _symmetry_equiv_pos_site_id
 _symmetry_equiv_pos_as_xyz
  1  'x, y, z'
loop_
 _atom_site_type_symbol
 _atom_site_label
 _atom_site_symmetry_multiplicity
 _atom_site_fract_x
 _atom_site_fract_y
 _atom_site_fract_z
 _atom_site_occupancy
  Hf  Hf0  1  0.80009908  0.19463774  0.18927034  1
  Hf  Hf1  1  0.00166693  0.00252936  0.39073012  1
  Hf  Hf2  1  0.29680629  0.49440214  0.30715650  1
  Hf  Hf3  1  0.49153008  0.30802560  0.09526416  1
  Hf  Hf4  1  0.00223415  0.39783641  0.60871017  1
  Hf  Hf5  1  0.58706632  0.40027536  0.78577101  1
  Hf  Hf6  1  0.80283056  0.19779696  0.79991582  1
  Hf  Hf7  1  0.30081717  0.69646621  0.89631906  1
  Hf  Hf8  1  0.60154862  0.20117360  0.00517732  1
  Hf  Hf9  1  -0.00452321  0.19337610  0.39973926  1
  Hf  Hf10  1  0.50235702  0.69601565  0.90284373  1
  Hf  Hf11  1  0.59449337  0.40171074  0.19745953  1
  Hf  Hf12  1  0.81091370  0.60255954  0.79100579  1
  Hf  Hf13  1  0.00282689  0.01068384  0.79287402  1
  Hf  Hf14  1  0.48755722  0.10743714  0.10548620  1
  Hf  Hf15  1  0.20456369  0.20139012  0.79469169  1
  Hf  Hf16  1  0.90436062  0.49675453  0.89870811  1
  Hf  Hf17  1  0.79915256  0.79984793  0.79245119  1
  Hf  Hf18  1  0.89557444  0.29544324  0.29651277  1
  Hf  Hf19  1  0.91078896  0.90178610  0.50661535  1
  Hf  Hf20  1  0.39211889  -0.00807506  0.21621889  1
  Hf  Hf21  1  0.70485278  0.90164227  0.90009221  1
  Hf  Hf22  1  0.10627372  0.49853576  0.29649640  1
  Hf  Hf23  1  0.69549304  0.29282797  0.30231137  1
  Hf  Hf24  1  0.09490395  0.89341001  0.50159135  1
  Hf  Hf25  1  0.69844057  0.69539471  0.30405054  1
  Hf  Hf26  1  0.10077802  0.09509016  0.50737927  1
  Hf  Hf27  1  0.10281253  0.50272577  0.10339200  1
  Hf  Hf28  1  0.50087634  0.69959944  0.30859817  1
  Hf  Hf29  1  0.80484249  0.39764224  0.79639259  1
  Hf  Hf30  1  0.88941313  0.50609796  0.50830857  1
  Hf  Hf31  1  0.80505027  0.00925187  0.01661842  1
  Hf  Hf32  1  0.59759659  -0.00118897  0.00457449  1
  Hf  Hf33  1  0.90074169  0.90081099  0.89857159  1
  Hf  Hf34  1  0.19569946  0.19876430  -0.00667399  1
  Hf  Hf35  1  0.49943234  0.30082705  0.89726891  1
  Hf  Hf36  1  0.80585204  0.00276677  0.40567649  1
  Hf  Hf37  1  0.68988691  0.29059360  0.69326967  1
  Hf  Hf38  1  0.00651527  0.00190916  0.00790805  1
  Hf  Hf39  1  0.19501486  0.39401499  0.59995768  1
  Hf  Hf40  1  0.30885082  0.49720687  0.69478749  1
  Hf  Hf41  1  0.50868272  0.10869693  0.69911648  1
  Hf  Hf42  1  0.70137691  0.90031073  0.10917949  1
  Hf  Hf43  1  0.10448039  0.10499223  0.10734523  1
  Hf  Hf44  1  0.29561732  0.69590013  0.10188837  1
  Hf  Hf45  1  0.69421193  0.69687231  0.10103533  1
  Hf  Hf46  1  0.60189511  0.82094759  0.58896025  1
  Hf  Hf47  1  0.39258786  0.41852835  0.00056641  1
  Hf  Hf48  1  0.19955442  0.39963913  0.79502551  1
  Hf  Hf49  1  0.70075214  0.69859352  0.49495014  1
  Zr  Zr50  1  0.59882410  0.39571220  0.41017972  1
  Zr  Zr51  1  0.49519961  0.70322286  0.49990213  1
  Zr  Zr52  1  0.69800876  0.69168673  0.68122274  1
  Zr  Zr53  1  0.69630880  0.89296507  0.30684378  1
  Zr  Zr54  1  0.49776248  0.11566329  0.32015678  1
  Zr  Zr55  1  0.40292054  0.80204276  0.79075539  1
  Zr  Zr56  1  0.00584439  0.59786139  0.60651720  1
  Zr  Zr57  1  0.89812655  0.10652186  0.90882724  1
  Zr  Zr58  1  0.69615280  0.09652890  0.30057043  1
  Zr  Zr59  1  0.40358886  0.59213591  0.19493128  1
  Zr  Zr60  1  0.31146338  0.69073942  0.69485016  1
  Zr  Zr61  1  0.00263103  0.79206981  0.79580647  1
  Zr  Zr62  1  0.10927634  0.49499667  0.49258823  1
  Zr  Zr63  1  0.29635419  0.11337665  0.30232937  1
  Zr  Zr64  1  -0.00225708  0.60579359  0.40350595  1
  Zr  Zr65  1  0.00516465  0.38574018  0.40817970  1
  Zr  Zr66  1  0.10166951  0.69515702  0.10524005  1
  Zr  Zr67  1  0.40063562  0.80276308  0.20587882  1
  Zr  Zr68  1  0.20266770  0.79314633  0.59898154  1
  Zr  Zr69  1  0.39636001  0.00071791  0.00149562  1
  Zr  Zr70  1  0.28762456  0.92143038  0.69772557  1
  Zr  Zr71  1  0.09708775  0.49971314  0.89807492  1
  Zr  Zr72  1  -0.00854857  0.39577384  0.19050953  1
  Zr  Zr73  1  0.20283874  -0.01015033  0.39057055  1
  Zr  Zr74  1  0.60442452  0.80170954  0.78871868  1
  Zr  Zr75  1  0.49707661  0.10801408  0.89245952  1
  Zr  Zr76  1  0.70234261  0.49868403  0.68503414  1
  Zr  Zr77  1  0.59366144  0.59782675  0.79482947  1
  Zr  Zr78  1  0.70142842  0.50938743  0.50044615  1
  Zr  Zr79  1  0.89398091  0.50358957  0.30452283  1
  Zr  Zr80  1  0.29881844  0.90181475  0.89548197  1
  Zr  Zr81  1  0.58191390  -0.00650994  0.20846531  1
  Zr  Zr82  1  0.80164110  0.60437502  -0.00135038  1
  Zr  Zr83  1  0.59179728  -0.01144885  0.42001982  1
  Zr  Zr84  1  0.10450149  0.90313750  0.89241023  1
  Zr  Zr85  1  0.69730089  0.10332664  0.89592826  1
  Zr  Zr86  1  0.29749602  0.29815241  0.10317013  1
  Zr  Zr87  1  0.01010012  0.19747016  0.79763702  1
  Zr  Zr88  1  0.09731610  0.69873008  0.29964569  1
  Zr  Zr89  1  0.49170819  0.49297322  0.30320564  1
  Zr  Zr90  1  0.19153703  0.21544960  0.41004466  1
  Zr  Zr91  1  0.31036377  0.30203621  0.89856987  1
  Zr  Zr92  1  0.79697036  0.39001353  0.40431079  1
  Zr  Zr93  1  0.20210994  0.80984793  0.20945773  1
  Zr  Zr94  1  0.29602412  0.10519785  0.51332335  1
  Zr  Zr95  1  0.89999980  0.29118361  0.69762076  1
  Zr  Zr96  1  0.69277680  0.49680792  0.90561141  1
  Zr  Zr97  1  0.13074393  0.08487055  0.68826869  1
  Zr  Zr98  1  0.50097461  0.90430821  0.89188100  1
  Zr  Zr99  1  0.80925784  0.79870512  0.20205852  1
  Ta  Ta100  1  0.79952527  0.80879078  0.59863328  1
  Ta  Ta101  1  0.20280253  0.59544378  0.59561848  1
  Ta  Ta102  1  0.59977931  0.80000408  0.00178694  1
  Ta  Ta103  1  0.20774556  0.60326655  0.40712438  1
  Ta  Ta104  1  0.19863758  0.40438196  -0.00295828  1
  Ta  Ta105  1  0.80441049  0.79879214  0.00264749  1
  Ta  Ta106  1  0.59403888  0.59454801  0.40112100  1
  Ta  Ta107  1  0.00143992  0.59854774  0.79318577  1
  Ta  Ta108  1  0.20491596  0.79603615  0.39916239  1
  Ta  Ta109  1  0.70025111  0.10462032  0.69336306  1
  Ta  Ta110  1  0.69819035  0.30306548  0.09473095  1
  Ta  Ta111  1  0.09572322  0.30396649  0.90056828  1
  Ta  Ta112  1  0.00315206  0.80056586  0.00641831  1
  Ta  Ta113  1  -0.00123133  0.20020940  0.19559256  1
  Ta  Ta114  1  0.39927303  0.59606823  0.00075327  1
  Ta  Ta115  1  0.50391323  0.69650847  0.09571943  1
  Ta  Ta116  1  0.70169187  0.50563108  0.29915039  1
  Ta  Ta117  1  0.80328956  0.00181588  0.78559681  1
  Ta  Ta118  1  0.00051210  0.60351244  -0.00148550  1
  Ta  Ta119  1  0.39674299  0.21026704  0.20780488  1
  Ta  Ta120  1  0.29769743  0.10397540  0.10645245  1
  Ta  Ta121  1  0.80151456  0.59672360  0.19718692  1
  Ta  Ta122  1  0.39955361  0.79644495  0.00418349  1
  Ta  Ta123  1  0.30518986  0.30509278  0.50416116  1
  Ta  Ta124  1  0.19638483  0.80158993  0.00061554  1
  Ta  Ta125  1  -0.00125560  0.20511648  0.00232438  1
  Ta  Ta126  1  0.40029958  -0.00369944  0.40749375  1
  Ta  Ta127  1  0.90702792  0.90220739  0.69141638  1
  Ta  Ta128  1  0.80574482  0.80273520  0.40573417  1
  Ta  Ta129  1  -0.00343662  0.39345507  0.00084055  1
  Ta  Ta130  1  0.89793928  0.28514286  0.50886717  1
  Ta  Ta131  1  0.59388573  0.20633978  0.20094003  1
  Ta  Ta132  1  0.69839127  0.30009746  0.90263809  1
  Ta  Ta133  1  0.19645007  0.79264046  0.79619083  1
  Ta  Ta134  1  0.79559744  0.38688172  0.59586840  1
  Ta  Ta135  1  0.19649315  -0.00573308  0.20105071  1
  Ta  Ta136  1  0.49971613  0.91449661  0.69507106  1
  Ta  Ta137  1  0.60437330  0.00285956  0.59661324  1
  Ta  Ta138  1  0.20586603  0.59386752  -0.00669348  1
  Ta  Ta139  1  0.90557452  0.70065855  0.10171571  1
  Ta  Ta140  1  0.19546633  0.59856365  0.79308801  1
  Ta  Ta141  1  0.80186103  0.19131402  0.40869718  1
  Ta  Ta142  1  0.19831315  0.00248305  0.00416882  1
  Ta  Ta143  1  0.49581643  0.29148393  0.49824473  1
  Ta  Ta144  1  0.79469159  0.40272074  0.19072133  1
  Ta  Ta145  1  0.29574036  0.90136243  0.09752991  1
  Ta  Ta146  1  0.80271615  0.39412403  0.00008456  1
  Ta  Ta147  1  0.10533553  0.29968238  0.29159787  1
  Ta  Ta148  1  0.30978003  0.69372401  0.49757369  1
  Ta  Ta149  1  0.69365561  0.49812068  0.09617141  1
  Ti  Ti150  1  0.49524765  0.89322771  0.09761604  1
  Ti  Ti151  1  0.40638577  0.00709220  0.59474343  1
  Ti  Ti152  1  0.30304677  0.69168193  0.30638293  1
  Ti  Ti153  1  0.61134435  -0.00113040  0.78763102  1
  Ti  Ti154  1  0.30275813  0.89735269  0.50099365  1
  Ti  Ti155  1  0.89768888  0.09442081  0.28639418  1
  Ti  Ti156  1  0.48732175  0.49740998  0.49989822  1
  Ti  Ti157  1  0.39602156  0.80919195  0.39865910  1
  Ti  Ti158  1  0.90077871  0.70255053  0.30345591  1
  Ti  Ti159  1  0.50476555  0.49755157  0.90735514  1
  Ti  Ti160  1  0.90036474  0.70615824  0.50165739  1
  Ti  Ti161  1  0.10220930  0.30085854  0.10041070  1
  Ti  Ti162  1  0.89708512  0.50324184  0.09520305  1
  Ti  Ti163  1  0.49391563  0.69252178  0.69065819  1
  Ti  Ti164  1  0.69574021  0.70081405  0.90375158  1
  Ti  Ti165  1  0.69834207  0.10638629  0.50287867  1
  Ti  Ti166  1  0.39344498  0.01400848  0.79134727  1
  Ti  Ti167  1  0.40413187  0.58128320  0.80591303  1
  Ti  Ti168  1  0.41441266  0.39779412  0.60438809  1
  Ti  Ti169  1  0.10416673  0.10772504  0.29217288  1
  Ti  Ti170  1  0.09935466  0.90132267  0.69155786  1
  Ti  Ti171  1  0.39397820  0.39770508  0.40738908  1
  Ti  Ti172  1  0.29181667  0.50060831  0.11079563  1
  Ti  Ti173  1  0.80055504  0.00597217  0.60001082  1
  Ti  Ti174  1  0.90367356  0.90113121  0.10608778  1
  Ti  Ti175  1  0.30342480  0.10386248  0.89923652  1
  Ti  Ti176  1  0.10201033  0.69954375  0.69561346  1
  Ti  Ti177  1  0.40249637  0.80960012  0.60089369  1
  Ti  Ti178  1  0.59719372  0.59277306  0.19880236  1
  Ti  Ti179  1  0.90617214  0.70257077  0.90428204  1
  Ti  Ti180  1  0.09694374  0.70562266  0.49878026  1
  Ti  Ti181  1  0.00559312  -0.00439147  0.20072739  1
  Ti  Ti182  1  -0.00939847  0.59938709  0.19808130  1
  Ti  Ti183  1  0.10155491  0.69802522  0.90113646  1
  Ti  Ti184  1  0.59589716  0.20063099  0.58792196  1
  Ti  Ti185  1  0.40129534  0.20614231  0.78674386  1
  Ti  Ti186  1  0.90583129  0.89724480  0.30041747  1
  Ti  Ti187  1  0.89246277  0.29275056  0.09046038  1
  Ti  Ti188  1  0.00173978  0.39971991  0.79240929  1
  Ti  Ti189  1  0.00485002  0.19246548  0.60546890  1
  Ti  Ti190  1  0.90292309  0.70521299  0.68468125  1
  Ti  Ti191  1  0.30987050  0.30180644  0.69429869  1
  Ti  Ti192  1  0.69553300  0.09901929  0.10941631  1
  Ti  Ti193  1  0.40177909  0.20150319  0.60220260  1
  Ti  Ti194  1  0.59035784  0.80176272  0.20325713  1
  Ti  Ti195  1  0.20264104  0.39476076  0.19969379  1
  Ti  Ti196  1  0.29936306  0.30536399  0.30435477  1
  Ti  Ti197  1  0.58010277  0.58556673  0.59652337  1
  Ti  Ti198  1  0.00517644  0.80889309  0.20016336  1
  Ti  Ti199  1  0.49220515  0.30026872  0.30754172  1
  Mo  Mo200  1  0.49505126  0.49694792  0.69258455  1
  Mo  Mo201  1  0.79924328  0.61148979  0.39488901  1
  Mo  Mo202  1  0.30615148  0.49691461  0.50109185  1
  Mo  Mo203  1  0.30043996  0.89874394  0.30624650  1
  Mo  Mo204  1  0.70450963  0.91210000  0.69418481  1
  Mo  Mo205  1  0.40398542  0.40413005  0.79618415  1
  Mo  Mo206  1  0.39563836  0.39488114  0.20298318  1
  Mo  Mo207  1  0.90114574  0.49942596  0.70107545  1
  Mo  Mo208  1  0.79774914  0.20604003  0.00316186  1
  Mo  Mo209  1  0.71709169  0.90183575  0.50143052  1
  Mo  Mo210  1  0.59899800  0.80046105  0.40306029  1
  Mo  Mo211  1  0.60207148  0.20386595  0.79781569  1
  Mo  Mo212  1  0.69785163  0.28602807  0.50245680  1
  Mo  Mo213  1  0.31081496  0.10654201  0.69769810  1
  Mo  Mo214  1  0.49754350  0.29817196  0.68989115  1
  Mo  Mo215  1  0.20252560  0.01364785  0.81880605  1
  Mo  Mo216  1  0.50551022  0.50420053  0.09418394  1
  Mo  Mo217  1  0.90234935  0.10017316  0.50937421  1
  Mo  Mo218  1  0.81367863  -0.00004489  0.20164636  1
  Mo  Mo219  1  -0.00338810  0.79946763  0.39671883  1
  Mo  Mo220  1  0.59471751  0.60014762  0.00411317  1
  Mo  Mo221  1  0.49674473  0.88959652  0.31642878  1
  Mo  Mo222  1  0.60157431  0.40090079  -0.00119192  1
  Mo  Mo223  1  0.39677441  0.59757563  0.40385872  1
  Mo  Mo224  1  0.19717963  0.20431410  0.20301275  1
  Mo  Mo225  1  0.10209744  0.90184752  0.10171432  1
  Mo  Mo226  1  -0.00039416  0.79600091  0.60223153  1
  Mo  Mo227  1  0.59089893  0.39431370  0.59338960  1
  Mo  Mo228  1  0.20203309  0.21850841  0.60574145  1
  Mo  Mo229  1  0.09358955  0.29310656  0.50823178  1
  Mo  Mo230  1  0.81231222  0.61101438  0.59744821  1
  Mo  Mo231  1  0.10339383  0.10451921  0.90698318  1
  Mo  Mo232  1  0.20469908  -0.01401525  0.58354496  1
  Mo  Mo233  1  0.89529952  0.09496462  0.68966543  1
  Mo  Mo234  1  0.09882284  0.29626271  0.70223621  1
  Mo  Mo235  1  0.10317709  0.50377529  0.70197402  1
  Mo  Mo236  1  0.00108252  0.00143905  0.60365056  1
  Mo  Mo237  1  0.48200382  0.90222558  0.50744989  1
  Mo  Mo238  1  0.39576153  0.21074114  0.40570135  1
  Mo  Mo239  1  0.90331001  0.30353584  0.90454506  1
  Mo  Mo240  1  0.29895607  0.50488715  0.89339471  1
  Mo  Mo241  1  0.79688530  0.19097120  0.59592977  1
  Mo  Mo242  1  0.60048907  0.20193192  0.40706837  1
  Mo  Mo243  1  0.90962909  0.10150516  0.10818550  1
  Mo  Mo244  1  0.09313016  0.89610036  0.29963040  1
  Mo  Mo245  1  0.40026025  0.59070495  0.59286130  1
  Mo  Mo246  1  0.39380489  0.19576824  0.00753102  1
  Mo  Mo247  1  0.49509210  0.10344394  0.50763658  1
  Mo  Mo248  1  0.20493567  0.39568300  0.40076828  1
  Mo  Mo249  1  0.20578166  0.59596938  0.20626589  1
