# generated using pymatgen
data_HfZrTaTiMo
_symmetry_space_group_name_H-M   'P 1'
_cell_length_a   16.89007377
_cell_length_b   16.88600875
_cell_length_c   16.89889426
_cell_angle_alpha   89.96330648
_cell_angle_beta   90.03163682
_cell_angle_gamma   90.00127121
_symmetry_Int_Tables_number   1
_chemical_formula_structural   HfZrTaTiMo
_chemical_formula_sum   'Hf50 Zr50 Ta50 Ti50 Mo50'
_cell_volume   4819.66318784
_cell_formula_units_Z   50
loop_
 _symmetry_equiv_pos_site_id
 _symmetry_equiv_pos_as_xyz
  1  'x, y, z'
loop_
 _atom_site_type_symbol
 _atom_site_label
 _atom_site_symmetry_multiplicity
 _atom_site_fract_x
 _atom_site_fract_y
 _atom_site_fract_z
 _atom_site_occupancy
  Hf  Hf0  1  0.00250185  0.59619495  -0.00124647  1
  Hf  Hf1  1  0.80315846  -0.00624111  0.59862402  1
  Hf  Hf2  1  0.89115265  0.69707951  0.68777171  1
  Hf  Hf3  1  0.89636025  0.10197312  0.89992869  1
  Hf  Hf4  1  0.80632335  0.80519108  0.00649931  1
  Hf  Hf5  1  0.50276919  0.10255561  0.29958312  1
  Hf  Hf6  1  0.39577846  0.80332567  0.40615368  1
  Hf  Hf7  1  0.09283593  0.11079994  0.10289840  1
  Hf  Hf8  1  -0.00481606  0.18998901  0.59427947  1
  Hf  Hf9  1  -0.00028432  0.80218183  -0.00341571  1
  Hf  Hf10  1  0.49212798  0.69634772  0.70220769  1
  Hf  Hf11  1  -0.00333803  0.80826937  0.78735246  1
  Hf  Hf12  1  0.69324077  0.89887598  0.30956624  1
  Hf  Hf13  1  0.40061127  -0.00032429  0.40293091  1
  Hf  Hf14  1  0.29650605  0.89502375  0.10833218  1
  Hf  Hf15  1  0.60579603  0.59351720  0.80331846  1
  Hf  Hf16  1  0.29542264  0.31067197  0.29630804  1
  Hf  Hf17  1  0.49986398  0.69027223  0.10070629  1
  Hf  Hf18  1  0.29946151  0.09955761  0.29466034  1
  Hf  Hf19  1  0.79156261  0.20621012  0.00282801  1
  Hf  Hf20  1  0.90354410  0.69449549  0.10328334  1
  Hf  Hf21  1  0.68654873  0.09343113  0.48887401  1
  Hf  Hf22  1  0.19553280  0.19471600  0.59719999  1
  Hf  Hf23  1  0.69680338  0.49524277  0.11123666  1
  Hf  Hf24  1  0.90174014  0.29573985  0.89304606  1
  Hf  Hf25  1  0.70225517  0.30702047  0.49725136  1
  Hf  Hf26  1  -0.00289074  0.59575441  0.80059449  1
  Hf  Hf27  1  0.19965110  -0.00049284  -0.00481078  1
  Hf  Hf28  1  0.80563050  0.19659699  0.59285384  1
  Hf  Hf29  1  0.29390002  0.70181042  0.10364690  1
  Hf  Hf30  1  0.08788666  0.10730347  0.89652137  1
  Hf  Hf31  1  -0.00148179  0.40556240  0.20594933  1
  Hf  Hf32  1  0.09809691  0.30104185  0.48947479  1
  Hf  Hf33  1  0.30482377  0.30240625  0.49798302  1
  Hf  Hf34  1  0.59650702  0.59726678  0.59599089  1
  Hf  Hf35  1  0.89770109  0.49832123  0.10448074  1
  Hf  Hf36  1  0.09997146  0.69612808  0.69514271  1
  Hf  Hf37  1  -0.00030238  0.00336527  0.39739023  1
  Hf  Hf38  1  0.19389498  -0.00172839  0.59796539  1
  Hf  Hf39  1  0.40788680  0.40918907  0.19795221  1
  Hf  Hf40  1  0.79603125  0.59652188  0.79887102  1
  Hf  Hf41  1  0.90258767  0.29681411  0.10357696  1
  Hf  Hf42  1  0.48591879  0.50180799  0.69891480  1
  Hf  Hf43  1  0.70285013  0.30643282  0.70542938  1
  Hf  Hf44  1  0.81005202  0.00197193  0.20775345  1
  Hf  Hf45  1  0.20124549  0.39913135  0.60768104  1
  Hf  Hf46  1  0.39910694  0.21266389  0.19285114  1
  Hf  Hf47  1  0.19882765  0.60285147  0.39939148  1
  Hf  Hf48  1  0.20051141  0.80511729  0.59305671  1
  Hf  Hf49  1  0.09631437  0.30362405  0.10035137  1
  Zr  Zr50  1  0.30059084  0.50410595  0.90350479  1
  Zr  Zr51  1  0.70759907  0.09700258  0.89533736  1
  Zr  Zr52  1  0.60720930  0.79236034  0.00320398  1
  Zr  Zr53  1  0.20066615  0.80448958  0.80025151  1
  Zr  Zr54  1  0.70498031  0.90612150  0.89838183  1
  Zr  Zr55  1  0.39945280  -0.00564891  0.80945866  1
  Zr  Zr56  1  0.20180016  0.39535390  0.80682830  1
  Zr  Zr57  1  0.81148331  0.00631190  0.39899094  1
  Zr  Zr58  1  0.78862679  0.59851141  -0.00984622  1
  Zr  Zr59  1  0.80381631  0.19767781  0.39350607  1
  Zr  Zr60  1  0.59903218  0.00283909  0.19757703  1
  Zr  Zr61  1  0.00837560  0.78732630  0.20379069  1
  Zr  Zr62  1  0.70530948  0.49289943  0.50173297  1
  Zr  Zr63  1  0.60366265  0.40475200  -0.00370096  1
  Zr  Zr64  1  0.80733508  0.79243682  0.39522482  1
  Zr  Zr65  1  0.59008080  0.19954347  0.60109829  1
  Zr  Zr66  1  0.69925256  0.69515063  0.49616671  1
  Zr  Zr67  1  0.51497846  0.10185003  0.89821872  1
  Zr  Zr68  1  0.09221223  0.28719936  0.71367228  1
  Zr  Zr69  1  0.30483038  0.10356197  0.09957517  1
  Zr  Zr70  1  -0.00115897  0.39547728  0.60474865  1
  Zr  Zr71  1  0.30180888  0.10846366  0.90260305  1
  Zr  Zr72  1  0.30296934  0.10187560  0.70184674  1
  Zr  Zr73  1  0.39439570  0.79914185  0.82051838  1
  Zr  Zr74  1  0.10718198  0.89219821  0.10725095  1
  Zr  Zr75  1  0.79131852  0.39848603  -0.00859667  1
  Zr  Zr76  1  0.60574433  0.79813556  0.19618162  1
  Zr  Zr77  1  0.50517356  0.70187641  0.30777066  1
  Zr  Zr78  1  0.40635874  -0.00834865  -0.00050538  1
  Zr  Zr79  1  0.31578259  0.29582660  0.69374864  1
  Zr  Zr80  1  0.80557355  0.59871318  0.21468486  1
  Zr  Zr81  1  0.30229761  0.90154964  0.69745141  1
  Zr  Zr82  1  0.28746304  0.50222737  0.10719638  1
  Zr  Zr83  1  0.30967196  0.69147188  0.69393173  1
  Zr  Zr84  1  0.40229399  0.39689668  0.00967376  1
  Zr  Zr85  1  0.90144450  0.09710131  0.71489873  1
  Zr  Zr86  1  0.49789798  0.88945577  0.70210698  1
  Zr  Zr87  1  0.59133210  0.00006566  0.59829717  1
  Zr  Zr88  1  -0.00901880  -0.00593172  0.01306315  1
  Zr  Zr89  1  0.40135216  0.39602803  0.80682437  1
  Zr  Zr90  1  0.49484806  0.31278077  0.50058969  1
  Zr  Zr91  1  0.20003068  -0.00609451  0.39878519  1
  Zr  Zr92  1  0.59847619  0.79789276  0.59608803  1
  Zr  Zr93  1  0.89481937  0.91543606  0.88679755  1
  Zr  Zr94  1  0.39939339  0.80094032  -0.00096643  1
  Zr  Zr95  1  0.09622000  0.49972371  0.49604938  1
  Zr  Zr96  1  0.16964368  0.61271385  0.19370469  1
  Zr  Zr97  1  0.30955012  0.49695356  0.50789174  1
  Zr  Zr98  1  0.40287791  0.59572149  0.39384145  1
  Zr  Zr99  1  0.70122872  0.10471483  0.70888621  1
  Ta  Ta100  1  -0.00136336  0.40423506  0.80180906  1
  Ta  Ta101  1  0.30039829  0.70119792  0.50016069  1
  Ta  Ta102  1  0.79677916  0.39443062  0.22078645  1
  Ta  Ta103  1  0.19887844  0.21027794  0.20050339  1
  Ta  Ta104  1  0.50552934  0.11158072  0.09515371  1
  Ta  Ta105  1  0.30444091  0.50941344  0.70076498  1
  Ta  Ta106  1  -0.00282511  0.19690587  0.39743857  1
  Ta  Ta107  1  0.51293586  0.30264949  0.10250308  1
  Ta  Ta108  1  0.71002714  0.90830035  0.10105627  1
  Ta  Ta109  1  0.09438880  0.89099062  0.49075894  1
  Ta  Ta110  1  0.19953682  0.19861685  0.39537321  1
  Ta  Ta111  1  0.70284697  0.70024176  0.69399002  1
  Ta  Ta112  1  0.89635314  0.70472473  0.89238255  1
  Ta  Ta113  1  0.69412157  0.69310743  0.30725556  1
  Ta  Ta114  1  0.91280988  0.88952055  0.30266107  1
  Ta  Ta115  1  0.89314226  0.49495167  0.69401443  1
  Ta  Ta116  1  0.09580802  0.50091559  0.29860082  1
  Ta  Ta117  1  -0.00007870  0.80254731  0.59803166  1
  Ta  Ta118  1  0.40208338  -0.00190537  0.58742064  1
  Ta  Ta119  1  -0.00090108  -0.00015706  0.20760091  1
  Ta  Ta120  1  0.29471062  0.70536036  0.29557492  1
  Ta  Ta121  1  0.90039060  0.11026814  0.10707457  1
  Ta  Ta122  1  0.29540918  0.89196391  0.29521205  1
  Ta  Ta123  1  0.90182410  0.69672036  0.50123601  1
  Ta  Ta124  1  0.09673015  0.70243952  0.89483823  1
  Ta  Ta125  1  0.09622557  0.70231605  0.49714274  1
  Ta  Ta126  1  0.50646173  0.30442061  0.29805457  1
  Ta  Ta127  1  0.50918700  0.29665024  0.90034784  1
  Ta  Ta128  1  0.30116824  0.10295964  0.49696134  1
  Ta  Ta129  1  0.69882298  0.89647689  0.49555330  1
  Ta  Ta130  1  -0.00722384  0.60310394  0.39202477  1
  Ta  Ta131  1  0.60919825  0.20779983  0.00254579  1
  Ta  Ta132  1  0.79635542  0.80609950  0.78500492  1
  Ta  Ta133  1  0.19870278  0.59979680  0.80315430  1
  Ta  Ta134  1  0.90297087  0.89322946  0.50041633  1
  Ta  Ta135  1  0.52304416  0.89389795  0.89798738  1
  Ta  Ta136  1  0.18690940  0.60245816  -0.00190369  1
  Ta  Ta137  1  0.10065240  0.50203100  0.70339268  1
  Ta  Ta138  1  0.40081342  0.20142864  0.39757002  1
  Ta  Ta139  1  0.89443367  0.49798858  0.50251137  1
  Ta  Ta140  1  0.89711085  0.30774343  0.49399499  1
  Ta  Ta141  1  0.70267579  0.10353564  0.10396257  1
  Ta  Ta142  1  0.09171477  0.29491109  0.90842295  1
  Ta  Ta143  1  0.80658975  0.59447526  0.39847955  1
  Ta  Ta144  1  0.80433328  0.79920696  0.20350093  1
  Ta  Ta145  1  0.50058509  0.89927832  0.30320656  1
  Ta  Ta146  1  0.59986021  0.59350498  0.20324753  1
  Ta  Ta147  1  -0.00148765  0.59728894  0.59549625  1
  Ta  Ta148  1  0.09778805  0.91152621  0.88623821  1
  Ta  Ta149  1  0.09947841  0.10756159  0.29443364  1
  Ti  Ti150  1  0.40362503  0.59509526  0.20313999  1
  Ti  Ti151  1  0.60792411  -0.01337009  0.78747979  1
  Ti  Ti152  1  0.19820359  0.59802544  0.59844092  1
  Ti  Ti153  1  0.09963736  0.09878042  0.49300436  1
  Ti  Ti154  1  0.69803993  0.49676424  0.30837641  1
  Ti  Ti155  1  0.59267529  0.20505188  0.39944211  1
  Ti  Ti156  1  -0.00865668  0.40407522  0.39460792  1
  Ti  Ti157  1  0.09954980  0.30192174  0.29969273  1
  Ti  Ti158  1  0.00170030  0.40583049  -0.00224420  1
  Ti  Ti159  1  0.60471413  0.59462957  -0.00214455  1
  Ti  Ti160  1  0.50748484  0.89650440  0.49123226  1
  Ti  Ti161  1  0.28706218  0.50276644  0.29115539  1
  Ti  Ti162  1  0.40532442  -0.00241341  0.19799664  1
  Ti  Ti163  1  0.19161892  -0.00100062  0.20497687  1
  Ti  Ti164  1  0.69853795  0.30435378  0.11780294  1
  Ti  Ti165  1  0.89202617  0.30170525  0.70584251  1
  Ti  Ti166  1  0.69177322  0.10203302  0.30148732  1
  Ti  Ti167  1  0.59443844  0.40362054  0.60627576  1
  Ti  Ti168  1  0.00105231  -0.00594334  0.60184534  1
  Ti  Ti169  1  0.79780830  0.20159465  0.21000588  1
  Ti  Ti170  1  0.60607112  0.00273882  0.00790932  1
  Ti  Ti171  1  0.51317524  0.49871630  0.30052542  1
  Ti  Ti172  1  0.70786516  0.49222451  0.69664911  1
  Ti  Ti173  1  0.20219431  0.20144741  0.80607249  1
  Ti  Ti174  1  0.49974982  0.10111589  0.70787762  1
  Ti  Ti175  1  0.60565334  0.20590817  0.20269065  1
  Ti  Ti176  1  0.50518576  0.89973503  0.10083602  1
  Ti  Ti177  1  0.20353930  0.20770435  0.00691000  1
  Ti  Ti178  1  0.19656630  0.39989409  0.00590670  1
  Ti  Ti179  1  0.40428786  0.59496550  0.00134688  1
  Ti  Ti180  1  0.89368066  0.49355282  0.89331563  1
  Ti  Ti181  1  0.19692872  0.79925034  -0.00927431  1
  Ti  Ti182  1  0.10111613  0.71437779  0.31745716  1
  Ti  Ti183  1  0.50124504  0.49959360  0.49573717  1
  Ti  Ti184  1  0.40352215  0.80049187  0.20243304  1
  Ti  Ti185  1  0.30531009  0.29249370  0.91421676  1
  Ti  Ti186  1  0.29553184  0.69128250  0.90493208  1
  Ti  Ti187  1  0.50375605  0.30270985  0.70627282  1
  Ti  Ti188  1  0.60351595  0.39872536  0.39167014  1
  Ti  Ti189  1  0.40195118  0.40570609  0.39006622  1
  Ti  Ti190  1  0.10094425  0.49500751  0.89924483  1
  Ti  Ti191  1  0.90181423  0.29860987  0.30351710  1
  Ti  Ti192  1  0.50450158  0.69561701  0.89912854  1
  Ti  Ti193  1  0.70388681  0.69409175  0.10617117  1
  Ti  Ti194  1  0.70090318  0.70880832  0.89081038  1
  Ti  Ti195  1  0.50178102  0.50090600  0.89849034  1
  Ti  Ti196  1  0.09742386  0.09114553  0.71453315  1
  Ti  Ti197  1  0.40855992  0.20244173  0.80645910  1
  Ti  Ti198  1  0.19774673  0.40442415  0.39443299  1
  Ti  Ti199  1  0.40943468  0.18794369  0.59081227  1
  Mo  Mo200  1  0.29880714  0.90074493  0.49916806  1
  Mo  Mo201  1  0.90172345  0.49642139  0.30830695  1
  Mo  Mo202  1  0.70150265  0.89161369  0.69308657  1
  Mo  Mo203  1  0.69389971  0.29778353  0.30207944  1
  Mo  Mo204  1  0.49390904  0.10261060  0.49220078  1
  Mo  Mo205  1  0.69581172  0.49388718  0.88798024  1
  Mo  Mo206  1  0.40428668  0.60291509  0.58568661  1
  Mo  Mo207  1  0.60357330  0.59080974  0.39631900  1
  Mo  Mo208  1  0.91115697  0.10926672  0.29330174  1
  Mo  Mo209  1  0.59716059  0.20852142  0.80180038  1
  Mo  Mo210  1  0.28204085  0.90170218  0.90497020  1
  Mo  Mo211  1  0.80062373  0.80002484  0.59383559  1
  Mo  Mo212  1  0.19122506  0.40313130  0.20390937  1
  Mo  Mo213  1  0.09449975  0.90759825  0.69198565  1
  Mo  Mo214  1  0.79979983  0.00720292  0.02197756  1
  Mo  Mo215  1  0.79765219  0.21163623  0.80332997  1
  Mo  Mo216  1  0.40044015  0.80125389  0.58369055  1
  Mo  Mo217  1  0.60048018  0.40374174  0.79982469  1
  Mo  Mo218  1  0.00105978  0.20520516  0.20741804  1
  Mo  Mo219  1  0.19325213  0.00403204  0.79937120  1
  Mo  Mo220  1  0.50519644  0.50661755  0.10278832  1
  Mo  Mo221  1  0.80454650  0.39997995  0.39507611  1
  Mo  Mo222  1  0.89939051  0.89800808  0.68726670  1
  Mo  Mo223  1  0.90976587  0.09803547  0.50009330  1
  Mo  Mo224  1  0.39957054  0.60121688  0.82047412  1
  Mo  Mo225  1  0.60277744  0.40059474  0.20751384  1
  Mo  Mo226  1  0.20131850  0.79882371  0.40101814  1
  Mo  Mo227  1  0.80311972  0.40483728  0.79713300  1
  Mo  Mo228  1  0.00138294  0.79738007  0.40384767  1
  Mo  Mo229  1  0.00087670  0.59818781  0.20652977  1
  Mo  Mo230  1  0.80498181  0.39661179  0.59938486  1
  Mo  Mo231  1  0.40458465  0.40547280  0.60376992  1
  Mo  Mo232  1  0.69532011  0.29847182  0.88441687  1
  Mo  Mo233  1  0.59515198  -0.00268425  0.39845147  1
  Mo  Mo234  1  -0.00333116  0.20234182  0.80082495  1
  Mo  Mo235  1  0.80141479  0.59543753  0.59783263  1
  Mo  Mo236  1  0.89812992  0.89860927  0.11710868  1
  Mo  Mo237  1  -0.00428295  0.20266514  0.00384982  1
  Mo  Mo238  1  0.00098219  -0.00098829  0.79010673  1
  Mo  Mo239  1  0.59691490  0.80022509  0.40234731  1
  Mo  Mo240  1  0.90298356  0.69637930  0.30271840  1
  Mo  Mo241  1  0.60657276  0.79037480  0.79977254  1
  Mo  Mo242  1  0.49346667  0.69739501  0.50198149  1
  Mo  Mo243  1  0.41253523  0.20904877  0.00260659  1
  Mo  Mo244  1  0.79761560  -0.01408051  0.78056085  1
  Mo  Mo245  1  0.19903185  0.79881950  0.20952695  1
  Mo  Mo246  1  0.09356593  0.49547789  0.09419111  1
  Mo  Mo247  1  0.10304050  0.90225218  0.30212318  1
  Mo  Mo248  1  0.09930877  0.70260564  0.08185637  1
  Mo  Mo249  1  0.29198857  0.30422130  0.09754355  1
