# generated using pymatgen
data_HfZrTaTiMo
_symmetry_space_group_name_H-M   'P 1'
_cell_length_a   16.88397674
_cell_length_b   16.89005539
_cell_length_c   16.88616242
_cell_angle_alpha   89.95471801
_cell_angle_beta   89.99319390
_cell_angle_gamma   89.95793696
_symmetry_Int_Tables_number   1
_chemical_formula_structural   HfZrTaTiMo
_chemical_formula_sum   'Hf50 Zr50 Ta50 Ti50 Mo50'
_cell_volume   4815.44609252
_cell_formula_units_Z   50
loop_
 _symmetry_equiv_pos_site_id
 _symmetry_equiv_pos_as_xyz
  1  'x, y, z'
loop_
 _atom_site_type_symbol
 _atom_site_label
 _atom_site_symmetry_multiplicity
 _atom_site_fract_x
 _atom_site_fract_y
 _atom_site_fract_z
 _atom_site_occupancy
  Hf  Hf0  1  0.90095408  0.10885477  0.29272117  1
  Hf  Hf1  1  0.21209383  0.59243004  0.79353040  1
  Hf  Hf2  1  0.70026652  0.10968418  0.71194309  1
  Hf  Hf3  1  0.39717062  0.79067932  -0.00672701  1
  Hf  Hf4  1  0.90626896  0.50208484  0.29500236  1
  Hf  Hf5  1  0.49642620  0.68952356  0.10571091  1
  Hf  Hf6  1  0.70306262  0.29761394  0.30334390  1
  Hf  Hf7  1  0.59718377  -0.00725104  0.79879994  1
  Hf  Hf8  1  0.20123860  0.59470158  0.40200934  1
  Hf  Hf9  1  0.59685575  0.20340520  0.59939942  1
  Hf  Hf10  1  0.49520633  0.88573213  0.51346404  1
  Hf  Hf11  1  0.20633301  0.79037069  0.79903347  1
  Hf  Hf12  1  -0.00001808  0.59461870  0.60794542  1
  Hf  Hf13  1  0.19622543  0.20794437  0.79847609  1
  Hf  Hf14  1  0.29406617  0.89297744  0.90012511  1
  Hf  Hf15  1  0.69502797  0.29012550  0.90076566  1
  Hf  Hf16  1  0.91434136  0.49757068  0.10346626  1
  Hf  Hf17  1  0.19867580  0.20081748  0.19562437  1
  Hf  Hf18  1  0.90925146  0.69881501  0.90199442  1
  Hf  Hf19  1  0.10459301  0.90441063  0.50896995  1
  Hf  Hf20  1  0.49762933  0.09955312  0.29744730  1
  Hf  Hf21  1  0.89732521  0.10339250  0.09773478  1
  Hf  Hf22  1  0.80051769  0.00196342  0.40017169  1
  Hf  Hf23  1  0.31028009  0.70231983  0.28837119  1
  Hf  Hf24  1  0.00560990  0.39342282  0.79574415  1
  Hf  Hf25  1  0.51213107  0.11394522  0.90183090  1
  Hf  Hf26  1  0.89604246  0.70097525  0.49637768  1
  Hf  Hf27  1  0.80236740  0.40275675  0.40570637  1
  Hf  Hf28  1  0.91391615  0.10875546  0.50396000  1
  Hf  Hf29  1  0.49559576  0.30932322  0.51006512  1
  Hf  Hf30  1  0.18903169  -0.00212074  0.00579980  1
  Hf  Hf31  1  0.40420193  -0.00615633  0.79363094  1
  Hf  Hf32  1  0.49738599  0.51149041  0.29472488  1
  Hf  Hf33  1  0.10221176  0.50018103  0.09791197  1
  Hf  Hf34  1  0.49625636  0.11070653  0.70534964  1
  Hf  Hf35  1  0.19975342  0.20799451  0.60100872  1
  Hf  Hf36  1  0.69936730  0.88952550  0.50198875  1
  Hf  Hf37  1  0.50133068  0.89631910  0.10177498  1
  Hf  Hf38  1  0.38708757  0.20387395  0.60226939  1
  Hf  Hf39  1  0.09425634  0.69642434  0.28744279  1
  Hf  Hf40  1  0.70320573  0.10586905  0.90556124  1
  Hf  Hf41  1  0.29656530  0.09888656  0.29935035  1
  Hf  Hf42  1  0.90426912  0.10452428  0.70016984  1
  Hf  Hf43  1  0.50015160  0.29448739  0.08502905  1
  Hf  Hf44  1  0.90238838  0.89416480  0.90810614  1
  Hf  Hf45  1  0.80255671  0.60612464  -0.00316457  1
  Hf  Hf46  1  0.70063832  0.50167667  0.89800523  1
  Hf  Hf47  1  0.19834952  0.80538863  0.39188005  1
  Hf  Hf48  1  0.59200768  0.19874763  0.40571109  1
  Hf  Hf49  1  0.70113507  0.89025396  0.68844131  1
  Zr  Zr50  1  0.49697598  0.49062674  0.69643708  1
  Zr  Zr51  1  0.29740974  0.89734954  0.10489912  1
  Zr  Zr52  1  -0.00594406  0.81539635  0.37409838  1
  Zr  Zr53  1  0.59696280  0.39525827  0.19886754  1
  Zr  Zr54  1  0.18605140  0.20368166  -0.00924879  1
  Zr  Zr55  1  0.70401074  0.89964982  0.90658789  1
  Zr  Zr56  1  0.10015222  0.69713258  0.90106812  1
  Zr  Zr57  1  0.40559679  0.38988264  0.20120383  1
  Zr  Zr58  1  0.09798685  0.69961990  0.49759372  1
  Zr  Zr59  1  0.69165566  0.69907312  0.09873075  1
  Zr  Zr60  1  0.31177313  0.50295367  0.09739897  1
  Zr  Zr61  1  0.20115274  0.39908070  0.40807078  1
  Zr  Zr62  1  0.30636457  0.50255684  0.29935720  1
  Zr  Zr63  1  0.39376767  0.60325523  0.80406151  1
  Zr  Zr64  1  0.01373032  0.20292414  0.80752641  1
  Zr  Zr65  1  0.19634519  0.00623895  0.79810594  1
  Zr  Zr66  1  0.00818978  0.00360069  0.80769946  1
  Zr  Zr67  1  0.89610946  0.89769046  0.50627564  1
  Zr  Zr68  1  0.30559965  0.70652662  0.50079532  1
  Zr  Zr69  1  0.89457434  0.10432728  0.91164641  1
  Zr  Zr70  1  0.90321846  0.50101972  0.50082028  1
  Zr  Zr71  1  0.79786196  0.78415060  0.80329191  1
  Zr  Zr72  1  0.09957342  0.70181633  0.09194879  1
  Zr  Zr73  1  0.59428069  0.00484867  0.59998365  1
  Zr  Zr74  1  0.80272000  0.20282475  0.40469460  1
  Zr  Zr75  1  -0.00136590  0.79138390  0.61340578  1
  Zr  Zr76  1  0.60482783  0.60258445  0.79770546  1
  Zr  Zr77  1  0.38968616  0.20524870  -0.00596846  1
  Zr  Zr78  1  0.09066736  0.09853032  0.10584602  1
  Zr  Zr79  1  -0.00246017  -0.02555714  0.20413420  1
  Zr  Zr80  1  0.00563681  0.00209537  0.39470423  1
  Zr  Zr81  1  0.89698764  0.89789975  0.70116857  1
  Zr  Zr82  1  0.80157068  0.39333899  0.19570203  1
  Zr  Zr83  1  0.59899760  0.40550593  0.40164631  1
  Zr  Zr84  1  0.37838940  0.59612758  0.60541832  1
  Zr  Zr85  1  0.59911997  0.80425591  0.20766083  1
  Zr  Zr86  1  0.81149136  0.80857094  0.19700196  1
  Zr  Zr87  1  0.68910082  0.51018353  0.10406714  1
  Zr  Zr88  1  0.49948512  0.70677297  0.68102066  1
  Zr  Zr89  1  0.30040021  0.90252245  0.50297024  1
  Zr  Zr90  1  0.49236930  0.49818715  0.50362253  1
  Zr  Zr91  1  0.79934489  0.39456469  0.00518545  1
  Zr  Zr92  1  0.59919365  0.20323367  0.19881826  1
  Zr  Zr93  1  0.59586700  0.79687542  0.80060019  1
  Zr  Zr94  1  0.29988521  0.09821640  0.89806931  1
  Zr  Zr95  1  0.70034116  0.69436890  0.29881046  1
  Zr  Zr96  1  0.40481823  -0.00239247  -0.00263849  1
  Zr  Zr97  1  0.09861731  0.29338491  0.30281964  1
  Zr  Zr98  1  0.59396077  0.00336797  0.40467201  1
  Zr  Zr99  1  0.80557002  0.21228420  0.60476667  1
  Ta  Ta100  1  0.69665899  0.90545645  0.30137606  1
  Ta  Ta101  1  0.49738562  0.49898859  0.90619052  1
  Ta  Ta102  1  0.90946700  0.30239883  0.29870363  1
  Ta  Ta103  1  0.30542328  0.90257513  0.29667087  1
  Ta  Ta104  1  0.90530000  0.49673759  0.89551869  1
  Ta  Ta105  1  0.39543408  0.20086809  0.40749784  1
  Ta  Ta106  1  0.10695058  0.89880224  0.70012003  1
  Ta  Ta107  1  0.19840866  0.00330824  0.39734695  1
  Ta  Ta108  1  0.79829026  0.00864217  0.59986359  1
  Ta  Ta109  1  0.29325706  0.09570560  0.50306718  1
  Ta  Ta110  1  0.30134200  0.69999836  0.09954737  1
  Ta  Ta111  1  0.70374967  0.69720822  0.68692699  1
  Ta  Ta112  1  0.69716317  0.31058327  0.50882378  1
  Ta  Ta113  1  0.40040381  0.00422097  0.40459204  1
  Ta  Ta114  1  0.49606742  0.30841419  0.70414561  1
  Ta  Ta115  1  0.59801329  0.39905452  -0.00291620  1
  Ta  Ta116  1  0.80388806  0.39498263  0.79712768  1
  Ta  Ta117  1  0.60792184  0.59429536  0.59000466  1
  Ta  Ta118  1  0.40315441  0.00102585  0.20119324  1
  Ta  Ta119  1  0.20269305  0.59941612  0.19440117  1
  Ta  Ta120  1  0.70055705  0.70208579  0.50017104  1
  Ta  Ta121  1  0.20525807  0.39932027  -0.00940149  1
  Ta  Ta122  1  0.00793892  0.39949502  0.40467658  1
  Ta  Ta123  1  0.09541326  0.30942638  0.09853106  1
  Ta  Ta124  1  0.30056890  0.90094261  0.69255212  1
  Ta  Ta125  1  0.30173712  0.09892410  0.10621578  1
  Ta  Ta126  1  0.70273478  0.09951368  0.29287643  1
  Ta  Ta127  1  0.80559440  0.39921143  0.60474782  1
  Ta  Ta128  1  0.79884604  0.79929443  0.39162500  1
  Ta  Ta129  1  0.29932891  0.29441272  0.30108816  1
  Ta  Ta130  1  0.20102588  0.39928876  0.19773306  1
  Ta  Ta131  1  0.79970064  0.59644168  0.60079574  1
  Ta  Ta132  1  0.00458410  0.59360101  0.39662585  1
  Ta  Ta133  1  0.70096939  0.50798732  0.29963208  1
  Ta  Ta134  1  0.20320788  0.79302318  0.60938412  1
  Ta  Ta135  1  0.21445100  0.59921511  -0.01060598  1
  Ta  Ta136  1  0.09814991  0.88668945  0.90836109  1
  Ta  Ta137  1  0.60138787  0.40091247  0.80062455  1
  Ta  Ta138  1  0.29514683  0.30169776  0.09811442  1
  Ta  Ta139  1  0.70305469  0.49651953  0.69613789  1
  Ta  Ta140  1  0.90124213  0.29742779  0.90744574  1
  Ta  Ta141  1  0.49887129  0.30520988  0.89180556  1
  Ta  Ta142  1  0.50517198  0.68954434  0.91122191  1
  Ta  Ta143  1  0.59939356  0.60285349  0.40653815  1
  Ta  Ta144  1  0.00401490  0.39418166  0.60297461  1
  Ta  Ta145  1  0.89816565  0.49687722  0.70477333  1
  Ta  Ta146  1  0.50040583  0.10011182  0.09869580  1
  Ta  Ta147  1  0.19510043  0.80531938  0.19669197  1
  Ta  Ta148  1  0.10302271  0.49778507  0.89816311  1
  Ta  Ta149  1  0.38988159  0.21065930  0.79621879  1
  Ti  Ti150  1  0.29275305  0.31497252  0.70721314  1
  Ti  Ti151  1  0.39857380  0.00568871  0.60389719  1
  Ti  Ti152  1  0.49521666  0.69626235  0.29696964  1
  Ti  Ti153  1  0.79246671  -0.00431070  0.19310902  1
  Ti  Ti154  1  0.00287602  0.79448930  0.79423082  1
  Ti  Ti155  1  0.81010468  0.21389214  0.79698846  1
  Ti  Ti156  1  0.00141033  -0.01006933  0.00659499  1
  Ti  Ti157  1  0.91270610  0.29989732  0.49617499  1
  Ti  Ti158  1  0.39247484  0.39272367  0.40232585  1
  Ti  Ti159  1  0.70338999  0.10508150  0.50246471  1
  Ti  Ti160  1  0.11024442  0.49374285  0.69876197  1
  Ti  Ti161  1  0.79676919  0.59811569  0.40281632  1
  Ti  Ti162  1  0.10417497  0.09587177  0.68714191  1
  Ti  Ti163  1  0.10044239  0.10110041  0.29855509  1
  Ti  Ti164  1  0.09466832  0.49836036  0.28843130  1
  Ti  Ti165  1  0.60557201  0.79671762  -0.00316440  1
  Ti  Ti166  1  0.91587932  0.70324909  0.10283420  1
  Ti  Ti167  1  -0.00240507  0.21124116  0.19311083  1
  Ti  Ti168  1  0.00339473  0.39404887  -0.00541679  1
  Ti  Ti169  1  0.60498319  0.00072452  0.19463516  1
  Ti  Ti170  1  0.40184215  0.60326160  0.40737614  1
  Ti  Ti171  1  0.79895722  0.21056446  0.18769471  1
  Ti  Ti172  1  0.09981050  0.10375013  0.50187576  1
  Ti  Ti173  1  0.39999099  0.20254253  0.20111007  1
  Ti  Ti174  1  0.10712782  0.69110018  0.69900604  1
  Ti  Ti175  1  0.40704504  0.79968174  0.39619382  1
  Ti  Ti176  1  0.59378244  0.79290554  0.40076818  1
  Ti  Ti177  1  0.37450356  0.40085677  0.59475908  1
  Ti  Ti178  1  0.49518120  0.90162099  0.29947915  1
  Ti  Ti179  1  0.60546580  -0.00182525  0.00758387  1
  Ti  Ti180  1  0.79959084  0.79794321  0.00839283  1
  Ti  Ti181  1  0.80297857  0.59935052  0.79632216  1
  Ti  Ti182  1  0.00221275  0.59402601  -0.00507664  1
  Ti  Ti183  1  0.80659842  0.60311650  0.19454078  1
  Ti  Ti184  1  0.90621693  0.69296330  0.29327800  1
  Ti  Ti185  1  0.00218142  -0.00081543  0.60461144  1
  Ti  Ti186  1  0.80061741  -0.00101470  0.79820276  1
  Ti  Ti187  1  0.79503232  -0.00874517  0.01596254  1
  Ti  Ti188  1  0.49958287  0.50871545  0.09359987  1
  Ti  Ti189  1  0.69831946  0.10900634  0.09524791  1
  Ti  Ti190  1  0.19816932  0.39763894  0.59574885  1
  Ti  Ti191  1  0.10290494  0.50172230  0.50851635  1
  Ti  Ti192  1  0.50256302  0.89359943  0.90251877  1
  Ti  Ti193  1  0.40084510  0.79701905  0.79549367  1
  Ti  Ti194  1  0.38697253  0.40526808  0.80600223  1
  Ti  Ti195  1  0.01108722  0.21581199  0.60668210  1
  Ti  Ti196  1  0.69281750  0.30572271  0.70173147  1
  Ti  Ti197  1  0.19923043  0.20019370  0.40918402  1
  Ti  Ti198  1  0.39543594  0.39980992  -0.00995344  1
  Ti  Ti199  1  0.00127705  0.59469031  0.79485329  1
  Mo  Mo200  1  0.49163443  0.89765709  0.69853727  1
  Mo  Mo201  1  0.87870445  0.90878208  0.29807872  1
  Mo  Mo202  1  0.69641115  0.90422126  0.09979548  1
  Mo  Mo203  1  0.29984725  0.09639592  0.69617845  1
  Mo  Mo204  1  0.70475746  0.50480120  0.50113811  1
  Mo  Mo205  1  0.39631862  0.80379443  0.60651304  1
  Mo  Mo206  1  0.09127356  0.09239147  0.91100125  1
  Mo  Mo207  1  0.90380241  0.30395129  0.70271579  1
  Mo  Mo208  1  0.50228939  0.69775880  0.49152870  1
  Mo  Mo209  1  -0.00229958  0.80419986  0.00519905  1
  Mo  Mo210  1  0.89833836  0.68417053  0.70606908  1
  Mo  Mo211  1  0.29170684  0.48597519  0.69901133  1
  Mo  Mo212  1  0.48478042  0.10174333  0.50316882  1
  Mo  Mo213  1  0.59506206  0.59876070  0.20839974  1
  Mo  Mo214  1  0.69666999  0.29314367  0.09168484  1
  Mo  Mo215  1  0.29489401  0.49719512  0.50083855  1
  Mo  Mo216  1  0.61193254  0.40110977  0.60717100  1
  Mo  Mo217  1  0.60094284  0.78975924  0.59374316  1
  Mo  Mo218  1  0.59255133  0.21308846  0.79564864  1
  Mo  Mo219  1  0.19879911  0.40127611  0.80165170  1
  Mo  Mo220  1  0.29912162  0.30834887  0.89692345  1
  Mo  Mo221  1  0.70034374  0.69709539  0.90288302  1
  Mo  Mo222  1  0.39938224  0.60393212  0.19669662  1
  Mo  Mo223  1  0.09900643  0.30996397  0.90446828  1
  Mo  Mo224  1  0.00766397  0.39846288  0.20372060  1
  Mo  Mo225  1  -0.00474158  0.21081271  0.00433771  1
  Mo  Mo226  1  0.90957600  0.29874159  0.09943519  1
  Mo  Mo227  1  0.19828679  0.00448876  0.60061901  1
  Mo  Mo228  1  0.30185177  0.49607959  0.90057409  1
  Mo  Mo229  1  0.40043978  0.80507444  0.20506151  1
  Mo  Mo230  1  0.30764561  0.69758686  0.90140856  1
  Mo  Mo231  1  0.29581449  0.29970166  0.49555999  1
  Mo  Mo232  1  0.48697636  0.29498908  0.31066738  1
  Mo  Mo233  1  0.20261832  0.00072032  0.20451362  1
  Mo  Mo234  1  0.00241899  0.59980270  0.20012218  1
  Mo  Mo235  1  0.80029527  0.78877477  0.59515725  1
  Mo  Mo236  1  -0.00058767  0.79942976  0.19357960  1
  Mo  Mo237  1  0.59949177  0.20087807  0.00003436  1
  Mo  Mo238  1  0.89548191  0.90098706  0.09484773  1
  Mo  Mo239  1  0.11946662  0.90468822  0.29202846  1
  Mo  Mo240  1  0.79767814  0.20378296  0.01020664  1
  Mo  Mo241  1  0.59710915  0.59429119  -0.00340642  1
  Mo  Mo242  1  0.20099194  0.79468161  0.00063740  1
  Mo  Mo243  1  0.19483094  0.59507522  0.60318037  1
  Mo  Mo244  1  0.09614552  0.89093036  0.09912091  1
  Mo  Mo245  1  0.09507149  0.29936189  0.50152411  1
  Mo  Mo246  1  0.10416322  0.30749149  0.69694650  1
  Mo  Mo247  1  0.30021831  0.70837053  0.70036308  1
  Mo  Mo248  1  0.00617715  0.20258620  0.39970731  1
  Mo  Mo249  1  0.40129982  0.59683988  -0.00011044  1
