# generated using pymatgen
data_HfZrTaTiMo
_symmetry_space_group_name_H-M   'P 1'
_cell_length_a   16.88727104
_cell_length_b   16.88431655
_cell_length_c   16.89064999
_cell_angle_alpha   89.99222171
_cell_angle_beta   89.96550587
_cell_angle_gamma   89.96524131
_symmetry_Int_Tables_number   1
_chemical_formula_structural   HfZrTaTiMo
_chemical_formula_sum   'Hf50 Zr50 Ta50 Ti50 Mo50'
_cell_volume   4816.02973684
_cell_formula_units_Z   50
loop_
 _symmetry_equiv_pos_site_id
 _symmetry_equiv_pos_as_xyz
  1  'x, y, z'
loop_
 _atom_site_type_symbol
 _atom_site_label
 _atom_site_symmetry_multiplicity
 _atom_site_fract_x
 _atom_site_fract_y
 _atom_site_fract_z
 _atom_site_occupancy
  Hf  Hf0  1  0.40574132  0.80984325  0.60597664  1
  Hf  Hf1  1  0.79034983  0.00653516  0.80300752  1
  Hf  Hf2  1  -0.00666009  0.40458504  0.79534429  1
  Hf  Hf3  1  0.80849530  0.19178045  0.20887293  1
  Hf  Hf4  1  0.89897059  0.09731430  0.90181684  1
  Hf  Hf5  1  0.89301301  0.29931307  0.89772316  1
  Hf  Hf6  1  0.70706291  0.69388602  0.09560991  1
  Hf  Hf7  1  0.29806821  0.10312262  0.09828448  1
  Hf  Hf8  1  0.29714009  0.90388670  0.30004721  1
  Hf  Hf9  1  0.89830633  0.69029677  0.70322567  1
  Hf  Hf10  1  0.79169517  0.59477520  0.60342982  1
  Hf  Hf11  1  0.19464336  0.59866692  0.80353539  1
  Hf  Hf12  1  0.40483728  0.40745213  0.00243060  1
  Hf  Hf13  1  0.49382555  0.10789234  0.08600292  1
  Hf  Hf14  1  0.09929110  0.90848487  0.49633038  1
  Hf  Hf15  1  0.50838500  0.90856215  0.71750515  1
  Hf  Hf16  1  0.89820171  0.89888022  0.70177791  1
  Hf  Hf17  1  0.40400566  0.20943393  0.79558054  1
  Hf  Hf18  1  0.20915144  0.59421447  0.19538226  1
  Hf  Hf19  1  0.40055634  -0.02230544  0.00433133  1
  Hf  Hf20  1  0.20341175  0.19902517  0.39868360  1
  Hf  Hf21  1  0.19016209  -0.00445445  0.00402775  1
  Hf  Hf22  1  0.40187522  0.81099748  0.18711326  1
  Hf  Hf23  1  0.50216040  0.69687038  0.29118808  1
  Hf  Hf24  1  -0.00761390  -0.00204587  0.01334329  1
  Hf  Hf25  1  0.20595837  0.00845687  0.60832003  1
  Hf  Hf26  1  -0.00781714  0.61260770  0.20003875  1
  Hf  Hf27  1  0.59766480  0.59016763  -0.00244181  1
  Hf  Hf28  1  0.70058621  0.49370469  0.49704743  1
  Hf  Hf29  1  0.30520937  0.70402407  0.29338372  1
  Hf  Hf30  1  0.89258017  0.69998189  0.50426747  1
  Hf  Hf31  1  0.60410413  0.79292763  0.59913023  1
  Hf  Hf32  1  0.70726537  0.10356663  0.48645043  1
  Hf  Hf33  1  0.30830370  0.10762748  0.91254155  1
  Hf  Hf34  1  0.52066970  0.32190403  0.69934629  1
  Hf  Hf35  1  0.09613277  0.10674497  0.71097588  1
  Hf  Hf36  1  0.40155313  0.00424293  0.60197051  1
  Hf  Hf37  1  0.89682670  0.89888442  0.90502808  1
  Hf  Hf38  1  0.19738507  0.40776193  -0.00157018  1
  Hf  Hf39  1  0.00396418  0.40530236  -0.00536480  1
  Hf  Hf40  1  0.20027794  0.59519543  0.39936554  1
  Hf  Hf41  1  0.09898781  0.29695854  0.50221023  1
  Hf  Hf42  1  0.10186245  0.49490433  0.29444846  1
  Hf  Hf43  1  0.00286950  0.79184215  0.80288504  1
  Hf  Hf44  1  0.89373992  0.50547213  0.09884161  1
  Hf  Hf45  1  0.39406879  0.59328918  0.40041073  1
  Hf  Hf46  1  -0.01023844  0.40362034  0.60166043  1
  Hf  Hf47  1  0.49206658  0.30478938  0.29937230  1
  Hf  Hf48  1  0.29717309  0.90602946  0.50223261  1
  Hf  Hf49  1  0.70501154  0.90251254  0.49665425  1
  Zr  Zr50  1  0.70150793  0.90505171  0.29430495  1
  Zr  Zr51  1  0.19634503  0.80138173  0.40309111  1
  Zr  Zr52  1  0.59758388  0.20744450  0.19636567  1
  Zr  Zr53  1  0.70404018  0.68867610  0.90078888  1
  Zr  Zr54  1  0.30547408  0.50383456  0.89912950  1
  Zr  Zr55  1  0.39972966  -0.00040718  0.19705906  1
  Zr  Zr56  1  0.49943621  0.08775379  0.89128064  1
  Zr  Zr57  1  0.59730803  0.40220285  0.00671749  1
  Zr  Zr58  1  0.40386612  0.59525044  0.60838382  1
  Zr  Zr59  1  0.79738898  0.40383608  -0.00182460  1
  Zr  Zr60  1  0.89450192  0.68869756  0.90850701  1
  Zr  Zr61  1  0.78931670  0.79603870  0.79443966  1
  Zr  Zr62  1  0.19847016  0.79957786  0.80025691  1
  Zr  Zr63  1  0.89178901  0.49841667  0.29813866  1
  Zr  Zr64  1  0.29737640  0.31380225  0.29930339  1
  Zr  Zr65  1  0.09595255  0.69427679  0.90751058  1
  Zr  Zr66  1  0.60258665  0.20564984  0.59129506  1
  Zr  Zr67  1  0.49620055  0.49888271  0.30128922  1
  Zr  Zr68  1  0.69077021  0.46789506  0.69638823  1
  Zr  Zr69  1  0.19379011  0.60281040  0.60551853  1
  Zr  Zr70  1  0.30002846  0.70213469  0.50896783  1
  Zr  Zr71  1  0.59468753  -0.00082007  0.59262261  1
  Zr  Zr72  1  0.40499266  0.20446471  0.59839083  1
  Zr  Zr73  1  0.59950192  0.00082122  0.18936848  1
  Zr  Zr74  1  0.50624774  0.49143118  0.50510080  1
  Zr  Zr75  1  0.70629006  0.09455626  0.09143635  1
  Zr  Zr76  1  0.41168443  0.80494229  0.40840791  1
  Zr  Zr77  1  0.01265156  0.78988114  0.60373875  1
  Zr  Zr78  1  0.09827151  0.29564212  0.89480908  1
  Zr  Zr79  1  0.70768967  0.29939795  0.10149934  1
  Zr  Zr80  1  0.09138299  0.10385509  0.11637528  1
  Zr  Zr81  1  0.60731135  0.79891831  0.19331162  1
  Zr  Zr82  1  0.29953507  0.89049451  0.90437289  1
  Zr  Zr83  1  0.09634501  0.30121944  0.29340917  1
  Zr  Zr84  1  -0.00421023  0.40375356  0.40452110  1
  Zr  Zr85  1  0.80439659  0.79429561  0.39050193  1
  Zr  Zr86  1  0.49973433  0.69975024  0.70942116  1
  Zr  Zr87  1  -0.00521076  0.01293296  0.60446350  1
  Zr  Zr88  1  0.29538210  0.29564494  0.09183313  1
  Zr  Zr89  1  0.09969426  0.90875303  0.70706156  1
  Zr  Zr90  1  0.80416606  0.01290337  0.60431407  1
  Zr  Zr91  1  0.90350188  0.29703335  0.10493504  1
  Zr  Zr92  1  0.09915222  0.70888380  0.29382848  1
  Zr  Zr93  1  0.90283320  0.89920881  0.50109472  1
  Zr  Zr94  1  0.60223384  0.79550105  0.40566497  1
  Zr  Zr95  1  0.60593113  0.38909179  0.39480696  1
  Zr  Zr96  1  -0.01134028  0.20712214  0.61072509  1
  Zr  Zr97  1  0.20359692  0.20058316  0.80550418  1
  Zr  Zr98  1  0.60620899  0.19633025  0.79842817  1
  Zr  Zr99  1  0.81882704  0.00449809  0.38224681  1
  Ta  Ta100  1  0.60440936  0.59357869  0.19901587  1
  Ta  Ta101  1  0.60112618  0.20220734  -0.00785323  1
  Ta  Ta102  1  -0.00214802  0.59125947  0.60197143  1
  Ta  Ta103  1  0.50148572  0.30390914  0.90128299  1
  Ta  Ta104  1  0.29657804  0.31228159  0.70179907  1
  Ta  Ta105  1  0.09918637  0.50096571  0.10274614  1
  Ta  Ta106  1  0.81796139  -0.00063774  0.18993710  1
  Ta  Ta107  1  0.79808760  0.20309001  0.60228599  1
  Ta  Ta108  1  0.39464577  0.40710510  0.19100726  1
  Ta  Ta109  1  0.49663786  0.69493874  0.09381756  1
  Ta  Ta110  1  0.49400605  0.69750830  0.90510912  1
  Ta  Ta111  1  0.79305964  0.39004007  0.39211519  1
  Ta  Ta112  1  0.30339204  0.70115738  0.71236630  1
  Ta  Ta113  1  0.69787186  0.10053559  0.30019084  1
  Ta  Ta114  1  0.30021034  0.49456807  0.70145471  1
  Ta  Ta115  1  0.20085938  0.59959222  0.00473078  1
  Ta  Ta116  1  0.60239443  0.20517048  0.39674996  1
  Ta  Ta117  1  -0.00225550  0.79845572  0.01607740  1
  Ta  Ta118  1  0.81616953  0.79554338  0.19616101  1
  Ta  Ta119  1  0.60397597  0.40423760  0.20002777  1
  Ta  Ta120  1  0.50137342  0.10314919  0.30201940  1
  Ta  Ta121  1  0.39988166  0.20577298  0.19775034  1
  Ta  Ta122  1  0.10658558  0.30629663  0.69960455  1
  Ta  Ta123  1  0.90379301  0.11173149  0.48618487  1
  Ta  Ta124  1  0.59952726  0.79971097  -0.00678214  1
  Ta  Ta125  1  0.40094277  0.20147229  0.40132142  1
  Ta  Ta126  1  0.20011343  0.00500810  0.81016664  1
  Ta  Ta127  1  0.89540923  0.50852579  0.89147220  1
  Ta  Ta128  1  0.59591179  0.58882967  0.79886730  1
  Ta  Ta129  1  0.89110298  0.29408724  0.49202888  1
  Ta  Ta130  1  0.50509457  0.91082077  0.30685791  1
  Ta  Ta131  1  0.09743643  0.49837018  0.70363274  1
  Ta  Ta132  1  0.09498896  0.90930070  0.29759178  1
  Ta  Ta133  1  0.30617264  0.70154186  0.09138848  1
  Ta  Ta134  1  0.19952753  0.19943902  0.20559918  1
  Ta  Ta135  1  0.70044276  0.30213709  0.89058956  1
  Ta  Ta136  1  0.40036508  0.00794796  0.40267844  1
  Ta  Ta137  1  -0.00453751  0.60356985  0.40581171  1
  Ta  Ta138  1  0.40182389  0.39804354  0.60186133  1
  Ta  Ta139  1  0.19894810  0.01241224  0.39479457  1
  Ta  Ta140  1  0.19465017  0.79985820  0.00934137  1
  Ta  Ta141  1  0.09599897  0.10425605  0.49569483  1
  Ta  Ta142  1  0.30902343  0.69846949  0.90813695  1
  Ta  Ta143  1  -0.00241762  0.79780612  0.39367748  1
  Ta  Ta144  1  0.60536870  -0.00445519  -0.01219613  1
  Ta  Ta145  1  0.60173767  0.79710567  0.80830570  1
  Ta  Ta146  1  -0.00093104  0.19544297  0.00308759  1
  Ta  Ta147  1  0.29945945  0.49032607  0.50371571  1
  Ta  Ta148  1  0.79641515  0.19882315  0.79121918  1
  Ta  Ta149  1  0.70334244  0.69256849  0.29583762  1
  Ti  Ti150  1  0.51246897  0.89347037  0.08984094  1
  Ti  Ti151  1  0.09656406  0.69709296  0.49923782  1
  Ti  Ti152  1  0.79788963  0.19303731  -0.00574146  1
  Ti  Ti153  1  0.87720614  0.31466513  0.69966900  1
  Ti  Ti154  1  0.88990238  0.49636264  0.49934511  1
  Ti  Ti155  1  0.08980293  0.89799957  0.11721706  1
  Ti  Ti156  1  0.70882433  0.50081957  0.11082297  1
  Ti  Ti157  1  0.30490814  0.10380930  0.29686308  1
  Ti  Ti158  1  0.39457138  0.59212977  0.19410842  1
  Ti  Ti159  1  0.10020398  0.49940527  0.50330636  1
  Ti  Ti160  1  0.19926249  0.40213201  0.60183992  1
  Ti  Ti161  1  0.09944711  0.30157783  0.10630883  1
  Ti  Ti162  1  0.38560880  -0.00623280  0.79729734  1
  Ti  Ti163  1  0.20138896  0.80404425  0.19159965  1
  Ti  Ti164  1  0.20419696  0.20318351  0.60282733  1
  Ti  Ti165  1  0.69298393  0.09753513  0.69764136  1
  Ti  Ti166  1  0.50442524  0.09473829  0.70670500  1
  Ti  Ti167  1  0.29937265  0.10520414  0.50051012  1
  Ti  Ti168  1  0.60546828  0.59981620  0.60926270  1
  Ti  Ti169  1  0.40207298  0.80402735  0.80575140  1
  Ti  Ti170  1  0.18492670  0.19634493  -0.00170462  1
  Ti  Ti171  1  0.70086361  0.89981378  0.90350741  1
  Ti  Ti172  1  0.50661397  0.68878997  0.50090307  1
  Ti  Ti173  1  0.79194106  0.58706691  0.78761756  1
  Ti  Ti174  1  0.80518823  0.79981996  0.00820650  1
  Ti  Ti175  1  0.30244402  0.30683740  0.50229513  1
  Ti  Ti176  1  0.70470276  0.49570076  0.89476117  1
  Ti  Ti177  1  0.09116096  0.90276661  0.90209594  1
  Ti  Ti178  1  0.20337775  0.40573442  0.40354626  1
  Ti  Ti179  1  0.30099677  0.10652175  0.70604611  1
  Ti  Ti180  1  0.40633055  0.59324126  0.80215318  1
  Ti  Ti181  1  0.19739614  0.00283146  0.20427940  1
  Ti  Ti182  1  0.00142313  0.59763327  0.00416324  1
  Ti  Ti183  1  0.19567339  0.40561716  0.80462756  1
  Ti  Ti184  1  0.10003493  0.70025455  0.10245641  1
  Ti  Ti185  1  0.30553486  0.30341475  0.89931769  1
  Ti  Ti186  1  0.20146135  0.79950058  0.61373055  1
  Ti  Ti187  1  -0.00944111  0.20043605  0.79857589  1
  Ti  Ti188  1  0.60877183  0.60045397  0.39586770  1
  Ti  Ti189  1  0.41059550  0.40873856  0.79784631  1
  Ti  Ti190  1  0.91749235  0.89949172  0.28899532  1
  Ti  Ti191  1  0.79658310  0.59986003  0.39660598  1
  Ti  Ti192  1  0.71128446  0.90068793  0.09119094  1
  Ti  Ti193  1  0.89947807  0.29874547  0.29937118  1
  Ti  Ti194  1  0.80132626  0.60520685  0.20365841  1
  Ti  Ti195  1  -0.00027491  0.19423209  0.38571074  1
  Ti  Ti196  1  0.69832961  0.89803642  0.69737429  1
  Ti  Ti197  1  -0.00329260  0.40102560  0.19674796  1
  Ti  Ti198  1  0.49688983  0.50587152  0.10480906  1
  Ti  Ti199  1  0.50471579  0.10040207  0.48697986  1
  Mo  Mo200  1  0.89665097  0.49964869  0.69893545  1
  Mo  Mo201  1  0.50008297  0.50209880  0.89466511  1
  Mo  Mo202  1  0.00155827  0.00412928  0.81160484  1
  Mo  Mo203  1  0.50576609  0.89207120  0.89921584  1
  Mo  Mo204  1  0.50034179  0.91172294  0.49608512  1
  Mo  Mo205  1  0.40496371  0.79464071  0.00200330  1
  Mo  Mo206  1  0.30224768  0.90028419  0.70615404  1
  Mo  Mo207  1  0.79651040  -0.00708326  0.00040961  1
  Mo  Mo208  1  0.28219255  0.89591063  0.10244193  1
  Mo  Mo209  1  0.60197164  0.40348555  0.81878032  1
  Mo  Mo210  1  0.00007500  0.59255909  0.79594404  1
  Mo  Mo211  1  0.89635798  0.10743333  0.70929699  1
  Mo  Mo212  1  0.39140177  0.39672224  0.40943348  1
  Mo  Mo213  1  0.91589900  0.10051049  0.29226075  1
  Mo  Mo214  1  0.69433820  0.69420471  0.70158090  1
  Mo  Mo215  1  -0.00013091  0.20249941  0.20286001  1
  Mo  Mo216  1  0.79804577  0.59129341  0.00209174  1
  Mo  Mo217  1  0.80034776  0.39204265  0.58714885  1
  Mo  Mo218  1  0.00638537  0.00422535  0.39624602  1
  Mo  Mo219  1  0.89923804  0.69909430  0.09936750  1
  Mo  Mo220  1  0.89725271  0.69825810  0.30397511  1
  Mo  Mo221  1  0.79841927  0.39926169  0.80254710  1
  Mo  Mo222  1  0.49120742  0.29710359  0.49523672  1
  Mo  Mo223  1  -0.00300756  0.00146554  0.20466588  1
  Mo  Mo224  1  0.89932671  0.10009321  0.09694723  1
  Mo  Mo225  1  0.41035171  0.21360538  -0.00234207  1
  Mo  Mo226  1  0.09251306  0.50430695  0.90176468  1
  Mo  Mo227  1  0.70180109  0.50249716  0.29621494  1
  Mo  Mo228  1  0.61308703  -0.00615530  0.80071499  1
  Mo  Mo229  1  0.80310281  0.20082186  0.39232661  1
  Mo  Mo230  1  0.60155549  0.38952473  0.58142736  1
  Mo  Mo231  1  0.69860119  0.68917408  0.49763317  1
  Mo  Mo232  1  0.70159823  0.10419007  0.90241122  1
  Mo  Mo233  1  0.70944700  0.29514188  0.49669489  1
  Mo  Mo234  1  0.29907630  0.49553176  0.29894306  1
  Mo  Mo235  1  0.09906470  0.69022513  0.69913631  1
  Mo  Mo236  1  0.50042394  0.49741528  0.70259738  1
  Mo  Mo237  1  0.79381079  0.39838344  0.20967322  1
  Mo  Mo238  1  0.89897059  0.89616098  0.10190949  1
  Mo  Mo239  1  0.49740719  0.30369024  0.09954003  1
  Mo  Mo240  1  0.10281633  0.09774534  0.30269995  1
  Mo  Mo241  1  0.19866922  0.40128083  0.18818956  1
  Mo  Mo242  1  0.29937693  0.50418561  0.09985934  1
  Mo  Mo243  1  0.40201381  0.60087117  0.00428437  1
  Mo  Mo244  1  0.70318973  0.29703481  0.29779509  1
  Mo  Mo245  1  0.09153272  0.09703257  0.90059754  1
  Mo  Mo246  1  0.59509670  0.00876308  0.39556194  1
  Mo  Mo247  1  0.78240088  0.78809033  0.60186822  1
  Mo  Mo248  1  0.70579038  0.29668201  0.69768160  1
  Mo  Mo249  1  0.00032402  0.80252469  0.19863618  1
