# generated using pymatgen
data_HfZrTaTiMo
_symmetry_space_group_name_H-M   'P 1'
_cell_length_a   16.87661506
_cell_length_b   16.89098135
_cell_length_c   16.88028793
_cell_angle_alpha   90.04792641
_cell_angle_beta   90.00360055
_cell_angle_gamma   90.03530593
_symmetry_Int_Tables_number   1
_chemical_formula_structural   HfZrTaTiMo
_chemical_formula_sum   'Hf50 Zr50 Ta50 Ti50 Mo50'
_cell_volume   4811.93599335
_cell_formula_units_Z   50
loop_
 _symmetry_equiv_pos_site_id
 _symmetry_equiv_pos_as_xyz
  1  'x, y, z'
loop_
 _atom_site_type_symbol
 _atom_site_label
 _atom_site_symmetry_multiplicity
 _atom_site_fract_x
 _atom_site_fract_y
 _atom_site_fract_z
 _atom_site_occupancy
  Hf  Hf0  1  0.31618809  0.11277011  0.90604039  1
  Hf  Hf1  1  0.39636607  0.39384231  -0.00676543  1
  Hf  Hf2  1  0.80256111  0.59752075  0.80006117  1
  Hf  Hf3  1  0.09828693  0.69402159  0.49938796  1
  Hf  Hf4  1  0.30769279  0.11104378  0.10712351  1
  Hf  Hf5  1  0.09699247  0.49825152  0.29215915  1
  Hf  Hf6  1  0.49656885  0.28969957  0.09483359  1
  Hf  Hf7  1  0.09923865  0.30094950  0.70088307  1
  Hf  Hf8  1  -0.00934417  0.79930498  0.00973810  1
  Hf  Hf9  1  0.70497042  0.09695727  0.09358025  1
  Hf  Hf10  1  0.60464516  0.59406491  0.19668913  1
  Hf  Hf11  1  0.20678629  0.00213959  0.80180116  1
  Hf  Hf12  1  0.90156763  0.30904957  0.71168430  1
  Hf  Hf13  1  0.30305799  0.49895857  0.90175009  1
  Hf  Hf14  1  0.29402236  0.09517168  0.30426373  1
  Hf  Hf15  1  0.80876818  0.78988733  0.19039091  1
  Hf  Hf16  1  0.69213858  0.10735948  0.70011805  1
  Hf  Hf17  1  0.20513403  0.80502970  0.80240700  1
  Hf  Hf18  1  0.00535296  0.80144710  0.38980877  1
  Hf  Hf19  1  0.69873586  0.49800821  0.90734028  1
  Hf  Hf20  1  0.89565202  0.70784862  0.70094653  1
  Hf  Hf21  1  0.49615434  0.69018107  0.30323714  1
  Hf  Hf22  1  0.89630939  0.70039610  0.90320450  1
  Hf  Hf23  1  0.09763696  0.90532757  0.10673566  1
  Hf  Hf24  1  0.18764205  0.78402216  0.21077153  1
  Hf  Hf25  1  0.39005165  0.80602177  0.39886011  1
  Hf  Hf26  1  0.59934125  0.80246593  0.40891153  1
  Hf  Hf27  1  0.39811617  0.80048850  0.20006646  1
  Hf  Hf28  1  0.80361497  0.20533257  0.40255032  1
  Hf  Hf29  1  0.91517234  0.29830545  0.30196738  1
  Hf  Hf30  1  0.19604073  0.20799506  0.00348795  1
  Hf  Hf31  1  0.90255091  0.10122756  0.70676102  1
  Hf  Hf32  1  0.10454589  0.10664897  0.69266052  1
  Hf  Hf33  1  0.59460236  0.39493225  0.59167797  1
  Hf  Hf34  1  0.40327566  0.00395028  0.80359485  1
  Hf  Hf35  1  0.81193456  0.80350057  0.39677846  1
  Hf  Hf36  1  0.50405737  0.69435473  0.08643618  1
  Hf  Hf37  1  0.89701232  0.10524252  0.29085016  1
  Hf  Hf38  1  0.68775246  0.29861912  0.70866972  1
  Hf  Hf39  1  0.50485775  0.90018722  0.70372080  1
  Hf  Hf40  1  0.19597495  0.80141612  0.60163811  1
  Hf  Hf41  1  0.79294264  0.20586424  0.81546638  1
  Hf  Hf42  1  0.88733952  0.91315143  0.10168912  1
  Hf  Hf43  1  0.91148653  0.10653538  0.49792736  1
  Hf  Hf44  1  0.39985310  0.39435495  0.19680141  1
  Hf  Hf45  1  0.59800390  0.19891859  0.19834389  1
  Hf  Hf46  1  0.09818698  0.49513867  0.49682169  1
  Hf  Hf47  1  0.70145419  0.48983785  0.70461081  1
  Hf  Hf48  1  0.80185031  0.00263164  0.40284561  1
  Hf  Hf49  1  0.19108619  0.59292557  -0.00302283  1
  Zr  Zr50  1  0.80530739  0.40162874  0.58944789  1
  Zr  Zr51  1  0.80314708  0.20417311  0.60041437  1
  Zr  Zr52  1  0.89495763  0.11060509  0.10102820  1
  Zr  Zr53  1  0.48987432  0.49356818  0.50066880  1
  Zr  Zr54  1  0.80334121  0.58795024  0.59410534  1
  Zr  Zr55  1  0.00228096  -0.00200589  0.60039122  1
  Zr  Zr56  1  0.40121747  0.59861868  0.79821775  1
  Zr  Zr57  1  0.49550148  0.49270159  0.29957614  1
  Zr  Zr58  1  0.49488710  0.49139317  0.70112026  1
  Zr  Zr59  1  0.61242869  0.58618346  0.40593851  1
  Zr  Zr60  1  0.59161918  0.00107847  0.59714811  1
  Zr  Zr61  1  -0.00138241  0.81167027  0.80174567  1
  Zr  Zr62  1  0.20875174  0.40015701  0.80390975  1
  Zr  Zr63  1  0.60572041  0.00508928  0.81275383  1
  Zr  Zr64  1  0.39798166  0.80417151  0.80258248  1
  Zr  Zr65  1  0.09139857  0.10475371  0.90382265  1
  Zr  Zr66  1  -0.00084394  0.80544146  0.59584486  1
  Zr  Zr67  1  0.49395989  0.68934715  0.50409246  1
  Zr  Zr68  1  0.20680073  0.20158192  0.80206032  1
  Zr  Zr69  1  0.50369095  0.90040207  0.30084381  1
  Zr  Zr70  1  0.20212196  0.00288591  -0.00060632  1
  Zr  Zr71  1  0.60246502  0.60287961  0.80150617  1
  Zr  Zr72  1  0.09434698  0.29302590  0.49512376  1
  Zr  Zr73  1  0.71038955  0.69122955  0.29876999  1
  Zr  Zr74  1  0.40592088  0.00004140  0.20756099  1
  Zr  Zr75  1  0.59432773  0.00485907  0.40326556  1
  Zr  Zr76  1  0.29405998  0.49530595  0.28520416  1
  Zr  Zr77  1  0.89581376  0.10067837  0.91273780  1
  Zr  Zr78  1  0.20527449  0.39399406  0.39214714  1
  Zr  Zr79  1  0.09668121  0.69714734  0.89671418  1
  Zr  Zr80  1  0.29930682  0.68346131  0.09734242  1
  Zr  Zr81  1  0.70924106  0.90696563  0.29015985  1
  Zr  Zr82  1  0.79333022  -0.00507789  0.81207522  1
  Zr  Zr83  1  0.19837165  0.80215083  -0.00163002  1
  Zr  Zr84  1  0.28587141  0.91554695  0.49913416  1
  Zr  Zr85  1  0.69244962  0.29674542  0.49357993  1
  Zr  Zr86  1  0.71224066  0.70132205  0.50296281  1
  Zr  Zr87  1  -0.00971911  0.59082373  0.60332416  1
  Zr  Zr88  1  0.38956477  0.81004305  -0.00170397  1
  Zr  Zr89  1  0.28790341  0.90974240  0.12206899  1
  Zr  Zr90  1  0.20745996  0.39866174  0.59860267  1
  Zr  Zr91  1  0.29632388  0.68585745  0.29638332  1
  Zr  Zr92  1  0.70153550  0.29942317  0.29332820  1
  Zr  Zr93  1  0.60589780  0.79638668  0.19271723  1
  Zr  Zr94  1  0.40410455  0.80961948  0.59374187  1
  Zr  Zr95  1  0.09108341  0.11175801  0.30545614  1
  Zr  Zr96  1  0.11600597  0.91762658  0.29970792  1
  Zr  Zr97  1  0.31810461  0.29207498  0.70304760  1
  Zr  Zr98  1  0.81034678  0.39764639  0.19297301  1
  Zr  Zr99  1  0.70129021  0.49820998  0.09482179  1
  Ta  Ta100  1  -0.00310609  0.20916936  0.80994494  1
  Ta  Ta101  1  0.70054021  0.70744390  0.69886509  1
  Ta  Ta102  1  0.49745857  0.11672397  0.70864611  1
  Ta  Ta103  1  0.29639221  0.69115496  0.50497469  1
  Ta  Ta104  1  0.20304242  0.59243873  0.60274839  1
  Ta  Ta105  1  0.40207429  0.01213550  0.59977282  1
  Ta  Ta106  1  0.30882412  0.29450526  0.49473111  1
  Ta  Ta107  1  0.19865361  0.79448046  0.39882753  1
  Ta  Ta108  1  0.29855618  0.91046459  0.69420108  1
  Ta  Ta109  1  -0.00123160  0.59143464  0.80048242  1
  Ta  Ta110  1  0.79685782  0.21858513  -0.00022857  1
  Ta  Ta111  1  0.19870934  0.59743017  0.40215356  1
  Ta  Ta112  1  0.90350397  0.49333632  0.90209915  1
  Ta  Ta113  1  -0.00365776  0.79352821  0.20254074  1
  Ta  Ta114  1  0.51123422  0.90504493  0.09241638  1
  Ta  Ta115  1  0.50267171  0.70051958  0.90572465  1
  Ta  Ta116  1  0.51176371  0.89718356  0.91062757  1
  Ta  Ta117  1  0.50058853  0.10096594  0.09209256  1
  Ta  Ta118  1  0.60185595  0.80095062  0.59940268  1
  Ta  Ta119  1  0.49951248  0.50039701  0.08739601  1
  Ta  Ta120  1  0.59831730  0.39477693  0.39526141  1
  Ta  Ta121  1  0.30270557  0.69146352  0.89910676  1
  Ta  Ta122  1  0.59629794  0.39224323  -0.00415612  1
  Ta  Ta123  1  0.10184121  0.69287325  0.70050764  1
  Ta  Ta124  1  0.00262148  0.39866016  0.19468331  1
  Ta  Ta125  1  0.69258561  0.10511646  0.49696435  1
  Ta  Ta126  1  0.49591898  0.28873365  0.89454690  1
  Ta  Ta127  1  0.40187981  0.00575401  0.41148180  1
  Ta  Ta128  1  0.49504532  0.11283737  0.30480303  1
  Ta  Ta129  1  0.60041873  0.00693442  0.19567990  1
  Ta  Ta130  1  0.30059862  0.69638438  0.69486202  1
  Ta  Ta131  1  0.29652793  0.30174134  0.10072537  1
  Ta  Ta132  1  0.89145599  0.90394638  0.70311098  1
  Ta  Ta133  1  0.50413643  0.69964721  0.69624001  1
  Ta  Ta134  1  0.20140417  0.20320053  0.39932859  1
  Ta  Ta135  1  0.38320529  0.58532416  0.40742244  1
  Ta  Ta136  1  0.00147389  0.00799931  0.19424109  1
  Ta  Ta137  1  0.70123196  0.10472923  0.29556404  1
  Ta  Ta138  1  0.09668261  0.49637000  0.70294174  1
  Ta  Ta139  1  0.19428642  0.20947418  0.20158455  1
  Ta  Ta140  1  -0.00232250  -0.00091430  0.00254121  1
  Ta  Ta141  1  0.70379060  0.69413401  0.08505277  1
  Ta  Ta142  1  0.70203091  0.90226377  0.50448245  1
  Ta  Ta143  1  -0.00746272  0.40226240  0.60035709  1
  Ta  Ta144  1  0.09601033  0.30781754  0.90571178  1
  Ta  Ta145  1  0.60676829  0.59736861  0.60216499  1
  Ta  Ta146  1  0.19884573  0.59609056  0.79416093  1
  Ta  Ta147  1  -0.00283045  0.59218104  0.00264451  1
  Ta  Ta148  1  -0.00244236  0.39889024  0.00462240  1
  Ta  Ta149  1  0.79668578  0.00166360  0.59916430  1
  Ti  Ti150  1  0.91029964  0.48878634  0.47720986  1
  Ti  Ti151  1  0.80819959  0.58594593  0.39633479  1
  Ti  Ti152  1  0.90452946  0.49892545  0.09793371  1
  Ti  Ti153  1  0.40151721  0.39139318  0.59587953  1
  Ti  Ti154  1  0.09557463  0.49133058  0.89841147  1
  Ti  Ti155  1  0.90448315  0.68952978  0.29704268  1
  Ti  Ti156  1  0.80437227  0.40167154  0.39783140  1
  Ti  Ti157  1  0.50759066  0.10816173  0.91087164  1
  Ti  Ti158  1  0.58982250  0.39254196  0.80864199  1
  Ti  Ti159  1  0.90401675  0.91055644  0.29054725  1
  Ti  Ti160  1  0.59640583  0.39912934  0.19565581  1
  Ti  Ti161  1  0.00864929  0.20835106  0.18478761  1
  Ti  Ti162  1  0.89982335  0.90450389  0.50246228  1
  Ti  Ti163  1  -0.00449086  0.60025132  0.19546064  1
  Ti  Ti164  1  0.60579226  0.79878468  0.80376822  1
  Ti  Ti165  1  0.10486704  0.49346030  0.10201061  1
  Ti  Ti166  1  0.29207811  0.49455773  0.09750099  1
  Ti  Ti167  1  0.80057242  0.80908315  0.59913357  1
  Ti  Ti168  1  0.10263834  0.90774320  0.70022560  1
  Ti  Ti169  1  0.30792714  0.49927923  0.69484155  1
  Ti  Ti170  1  0.29457305  0.10773565  0.50523563  1
  Ti  Ti171  1  0.40345855  0.59147927  0.19118176  1
  Ti  Ti172  1  0.49067074  0.28983822  0.48282105  1
  Ti  Ti173  1  0.10860939  0.10193069  0.50151968  1
  Ti  Ti174  1  0.69712376  0.29882601  0.09755050  1
  Ti  Ti175  1  0.10567814  0.91150203  0.49585704  1
  Ti  Ti176  1  0.58608106  0.20262134  0.59454622  1
  Ti  Ti177  1  0.69762130  0.90485104  0.08905126  1
  Ti  Ti178  1  0.49911051  0.50118710  0.90443230  1
  Ti  Ti179  1  -0.00111048  0.59862029  0.39092764  1
  Ti  Ti180  1  0.09608469  0.90498491  0.90414850  1
  Ti  Ti181  1  0.80558374  0.39191146  -0.00152808  1
  Ti  Ti182  1  0.80965755  0.59588442  0.19566255  1
  Ti  Ti183  1  0.70797257  0.49163839  0.29763634  1
  Ti  Ti184  1  0.00066537  0.00053641  0.40001938  1
  Ti  Ti185  1  0.49289045  0.29413806  0.30553147  1
  Ti  Ti186  1  0.40288473  -0.00334025  -0.00035108  1
  Ti  Ti187  1  -0.00347101  -0.00294667  0.80638604  1
  Ti  Ti188  1  0.70108446  0.89591366  0.69889148  1
  Ti  Ti189  1  -0.00511532  0.20896523  0.60110411  1
  Ti  Ti190  1  0.79771400  0.80590966  -0.00405270  1
  Ti  Ti191  1  0.90207246  0.69747378  0.49583918  1
  Ti  Ti192  1  0.80788630  0.59910528  0.00272119  1
  Ti  Ti193  1  0.69545697  0.70314241  0.90859074  1
  Ti  Ti194  1  0.10318568  0.31001931  0.09814539  1
  Ti  Ti195  1  0.30841684  0.28997933  0.29701583  1
  Ti  Ti196  1  0.80163555  0.39504267  0.81603992  1
  Ti  Ti197  1  0.40467432  0.19549062  0.59736376  1
  Ti  Ti198  1  0.09271115  0.69012821  0.10447396  1
  Ti  Ti199  1  0.79325451  0.80719073  0.80913153  1
  Mo  Mo200  1  0.90364583  0.50114094  0.29679028  1
  Mo  Mo201  1  0.60325155  0.20084691  -0.00199449  1
  Mo  Mo202  1  0.79558869  0.20304644  0.19539039  1
  Mo  Mo203  1  0.00392036  0.40310573  0.80545588  1
  Mo  Mo204  1  0.09689527  0.10533180  0.10292178  1
  Mo  Mo205  1  0.30313538  0.30227719  0.90480412  1
  Mo  Mo206  1  0.00353230  0.20114002  0.40609873  1
  Mo  Mo207  1  0.79604689  0.00351294  0.20046061  1
  Mo  Mo208  1  0.59812576  0.20082079  0.80872540  1
  Mo  Mo209  1  0.29870520  0.49435314  0.50363937  1
  Mo  Mo210  1  0.09218504  0.68906929  0.30150233  1
  Mo  Mo211  1  0.19502788  0.40025645  0.00184564  1
  Mo  Mo212  1  0.90622537  0.30165288  0.09922804  1
  Mo  Mo213  1  -0.00048671  0.21294783  0.00400289  1
  Mo  Mo214  1  0.89829777  0.69070686  0.09914043  1
  Mo  Mo215  1  0.40208341  0.20305781  0.00171106  1
  Mo  Mo216  1  0.40659477  0.19906350  0.80319575  1
  Mo  Mo217  1  0.19869344  0.01273234  0.40736512  1
  Mo  Mo218  1  0.10154375  0.30104607  0.29198552  1
  Mo  Mo219  1  0.40785063  0.39634903  0.80339148  1
  Mo  Mo220  1  0.70228117  0.49212986  0.49135757  1
  Mo  Mo221  1  0.40050276  0.59221573  -0.00392269  1
  Mo  Mo222  1  0.69183510  0.30724766  0.90580326  1
  Mo  Mo223  1  0.20962815  0.19810211  0.59382049  1
  Mo  Mo224  1  0.30620467  0.10054677  0.69041097  1
  Mo  Mo225  1  0.30925482  0.90763451  0.89333789  1
  Mo  Mo226  1  0.79367948  -0.00749619  -0.00398179  1
  Mo  Mo227  1  0.20158532  0.00710469  0.60355356  1
  Mo  Mo228  1  0.49950405  0.90578996  0.50463420  1
  Mo  Mo229  1  0.90307580  0.49009510  0.71716952  1
  Mo  Mo230  1  0.39504305  0.19674452  0.40101532  1
  Mo  Mo231  1  0.19765551  0.39244141  0.19272994  1
  Mo  Mo232  1  0.39925729  0.39112298  0.39818616  1
  Mo  Mo233  1  0.59565939  0.19974616  0.39556809  1
  Mo  Mo234  1  0.60650981  0.79821199  -0.00316711  1
  Mo  Mo235  1  0.49924643  0.29534876  0.70288985  1
  Mo  Mo236  1  0.69454964  0.11148068  0.91241876  1
  Mo  Mo237  1  0.19078382  0.02012202  0.19984519  1
  Mo  Mo238  1  0.00084596  0.39899300  0.39311566  1
  Mo  Mo239  1  0.29521344  0.90361521  0.31008253  1
  Mo  Mo240  1  0.90321561  0.30554918  0.90776221  1
  Mo  Mo241  1  0.59935716  0.59755119  -0.00550001  1
  Mo  Mo242  1  0.90754410  0.30638567  0.49487187  1
  Mo  Mo243  1  0.18600613  0.59219772  0.19079158  1
  Mo  Mo244  1  0.69840417  0.88831776  0.90805975  1
  Mo  Mo245  1  0.89561174  0.90089679  0.90532644  1
  Mo  Mo246  1  0.39320219  0.59894363  0.60196438  1
  Mo  Mo247  1  0.49406556  0.10898540  0.50105523  1
  Mo  Mo248  1  0.60017585  0.00108896  0.00138706  1
  Mo  Mo249  1  0.39857211  0.20197842  0.20355419  1
