# generated using pymatgen
data_HfZrTaTiMo
_symmetry_space_group_name_H-M   'P 1'
_cell_length_a   16.88093564
_cell_length_b   16.87878026
_cell_length_c   16.87669712
_cell_angle_alpha   89.98121734
_cell_angle_beta   90.01170075
_cell_angle_gamma   90.00801611
_symmetry_Int_Tables_number   1
_chemical_formula_structural   HfZrTaTiMo
_chemical_formula_sum   'Hf50 Zr50 Ta50 Ti50 Mo50'
_cell_volume   4808.67020943
_cell_formula_units_Z   50
loop_
 _symmetry_equiv_pos_site_id
 _symmetry_equiv_pos_as_xyz
  1  'x, y, z'
loop_
 _atom_site_type_symbol
 _atom_site_label
 _atom_site_symmetry_multiplicity
 _atom_site_fract_x
 _atom_site_fract_y
 _atom_site_fract_z
 _atom_site_occupancy
  Hf  Hf0  1  0.40259211  0.20124872  0.59745626  1
  Hf  Hf1  1  0.79161012  0.80066966  0.39502081  1
  Hf  Hf2  1  0.50272758  0.49927949  0.29839662  1
  Hf  Hf3  1  0.69668423  0.29708693  0.29938558  1
  Hf  Hf4  1  0.50758718  0.08972619  0.69746710  1
  Hf  Hf5  1  0.89975470  0.50353110  0.70315870  1
  Hf  Hf6  1  -0.00439812  0.40690614  0.39462440  1
  Hf  Hf7  1  0.79560805  0.19811795  0.79990172  1
  Hf  Hf8  1  0.90614106  0.89799851  0.90348865  1
  Hf  Hf9  1  0.10272764  0.09666025  0.69894630  1
  Hf  Hf10  1  -0.00695189  0.19671561  0.40199697  1
  Hf  Hf11  1  0.39773124  0.80363737  -0.00325326  1
  Hf  Hf12  1  0.90265267  0.70673494  0.10060794  1
  Hf  Hf13  1  0.20501194  0.19579183  0.79869359  1
  Hf  Hf14  1  0.39049620  0.59583347  0.19768071  1
  Hf  Hf15  1  0.49744224  0.09789171  0.89015692  1
  Hf  Hf16  1  0.09227676  0.50184391  0.70482528  1
  Hf  Hf17  1  0.10285486  0.29609178  0.09962777  1
  Hf  Hf18  1  0.50036171  0.09967768  0.30390628  1
  Hf  Hf19  1  0.49633553  0.69346692  0.89656164  1
  Hf  Hf20  1  0.21526901  0.20401847  0.19810584  1
  Hf  Hf21  1  -0.00611635  0.19034295  -0.00418989  1
  Hf  Hf22  1  0.00358976  0.79616960  0.59360596  1
  Hf  Hf23  1  0.90142953  0.30256693  0.69782801  1
  Hf  Hf24  1  0.49177441  0.89794673  0.30113031  1
  Hf  Hf25  1  0.80033607  0.19368702  0.59878181  1
  Hf  Hf26  1  0.69485863  0.69232502  0.10707425  1
  Hf  Hf27  1  0.69972394  0.50024956  0.69599493  1
  Hf  Hf28  1  0.20527193  0.80293698  0.80437068  1
  Hf  Hf29  1  0.80070597  0.19186033  0.40696614  1
  Hf  Hf30  1  0.50190020  0.90919153  0.88386407  1
  Hf  Hf31  1  0.40263648  0.21145080  0.20344873  1
  Hf  Hf32  1  0.89756421  0.90295739  0.10481407  1
  Hf  Hf33  1  0.09854581  0.70513676  0.30310094  1
  Hf  Hf34  1  0.89028152  0.29880100  0.90415311  1
  Hf  Hf35  1  0.90804175  0.09704476  0.69953907  1
  Hf  Hf36  1  0.60106228  0.60066164  0.41259042  1
  Hf  Hf37  1  0.00751192  0.40382788  0.00092370  1
  Hf  Hf38  1  0.30533894  0.70406562  0.50667792  1
  Hf  Hf39  1  0.20143232  0.60436087  0.80674312  1
  Hf  Hf40  1  0.59344548  0.79339276  0.78578388  1
  Hf  Hf41  1  0.59357330  0.20477612  0.41025895  1
  Hf  Hf42  1  0.11043652  0.09563907  0.49368458  1
  Hf  Hf43  1  0.69629427  0.69268118  0.30142200  1
  Hf  Hf44  1  -0.01312239  0.60081491  0.38980752  1
  Hf  Hf45  1  0.29756550  0.49785729  0.30492240  1
  Hf  Hf46  1  0.59313258  0.39666094  0.80175244  1
  Hf  Hf47  1  0.40590655  0.40215242  0.79652278  1
  Hf  Hf48  1  0.30026842  0.09382822  0.49269475  1
  Hf  Hf49  1  0.11324388  0.10157585  0.30791927  1
  Zr  Zr50  1  0.39811299  0.20636327  0.00284428  1
  Zr  Zr51  1  -0.00148369  0.40091080  0.59304022  1
  Zr  Zr52  1  0.20436274  0.41241526  0.18779283  1
  Zr  Zr53  1  0.69485138  0.68790881  0.89514346  1
  Zr  Zr54  1  0.69965050  0.29732610  0.09880726  1
  Zr  Zr55  1  0.19944265  0.40273561  0.80576936  1
  Zr  Zr56  1  0.69332314  0.09951408  0.90046613  1
  Zr  Zr57  1  0.89565253  0.29770959  0.09805991  1
  Zr  Zr58  1  0.20355890  -0.00845833  -0.00970682  1
  Zr  Zr59  1  0.80011644  0.79578533  -0.00860663  1
  Zr  Zr60  1  0.59403133  0.39868731  0.40833962  1
  Zr  Zr61  1  0.49566919  0.89855927  0.10363847  1
  Zr  Zr62  1  0.10277851  0.89903371  0.30815084  1
  Zr  Zr63  1  0.31203858  0.68961408  0.90051246  1
  Zr  Zr64  1  0.20009692  0.79003116  0.19397408  1
  Zr  Zr65  1  0.49820000  0.70211622  0.29652600  1
  Zr  Zr66  1  0.19817882  0.80233166  0.60608966  1
  Zr  Zr67  1  -0.00064363  0.19258244  0.20185083  1
  Zr  Zr68  1  0.19779568  0.59569319  0.01901704  1
  Zr  Zr69  1  0.40502358  0.40395864  0.00446483  1
  Zr  Zr70  1  0.00349551  -0.00511197  0.59436172  1
  Zr  Zr71  1  0.69092434  0.90553049  0.69380493  1
  Zr  Zr72  1  0.59154120  0.21417798  -0.00494718  1
  Zr  Zr73  1  0.81629077  0.59827250  0.21288070  1
  Zr  Zr74  1  0.50916534  0.10297656  0.10262047  1
  Zr  Zr75  1  0.60648712  -0.01572848  0.40238868  1
  Zr  Zr76  1  0.40310908  0.59791171  0.41093390  1
  Zr  Zr77  1  0.60067265  0.80121182  -0.00302368  1
  Zr  Zr78  1  0.80010119  0.79741333  0.79727006  1
  Zr  Zr79  1  0.39184751  0.00675359  0.19892700  1
  Zr  Zr80  1  0.30245770  0.29855646  0.89704998  1
  Zr  Zr81  1  0.40824477  0.39983378  0.59779183  1
  Zr  Zr82  1  0.00014451  0.60403890  0.58608057  1
  Zr  Zr83  1  0.80449037  0.40466567  0.20277831  1
  Zr  Zr84  1  0.00254766  0.00383134  0.00133738  1
  Zr  Zr85  1  0.20145830  0.00059021  0.19701754  1
  Zr  Zr86  1  0.69871414  0.50052829  0.89833419  1
  Zr  Zr87  1  0.30187814  0.50560462  0.69065117  1
  Zr  Zr88  1  0.21883868  -0.00443443  0.79917936  1
  Zr  Zr89  1  0.20590807  0.40843540  -0.00112994  1
  Zr  Zr90  1  0.89541535  0.89988592  0.49275209  1
  Zr  Zr91  1  0.19344134  0.60906946  0.59916924  1
  Zr  Zr92  1  0.89816873  0.50347978  0.89511950  1
  Zr  Zr93  1  0.80415241  0.00208847  0.79809853  1
  Zr  Zr94  1  0.10730883  0.29629453  0.49457847  1
  Zr  Zr95  1  0.70702699  0.90726877  0.10153375  1
  Zr  Zr96  1  0.49777122  0.08602794  0.50516150  1
  Zr  Zr97  1  0.19140265  0.79393943  -0.00703918  1
  Zr  Zr98  1  0.19425249  0.60338993  0.40523155  1
  Zr  Zr99  1  0.70126553  0.09303284  0.29895343  1
  Ta  Ta100  1  0.39942904  0.19750734  0.79021543  1
  Ta  Ta101  1  0.40345952  0.80021283  0.40713516  1
  Ta  Ta102  1  -0.00148876  0.00216932  0.20167489  1
  Ta  Ta103  1  0.89866925  0.30025647  0.30218025  1
  Ta  Ta104  1  0.40255944  0.21056557  0.40019991  1
  Ta  Ta105  1  0.10373564  0.30291847  0.30019354  1
  Ta  Ta106  1  0.80877057  0.01720011  -0.00033511  1
  Ta  Ta107  1  0.09074180  0.70102988  0.71305134  1
  Ta  Ta108  1  0.30144369  0.89335190  0.30777870  1
  Ta  Ta109  1  0.80115764  0.00055602  0.59473425  1
  Ta  Ta110  1  0.00079886  0.40826372  0.20341549  1
  Ta  Ta111  1  0.49920772  0.69677870  0.10437600  1
  Ta  Ta112  1  0.79855590  0.60583594  0.59761390  1
  Ta  Ta113  1  0.39109719  0.00058602  -0.00971302  1
  Ta  Ta114  1  0.10183287  0.29635096  0.69771317  1
  Ta  Ta115  1  0.60291161  0.80386144  0.20509038  1
  Ta  Ta116  1  0.69716748  0.30339265  0.51116060  1
  Ta  Ta117  1  0.10405887  0.09950336  0.89747328  1
  Ta  Ta118  1  -0.00485716  0.80115544  0.20514729  1
  Ta  Ta119  1  0.59627347  0.60300354  0.60320054  1
  Ta  Ta120  1  0.80451329  0.19320331  0.20160580  1
  Ta  Ta121  1  0.20588179  0.19573480  0.60115458  1
  Ta  Ta122  1  0.69755105  0.50228408  0.30124183  1
  Ta  Ta123  1  0.30385401  0.90070597  0.49763008  1
  Ta  Ta124  1  0.00116137  0.61237469  -0.00160550  1
  Ta  Ta125  1  0.60629342  -0.00455776  0.20199408  1
  Ta  Ta126  1  0.69316820  0.50270426  0.10532881  1
  Ta  Ta127  1  0.89218837  0.90560175  0.29830895  1
  Ta  Ta128  1  0.59299637  0.59279925  0.00447237  1
  Ta  Ta129  1  0.39886177  0.39377606  0.19626663  1
  Ta  Ta130  1  0.29696793  0.29939036  0.69287728  1
  Ta  Ta131  1  0.30128489  0.89403230  0.10197929  1
  Ta  Ta132  1  0.59884046  0.20724009  0.79417699  1
  Ta  Ta133  1  0.09375743  0.89674740  0.71235242  1
  Ta  Ta134  1  0.59006578  0.40333357  -0.00029333  1
  Ta  Ta135  1  0.90422457  0.69910262  0.70104888  1
  Ta  Ta136  1  0.00523585  0.20184806  0.80435708  1
  Ta  Ta137  1  -0.00020695  0.19927799  0.59447003  1
  Ta  Ta138  1  0.80332168  0.59808133  0.00397630  1
  Ta  Ta139  1  0.59172910  0.39484300  0.19707813  1
  Ta  Ta140  1  0.00666258  0.39064127  0.80764771  1
  Ta  Ta141  1  0.29759814  0.30130043  0.49705681  1
  Ta  Ta142  1  0.09232296  0.51019773  0.89987993  1
  Ta  Ta143  1  0.20328006  -0.00802949  0.60516779  1
  Ta  Ta144  1  0.70211116  0.10404565  0.10316118  1
  Ta  Ta145  1  0.80081456  0.79586500  0.60250873  1
  Ta  Ta146  1  0.89081892  0.70138104  0.49243036  1
  Ta  Ta147  1  0.09223445  0.89292571  0.09895743  1
  Ta  Ta148  1  0.89139766  0.30362809  0.49804895  1
  Ta  Ta149  1  -0.00572951  0.00208066  0.39711828  1
  Ti  Ti150  1  0.70223623  0.49952166  0.50350199  1
  Ti  Ti151  1  0.39419974  0.80524547  0.78697342  1
  Ti  Ti152  1  0.59814224  0.80030228  0.40526144  1
  Ti  Ti153  1  0.69925112  0.89576609  0.50741285  1
  Ti  Ti154  1  0.29627875  0.30599526  0.30892540  1
  Ti  Ti155  1  0.69635084  0.09260470  0.50630056  1
  Ti  Ti156  1  0.10365197  0.50450600  0.29213089  1
  Ti  Ti157  1  0.29864337  0.10066526  0.08972374  1
  Ti  Ti158  1  0.38701015  -0.00620304  0.61339247  1
  Ti  Ti159  1  0.68923085  0.09656271  0.69280218  1
  Ti  Ti160  1  0.90482211  0.50439441  0.09795843  1
  Ti  Ti161  1  0.10725022  0.89369356  0.48630733  1
  Ti  Ti162  1  0.50205088  0.90385686  0.69245329  1
  Ti  Ti163  1  0.00554364  -0.00008593  0.80821464  1
  Ti  Ti164  1  0.51078686  0.29730523  0.68803132  1
  Ti  Ti165  1  0.79677897  0.80238668  0.20757526  1
  Ti  Ti166  1  0.70165790  0.30249549  0.90456212  1
  Ti  Ti167  1  0.40804216  0.39144353  0.40325465  1
  Ti  Ti168  1  0.49130964  0.51196288  0.89832410  1
  Ti  Ti169  1  0.58977550  0.59789379  0.78804442  1
  Ti  Ti170  1  0.20180750  0.19897639  -0.00618623  1
  Ti  Ti171  1  0.19916559  0.39844710  0.59887192  1
  Ti  Ti172  1  0.40100517  0.79722813  0.61194777  1
  Ti  Ti173  1  0.30019369  0.70520027  0.30290494  1
  Ti  Ti174  1  0.50200662  0.50418746  0.10504541  1
  Ti  Ti175  1  0.79889165  0.40219461  0.59735706  1
  Ti  Ti176  1  0.50397060  0.49965311  0.51292980  1
  Ti  Ti177  1  0.30755108  0.69916421  0.10221957  1
  Ti  Ti178  1  0.00170036  0.79015632  0.81682743  1
  Ti  Ti179  1  0.90665182  0.89454824  0.70113132  1
  Ti  Ti180  1  0.50244650  0.70828713  0.51339059  1
  Ti  Ti181  1  0.00466942  0.60020915  0.19753067  1
  Ti  Ti182  1  0.79854355  0.40409780  0.39853614  1
  Ti  Ti183  1  0.89223238  0.08931942  0.30115486  1
  Ti  Ti184  1  0.79572743  0.39580905  0.79777443  1
  Ti  Ti185  1  0.10656039  0.09868311  0.09829497  1
  Ti  Ti186  1  0.88396298  0.50445577  0.49351718  1
  Ti  Ti187  1  0.30041038  0.49599845  0.50147450  1
  Ti  Ti188  1  0.49630975  0.89681084  0.51037696  1
  Ti  Ti189  1  0.69968112  0.70343865  0.50644773  1
  Ti  Ti190  1  0.10296729  0.49731681  0.49787605  1
  Ti  Ti191  1  0.59995628  -0.00049172  0.00178645  1
  Ti  Ti192  1  0.80556434  0.60937668  0.79805978  1
  Ti  Ti193  1  0.79493293  0.40949842  0.00388045  1
  Ti  Ti194  1  0.69638847  0.90874613  0.89563721  1
  Ti  Ti195  1  0.69836969  0.69835839  0.69117366  1
  Ti  Ti196  1  0.40378272  0.60338479  0.77851473  1
  Ti  Ti197  1  0.19685325  0.40206000  0.39978530  1
  Ti  Ti198  1  0.30128250  0.09373766  0.31595346  1
  Ti  Ti199  1  0.69453422  0.30214106  0.69016233  1
  Mo  Mo200  1  0.30999404  0.50180822  0.10175061  1
  Mo  Mo201  1  0.40920427  0.60317614  0.60085802  1
  Mo  Mo202  1  0.59898155  0.79747691  0.59347383  1
  Mo  Mo203  1  0.49585222  0.70060076  0.69372042  1
  Mo  Mo204  1  0.30527803  0.70304303  0.69933979  1
  Mo  Mo205  1  0.49681886  0.30207798  0.30221840  1
  Mo  Mo206  1  0.09166210  0.89894643  0.89597419  1
  Mo  Mo207  1  0.20340735  -0.00874370  0.40467185  1
  Mo  Mo208  1  0.79825897  0.19247519  0.00173056  1
  Mo  Mo209  1  0.08904245  0.70124255  0.10517157  1
  Mo  Mo210  1  0.60280998  0.20068365  0.20383079  1
  Mo  Mo211  1  0.30430046  0.10052201  0.69292492  1
  Mo  Mo212  1  0.21060657  0.79847916  0.40351301  1
  Mo  Mo213  1  0.79942431  -0.00212929  0.40402743  1
  Mo  Mo214  1  0.30400308  0.10103407  0.89695530  1
  Mo  Mo215  1  0.90213301  0.69817461  0.89873929  1
  Mo  Mo216  1  0.40425307  0.59692170  0.00932765  1
  Mo  Mo217  1  0.30438611  0.89687554  0.69691994  1
  Mo  Mo218  1  0.39837065  -0.01034931  0.40228245  1
  Mo  Mo219  1  0.50091884  0.29788845  0.88530113  1
  Mo  Mo220  1  0.50242310  0.30596781  0.10734843  1
  Mo  Mo221  1  0.89371224  0.09661614  0.10835216  1
  Mo  Mo222  1  0.90457409  0.10185548  0.89315653  1
  Mo  Mo223  1  0.59607377  0.59353447  0.19891124  1
  Mo  Mo224  1  0.60006222  0.00110446  0.79401897  1
  Mo  Mo225  1  0.31738333  0.51141211  0.90156120  1
  Mo  Mo226  1  0.60472790  -0.00571229  0.59515374  1
  Mo  Mo227  1  0.29986206  0.29977562  0.09899535  1
  Mo  Mo228  1  0.21106404  0.20767249  0.39550713  1
  Mo  Mo229  1  0.79328218  0.59707769  0.40804342  1
  Mo  Mo230  1  -0.00982740  0.80119248  0.39619580  1
  Mo  Mo231  1  0.89947221  0.09745077  0.50014335  1
  Mo  Mo232  1  0.50002491  0.29991655  0.50299847  1
  Mo  Mo233  1  -0.00076037  0.60570241  0.80510019  1
  Mo  Mo234  1  0.31361441  0.89907642  0.89618703  1
  Mo  Mo235  1  0.60476412  0.40308446  0.60191742  1
  Mo  Mo236  1  0.89995333  0.70975443  0.30042074  1
  Mo  Mo237  1  0.19918634  0.60273738  0.20204299  1
  Mo  Mo238  1  0.80178074  0.00287528  0.20170722  1
  Mo  Mo239  1  0.09001444  0.71666106  0.48630029  1
  Mo  Mo240  1  0.39573955  0.79347884  0.20131840  1
  Mo  Mo241  1  0.09895125  0.29357684  0.89992564  1
  Mo  Mo242  1  0.89983644  0.49563937  0.30222814  1
  Mo  Mo243  1  0.69922154  0.89373787  0.29899732  1
  Mo  Mo244  1  0.50543202  0.50626745  0.69722998  1
  Mo  Mo245  1  0.00376574  0.79894277  0.00276271  1
  Mo  Mo246  1  0.08643963  0.50846668  0.10224160  1
  Mo  Mo247  1  0.39902958  -0.00033953  0.79312893  1
  Mo  Mo248  1  0.09472193  0.70043613  0.90273348  1
  Mo  Mo249  1  0.60548252  0.20122529  0.60142875  1
