# generated using pymatgen
data_HfZrTaTiMo
_symmetry_space_group_name_H-M   'P 1'
_cell_length_a   16.88164531
_cell_length_b   16.87720266
_cell_length_c   16.87534153
_cell_angle_alpha   89.98465410
_cell_angle_beta   89.97546174
_cell_angle_gamma   90.01654418
_symmetry_Int_Tables_number   1
_chemical_formula_structural   HfZrTaTiMo
_chemical_formula_sum   'Hf50 Zr50 Ta50 Ti50 Mo50'
_cell_volume   4808.03625905
_cell_formula_units_Z   50
loop_
 _symmetry_equiv_pos_site_id
 _symmetry_equiv_pos_as_xyz
  1  'x, y, z'
loop_
 _atom_site_type_symbol
 _atom_site_label
 _atom_site_symmetry_multiplicity
 _atom_site_fract_x
 _atom_site_fract_y
 _atom_site_fract_z
 _atom_site_occupancy
  Hf  Hf0  1  0.90507367  0.89511148  0.09360871  1
  Hf  Hf1  1  0.90195934  0.89594217  0.90100980  1
  Hf  Hf2  1  0.29637158  0.51023871  0.29728931  1
  Hf  Hf3  1  0.79527069  0.79195075  0.59254915  1
  Hf  Hf4  1  0.21020176  0.79223422  0.00187459  1
  Hf  Hf5  1  -0.00266130  0.59670885  0.79971110  1
  Hf  Hf6  1  0.10488418  0.49553509  0.89279645  1
  Hf  Hf7  1  0.59144009  0.40568283  0.20102761  1
  Hf  Hf8  1  0.60098395  0.79134140  0.19876845  1
  Hf  Hf9  1  0.60657471  0.79562690  0.41063944  1
  Hf  Hf10  1  0.50512914  0.29958832  0.69653418  1
  Hf  Hf11  1  0.59461283  0.59041742  0.40274602  1
  Hf  Hf12  1  0.10597130  0.10092081  0.30114225  1
  Hf  Hf13  1  0.29172737  0.10150160  0.09849450  1
  Hf  Hf14  1  0.29238379  0.30697751  0.69969222  1
  Hf  Hf15  1  0.89580259  0.29573358  0.90289248  1
  Hf  Hf16  1  0.10573548  0.89796156  0.10218909  1
  Hf  Hf17  1  0.38953091  0.19363098  0.79576872  1
  Hf  Hf18  1  0.30019414  0.50625937  0.10101589  1
  Hf  Hf19  1  0.51248733  0.29579689  0.89321716  1
  Hf  Hf20  1  0.79795362  0.79810170  0.78558307  1
  Hf  Hf21  1  0.89996236  0.70390574  0.90118348  1
  Hf  Hf22  1  0.60359400  0.40381239  0.60072109  1
  Hf  Hf23  1  0.48982899  0.89766599  0.89545703  1
  Hf  Hf24  1  0.79584566  0.60055520  0.19893309  1
  Hf  Hf25  1  0.79767179  0.79604272  0.20209523  1
  Hf  Hf26  1  0.00077294  -0.00424521  0.39612082  1
  Hf  Hf27  1  0.31387378  0.69389782  0.89520835  1
  Hf  Hf28  1  -0.00278113  0.20037297  0.80008270  1
  Hf  Hf29  1  0.29459531  0.29227209  0.10373643  1
  Hf  Hf30  1  0.49977317  0.69823490  0.51256417  1
  Hf  Hf31  1  0.60679128  0.00717591  0.60614656  1
  Hf  Hf32  1  0.10526442  0.68987196  0.69178096  1
  Hf  Hf33  1  0.00301206  0.39590591  0.20263655  1
  Hf  Hf34  1  0.59660368  0.20108720  0.41310313  1
  Hf  Hf35  1  0.10947291  0.10007042  0.09617663  1
  Hf  Hf36  1  0.29970448  0.89886959  0.50559440  1
  Hf  Hf37  1  0.09154733  0.30815028  0.70092497  1
  Hf  Hf38  1  0.40529638  0.01152033  0.20097265  1
  Hf  Hf39  1  0.00067744  0.19782437  0.20573704  1
  Hf  Hf40  1  0.50221677  0.29715305  0.09646700  1
  Hf  Hf41  1  0.29149333  0.50295888  0.50094975  1
  Hf  Hf42  1  0.19972270  0.39683979  0.20351627  1
  Hf  Hf43  1  0.90939859  0.49005768  0.68878685  1
  Hf  Hf44  1  0.39520953  0.40058888  0.80263326  1
  Hf  Hf45  1  0.29531566  0.70607407  0.29238516  1
  Hf  Hf46  1  0.28366136  0.09372580  0.90142527  1
  Hf  Hf47  1  0.20809907  0.80063394  0.79882454  1
  Hf  Hf48  1  0.00543529  0.60704044  0.20211496  1
  Hf  Hf49  1  0.10730137  0.88448998  0.30650409  1
  Zr  Zr50  1  0.10862544  0.90705840  0.90120663  1
  Zr  Zr51  1  0.40227681  0.20052258  0.59996366  1
  Zr  Zr52  1  0.10768710  0.50799011  0.31003072  1
  Zr  Zr53  1  0.50571366  0.89666642  0.30422646  1
  Zr  Zr54  1  0.39636466  0.40236449  -0.00249760  1
  Zr  Zr55  1  -0.00627357  0.39724373  0.41277246  1
  Zr  Zr56  1  0.59742781  0.00676720  0.20243272  1
  Zr  Zr57  1  0.69696771  0.49053039  0.30651615  1
  Zr  Zr58  1  0.89272007  0.29158852  0.09976417  1
  Zr  Zr59  1  0.90275414  0.70391080  0.09280353  1
  Zr  Zr60  1  0.89816701  0.90120103  0.49546250  1
  Zr  Zr61  1  0.59223236  0.78764742  -0.00499696  1
  Zr  Zr62  1  0.30653746  0.30727557  0.50052190  1
  Zr  Zr63  1  0.89027188  0.49040496  0.30406269  1
  Zr  Zr64  1  0.80184277  0.20529257  0.41372576  1
  Zr  Zr65  1  0.29149383  0.50460491  0.69982748  1
  Zr  Zr66  1  0.79690042  0.00772808  0.79501616  1
  Zr  Zr67  1  0.80724241  0.00207929  0.20146120  1
  Zr  Zr68  1  0.60740899  -0.00191961  0.79437983  1
  Zr  Zr69  1  0.29905927  0.89451513  0.29558477  1
  Zr  Zr70  1  0.09985711  0.10123227  0.50497820  1
  Zr  Zr71  1  0.40779714  0.00725483  0.40379650  1
  Zr  Zr72  1  -0.00335997  0.80010443  0.59234593  1
  Zr  Zr73  1  0.60330199  0.00504699  -0.00822789  1
  Zr  Zr74  1  0.60363067  0.79965146  0.79570637  1
  Zr  Zr75  1  0.29316086  0.10741736  0.30509828  1
  Zr  Zr76  1  0.70502034  0.30351130  0.30178518  1
  Zr  Zr77  1  0.60288675  0.59381258  0.79339217  1
  Zr  Zr78  1  0.49139632  0.69535870  0.70362475  1
  Zr  Zr79  1  0.49135164  0.89673615  0.09879854  1
  Zr  Zr80  1  0.10103175  0.70774387  0.49418127  1
  Zr  Zr81  1  0.39847746  0.79401774  0.41101932  1
  Zr  Zr82  1  0.10591560  0.89839543  0.69464176  1
  Zr  Zr83  1  0.90257470  0.49830242  0.09347585  1
  Zr  Zr84  1  0.79522203  0.60036363  0.41312147  1
  Zr  Zr85  1  0.49615053  0.51178654  0.89658050  1
  Zr  Zr86  1  0.10505489  0.10364763  0.70424275  1
  Zr  Zr87  1  0.89899375  0.10599329  0.09545179  1
  Zr  Zr88  1  0.59643568  0.19619626  0.20603940  1
  Zr  Zr89  1  0.80217173  0.58909979  0.79691860  1
  Zr  Zr90  1  0.39064935  0.20463036  -0.01223022  1
  Zr  Zr91  1  0.79602803  0.20337694  0.60730537  1
  Zr  Zr92  1  0.61047405  0.80834073  0.60448292  1
  Zr  Zr93  1  -0.00939434  0.60401845  0.40881429  1
  Zr  Zr94  1  0.40380220  0.40495193  0.39321385  1
  Zr  Zr95  1  0.70365636  0.09241831  0.31558442  1
  Zr  Zr96  1  0.70432053  0.89818752  0.09525689  1
  Zr  Zr97  1  0.79734863  0.40481035  -0.00929068  1
  Zr  Zr98  1  0.89813895  0.09595147  0.50446159  1
  Zr  Zr99  1  0.10312150  0.49779110  0.09344798  1
  Ta  Ta100  1  0.69747921  0.30079105  0.70461971  1
  Ta  Ta101  1  0.40052288  0.60172858  0.40131139  1
  Ta  Ta102  1  0.39108790  0.60187420  0.59478116  1
  Ta  Ta103  1  0.19783721  0.20793521  0.40939272  1
  Ta  Ta104  1  0.40513898  0.20036623  0.20901499  1
  Ta  Ta105  1  0.69291461  0.50268518  0.09501466  1
  Ta  Ta106  1  0.69702106  0.69759715  0.30352422  1
  Ta  Ta107  1  0.79688892  0.79399929  0.40402022  1
  Ta  Ta108  1  0.70313089  0.69704777  0.90236036  1
  Ta  Ta109  1  0.79985488  0.39764749  0.79517549  1
  Ta  Ta110  1  0.50388493  0.10209099  0.50716811  1
  Ta  Ta111  1  0.90042087  0.10233798  0.90253486  1
  Ta  Ta112  1  0.20213996  0.39014606  -0.01152008  1
  Ta  Ta113  1  0.90242514  0.70826141  0.30595401  1
  Ta  Ta114  1  0.29809407  0.10273022  0.50384653  1
  Ta  Ta115  1  0.90191402  0.90387577  0.69795903  1
  Ta  Ta116  1  0.39231925  -0.00187440  -0.00559821  1
  Ta  Ta117  1  0.60097755  0.40275933  -0.00217991  1
  Ta  Ta118  1  0.69830492  0.29574511  0.09303153  1
  Ta  Ta119  1  0.10203349  0.69777711  0.89704088  1
  Ta  Ta120  1  0.70356956  0.89994399  0.30978033  1
  Ta  Ta121  1  0.79828618  0.59623620  -0.00624189  1
  Ta  Ta122  1  -0.00185312  0.20599108  0.40470304  1
  Ta  Ta123  1  0.80089089  0.59290872  0.59492988  1
  Ta  Ta124  1  0.49773339  0.10756979  0.08618884  1
  Ta  Ta125  1  0.59491919  0.60025998  0.19734360  1
  Ta  Ta126  1  0.39679248  0.00810412  0.60745651  1
  Ta  Ta127  1  -0.00253419  0.00254538  0.79988966  1
  Ta  Ta128  1  0.00097663  -0.00295329  0.20261476  1
  Ta  Ta129  1  0.09692969  0.50767368  0.51313970  1
  Ta  Ta130  1  0.70572071  0.91873750  0.49133407  1
  Ta  Ta131  1  0.70384152  0.11388956  0.09258971  1
  Ta  Ta132  1  0.19196554  0.40103352  0.59752205  1
  Ta  Ta133  1  0.89336390  0.29874537  0.30293979  1
  Ta  Ta134  1  0.70996506  0.89146845  0.90199770  1
  Ta  Ta135  1  0.79865344  0.20007053  0.79807172  1
  Ta  Ta136  1  0.50028624  0.30367642  0.30688021  1
  Ta  Ta137  1  0.20171449  0.60466067  -0.00079816  1
  Ta  Ta138  1  0.49455831  0.49595151  0.50565679  1
  Ta  Ta139  1  0.50002793  0.10049145  0.89678992  1
  Ta  Ta140  1  0.00223179  -0.00081302  0.60382953  1
  Ta  Ta141  1  0.10208065  0.29568723  0.30521458  1
  Ta  Ta142  1  0.30302674  0.89370419  0.10000677  1
  Ta  Ta143  1  0.79950171  0.00485309  -0.00723950  1
  Ta  Ta144  1  0.49789898  0.69685695  0.29835557  1
  Ta  Ta145  1  0.69611807  0.29513438  0.89804175  1
  Ta  Ta146  1  0.00148654  0.00410835  -0.00242106  1
  Ta  Ta147  1  0.20036077  0.20304473  0.60116860  1
  Ta  Ta148  1  0.10610201  0.29131091  0.09746755  1
  Ta  Ta149  1  0.48791790  0.89984126  0.69604220  1
  Ti  Ti150  1  0.01152905  0.79066361  0.20246149  1
  Ti  Ti151  1  0.70233984  0.69448358  0.09206049  1
  Ti  Ti152  1  0.39204451  0.00373828  0.79533307  1
  Ti  Ti153  1  0.00373732  0.59850645  -0.00560476  1
  Ti  Ti154  1  0.10365380  0.09629509  0.90231992  1
  Ti  Ti155  1  0.49980100  0.90492042  0.51080546  1
  Ti  Ti156  1  0.40140149  0.60653604  0.00259710  1
  Ti  Ti157  1  0.49018891  0.50145195  0.69280976  1
  Ti  Ti158  1  0.79543091  0.00314231  0.60811561  1
  Ti  Ti159  1  0.61248348  0.58932847  0.59569497  1
  Ti  Ti160  1  0.20819226  0.79464525  0.59323784  1
  Ti  Ti161  1  0.89612580  0.10533867  0.30196556  1
  Ti  Ti162  1  0.79472566  0.39760860  0.19029356  1
  Ti  Ti163  1  0.60714376  0.40811604  0.79484520  1
  Ti  Ti164  1  0.40580643  0.20196636  0.40166758  1
  Ti  Ti165  1  0.90557886  0.69463373  0.68999290  1
  Ti  Ti166  1  0.70128902  0.68826202  0.69498970  1
  Ti  Ti167  1  -0.00739266  0.39808408  0.80566848  1
  Ti  Ti168  1  0.69517266  0.30594569  0.50341642  1
  Ti  Ti169  1  0.20480143  0.00394901  0.60264238  1
  Ti  Ti170  1  0.90222029  0.89202761  0.30116869  1
  Ti  Ti171  1  0.48613537  0.70259655  0.10051118  1
  Ti  Ti172  1  0.20055319  -0.00472240  0.20043854  1
  Ti  Ti173  1  0.69628263  0.50069847  0.90069256  1
  Ti  Ti174  1  0.01359559  0.79594863  -0.00241829  1
  Ti  Ti175  1  0.00520171  0.39417546  -0.00600369  1
  Ti  Ti176  1  0.00292277  0.79958606  0.79384672  1
  Ti  Ti177  1  0.19039012  0.62176665  0.18616186  1
  Ti  Ti178  1  0.50190473  0.10191917  0.70127265  1
  Ti  Ti179  1  0.19771192  -0.00485718  0.40952001  1
  Ti  Ti180  1  0.01180462  0.20135396  -0.00721470  1
  Ti  Ti181  1  0.19605522  0.21252101  0.81005558  1
  Ti  Ti182  1  0.30238551  0.69859446  0.69351034  1
  Ti  Ti183  1  0.20931246  -0.00485191  0.79321529  1
  Ti  Ti184  1  0.90535462  0.10181362  0.69728912  1
  Ti  Ti185  1  0.80196850  0.39683667  0.59641186  1
  Ti  Ti186  1  0.09995253  0.49926838  0.69575493  1
  Ti  Ti187  1  0.29813445  0.29709272  0.30176673  1
  Ti  Ti188  1  0.19357623  0.39572820  0.40521420  1
  Ti  Ti189  1  0.20185812  0.60270774  0.80026591  1
  Ti  Ti190  1  0.40711958  0.60087668  0.20208809  1
  Ti  Ti191  1  0.29642647  0.50435788  0.89623043  1
  Ti  Ti192  1  0.49839688  0.50395871  0.09816314  1
  Ti  Ti193  1  0.20337841  0.61536631  0.40519057  1
  Ti  Ti194  1  0.40273111  0.40083712  0.20393357  1
  Ti  Ti195  1  0.30680896  0.89764054  0.69453570  1
  Ti  Ti196  1  0.61018452  0.18725792  0.79592253  1
  Ti  Ti197  1  0.09369173  0.29948000  0.50921458  1
  Ti  Ti198  1  0.39692176  0.80008508  0.79904081  1
  Ti  Ti199  1  0.59642434  0.60170675  0.00113796  1
  Mo  Mo200  1  0.19831242  0.60052432  0.60008033  1
  Mo  Mo201  1  0.20220752  0.79465940  0.19332063  1
  Mo  Mo202  1  0.20144707  -0.00602307  0.00182594  1
  Mo  Mo203  1  0.59894460  0.00163746  0.41170070  1
  Mo  Mo204  1  0.60246220  0.20091745  0.60255518  1
  Mo  Mo205  1  0.20221768  0.20552308  0.21121757  1
  Mo  Mo206  1  0.79847551  0.39718095  0.42351787  1
  Mo  Mo207  1  0.39574294  0.80415211  0.60612038  1
  Mo  Mo208  1  0.10904954  0.90335567  0.50019668  1
  Mo  Mo209  1  0.90724960  0.29984469  0.51280720  1
  Mo  Mo210  1  0.10096440  0.70389048  0.29950843  1
  Mo  Mo211  1  0.50371478  0.30358748  0.49984151  1
  Mo  Mo212  1  0.89642384  0.30298530  0.70403452  1
  Mo  Mo213  1  0.28911256  0.30231158  0.89191930  1
  Mo  Mo214  1  0.89680600  0.69893036  0.50052724  1
  Mo  Mo215  1  0.79074844  0.19753957  -0.00913606  1
  Mo  Mo216  1  0.00243703  0.39876120  0.59995024  1
  Mo  Mo217  1  0.49375342  0.50404822  0.29831001  1
  Mo  Mo218  1  0.19114913  0.20419675  -0.01022113  1
  Mo  Mo219  1  0.09417273  0.30344463  0.90068365  1
  Mo  Mo220  1  0.70942040  0.49290646  0.69667105  1
  Mo  Mo221  1  0.19562581  0.40460870  0.79994048  1
  Mo  Mo222  1  0.70181833  0.10646959  0.89844936  1
  Mo  Mo223  1  0.49750469  0.69887853  0.90257986  1
  Mo  Mo224  1  0.71101484  0.90236572  0.69297676  1
  Mo  Mo225  1  -0.00536375  0.80062147  0.39445147  1
  Mo  Mo226  1  0.79629956  0.79586615  -0.00399268  1
  Mo  Mo227  1  0.09990899  0.70011312  0.09100163  1
  Mo  Mo228  1  0.39616274  0.60022549  0.79178781  1
  Mo  Mo229  1  0.70179438  0.10881538  0.70072467  1
  Mo  Mo230  1  0.30605691  0.90209887  0.89702782  1
  Mo  Mo231  1  -0.00281619  0.20389289  0.60103161  1
  Mo  Mo232  1  0.29806507  0.69821142  0.50287473  1
  Mo  Mo233  1  0.80549480  -0.00449930  0.39431444  1
  Mo  Mo234  1  0.30819683  0.69729723  0.09936688  1
  Mo  Mo235  1  0.29199806  0.09777806  0.70020216  1
  Mo  Mo236  1  0.90778070  0.49597260  0.89856561  1
  Mo  Mo237  1  0.69993493  0.49130512  0.50433553  1
  Mo  Mo238  1  0.59457195  0.39600139  0.40899423  1
  Mo  Mo239  1  0.89783601  0.49307897  0.50782188  1
  Mo  Mo240  1  0.69673127  0.68974059  0.50203617  1
  Mo  Mo241  1  0.20069147  0.79947038  0.40483509  1
  Mo  Mo242  1  0.49705176  0.10940878  0.31249254  1
  Mo  Mo243  1  0.40097281  0.79138663  0.19457920  1
  Mo  Mo244  1  0.69767057  0.09651161  0.50668089  1
  Mo  Mo245  1  -0.00323729  0.59710302  0.60077311  1
  Mo  Mo246  1  0.39772694  0.79929103  -0.00009746  1
  Mo  Mo247  1  0.59940976  0.20157783  -0.00661216  1
  Mo  Mo248  1  0.80046807  0.20458911  0.20028916  1
  Mo  Mo249  1  0.40381235  0.40836755  0.60258841  1
