# generated using pymatgen
data_HfZrTaTiMo
_symmetry_space_group_name_H-M   'P 1'
_cell_length_a   16.88319830
_cell_length_b   16.87358564
_cell_length_c   16.88301587
_cell_angle_alpha   90.00376173
_cell_angle_beta   89.98992934
_cell_angle_gamma   89.98017781
_symmetry_Int_Tables_number   1
_chemical_formula_structural   HfZrTaTiMo
_chemical_formula_sum   'Hf50 Zr50 Ta50 Ti50 Mo50'
_cell_volume   4809.63474646
_cell_formula_units_Z   50
loop_
 _symmetry_equiv_pos_site_id
 _symmetry_equiv_pos_as_xyz
  1  'x, y, z'
loop_
 _atom_site_type_symbol
 _atom_site_label
 _atom_site_symmetry_multiplicity
 _atom_site_fract_x
 _atom_site_fract_y
 _atom_site_fract_z
 _atom_site_occupancy
  Hf  Hf0  1  0.49113492  0.89208572  0.10702056  1
  Hf  Hf1  1  0.50645981  0.30031784  0.70312957  1
  Hf  Hf2  1  0.09997998  0.90178017  0.30375188  1
  Hf  Hf3  1  0.49093535  0.29829135  0.10815624  1
  Hf  Hf4  1  0.59814047  0.00198436  0.20179598  1
  Hf  Hf5  1  0.00225616  0.80438069  0.79759694  1
  Hf  Hf6  1  0.20402810  0.79745902  0.20179965  1
  Hf  Hf7  1  0.00017405  0.39889991  0.38806200  1
  Hf  Hf8  1  0.79965162  -0.00529667  0.00626597  1
  Hf  Hf9  1  -0.00219209  0.19384519  0.80693812  1
  Hf  Hf10  1  0.00183949  0.79996402  0.19379726  1
  Hf  Hf11  1  0.40138059  0.60511004  0.59826264  1
  Hf  Hf12  1  0.00493561  0.40356399  -0.00486867  1
  Hf  Hf13  1  0.40268878  0.59772519  0.39274250  1
  Hf  Hf14  1  0.40411681  0.20187315  0.60209466  1
  Hf  Hf15  1  0.30671794  0.49466026  0.49643305  1
  Hf  Hf16  1  0.79843352  0.00518372  0.59167827  1
  Hf  Hf17  1  0.49697464  0.50127091  0.89641821  1
  Hf  Hf18  1  0.20894036  0.80058326  -0.00754984  1
  Hf  Hf19  1  0.10133674  0.89915151  0.09026741  1
  Hf  Hf20  1  0.69553299  0.70014281  0.30093842  1
  Hf  Hf21  1  0.19933615  0.81107639  0.60894007  1
  Hf  Hf22  1  0.69209031  0.30200310  0.29090017  1
  Hf  Hf23  1  0.10692705  0.30150899  0.09656618  1
  Hf  Hf24  1  0.00924325  -0.00471125  0.59561914  1
  Hf  Hf25  1  -0.00138559  0.00269679  -0.01030470  1
  Hf  Hf26  1  0.69175896  0.69589579  0.10982154  1
  Hf  Hf27  1  0.90252431  0.90422823  0.30220245  1
  Hf  Hf28  1  0.79852283  0.21135441  0.18584078  1
  Hf  Hf29  1  0.49876423  0.90307484  0.70575549  1
  Hf  Hf30  1  0.90326308  0.69389674  0.30369902  1
  Hf  Hf31  1  0.20004332  0.40904753  0.38519442  1
  Hf  Hf32  1  0.20269783  0.41100474  0.00293888  1
  Hf  Hf33  1  0.70812932  0.49851833  0.50065934  1
  Hf  Hf34  1  0.69005964  0.89673467  0.49011598  1
  Hf  Hf35  1  0.90271458  0.89650673  0.49767118  1
  Hf  Hf36  1  0.29782304  0.69014333  0.89467799  1
  Hf  Hf37  1  0.09554539  0.50090200  0.50262071  1
  Hf  Hf38  1  0.89667059  0.29942629  0.90424024  1
  Hf  Hf39  1  0.69359936  0.10557123  0.29890706  1
  Hf  Hf40  1  -0.00671029  0.20675676  0.19873186  1
  Hf  Hf41  1  0.60703207  0.20279897  0.80627491  1
  Hf  Hf42  1  0.48821507  0.69990652  0.11198283  1
  Hf  Hf43  1  0.30040869  0.11090530  0.30404854  1
  Hf  Hf44  1  0.19819061  0.20260825  0.60106491  1
  Hf  Hf45  1  0.70334110  0.51081606  0.29514148  1
  Hf  Hf46  1  0.39673816  0.40715863  0.00908532  1
  Hf  Hf47  1  0.09702960  0.50126042  0.70388773  1
  Hf  Hf48  1  0.20278173  0.00106025  0.20182876  1
  Hf  Hf49  1  0.50531407  0.49730428  0.70619400  1
  Zr  Zr50  1  0.90168182  0.69454882  0.50012902  1
  Zr  Zr51  1  0.30427043  0.29767928  0.48120076  1
  Zr  Zr52  1  0.38506308  0.80941852  0.80276980  1
  Zr  Zr53  1  0.59562892  0.59651916  0.00357380  1
  Zr  Zr54  1  0.09502728  0.70114105  0.49688018  1
  Zr  Zr55  1  0.80302137  0.59832560  0.80429889  1
  Zr  Zr56  1  0.59683678  0.00149952  0.59866951  1
  Zr  Zr57  1  -0.00562725  0.20196938  0.39954068  1
  Zr  Zr58  1  0.30109963  0.10233575  0.71408274  1
  Zr  Zr59  1  0.69303464  0.89513108  0.30485228  1
  Zr  Zr60  1  0.80276563  0.20035237  0.40114699  1
  Zr  Zr61  1  0.39698436  0.79788818  0.40391891  1
  Zr  Zr62  1  0.89627266  0.50654131  0.50121304  1
  Zr  Zr63  1  0.79253450  0.39904269  0.80028247  1
  Zr  Zr64  1  0.58639316  0.41082667  0.19486522  1
  Zr  Zr65  1  0.49344363  0.10384613  0.10926898  1
  Zr  Zr66  1  0.79421269  0.39228665  0.01188932  1
  Zr  Zr67  1  0.49390683  0.69998526  0.71031379  1
  Zr  Zr68  1  0.19656036  0.39642432  0.80051127  1
  Zr  Zr69  1  0.80454211  0.80770465  0.18941495  1
  Zr  Zr70  1  0.58955196  0.40419106  0.39517937  1
  Zr  Zr71  1  0.70610780  0.69551096  0.49223944  1
  Zr  Zr72  1  0.89275079  0.30806060  0.51308793  1
  Zr  Zr73  1  0.10042685  0.69578205  0.70829286  1
  Zr  Zr74  1  0.29874881  0.10444866  0.49679973  1
  Zr  Zr75  1  0.70004176  0.89566491  0.70785561  1
  Zr  Zr76  1  0.20599096  0.60238440  0.60048728  1
  Zr  Zr77  1  -0.00153358  0.58932359  -0.00365956  1
  Zr  Zr78  1  0.10297987  0.69475285  0.89836321  1
  Zr  Zr79  1  0.90186171  0.10078113  0.69393215  1
  Zr  Zr80  1  0.29503027  0.28547078  0.90263274  1
  Zr  Zr81  1  0.20536939  0.39407233  0.60400052  1
  Zr  Zr82  1  0.10578593  0.10512012  0.09360773  1
  Zr  Zr83  1  0.80846109  -0.00043231  0.80923042  1
  Zr  Zr84  1  0.69951202  0.70967180  0.70901739  1
  Zr  Zr85  1  0.31346247  0.89938001  0.09179596  1
  Zr  Zr86  1  0.60935574  0.20221486  0.00880563  1
  Zr  Zr87  1  0.80050350  0.80141337  0.00472222  1
  Zr  Zr88  1  0.60465431  -0.00304830  0.00762067  1
  Zr  Zr89  1  0.60091903  0.60007053  0.60009551  1
  Zr  Zr90  1  0.80400413  0.39613275  0.38814429  1
  Zr  Zr91  1  0.59547814  0.79479018  -0.00282917  1
  Zr  Zr92  1  0.10836207  0.30204995  0.28969730  1
  Zr  Zr93  1  0.20558758  0.60271102  0.38704489  1
  Zr  Zr94  1  0.39405446  0.39657440  0.79883081  1
  Zr  Zr95  1  0.40762263  -0.00192167  0.40389573  1
  Zr  Zr96  1  0.81356407  0.59845671  0.18847772  1
  Zr  Zr97  1  0.00620966  -0.00234450  0.80282018  1
  Zr  Zr98  1  0.79430931  0.20098993  0.80085186  1
  Zr  Zr99  1  0.79571709  -0.00098943  0.18821098  1
  Ta  Ta100  1  0.19527506  -0.00184641  0.40546415  1
  Ta  Ta101  1  0.69993403  0.09539749  0.90362735  1
  Ta  Ta102  1  0.19874690  -0.00361741  0.60142601  1
  Ta  Ta103  1  0.50363001  0.30063013  0.50137616  1
  Ta  Ta104  1  0.49909433  0.10162496  0.70816601  1
  Ta  Ta105  1  0.90220333  0.10154042  0.09645133  1
  Ta  Ta106  1  0.50076391  0.29994431  0.90087829  1
  Ta  Ta107  1  0.00069264  0.19905607  0.59809036  1
  Ta  Ta108  1  0.10213897  0.10385316  0.49762980  1
  Ta  Ta109  1  0.30345057  0.10407484  0.09872799  1
  Ta  Ta110  1  0.69553616  0.49671105  0.90098249  1
  Ta  Ta111  1  0.10623580  0.69350759  0.09855844  1
  Ta  Ta112  1  0.39938629  0.20025543  0.00065884  1
  Ta  Ta113  1  -0.00007806  0.00801972  0.40196699  1
  Ta  Ta114  1  0.91544076  0.70130523  0.08843590  1
  Ta  Ta115  1  0.09436133  0.29197774  0.70659256  1
  Ta  Ta116  1  0.39852965  -0.00317250  0.60161078  1
  Ta  Ta117  1  0.49463528  0.10130199  0.90085685  1
  Ta  Ta118  1  0.80298281  0.00825892  0.40350611  1
  Ta  Ta119  1  0.29669199  0.90155636  0.50071529  1
  Ta  Ta120  1  0.79176542  0.19795519  0.59918553  1
  Ta  Ta121  1  0.40167672  0.39657928  0.60182839  1
  Ta  Ta122  1  0.29862670  0.29773021  0.10819765  1
  Ta  Ta123  1  0.69190060  0.30040133  0.50541442  1
  Ta  Ta124  1  0.89569122  0.49010710  0.69538742  1
  Ta  Ta125  1  0.40082577  0.00205338  0.21233163  1
  Ta  Ta126  1  -0.00078800  0.00459288  0.19788232  1
  Ta  Ta127  1  0.50478701  0.10295190  0.50032737  1
  Ta  Ta128  1  0.89789631  0.09890319  0.29536860  1
  Ta  Ta129  1  0.39643636  0.80707889  0.59957360  1
  Ta  Ta130  1  0.10638728  0.09966002  0.70166761  1
  Ta  Ta131  1  0.30265007  0.69573140  0.10215913  1
  Ta  Ta132  1  0.50413221  0.70332709  0.29270922  1
  Ta  Ta133  1  0.59888308  0.39874817  0.00138762  1
  Ta  Ta134  1  0.69823198  0.89360708  0.89590153  1
  Ta  Ta135  1  0.20910386  0.00218008  -0.01073249  1
  Ta  Ta136  1  0.48400918  0.90367254  0.91288116  1
  Ta  Ta137  1  0.80453471  0.59263669  -0.00348177  1
  Ta  Ta138  1  0.10056254  0.69613267  0.29312550  1
  Ta  Ta139  1  0.59179617  0.80183929  0.59443994  1
  Ta  Ta140  1  0.60270559  0.60269353  0.80908313  1
  Ta  Ta141  1  0.80004387  0.80047651  0.60144876  1
  Ta  Ta142  1  0.00299333  0.39328367  0.60712753  1
  Ta  Ta143  1  0.50633392  0.89317355  0.30675308  1
  Ta  Ta144  1  -0.00411455  0.39963343  0.80282464  1
  Ta  Ta145  1  0.30509143  0.30241167  0.28974673  1
  Ta  Ta146  1  0.59011390  0.59675271  0.39676606  1
  Ta  Ta147  1  0.39596808  0.59616093  0.00522521  1
  Ta  Ta148  1  0.59529218  -0.00043135  0.81097634  1
  Ta  Ta149  1  0.79688285  0.19827696  0.00274343  1
  Ti  Ti150  1  0.90548372  0.48923173  0.10319340  1
  Ti  Ti151  1  0.40804201  0.40341427  0.38464065  1
  Ti  Ti152  1  0.10566684  0.28951393  0.90061940  1
  Ti  Ti153  1  0.20307337  0.59119681  0.00975654  1
  Ti  Ti154  1  0.10568875  0.50767378  0.89067619  1
  Ti  Ti155  1  0.20558118  -0.01355396  0.79765117  1
  Ti  Ti156  1  0.00632702  0.59019921  0.38470623  1
  Ti  Ti157  1  0.50282362  0.70723557  0.49524972  1
  Ti  Ti158  1  0.20330413  0.58684879  0.19863573  1
  Ti  Ti159  1  0.80377665  0.79960221  0.40065312  1
  Ti  Ti160  1  0.29542102  0.69844663  0.70841182  1
  Ti  Ti161  1  0.30470504  0.50840176  0.70632412  1
  Ti  Ti162  1  0.19866811  0.80072922  0.40014801  1
  Ti  Ti163  1  0.49732687  0.49365651  0.50213270  1
  Ti  Ti164  1  0.60354680  0.19789815  0.60153127  1
  Ti  Ti165  1  0.10170812  0.10382577  0.30405020  1
  Ti  Ti166  1  0.70621931  0.70246534  0.89848262  1
  Ti  Ti167  1  0.01052575  0.59121078  0.19379315  1
  Ti  Ti168  1  0.30006754  0.28996789  0.70948991  1
  Ti  Ti169  1  0.90161407  0.70450907  0.90326856  1
  Ti  Ti170  1  0.10840647  0.89540558  0.89613141  1
  Ti  Ti171  1  -0.01552435  0.59067089  0.80342074  1
  Ti  Ti172  1  -0.00737649  0.59855998  0.60996272  1
  Ti  Ti173  1  0.58783098  0.79862656  0.81458191  1
  Ti  Ti174  1  0.79627767  0.59723151  0.61518282  1
  Ti  Ti175  1  0.69182835  0.10376533  0.49324292  1
  Ti  Ti176  1  0.69910510  0.50004717  0.10409335  1
  Ti  Ti177  1  0.11887579  0.10625773  0.89628249  1
  Ti  Ti178  1  0.60263979  0.40387444  0.60104189  1
  Ti  Ti179  1  0.30418558  0.10141724  0.90042089  1
  Ti  Ti180  1  0.41258211  0.20064436  0.39511715  1
  Ti  Ti181  1  0.10185667  0.29789206  0.49677938  1
  Ti  Ti182  1  0.20374462  0.19812435  0.19853986  1
  Ti  Ti183  1  0.00531974  0.80660004  0.60427382  1
  Ti  Ti184  1  0.69536066  0.09556582  0.70450849  1
  Ti  Ti185  1  0.89903140  0.30040018  0.69805001  1
  Ti  Ti186  1  0.90323543  0.49544836  0.28749324  1
  Ti  Ti187  1  0.30984266  0.69692343  0.28447040  1
  Ti  Ti188  1  0.89643760  0.70573199  0.70123688  1
  Ti  Ti189  1  0.49379777  0.29009689  0.29035563  1
  Ti  Ti190  1  0.59138947  0.20139681  0.39853206  1
  Ti  Ti191  1  0.90103386  0.88806041  0.90428614  1
  Ti  Ti192  1  0.00739779  0.80158809  0.40017317  1
  Ti  Ti193  1  0.29796854  0.70549282  0.50125419  1
  Ti  Ti194  1  0.39740750  -0.00024419  0.80599830  1
  Ti  Ti195  1  0.29987350  0.50887635  0.89179509  1
  Ti  Ti196  1  0.69676731  0.30954720  0.69335937  1
  Ti  Ti197  1  -0.00452201  0.19681655  -0.00300067  1
  Ti  Ti198  1  0.30345956  0.89863261  0.30305595  1
  Ti  Ti199  1  0.89556173  0.89446025  0.69871773  1
  Mo  Mo200  1  0.10506799  0.90404994  0.70422354  1
  Mo  Mo201  1  0.40820441  0.19687352  0.80554535  1
  Mo  Mo202  1  0.68318903  0.89200515  0.09846893  1
  Mo  Mo203  1  0.40084379  0.59961321  0.79982906  1
  Mo  Mo204  1  0.30487083  0.49629194  0.29182318  1
  Mo  Mo205  1  0.00078237  0.40495761  0.19264923  1
  Mo  Mo206  1  0.59102107  0.59864932  0.20156640  1
  Mo  Mo207  1  0.10378369  0.50077022  0.10512854  1
  Mo  Mo208  1  0.09764343  0.50407197  0.28980441  1
  Mo  Mo209  1  0.00705930  0.79852447  -0.00518480  1
  Mo  Mo210  1  0.59770410  0.00918202  0.40132082  1
  Mo  Mo211  1  0.30123836  0.90911073  0.69744009  1
  Mo  Mo212  1  0.69640304  0.49901466  0.70405722  1
  Mo  Mo213  1  0.39613855  0.20003270  0.20313970  1
  Mo  Mo214  1  0.91261763  0.29850590  0.09419985  1
  Mo  Mo215  1  0.79331744  0.39526793  0.60760853  1
  Mo  Mo216  1  0.68902282  0.30462266  0.10234986  1
  Mo  Mo217  1  0.39472545  0.40236693  0.20406446  1
  Mo  Mo218  1  0.49492063  0.51186749  0.29336635  1
  Mo  Mo219  1  0.69352294  0.30305717  0.90593938  1
  Mo  Mo220  1  0.80748502  0.39988060  0.19358722  1
  Mo  Mo221  1  0.39738661  0.01247798  -0.00235031  1
  Mo  Mo222  1  0.60499741  0.39899686  0.80666629  1
  Mo  Mo223  1  0.39521096  0.80333784  0.21187502  1
  Mo  Mo224  1  0.81117129  0.79913339  0.80318178  1
  Mo  Mo225  1  0.59593417  0.80241197  0.20339021  1
  Mo  Mo226  1  0.39564553  0.59476222  0.19974969  1
  Mo  Mo227  1  0.29978497  0.90944405  0.89768916  1
  Mo  Mo228  1  0.89834525  0.30913549  0.28301312  1
  Mo  Mo229  1  0.90296361  0.10108597  0.49735135  1
  Mo  Mo230  1  0.89263164  0.10554365  0.90962289  1
  Mo  Mo231  1  0.59767864  0.20262129  0.20420527  1
  Mo  Mo232  1  0.70357681  0.10532700  0.10009092  1
  Mo  Mo233  1  0.91921540  0.90314423  0.09379603  1
  Mo  Mo234  1  0.19335028  0.19850428  0.39552956  1
  Mo  Mo235  1  0.50065849  0.10179547  0.30595561  1
  Mo  Mo236  1  0.49680101  0.90012987  0.50455506  1
  Mo  Mo237  1  0.49111631  0.50357331  0.10029370  1
  Mo  Mo238  1  0.89529140  0.49585669  0.89650468  1
  Mo  Mo239  1  0.59175041  0.79188429  0.40260529  1
  Mo  Mo240  1  0.19463135  0.19546861  0.80100156  1
  Mo  Mo241  1  0.80738711  0.59682595  0.38953212  1
  Mo  Mo242  1  0.48901957  0.69859086  0.90351828  1
  Mo  Mo243  1  0.10202803  0.90229160  0.49617017  1
  Mo  Mo244  1  0.19855097  0.80908684  0.79757724  1
  Mo  Mo245  1  0.20642910  0.19520553  0.00008730  1
  Mo  Mo246  1  0.39863036  0.78560220  -0.00578343  1
  Mo  Mo247  1  0.20417393  0.40773869  0.19468689  1
  Mo  Mo248  1  0.29866321  0.50260900  0.10630385  1
  Mo  Mo249  1  0.20730134  0.59243558  0.79839953  1
