# generated using pymatgen
data_HfZrTaTiMo
_symmetry_space_group_name_H-M   'P 1'
_cell_length_a   16.88999923
_cell_length_b   16.88286825
_cell_length_c   16.88932101
_cell_angle_alpha   89.99486102
_cell_angle_beta   90.00647226
_cell_angle_gamma   89.97432954
_symmetry_Int_Tables_number   1
_chemical_formula_structural   HfZrTaTiMo
_chemical_formula_sum   'Hf50 Zr50 Ta50 Ti50 Mo50'
_cell_volume   4816.01691135
_cell_formula_units_Z   50
loop_
 _symmetry_equiv_pos_site_id
 _symmetry_equiv_pos_as_xyz
  1  'x, y, z'
loop_
 _atom_site_type_symbol
 _atom_site_label
 _atom_site_symmetry_multiplicity
 _atom_site_fract_x
 _atom_site_fract_y
 _atom_site_fract_z
 _atom_site_occupancy
  Hf  Hf0  1  0.29600308  0.29539844  0.10358258  1
  Hf  Hf1  1  0.09549603  0.30713152  0.71009913  1
  Hf  Hf2  1  0.80147256  0.79782133  0.79984331  1
  Hf  Hf3  1  0.69176005  0.29175031  0.50128106  1
  Hf  Hf4  1  0.19826224  0.60377485  -0.00200343  1
  Hf  Hf5  1  0.50115848  0.51447177  0.09921855  1
  Hf  Hf6  1  0.60773218  0.60437185  0.79628090  1
  Hf  Hf7  1  0.79506993  0.19558879  0.19212381  1
  Hf  Hf8  1  0.90037111  0.90086571  0.10266191  1
  Hf  Hf9  1  0.39839836  0.19574407  0.39511203  1
  Hf  Hf10  1  0.50912217  0.90005758  0.70895137  1
  Hf  Hf11  1  0.00268218  0.19371617  0.80020904  1
  Hf  Hf12  1  0.89857245  0.89968637  0.49239616  1
  Hf  Hf13  1  0.69514297  0.89630476  0.70600597  1
  Hf  Hf14  1  0.20388159  0.40795281  0.79931525  1
  Hf  Hf15  1  0.70739018  0.50796549  0.30283854  1
  Hf  Hf16  1  0.49946536  0.71004702  0.49471272  1
  Hf  Hf17  1  0.00396581  0.59713101  0.20678043  1
  Hf  Hf18  1  0.30179179  0.90183043  0.30250214  1
  Hf  Hf19  1  0.69757255  0.71003183  0.90308611  1
  Hf  Hf20  1  0.60377965  0.59804393  0.59667214  1
  Hf  Hf21  1  0.59811151  0.00085554  0.59499374  1
  Hf  Hf22  1  0.49687810  0.28609943  0.90382494  1
  Hf  Hf23  1  0.60012527  0.60426127  0.40118693  1
  Hf  Hf24  1  0.89142763  0.70531084  0.49074335  1
  Hf  Hf25  1  0.49804102  0.89626357  0.49452061  1
  Hf  Hf26  1  0.90250644  0.70251466  0.90413993  1
  Hf  Hf27  1  0.59908252  0.19548950  0.19641184  1
  Hf  Hf28  1  0.29406971  0.30526968  0.48958668  1
  Hf  Hf29  1  0.89829655  0.09455484  0.30260822  1
  Hf  Hf30  1  0.80231721  0.39532965  0.59990899  1
  Hf  Hf31  1  0.81257641  0.18571370  0.79556479  1
  Hf  Hf32  1  0.29964047  0.29773727  0.90591816  1
  Hf  Hf33  1  0.30637743  0.49997328  0.91005207  1
  Hf  Hf34  1  0.29908823  0.30238491  0.29854614  1
  Hf  Hf35  1  0.59584775  0.19260764  0.38906003  1
  Hf  Hf36  1  0.29469372  0.50144162  0.10269742  1
  Hf  Hf37  1  0.10453955  0.70436405  0.10129636  1
  Hf  Hf38  1  0.49758917  0.89479840  0.29873654  1
  Hf  Hf39  1  0.70099051  0.51126531  0.11089341  1
  Hf  Hf40  1  0.00593525  0.39661475  0.59283036  1
  Hf  Hf41  1  0.39531082  0.60729573  0.19930618  1
  Hf  Hf42  1  0.49771759  0.09830630  0.50058213  1
  Hf  Hf43  1  0.59759741  0.38774315  0.19612848  1
  Hf  Hf44  1  0.70867128  0.28494108  0.90812362  1
  Hf  Hf45  1  0.20022218  0.60145495  0.79883607  1
  Hf  Hf46  1  0.89999264  0.70495782  0.09954427  1
  Hf  Hf47  1  0.80882054  0.19512704  0.60249584  1
  Hf  Hf48  1  0.10032001  0.10552229  0.49801935  1
  Hf  Hf49  1  -0.00259289  0.40630539  0.19547818  1
  Zr  Zr50  1  0.89634304  0.50478150  0.48947468  1
  Zr  Zr51  1  0.00482317  -0.00099387  0.00293896  1
  Zr  Zr52  1  0.80030837  0.00717141  0.59886565  1
  Zr  Zr53  1  0.89742384  0.49372614  0.89413240  1
  Zr  Zr54  1  0.49812073  0.50766735  0.90560514  1
  Zr  Zr55  1  0.89857829  0.29612336  0.30138657  1
  Zr  Zr56  1  0.39257699  0.80554650  0.60694009  1
  Zr  Zr57  1  0.00757168  0.60636984  0.79716136  1
  Zr  Zr58  1  0.71333052  0.49189076  0.89379218  1
  Zr  Zr59  1  0.40434014  0.20008043  0.60536104  1
  Zr  Zr60  1  0.90942772  0.29224454  0.49189342  1
  Zr  Zr61  1  0.29828632  0.70171686  0.30250393  1
  Zr  Zr62  1  0.39462897  0.60131431  0.60049717  1
  Zr  Zr63  1  0.60824863  0.39042545  0.01057104  1
  Zr  Zr64  1  0.00616538  0.79821138  0.60142975  1
  Zr  Zr65  1  0.40777403  0.39412240  0.00966622  1
  Zr  Zr66  1  0.80396024  0.39941464  0.19520935  1
  Zr  Zr67  1  0.59818951  0.39403123  0.39739724  1
  Zr  Zr68  1  0.01681377  0.40381169  0.38557057  1
  Zr  Zr69  1  0.89126546  0.90486231  0.90343788  1
  Zr  Zr70  1  0.10499362  0.30034955  0.09505292  1
  Zr  Zr71  1  0.89255780  0.90067435  0.70032211  1
  Zr  Zr72  1  0.60146536  -0.00047905  0.19843633  1
  Zr  Zr73  1  0.39768636  0.40037593  0.60292849  1
  Zr  Zr74  1  0.19100643  0.20380685  0.60264318  1
  Zr  Zr75  1  0.70593036  0.89002561  0.49241441  1
  Zr  Zr76  1  0.00173556  0.19706293  0.20188301  1
  Zr  Zr77  1  0.00411579  0.00718306  0.60682892  1
  Zr  Zr78  1  0.19592767  -0.00571382  0.61044778  1
  Zr  Zr79  1  0.38928995  -0.00673539  0.80490287  1
  Zr  Zr80  1  0.90328391  0.30439027  0.89775828  1
  Zr  Zr81  1  0.89365758  0.90007673  0.30814711  1
  Zr  Zr82  1  0.69616139  0.70469387  0.10707420  1
  Zr  Zr83  1  0.10089949  0.10099772  0.09959141  1
  Zr  Zr84  1  0.49222348  0.49803978  0.30222561  1
  Zr  Zr85  1  0.69209725  0.29147528  0.69975640  1
  Zr  Zr86  1  0.59784304  0.39329099  0.80061141  1
  Zr  Zr87  1  0.90252378  0.49539069  0.70514892  1
  Zr  Zr88  1  0.00068478  0.59181923  0.00406250  1
  Zr  Zr89  1  0.00578719  0.00169462  0.79953987  1
  Zr  Zr90  1  0.09918806  0.90302797  0.29588142  1
  Zr  Zr91  1  0.39442980  0.60543946  0.79347207  1
  Zr  Zr92  1  0.40047963  0.79677430  0.19506740  1
  Zr  Zr93  1  0.50326821  0.70861262  0.90852352  1
  Zr  Zr94  1  0.50337569  0.49702406  0.69865977  1
  Zr  Zr95  1  0.18795379  0.60166732  0.39096699  1
  Zr  Zr96  1  0.30116901  0.29997799  0.70595926  1
  Zr  Zr97  1  0.69064630  0.09206614  0.71081428  1
  Zr  Zr98  1  0.20117412  0.81428304  0.80140270  1
  Zr  Zr99  1  0.39091915  0.80293929  0.80308320  1
  Ta  Ta100  1  0.19944264  0.00560431  0.39711341  1
  Ta  Ta101  1  -0.00241299  0.60561620  0.38957869  1
  Ta  Ta102  1  0.90060614  0.28743731  0.08536324  1
  Ta  Ta103  1  0.50185091  0.89842751  0.09835440  1
  Ta  Ta104  1  0.60283239  -0.00126479  0.39347156  1
  Ta  Ta105  1  0.70437240  0.70526624  0.49961033  1
  Ta  Ta106  1  0.19824583  0.40921880  0.59565574  1
  Ta  Ta107  1  0.00924909  0.80542345  0.80111622  1
  Ta  Ta108  1  0.49305203  0.49358773  0.49378464  1
  Ta  Ta109  1  0.70035975  0.70950744  0.69046743  1
  Ta  Ta110  1  0.00178412  0.39912229  0.00279264  1
  Ta  Ta111  1  0.28820672  0.70300144  0.69337090  1
  Ta  Ta112  1  0.39651661  0.00178043  0.39999956  1
  Ta  Ta113  1  0.90393651  0.10123542  0.49031437  1
  Ta  Ta114  1  0.19503701  0.80152947  0.59536698  1
  Ta  Ta115  1  0.79321466  0.19422290  0.39875897  1
  Ta  Ta116  1  0.19547791  0.60176334  0.59456445  1
  Ta  Ta117  1  0.20711788  -0.00315047  0.00060470  1
  Ta  Ta118  1  0.29854930  0.50051123  0.48874747  1
  Ta  Ta119  1  0.19795747  -0.00162553  0.80537520  1
  Ta  Ta120  1  0.40018388  0.39713016  0.19896543  1
  Ta  Ta121  1  0.20507715  0.00326821  0.19701125  1
  Ta  Ta122  1  0.79781158  0.60158658  0.59980732  1
  Ta  Ta123  1  0.49787413  0.09858822  0.90694566  1
  Ta  Ta124  1  0.00583552  0.60440829  0.59106415  1
  Ta  Ta125  1  0.59575724  0.00287314  0.00372349  1
  Ta  Ta126  1  0.50594340  0.70784980  0.09413480  1
  Ta  Ta127  1  0.19794964  0.19328429  0.80603295  1
  Ta  Ta128  1  0.19280510  0.79931103  0.40145834  1
  Ta  Ta129  1  0.29632713  0.90088611  0.49405990  1
  Ta  Ta130  1  0.50478637  0.90069055  0.90822811  1
  Ta  Ta131  1  0.20025936  0.79848596  0.19750836  1
  Ta  Ta132  1  0.69818923  0.10370555  0.08897509  1
  Ta  Ta133  1  0.10255279  0.50241751  0.49450607  1
  Ta  Ta134  1  -0.00046779  0.79600247  0.20571885  1
  Ta  Ta135  1  0.79410001  -0.00104008  0.19490739  1
  Ta  Ta136  1  0.70946250  0.70363528  0.30439300  1
  Ta  Ta137  1  0.29764876  0.09666034  0.49941296  1
  Ta  Ta138  1  0.39924403  0.00392080  0.01149314  1
  Ta  Ta139  1  0.29547287  0.70416880  0.49635086  1
  Ta  Ta140  1  0.79627801  0.80593149  0.20642660  1
  Ta  Ta141  1  0.00722087  0.00571584  0.39861151  1
  Ta  Ta142  1  0.09927561  0.89977761  0.49356553  1
  Ta  Ta143  1  0.20199933  0.19586445  -0.00180168  1
  Ta  Ta144  1  0.19303114  0.40609472  0.21160344  1
  Ta  Ta145  1  0.10442462  0.10117700  0.90598895  1
  Ta  Ta146  1  0.30294380  0.10073204  0.90595046  1
  Ta  Ta147  1  0.69252313  0.90720914  0.89854160  1
  Ta  Ta148  1  0.29714877  0.09810374  0.70547057  1
  Ta  Ta149  1  0.80219474  0.59721971  0.00499328  1
  Ti  Ti150  1  0.00977698  0.80892268  -0.00416659  1
  Ti  Ti151  1  0.60902261  0.60023038  -0.00223484  1
  Ti  Ti152  1  0.39790044  0.18533451  0.19080368  1
  Ti  Ti153  1  0.10910443  0.49873295  0.10069702  1
  Ti  Ti154  1  0.51281352  0.71287991  0.69808160  1
  Ti  Ti155  1  0.00019072  0.00362241  0.20018810  1
  Ti  Ti156  1  0.70627670  0.08972954  0.30216575  1
  Ti  Ti157  1  -0.00147730  0.19825355  0.60984040  1
  Ti  Ti158  1  0.89808881  0.70041616  0.69396489  1
  Ti  Ti159  1  0.39344064  -0.00202407  0.60334366  1
  Ti  Ti160  1  0.39260273  0.80586148  0.00450134  1
  Ti  Ti161  1  0.09813433  0.50172097  0.69652044  1
  Ti  Ti162  1  0.59480639  0.39605313  0.60050400  1
  Ti  Ti163  1  0.70317717  0.29744656  0.30001966  1
  Ti  Ti164  1  0.19327756  0.19996113  0.39098689  1
  Ti  Ti165  1  0.01582277  0.20132395  0.39076286  1
  Ti  Ti166  1  0.48839142  0.29820831  0.29579243  1
  Ti  Ti167  1  0.20589673  0.80986655  0.00087696  1
  Ti  Ti168  1  0.80040042  0.39876801  0.39655226  1
  Ti  Ti169  1  0.70213301  0.49881778  0.49751374  1
  Ti  Ti170  1  0.79422814  0.80428983  0.00494393  1
  Ti  Ti171  1  0.40261610  0.40002853  0.79611408  1
  Ti  Ti172  1  0.59030707  0.61835361  0.21414999  1
  Ti  Ti173  1  0.10326328  0.70302484  0.69766741  1
  Ti  Ti174  1  0.10122761  0.71035675  0.90290073  1
  Ti  Ti175  1  0.60490517  0.79872599  0.38580744  1
  Ti  Ti176  1  0.19687621  0.19340721  0.20734450  1
  Ti  Ti177  1  0.49949349  0.29983615  0.50000233  1
  Ti  Ti178  1  0.80230171  0.40089821  0.01439809  1
  Ti  Ti179  1  0.69310033  0.89793889  0.09791375  1
  Ti  Ti180  1  0.30051110  0.09569019  0.29562552  1
  Ti  Ti181  1  0.39953886  0.19394674  0.79903601  1
  Ti  Ti182  1  0.59141015  0.19303853  0.80117966  1
  Ti  Ti183  1  0.30188454  0.70281983  0.90941179  1
  Ti  Ti184  1  0.89952268  0.10259127  0.91787836  1
  Ti  Ti185  1  0.81852177  0.60216830  0.20882388  1
  Ti  Ti186  1  0.40146245  0.60494165  0.39763028  1
  Ti  Ti187  1  0.29824907  0.49603254  0.30398992  1
  Ti  Ti188  1  0.30236140  0.90534545  0.10507697  1
  Ti  Ti189  1  0.10343057  0.89912726  0.10369741  1
  Ti  Ti190  1  0.70693177  0.49499415  0.70159087  1
  Ti  Ti191  1  0.48975691  0.08868412  0.29194379  1
  Ti  Ti192  1  0.49670929  0.27884419  0.09468923  1
  Ti  Ti193  1  0.09878750  0.48573401  0.90228618  1
  Ti  Ti194  1  0.79524169  0.00400198  0.00584476  1
  Ti  Ti195  1  0.69759670  0.10091999  0.49572560  1
  Ti  Ti196  1  0.79861768  0.60664966  0.79461200  1
  Ti  Ti197  1  0.49935215  0.09759899  0.70468303  1
  Ti  Ti198  1  0.69647682  0.09482333  0.90247750  1
  Ti  Ti199  1  0.00772636  0.78915108  0.39254165  1
  Mo  Mo200  1  0.10470220  0.10455891  0.70937968  1
  Mo  Mo201  1  0.29718214  0.70480396  0.09407287  1
  Mo  Mo202  1  0.60313301  0.79913919  0.20050801  1
  Mo  Mo203  1  0.00884526  0.40031420  0.80418239  1
  Mo  Mo204  1  0.79776897  0.00255778  0.81436574  1
  Mo  Mo205  1  0.49737927  0.09690973  0.09830681  1
  Mo  Mo206  1  0.59921047  0.19011810  -0.00035341  1
  Mo  Mo207  1  0.10631561  0.09847908  0.29945236  1
  Mo  Mo208  1  0.89828843  0.70271497  0.29883932  1
  Mo  Mo209  1  0.60196551  0.81135933  0.00524319  1
  Mo  Mo210  1  0.19259973  0.39822408  -0.00098184  1
  Mo  Mo211  1  0.19923296  0.59772166  0.19804326  1
  Mo  Mo212  1  0.89690706  0.49890961  0.09707425  1
  Mo  Mo213  1  0.09893029  0.70523593  0.29458856  1
  Mo  Mo214  1  0.39328796  0.61818237  0.00905470  1
  Mo  Mo215  1  0.39679638  0.19072569  0.00488930  1
  Mo  Mo216  1  0.10225949  0.89516700  0.70348599  1
  Mo  Mo217  1  0.79704311  0.60084077  0.40093957  1
  Mo  Mo218  1  0.09696646  0.70014883  0.49642954  1
  Mo  Mo219  1  0.79726885  0.79780411  0.39381809  1
  Mo  Mo220  1  0.89273709  0.09460652  0.09814190  1
  Mo  Mo221  1  0.10315466  0.29953508  0.90495152  1
  Mo  Mo222  1  0.89931658  0.50541301  0.30123419  1
  Mo  Mo223  1  0.80020682  0.79340058  0.59973118  1
  Mo  Mo224  1  0.20162110  0.40352222  0.39964397  1
  Mo  Mo225  1  0.39943817  0.39951116  0.39704468  1
  Mo  Mo226  1  0.10351227  0.50417391  0.29614703  1
  Mo  Mo227  1  0.59110822  0.19656254  0.60043131  1
  Mo  Mo228  1  0.30330010  0.90359589  0.91997238  1
  Mo  Mo229  1  0.39165051  0.80273947  0.40367427  1
  Mo  Mo230  1  0.50158513  0.29000020  0.70587247  1
  Mo  Mo231  1  0.10995713  0.29738883  0.29749262  1
  Mo  Mo232  1  0.50364804  0.70447911  0.30331636  1
  Mo  Mo233  1  0.29889524  0.10072717  0.10321137  1
  Mo  Mo234  1  0.80595098  0.38337563  0.78357635  1
  Mo  Mo235  1  0.70261437  0.29153058  0.09602747  1
  Mo  Mo236  1  0.69824922  0.89946146  0.29678211  1
  Mo  Mo237  1  0.29699133  0.90237430  0.68952443  1
  Mo  Mo238  1  0.80215481  0.19021513  -0.00144403  1
  Mo  Mo239  1  0.59257818  0.00314532  0.81246598  1
  Mo  Mo240  1  0.90452341  0.30043074  0.70244244  1
  Mo  Mo241  1  0.00161602  0.19980475  -0.00440168  1
  Mo  Mo242  1  0.29040271  0.50776837  0.69091893  1
  Mo  Mo243  1  0.10767305  0.90278877  0.90654698  1
  Mo  Mo244  1  0.60115606  0.80186845  0.80269474  1
  Mo  Mo245  1  0.10632173  0.30208300  0.49406949  1
  Mo  Mo246  1  0.60029217  0.79784658  0.59986432  1
  Mo  Mo247  1  0.39680855  0.00202551  0.19983682  1
  Mo  Mo248  1  0.90476869  0.10041633  0.69417369  1
  Mo  Mo249  1  0.79631046  0.00739210  0.39841380  1
