# generated using pymatgen
data_HfZrTaTiMo
_symmetry_space_group_name_H-M   'P 1'
_cell_length_a   16.88105410
_cell_length_b   16.88692957
_cell_length_c   16.87762314
_cell_angle_alpha   90.04517860
_cell_angle_beta   90.03172890
_cell_angle_gamma   89.96819108
_symmetry_Int_Tables_number   1
_chemical_formula_structural   HfZrTaTiMo
_chemical_formula_sum   'Hf50 Zr50 Ta50 Ti50 Mo50'
_cell_volume   4811.28707151
_cell_formula_units_Z   50
loop_
 _symmetry_equiv_pos_site_id
 _symmetry_equiv_pos_as_xyz
  1  'x, y, z'
loop_
 _atom_site_type_symbol
 _atom_site_label
 _atom_site_symmetry_multiplicity
 _atom_site_fract_x
 _atom_site_fract_y
 _atom_site_fract_z
 _atom_site_occupancy
  Hf  Hf0  1  0.39653729  -0.00186652  0.79268150  1
  Hf  Hf1  1  -0.00829061  0.79747160  0.59885147  1
  Hf  Hf2  1  -0.00824927  0.79457511  0.80579034  1
  Hf  Hf3  1  0.00287071  0.00084816  0.20815307  1
  Hf  Hf4  1  -0.00762281  0.20355460  0.79648661  1
  Hf  Hf5  1  -0.01006768  -0.00384461  0.79674805  1
  Hf  Hf6  1  0.50550847  0.70389506  0.29518443  1
  Hf  Hf7  1  0.80940166  0.60421550  -0.00504293  1
  Hf  Hf8  1  0.60621674  0.59043533  0.19782880  1
  Hf  Hf9  1  0.50175742  0.70703036  0.89572100  1
  Hf  Hf10  1  0.49373620  0.49302833  0.50873252  1
  Hf  Hf11  1  0.70621236  0.49487543  0.50355323  1
  Hf  Hf12  1  0.59831500  0.20162535  -0.00098120  1
  Hf  Hf13  1  -0.00655887  -0.00739148  -0.00289908  1
  Hf  Hf14  1  0.69787245  0.10141775  0.49550276  1
  Hf  Hf15  1  0.10065550  0.10878129  0.69491245  1
  Hf  Hf16  1  0.70491104  0.70076050  0.10529006  1
  Hf  Hf17  1  0.49181787  0.89654365  0.69027166  1
  Hf  Hf18  1  0.39362931  0.39859873  -0.00083332  1
  Hf  Hf19  1  0.29587929  0.90135233  0.90667379  1
  Hf  Hf20  1  0.19241072  0.60340651  0.19692590  1
  Hf  Hf21  1  0.00096579  0.39844301  0.39357995  1
  Hf  Hf22  1  0.89587648  0.29647679  0.30357325  1
  Hf  Hf23  1  0.80640724  -0.00371496  0.79311673  1
  Hf  Hf24  1  0.20404694  0.79519545  0.60136508  1
  Hf  Hf25  1  0.10808274  0.09867147  0.90069815  1
  Hf  Hf26  1  0.70389160  0.30187465  0.10136176  1
  Hf  Hf27  1  0.09388364  0.70158579  0.30137819  1
  Hf  Hf28  1  0.69822805  0.10369298  0.30507237  1
  Hf  Hf29  1  0.29791352  0.10187831  0.69480936  1
  Hf  Hf30  1  0.20037591  -0.00189799  0.40286824  1
  Hf  Hf31  1  0.20069556  -0.00708417  0.79547266  1
  Hf  Hf32  1  0.39758710  0.80578998  0.40088345  1
  Hf  Hf33  1  0.49885301  0.70879620  0.50677015  1
  Hf  Hf34  1  0.50220466  0.29821923  0.11302153  1
  Hf  Hf35  1  0.69680183  0.89775482  0.89605015  1
  Hf  Hf36  1  0.19877616  0.39874845  0.40326014  1
  Hf  Hf37  1  0.49856274  0.89884115  0.90062117  1
  Hf  Hf38  1  0.70872822  0.70507162  0.29931283  1
  Hf  Hf39  1  0.70182834  0.90247836  0.49009589  1
  Hf  Hf40  1  -0.00830233  -0.00225477  0.60143124  1
  Hf  Hf41  1  0.39094126  0.19222275  0.20419537  1
  Hf  Hf42  1  0.89869719  0.30570756  0.09298073  1
  Hf  Hf43  1  0.09592857  0.50101928  0.51059177  1
  Hf  Hf44  1  0.69823714  0.69862052  0.70703593  1
  Hf  Hf45  1  0.70604211  0.49959734  0.88934804  1
  Hf  Hf46  1  0.49515010  0.49037095  0.30159273  1
  Hf  Hf47  1  -0.00276454  -0.00614983  0.40135267  1
  Hf  Hf48  1  0.50693830  0.09747495  0.30883617  1
  Hf  Hf49  1  0.40227350  0.59955837  0.19338835  1
  Zr  Zr50  1  0.29714527  0.50380573  0.70265856  1
  Zr  Zr51  1  0.59914212  0.59884605  0.40092483  1
  Zr  Zr52  1  0.69786954  0.29422179  0.29845784  1
  Zr  Zr53  1  0.09026966  0.31181954  0.89811648  1
  Zr  Zr54  1  0.60015731  0.20738687  0.78692987  1
  Zr  Zr55  1  0.60589874  0.80297998  0.00932516  1
  Zr  Zr56  1  0.59893146  0.59489045  0.60603065  1
  Zr  Zr57  1  0.72306862  0.49741743  0.31354298  1
  Zr  Zr58  1  0.29711046  0.69959157  0.30472997  1
  Zr  Zr59  1  0.49589785  0.91243164  0.49351338  1
  Zr  Zr60  1  0.00007392  0.20384847  0.00050449  1
  Zr  Zr61  1  0.40839947  0.60937586  0.62444959  1
  Zr  Zr62  1  0.81652130  0.79974352  -0.00729922  1
  Zr  Zr63  1  0.39540479  0.38811079  0.60920248  1
  Zr  Zr64  1  -0.00086201  0.79760161  0.40716267  1
  Zr  Zr65  1  0.91398958  0.48841806  0.89814244  1
  Zr  Zr66  1  0.59486590  0.59431496  0.00098486  1
  Zr  Zr67  1  0.29185940  0.49937793  0.09503314  1
  Zr  Zr68  1  0.60948224  0.80416668  0.60403420  1
  Zr  Zr69  1  0.60825220  -0.00451824  0.19244962  1
  Zr  Zr70  1  0.39451378  0.00252474  0.20364240  1
  Zr  Zr71  1  0.88652484  0.10552208  0.90757028  1
  Zr  Zr72  1  0.60354753  -0.00267116  0.78893033  1
  Zr  Zr73  1  0.49715982  0.10117329  0.89858827  1
  Zr  Zr74  1  0.29862615  0.10896171  0.89578638  1
  Zr  Zr75  1  0.58286350  0.59125416  0.79168653  1
  Zr  Zr76  1  0.09038043  0.28728082  0.49705539  1
  Zr  Zr77  1  0.40392972  0.20391591  0.59025964  1
  Zr  Zr78  1  0.49227241  0.30377365  0.89201135  1
  Zr  Zr79  1  0.20203881  0.79152945  0.00090511  1
  Zr  Zr80  1  0.30106682  0.50197362  0.30868643  1
  Zr  Zr81  1  0.19958432  0.00765026  0.20665111  1
  Zr  Zr82  1  0.18948671  0.39926432  0.20927138  1
  Zr  Zr83  1  0.09751133  0.11645901  0.31669860  1
  Zr  Zr84  1  0.59928446  0.40637999  -0.00383421  1
  Zr  Zr85  1  0.10271078  0.90061220  0.09670796  1
  Zr  Zr86  1  0.80339970  -0.00251940  0.19686399  1
  Zr  Zr87  1  0.20062564  0.39689642  0.79408010  1
  Zr  Zr88  1  0.80726322  0.80325043  0.79289718  1
  Zr  Zr89  1  0.70244827  0.10694588  0.69331008  1
  Zr  Zr90  1  0.00065609  0.40543837  0.20444846  1
  Zr  Zr91  1  -0.00499273  0.60830439  0.59797891  1
  Zr  Zr92  1  0.39832391  0.80631433  0.19672022  1
  Zr  Zr93  1  0.59891143  0.38989168  0.40879470  1
  Zr  Zr94  1  0.89462157  0.10487316  0.10007305  1
  Zr  Zr95  1  0.88963265  0.49460654  0.49027846  1
  Zr  Zr96  1  0.29949092  0.69200616  0.50778410  1
  Zr  Zr97  1  0.90158464  0.49019100  0.69491294  1
  Zr  Zr98  1  0.10286862  0.89392946  0.70079646  1
  Zr  Zr99  1  0.80645767  -0.00808348  0.60157777  1
  Ta  Ta100  1  0.80962133  -0.00298526  0.39668898  1
  Ta  Ta101  1  0.19826178  0.20107658  0.20091057  1
  Ta  Ta102  1  0.20113098  0.20659141  0.00199042  1
  Ta  Ta103  1  0.39545447  0.38522237  0.40982333  1
  Ta  Ta104  1  0.29854033  0.29530351  0.30162113  1
  Ta  Ta105  1  0.90785996  0.30512155  0.69330641  1
  Ta  Ta106  1  0.09735862  0.69597993  0.90397500  1
  Ta  Ta107  1  0.18851159  0.60310841  0.41146027  1
  Ta  Ta108  1  0.10237301  0.50593320  0.90298174  1
  Ta  Ta109  1  0.00288213  0.60179177  0.79904767  1
  Ta  Ta110  1  0.09176903  0.50481443  0.08675300  1
  Ta  Ta111  1  0.10360326  0.90052905  0.50216978  1
  Ta  Ta112  1  0.09772572  0.10238470  0.50608618  1
  Ta  Ta113  1  0.39407036  0.20101622  0.00712954  1
  Ta  Ta114  1  0.29653854  0.50470070  0.89986367  1
  Ta  Ta115  1  0.39894751  0.00173376  0.00773244  1
  Ta  Ta116  1  0.70688657  0.29959481  0.89690637  1
  Ta  Ta117  1  0.39852761  0.20043247  0.40260019  1
  Ta  Ta118  1  0.50208507  0.90189578  0.09876311  1
  Ta  Ta119  1  0.19759968  0.80335020  0.20376626  1
  Ta  Ta120  1  0.29727973  0.90252773  0.30660071  1
  Ta  Ta121  1  0.39791815  0.60482542  -0.00378053  1
  Ta  Ta122  1  0.20076975  0.39188293  0.59826533  1
  Ta  Ta123  1  0.80692487  0.79881039  0.60004148  1
  Ta  Ta124  1  0.29736163  0.69853151  0.09682725  1
  Ta  Ta125  1  0.71600593  0.49619840  0.10101519  1
  Ta  Ta126  1  0.60228578  0.80303688  0.39655619  1
  Ta  Ta127  1  0.38850741  0.79553512  0.79329477  1
  Ta  Ta128  1  0.80311361  0.20814902  0.79422086  1
  Ta  Ta129  1  0.90764157  0.50354201  0.09674422  1
  Ta  Ta130  1  0.70707405  0.69963845  0.49442341  1
  Ta  Ta131  1  0.70556666  0.49246527  0.69865407  1
  Ta  Ta132  1  0.09938379  0.89306184  0.90385620  1
  Ta  Ta133  1  0.89874046  0.89039521  0.29724048  1
  Ta  Ta134  1  0.00677828  0.20590570  0.20236837  1
  Ta  Ta135  1  0.69889305  0.69794606  0.89226685  1
  Ta  Ta136  1  0.81498716  0.59776721  0.20114180  1
  Ta  Ta137  1  0.80182362  0.20673928  0.60223669  1
  Ta  Ta138  1  0.20546432  0.20481747  0.59560411  1
  Ta  Ta139  1  0.80168004  0.60837054  0.60164097  1
  Ta  Ta140  1  0.39733948  0.79824713  0.00192677  1
  Ta  Ta141  1  0.10494110  0.69336718  0.70064978  1
  Ta  Ta142  1  0.70436775  0.10381549  0.90433151  1
  Ta  Ta143  1  0.70366793  0.89357775  0.29793830  1
  Ta  Ta144  1  0.60030490  0.00254649  0.59824602  1
  Ta  Ta145  1  0.19979656  0.60617133  0.80389213  1
  Ta  Ta146  1  0.29451520  0.29897283  0.10287794  1
  Ta  Ta147  1  0.50173153  0.10111664  0.10082985  1
  Ta  Ta148  1  0.90363637  0.10996356  0.49915826  1
  Ta  Ta149  1  0.10215637  0.30384202  0.09888658  1
  Ti  Ti150  1  0.90579273  0.89292888  0.10074424  1
  Ti  Ti151  1  0.79327548  0.38688812  0.59899368  1
  Ti  Ti152  1  0.21197717  0.20165907  0.40474515  1
  Ti  Ti153  1  0.09334669  0.69505776  0.09438558  1
  Ti  Ti154  1  0.20262828  -0.00222235  0.59772325  1
  Ti  Ti155  1  0.80936042  0.40704031  0.20404692  1
  Ti  Ti156  1  0.49857458  0.10151651  0.68654109  1
  Ti  Ti157  1  0.30691143  0.90501879  0.50795956  1
  Ti  Ti158  1  0.49755989  0.49265439  0.10239227  1
  Ti  Ti159  1  0.29152585  0.09968566  0.09060433  1
  Ti  Ti160  1  0.19876455  0.39761793  -0.00208116  1
  Ti  Ti161  1  0.29650972  0.90377704  0.09871010  1
  Ti  Ti162  1  0.20685701  0.79198685  0.80031928  1
  Ti  Ti163  1  0.29758155  0.29787124  0.89373064  1
  Ti  Ti164  1  0.50607046  0.90532906  0.30228008  1
  Ti  Ti165  1  0.39649477  0.21439743  0.78382780  1
  Ti  Ti166  1  0.50154754  0.70607257  0.10231270  1
  Ti  Ti167  1  0.90380772  0.30027432  0.50533800  1
  Ti  Ti168  1  -0.00777466  0.60635123  0.40402372  1
  Ti  Ti169  1  0.29698365  0.50291432  0.50750922  1
  Ti  Ti170  1  0.59875957  0.39641482  0.78992724  1
  Ti  Ti171  1  0.59125539  0.20852215  0.41539652  1
  Ti  Ti172  1  0.09497661  0.30085080  0.69231576  1
  Ti  Ti173  1  0.09733785  0.49798590  0.69960235  1
  Ti  Ti174  1  0.00496957  0.80243521  0.19979082  1
  Ti  Ti175  1  0.60715473  0.40400546  0.20239376  1
  Ti  Ti176  1  0.90261704  0.69798040  0.29523986  1
  Ti  Ti177  1  0.79370197  -0.01115628  0.00597479  1
  Ti  Ti178  1  0.59902438  0.38183395  0.60877670  1
  Ti  Ti179  1  0.89872290  0.10850438  0.30633940  1
  Ti  Ti180  1  0.79946787  0.19841843  0.19742137  1
  Ti  Ti181  1  0.80425735  0.39863602  -0.00808210  1
  Ti  Ti182  1  0.81342367  0.60485334  0.79631484  1
  Ti  Ti183  1  0.10427304  0.10251050  0.09590702  1
  Ti  Ti184  1  0.39387587  0.60859671  0.80341091  1
  Ti  Ti185  1  0.08929720  0.51556745  0.30241487  1
  Ti  Ti186  1  0.79976970  0.20741795  0.41133575  1
  Ti  Ti187  1  0.48467149  0.49452273  0.88876928  1
  Ti  Ti188  1  0.60404590  0.00139378  0.00406094  1
  Ti  Ti189  1  0.30517027  0.09228116  0.49849978  1
  Ti  Ti190  1  0.70089975  0.10757206  0.09476691  1
  Ti  Ti191  1  0.49976854  0.29522203  0.29857540  1
  Ti  Ti192  1  0.91727564  0.69616970  0.09908702  1
  Ti  Ti193  1  0.39267472  0.39487671  0.20513480  1
  Ti  Ti194  1  0.50200305  0.09278049  0.49705276  1
  Ti  Ti195  1  0.81060009  0.79965705  0.40468155  1
  Ti  Ti196  1  0.40044229  0.59810320  0.40519535  1
  Ti  Ti197  1  0.80287882  0.38915048  0.79495767  1
  Ti  Ti198  1  0.80608755  0.80165091  0.19321860  1
  Ti  Ti199  1  0.19585257  0.80211435  0.40437893  1
  Mo  Mo200  1  0.19527833  0.59673015  0.60594876  1
  Mo  Mo201  1  0.80938836  0.61549861  0.39859644  1
  Mo  Mo202  1  0.60207933  0.80583182  0.20309647  1
  Mo  Mo203  1  0.89961588  0.89296534  0.69665643  1
  Mo  Mo204  1  0.39012343  0.80579886  0.60443204  1
  Mo  Mo205  1  0.79221060  0.20894941  -0.00445270  1
  Mo  Mo206  1  0.90401211  0.50664187  0.29881888  1
  Mo  Mo207  1  0.39546309  0.39962836  0.80265144  1
  Mo  Mo208  1  0.19779450  0.20626467  0.79357754  1
  Mo  Mo209  1  0.49751554  0.71566225  0.70755466  1
  Mo  Mo210  1  0.89971092  0.69340873  0.70008300  1
  Mo  Mo211  1  0.00539083  0.39526342  0.60118439  1
  Mo  Mo212  1  0.29389056  0.70010629  0.70813000  1
  Mo  Mo213  1  0.00226181  0.60372487  -0.00239882  1
  Mo  Mo214  1  0.60766053  -0.00403195  0.39689704  1
  Mo  Mo215  1  0.69909850  0.89903309  0.69515701  1
  Mo  Mo216  1  -0.00208576  0.60418955  0.19515896  1
  Mo  Mo217  1  0.59851111  0.20094237  0.59253432  1
  Mo  Mo218  1  0.70536522  0.30575417  0.69833360  1
  Mo  Mo219  1  0.10262088  0.69998337  0.50119510  1
  Mo  Mo220  1  -0.00398604  0.19939134  0.59986066  1
  Mo  Mo221  1  0.39860350  0.00583670  0.59517536  1
  Mo  Mo222  1  0.39418782  0.00385372  0.39992529  1
  Mo  Mo223  1  0.70423475  0.89846512  0.10048714  1
  Mo  Mo224  1  0.19825836  0.60037341  -0.00347500  1
  Mo  Mo225  1  0.30145527  0.69673982  0.90139584  1
  Mo  Mo226  1  0.59827814  0.19675104  0.19572128  1
  Mo  Mo227  1  0.89792216  0.89847365  0.49388400  1
  Mo  Mo228  1  0.00440611  0.40380031  0.79007478  1
  Mo  Mo229  1  0.10469155  0.29304619  0.29958669  1
  Mo  Mo230  1  0.50439125  0.29761749  0.69673797  1
  Mo  Mo231  1  0.70029910  0.29501360  0.50685941  1
  Mo  Mo232  1  0.59638106  0.79713970  0.79935994  1
  Mo  Mo233  1  0.90200832  0.90201732  0.90526257  1
  Mo  Mo234  1  -0.01148106  0.19843970  0.40166818  1
  Mo  Mo235  1  0.50085539  0.29651156  0.50176901  1
  Mo  Mo236  1  0.20175284  0.00514961  0.00095659  1
  Mo  Mo237  1  0.10305201  0.89167907  0.30331474  1
  Mo  Mo238  1  0.29116507  0.29356201  0.70187929  1
  Mo  Mo239  1  0.30016567  0.89790189  0.69393381  1
  Mo  Mo240  1  0.89989221  0.11223615  0.69303928  1
  Mo  Mo241  1  0.29579243  0.29796546  0.49656994  1
  Mo  Mo242  1  0.89189050  0.69970938  0.49744749  1
  Mo  Mo243  1  0.49954768  0.47967963  0.70874077  1
  Mo  Mo244  1  0.90558502  0.69062783  0.89723637  1
  Mo  Mo245  1  0.80295468  0.38412640  0.40903279  1
  Mo  Mo246  1  0.29938895  0.10308008  0.31438181  1
  Mo  Mo247  1  0.00289828  0.40348984  0.00217831  1
  Mo  Mo248  1  0.00347034  0.79615674  -0.00085684  1
  Mo  Mo249  1  0.89251353  0.30598552  0.89255856  1
