# generated using pymatgen
data_HfZrTaTiMo
_symmetry_space_group_name_H-M   'P 1'
_cell_length_a   16.88575310
_cell_length_b   16.89163971
_cell_length_c   16.88826147
_cell_angle_alpha   90.02473550
_cell_angle_beta   89.99868168
_cell_angle_gamma   89.99567106
_symmetry_Int_Tables_number   1
_chemical_formula_structural   HfZrTaTiMo
_chemical_formula_sum   'Hf50 Zr50 Ta50 Ti50 Mo50'
_cell_volume   4817.00555055
_cell_formula_units_Z   50
loop_
 _symmetry_equiv_pos_site_id
 _symmetry_equiv_pos_as_xyz
  1  'x, y, z'
loop_
 _atom_site_type_symbol
 _atom_site_label
 _atom_site_symmetry_multiplicity
 _atom_site_fract_x
 _atom_site_fract_y
 _atom_site_fract_z
 _atom_site_occupancy
  Hf  Hf0  1  0.00852043  0.18805782  0.80521304  1
  Hf  Hf1  1  0.10995063  0.89675720  0.11288963  1
  Hf  Hf2  1  0.61858297  0.20769738  -0.01379040  1
  Hf  Hf3  1  0.10628814  0.09319915  0.29189444  1
  Hf  Hf4  1  0.00029946  0.41108862  0.60540678  1
  Hf  Hf5  1  0.90155776  0.89634341  0.69528139  1
  Hf  Hf6  1  0.79121356  -0.00782898  0.80496016  1
  Hf  Hf7  1  0.29148800  0.51091334  0.70615118  1
  Hf  Hf8  1  0.49360392  0.51187032  0.90575424  1
  Hf  Hf9  1  0.68882718  0.09995152  0.70646303  1
  Hf  Hf10  1  0.59812108  0.19831417  0.59537889  1
  Hf  Hf11  1  0.70530284  0.89758933  0.50044552  1
  Hf  Hf12  1  0.48832231  0.90749969  0.29731908  1
  Hf  Hf13  1  0.20640814  0.40840314  0.59106228  1
  Hf  Hf14  1  -0.00413772  -0.01187347  0.38708840  1
  Hf  Hf15  1  0.30375060  0.89621179  0.90679601  1
  Hf  Hf16  1  0.09664337  0.89395101  0.69498256  1
  Hf  Hf17  1  -0.00260380  0.79381594  0.00145563  1
  Hf  Hf18  1  -0.00874860  0.60738193  -0.00469545  1
  Hf  Hf19  1  0.89862616  0.09442330  0.70442649  1
  Hf  Hf20  1  0.49065610  0.51177277  0.10002334  1
  Hf  Hf21  1  0.60016578  0.40206596  0.00222435  1
  Hf  Hf22  1  0.30128070  0.90045814  0.09764614  1
  Hf  Hf23  1  0.39619052  0.40715021  0.20860823  1
  Hf  Hf24  1  0.80496020  -0.00492432  0.39033353  1
  Hf  Hf25  1  0.80619461  0.60701345  0.19282658  1
  Hf  Hf26  1  0.49442301  0.29985929  0.49213829  1
  Hf  Hf27  1  0.20096815  0.78142131  0.79681300  1
  Hf  Hf28  1  0.50160241  0.51081110  0.50006818  1
  Hf  Hf29  1  0.40439046  0.79441877  0.80284509  1
  Hf  Hf30  1  0.21025017  0.19726384  0.39969449  1
  Hf  Hf31  1  0.50153883  0.29860911  0.70402125  1
  Hf  Hf32  1  0.39648739  0.19519261  0.80298463  1
  Hf  Hf33  1  0.09862603  0.09490951  0.50336353  1
  Hf  Hf34  1  0.29765132  0.50042485  0.90521934  1
  Hf  Hf35  1  0.89958033  0.70310582  0.69313827  1
  Hf  Hf36  1  0.20486858  0.19593335  0.00367137  1
  Hf  Hf37  1  0.29889506  0.90649442  0.29036835  1
  Hf  Hf38  1  0.50119020  0.50680201  0.69862300  1
  Hf  Hf39  1  0.19787607  0.00073488  0.80385396  1
  Hf  Hf40  1  0.09535985  0.90218242  0.51835251  1
  Hf  Hf41  1  0.90596613  0.30723484  0.49413653  1
  Hf  Hf42  1  0.49612682  0.09931374  0.09764770  1
  Hf  Hf43  1  0.10884235  0.70228928  0.10069819  1
  Hf  Hf44  1  0.38588421  0.60835160  0.59136773  1
  Hf  Hf45  1  0.90230206  0.08946828  0.50895151  1
  Hf  Hf46  1  0.60608664  -0.00362976  0.00066988  1
  Hf  Hf47  1  0.79752352  -0.00881632  0.00600192  1
  Hf  Hf48  1  0.90545137  0.30454046  0.90552349  1
  Hf  Hf49  1  0.80471165  0.18865000  0.38894445  1
  Zr  Zr50  1  0.78507191  0.39113133  -0.00271904  1
  Zr  Zr51  1  0.59877456  0.80541799  0.40245195  1
  Zr  Zr52  1  0.60694066  -0.00169604  0.19815611  1
  Zr  Zr53  1  0.77891470  0.20426617  0.81797608  1
  Zr  Zr54  1  0.70358254  0.30200663  0.48816921  1
  Zr  Zr55  1  0.71419971  0.11750459  0.10048258  1
  Zr  Zr56  1  0.00136898  -0.00792516  -0.00192464  1
  Zr  Zr57  1  0.89146025  0.29350330  0.10327215  1
  Zr  Zr58  1  0.21011298  0.40111684  0.39680610  1
  Zr  Zr59  1  0.49030693  0.29161633  0.30181476  1
  Zr  Zr60  1  0.69552432  0.88290912  0.90200649  1
  Zr  Zr61  1  0.49577562  0.30398814  0.89559577  1
  Zr  Zr62  1  0.50285520  0.69207888  0.09685528  1
  Zr  Zr63  1  0.59980723  0.00105344  0.39228482  1
  Zr  Zr64  1  0.00745492  0.19007757  0.00014068  1
  Zr  Zr65  1  0.09892051  0.30641727  0.10641069  1
  Zr  Zr66  1  0.00175348  0.79412332  0.40364783  1
  Zr  Zr67  1  0.38946465  0.19601295  0.59335671  1
  Zr  Zr68  1  0.71227885  0.50744552  0.29643335  1
  Zr  Zr69  1  0.60694936  0.39532682  0.60441850  1
  Zr  Zr70  1  0.29567921  0.30253251  0.70545516  1
  Zr  Zr71  1  0.00243539  0.79025514  0.80906654  1
  Zr  Zr72  1  0.20286392  -0.00509780  0.40042289  1
  Zr  Zr73  1  0.19523433  0.00476913  -0.00160594  1
  Zr  Zr74  1  0.00035325  0.60238077  0.19103945  1
  Zr  Zr75  1  0.79469864  0.40436088  0.79333837  1
  Zr  Zr76  1  0.59605046  0.40765102  0.38855007  1
  Zr  Zr77  1  0.80309660  -0.00271155  0.20711998  1
  Zr  Zr78  1  0.10161848  0.30994122  0.90246204  1
  Zr  Zr79  1  0.09670818  0.30086600  0.49347075  1
  Zr  Zr80  1  0.09176448  0.50747415  0.48793574  1
  Zr  Zr81  1  0.19911665  0.80108631  0.40387747  1
  Zr  Zr82  1  0.50645712  0.70307247  0.69152600  1
  Zr  Zr83  1  0.30196419  0.89739827  0.69408959  1
  Zr  Zr84  1  0.10000599  0.49921793  0.90372334  1
  Zr  Zr85  1  0.80487657  0.60678197  0.81041133  1
  Zr  Zr86  1  0.79379853  0.20679933  0.60436079  1
  Zr  Zr87  1  0.10367026  0.08997632  0.68833261  1
  Zr  Zr88  1  0.39897317  0.79499395  0.19438034  1
  Zr  Zr89  1  0.59497791  -0.00888946  0.59654162  1
  Zr  Zr90  1  0.60082221  0.40115330  0.19896777  1
  Zr  Zr91  1  0.10304999  0.29986858  0.69995159  1
  Zr  Zr92  1  0.70664481  0.51263838  0.50241747  1
  Zr  Zr93  1  0.90518744  0.30607747  0.29625742  1
  Zr  Zr94  1  0.39419574  0.61460568  0.80513063  1
  Zr  Zr95  1  0.49608087  0.29462393  0.10146788  1
  Zr  Zr96  1  0.90118124  0.30030037  0.70366894  1
  Zr  Zr97  1  0.21396814  0.60795389  0.40581053  1
  Zr  Zr98  1  0.49968837  0.69861646  0.29908066  1
  Zr  Zr99  1  0.69849060  0.51856701  0.69279802  1
  Ta  Ta100  1  0.70309724  0.70408366  0.29958496  1
  Ta  Ta101  1  0.60323673  0.60852044  0.39993121  1
  Ta  Ta102  1  0.39255874  0.41513286  0.40114990  1
  Ta  Ta103  1  0.29355016  0.50578188  0.10404665  1
  Ta  Ta104  1  0.70308141  0.50510111  0.10066068  1
  Ta  Ta105  1  0.20230579  0.18974504  0.81011052  1
  Ta  Ta106  1  0.60618709  0.19680090  0.20863569  1
  Ta  Ta107  1  0.50187324  0.09710056  0.89952387  1
  Ta  Ta108  1  0.69845369  0.70579707  0.69342204  1
  Ta  Ta109  1  -0.00077364  0.19899381  0.59809630  1
  Ta  Ta110  1  0.19643623  0.60084676  0.00259180  1
  Ta  Ta111  1  -0.00361076  0.41750575  0.79558306  1
  Ta  Ta112  1  0.80583707  0.79707071  0.39946217  1
  Ta  Ta113  1  0.70004806  0.09554147  0.49686867  1
  Ta  Ta114  1  0.10051222  0.09553705  0.11137706  1
  Ta  Ta115  1  0.59687741  -0.00725064  0.80160210  1
  Ta  Ta116  1  0.60067128  0.61195642  0.80744354  1
  Ta  Ta117  1  0.20837904  0.19890792  0.20031858  1
  Ta  Ta118  1  0.40567500  -0.00367181  0.80099796  1
  Ta  Ta119  1  0.60218477  0.19016202  0.39149755  1
  Ta  Ta120  1  0.49927401  0.70211518  0.49791647  1
  Ta  Ta121  1  0.49502445  0.09421668  0.49570424  1
  Ta  Ta122  1  0.90161814  0.69609045  0.30315425  1
  Ta  Ta123  1  0.89633414  0.49137628  0.09659529  1
  Ta  Ta124  1  0.29754025  0.30397807  0.90257634  1
  Ta  Ta125  1  0.80032640  0.60707757  0.00193204  1
  Ta  Ta126  1  0.80577948  0.40729383  0.39594261  1
  Ta  Ta127  1  0.00234738  0.60471579  0.79987661  1
  Ta  Ta128  1  0.71168854  0.29891239  0.28999338  1
  Ta  Ta129  1  0.10259147  0.49989809  0.29489192  1
  Ta  Ta130  1  0.00168927  0.40646772  0.19839142  1
  Ta  Ta131  1  0.10057605  0.30399026  0.29610449  1
  Ta  Ta132  1  0.39289789  0.40432318  0.59246621  1
  Ta  Ta133  1  0.50127821  0.89694757  0.69944992  1
  Ta  Ta134  1  0.00010270  0.19148609  0.39369811  1
  Ta  Ta135  1  0.90858700  0.50408652  0.30442250  1
  Ta  Ta136  1  -0.00232063  0.79908040  0.20743976  1
  Ta  Ta137  1  0.89896009  0.89315226  0.10540108  1
  Ta  Ta138  1  0.89160467  0.09730114  0.90781694  1
  Ta  Ta139  1  0.90170159  0.89472433  0.51024246  1
  Ta  Ta140  1  0.39245963  0.19869548  0.00040406  1
  Ta  Ta141  1  0.39051420  0.79654540  0.40624944  1
  Ta  Ta142  1  0.30934965  0.09341826  0.90406144  1
  Ta  Ta143  1  0.49654912  0.09355664  0.70087509  1
  Ta  Ta144  1  0.90329956  0.09921678  0.10423568  1
  Ta  Ta145  1  0.00293711  -0.00435984  0.81252337  1
  Ta  Ta146  1  0.90069363  0.50914731  0.49541114  1
  Ta  Ta147  1  0.10059677  0.69003994  0.30147062  1
  Ta  Ta148  1  0.40417623  0.78986893  -0.00400723  1
  Ta  Ta149  1  0.00271259  0.61241971  0.59376990  1
  Ti  Ti150  1  0.79719376  0.79037505  0.59013039  1
  Ti  Ti151  1  0.39634547  0.80445593  0.59019842  1
  Ti  Ti152  1  0.70328017  0.88795612  0.29464368  1
  Ti  Ti153  1  0.79119886  -0.00599607  0.60700232  1
  Ti  Ti154  1  0.90095063  0.49666612  0.90642675  1
  Ti  Ti155  1  0.30609848  0.08847881  0.10305667  1
  Ti  Ti156  1  0.19742234  0.61255699  0.59844369  1
  Ti  Ti157  1  0.39158437  -0.00970958  0.42113592  1
  Ti  Ti158  1  0.80416376  0.78903999  0.00725573  1
  Ti  Ti159  1  0.60250874  0.80167753  0.59570784  1
  Ti  Ti160  1  0.69814872  0.70309651  0.10334038  1
  Ti  Ti161  1  0.49142030  0.90576722  0.09463968  1
  Ti  Ti162  1  0.39760138  0.40468382  0.79784785  1
  Ti  Ti163  1  -0.00082332  0.19473565  0.20532974  1
  Ti  Ti164  1  0.79478575  0.79760052  0.79635934  1
  Ti  Ti165  1  0.80121539  0.40264496  0.59987188  1
  Ti  Ti166  1  0.29696386  0.69382167  0.09844202  1
  Ti  Ti167  1  0.48770154  0.09642528  0.29941870  1
  Ti  Ti168  1  0.30916334  0.09017561  0.29390087  1
  Ti  Ti169  1  0.39097041  0.19429756  0.40147440  1
  Ti  Ti170  1  0.80521166  0.79673325  0.20042188  1
  Ti  Ti171  1  0.60817385  0.60536825  -0.00278886  1
  Ti  Ti172  1  0.10294929  0.51580973  0.70277939  1
  Ti  Ti173  1  0.59442781  0.79774496  0.00424488  1
  Ti  Ti174  1  0.20262810  0.78316373  0.59493924  1
  Ti  Ti175  1  0.29891712  0.30073253  0.29574738  1
  Ti  Ti176  1  0.29193790  0.69710235  0.91350532  1
  Ti  Ti177  1  0.20381309  0.78671823  0.21255949  1
  Ti  Ti178  1  0.69645450  0.50516018  0.90116068  1
  Ti  Ti179  1  -0.00432584  -0.00989069  0.20556059  1
  Ti  Ti180  1  0.30367503  0.09481754  0.70081040  1
  Ti  Ti181  1  0.22552554  0.00282891  0.58735310  1
  Ti  Ti182  1  0.11030242  0.88500776  0.90581270  1
  Ti  Ti183  1  0.39417204  0.39849146  0.00546656  1
  Ti  Ti184  1  0.29751909  0.30552131  0.10598093  1
  Ti  Ti185  1  0.50119593  0.89650949  0.90055495  1
  Ti  Ti186  1  0.89658272  0.51336082  0.69045695  1
  Ti  Ti187  1  0.89542521  0.89226908  0.90116497  1
  Ti  Ti188  1  0.39252151  0.19665258  0.19830562  1
  Ti  Ti189  1  0.29439068  0.51029194  0.29436729  1
  Ti  Ti190  1  0.19567261  0.40382533  0.79885537  1
  Ti  Ti191  1  0.38869644  0.60445125  0.20911166  1
  Ti  Ti192  1  0.60181035  0.59918798  0.20590847  1
  Ti  Ti193  1  0.80482571  0.61259305  0.40680036  1
  Ti  Ti194  1  0.20314739  0.40201366  0.00917650  1
  Ti  Ti195  1  0.60181782  0.80675013  0.19137674  1
  Ti  Ti196  1  0.69541405  0.70627457  0.89943048  1
  Ti  Ti197  1  0.60565101  0.40368788  0.80086365  1
  Ti  Ti198  1  0.20769373  0.20010988  0.59233856  1
  Ti  Ti199  1  0.10444663  0.49783198  0.10320428  1
  Mo  Mo200  1  0.30211235  0.70430203  0.49966107  1
  Mo  Mo201  1  0.30423931  0.09818882  0.49748702  1
  Mo  Mo202  1  -0.01186698  -0.00287626  0.60805739  1
  Mo  Mo203  1  0.89574382  0.70513861  0.10121125  1
  Mo  Mo204  1  0.29592429  0.70373505  0.69174539  1
  Mo  Mo205  1  0.10357610  0.09470880  0.90239692  1
  Mo  Mo206  1  0.89919629  0.88698022  0.29725486  1
  Mo  Mo207  1  0.69971469  0.30480048  0.11414044  1
  Mo  Mo208  1  0.20530970  0.00848583  0.19790799  1
  Mo  Mo209  1  0.60267830  0.61583080  0.59297193  1
  Mo  Mo210  1  0.20080369  0.59799280  0.20032586  1
  Mo  Mo211  1  0.49057487  0.51500863  0.30300683  1
  Mo  Mo212  1  0.09830065  0.70160757  0.50364359  1
  Mo  Mo213  1  -0.00003427  0.40534851  0.39026600  1
  Mo  Mo214  1  0.38678121  0.60439185  0.00457425  1
  Mo  Mo215  1  0.51137029  0.70496705  0.90641214  1
  Mo  Mo216  1  0.40770568  -0.00209182  -0.00382514  1
  Mo  Mo217  1  0.40092747  0.00574248  0.19330101  1
  Mo  Mo218  1  -0.00096493  0.60245242  0.39710220  1
  Mo  Mo219  1  0.80363997  0.40742029  0.19987308  1
  Mo  Mo220  1  0.30139002  0.50425907  0.50183006  1
  Mo  Mo221  1  0.60110523  0.80113930  0.79547584  1
  Mo  Mo222  1  0.00071328  0.79519704  0.59822377  1
  Mo  Mo223  1  0.90920554  0.10090366  0.29123680  1
  Mo  Mo224  1  0.29985953  0.89583992  0.50543926  1
  Mo  Mo225  1  0.49072138  0.89545952  0.50480155  1
  Mo  Mo226  1  0.30490430  0.30312229  0.49329220  1
  Mo  Mo227  1  0.10019643  0.89323791  0.28830590  1
  Mo  Mo228  1  0.89054584  0.70319121  0.90089458  1
  Mo  Mo229  1  0.89788739  0.69986952  0.49827840  1
  Mo  Mo230  1  0.09967804  0.69261071  0.69579067  1
  Mo  Mo231  1  0.69989953  0.70467275  0.49805686  1
  Mo  Mo232  1  0.59271976  0.19091469  0.79956114  1
  Mo  Mo233  1  0.69118725  0.31209309  0.89080302  1
  Mo  Mo234  1  0.20084883  0.40079900  0.20187895  1
  Mo  Mo235  1  0.70456555  0.87744750  0.10252514  1
  Mo  Mo236  1  0.20449996  0.79338800  0.00085812  1
  Mo  Mo237  1  -0.00225201  0.41084557  0.00442687  1
  Mo  Mo238  1  0.19329488  0.60515006  0.80389041  1
  Mo  Mo239  1  0.69667255  0.88757272  0.69822263  1
  Mo  Mo240  1  0.69151934  0.30161234  0.70279619  1
  Mo  Mo241  1  0.29987526  0.69952715  0.29886146  1
  Mo  Mo242  1  0.80704633  0.61054338  0.59266926  1
  Mo  Mo243  1  0.40322622  -0.00164335  0.60196728  1
  Mo  Mo244  1  0.80398872  0.19828068  -0.00158884  1
  Mo  Mo245  1  0.40217767  0.60245931  0.39625814  1
  Mo  Mo246  1  0.10517883  0.69235535  0.90211235  1
  Mo  Mo247  1  0.69533286  0.08599794  0.90122024  1
  Mo  Mo248  1  0.80523106  0.20014314  0.20183549  1
  Mo  Mo249  1  0.70377320  0.10505537  0.29962643  1
