# generated using pymatgen
data_HfZrTaTiMo
_symmetry_space_group_name_H-M   'P 1'
_cell_length_a   16.89071032
_cell_length_b   16.89851589
_cell_length_c   16.88895369
_cell_angle_alpha   89.95672755
_cell_angle_beta   90.04661322
_cell_angle_gamma   90.03866169
_symmetry_Int_Tables_number   1
_chemical_formula_structural   HfZrTaTiMo
_chemical_formula_sum   'Hf50 Zr50 Ta50 Ti50 Mo50'
_cell_volume   4820.57513948
_cell_formula_units_Z   50
loop_
 _symmetry_equiv_pos_site_id
 _symmetry_equiv_pos_as_xyz
  1  'x, y, z'
loop_
 _atom_site_type_symbol
 _atom_site_label
 _atom_site_symmetry_multiplicity
 _atom_site_fract_x
 _atom_site_fract_y
 _atom_site_fract_z
 _atom_site_occupancy
  Hf  Hf0  1  0.39006878  0.21415785  0.60120569  1
  Hf  Hf1  1  0.50343491  0.10217944  0.29943815  1
  Hf  Hf2  1  -0.00052956  0.79913430  0.40468052  1
  Hf  Hf3  1  0.79533154  0.79087493  0.40381692  1
  Hf  Hf4  1  0.79000816  0.59454325  0.58872753  1
  Hf  Hf5  1  0.09587099  0.30713760  0.30768977  1
  Hf  Hf6  1  0.59601695  0.59305875  0.41082312  1
  Hf  Hf7  1  0.10132255  0.09713915  0.29731326  1
  Hf  Hf8  1  0.70428155  0.11385038  0.90259853  1
  Hf  Hf9  1  0.29517832  0.08958249  0.89638446  1
  Hf  Hf10  1  0.39521984  0.79213699  0.60119496  1
  Hf  Hf11  1  0.00378491  0.80645466  0.78914007  1
  Hf  Hf12  1  0.89471696  0.49899280  0.89775476  1
  Hf  Hf13  1  0.00584020  0.59210784  0.19435853  1
  Hf  Hf14  1  0.29130838  0.30636408  0.31250636  1
  Hf  Hf15  1  0.09814727  0.10840345  0.70317907  1
  Hf  Hf16  1  0.20025937  0.20927034  0.80578472  1
  Hf  Hf17  1  0.50372212  0.30468036  0.89481943  1
  Hf  Hf18  1  0.50675957  0.69179850  0.68993581  1
  Hf  Hf19  1  0.39914001  0.00143945  0.40643244  1
  Hf  Hf20  1  0.40771133  0.80422453  0.00255722  1
  Hf  Hf21  1  0.49545199  0.50019910  0.89384385  1
  Hf  Hf22  1  0.09906307  0.69999233  0.69031665  1
  Hf  Hf23  1  0.89896156  0.69188235  0.30130096  1
  Hf  Hf24  1  0.30064491  0.09833469  0.70659208  1
  Hf  Hf25  1  0.40025376  0.20684712  0.40891935  1
  Hf  Hf26  1  -0.00071614  0.58967217  0.40271969  1
  Hf  Hf27  1  0.29807833  0.69922735  0.89417979  1
  Hf  Hf28  1  0.90098222  0.70633011  0.08940827  1
  Hf  Hf29  1  0.69840203  0.89889226  0.30312088  1
  Hf  Hf30  1  0.29596076  0.90269099  0.29408802  1
  Hf  Hf31  1  0.39986024  0.20061184  0.20089070  1
  Hf  Hf32  1  0.60044374  -0.00066383  0.40217158  1
  Hf  Hf33  1  0.49699966  0.69404934  0.30415718  1
  Hf  Hf34  1  0.79702193  0.79748282  0.19780572  1
  Hf  Hf35  1  0.40896342  0.41721198  0.41369251  1
  Hf  Hf36  1  0.69679452  0.88424066  0.89438119  1
  Hf  Hf37  1  -0.01207052  0.00336506  0.61094700  1
  Hf  Hf38  1  0.10228401  0.11166256  0.50567840  1
  Hf  Hf39  1  0.10456517  0.69977055  0.89931173  1
  Hf  Hf40  1  0.60270266  0.40529765  0.40664815  1
  Hf  Hf41  1  0.19750797  0.80019249  0.40433236  1
  Hf  Hf42  1  0.59929239  0.00287506  0.80103998  1
  Hf  Hf43  1  0.80136228  0.00257670  0.19554416  1
  Hf  Hf44  1  0.90296838  0.30493740  0.29381293  1
  Hf  Hf45  1  0.80291191  0.40158490  0.59658255  1
  Hf  Hf46  1  0.29093159  0.08988661  0.10126209  1
  Hf  Hf47  1  0.21029563  0.40450740  0.60784982  1
  Hf  Hf48  1  0.50036079  0.31505529  0.69854329  1
  Hf  Hf49  1  0.50454264  0.10759455  0.50813873  1
  Zr  Zr50  1  0.79348452  0.78815881  0.59315370  1
  Zr  Zr51  1  0.58859631  -0.01565295  -0.00252034  1
  Zr  Zr52  1  0.51028276  0.89795370  0.51204490  1
  Zr  Zr53  1  0.29281733  0.30704598  0.09607899  1
  Zr  Zr54  1  -0.00859418  0.58360590  0.59899585  1
  Zr  Zr55  1  0.39870937  0.60190429  0.00427377  1
  Zr  Zr56  1  0.29521087  0.49843822  0.89293974  1
  Zr  Zr57  1  0.51221007  0.30072614  0.09519988  1
  Zr  Zr58  1  0.40151901  0.79629490  0.40537357  1
  Zr  Zr59  1  0.49614149  0.10923989  0.70504303  1
  Zr  Zr60  1  0.90140444  0.90684704  0.29808709  1
  Zr  Zr61  1  0.89760434  0.48535528  0.29984397  1
  Zr  Zr62  1  0.81155863  0.18917744  0.39849117  1
  Zr  Zr63  1  0.20408877  0.80351826  0.60371858  1
  Zr  Zr64  1  0.90502253  0.30580953  0.49151964  1
  Zr  Zr65  1  0.80084472  0.01283344  0.78266012  1
  Zr  Zr66  1  0.09836558  0.69583492  0.50521796  1
  Zr  Zr67  1  0.40504147  0.40523153  0.20231537  1
  Zr  Zr68  1  0.29621119  0.50507854  0.30633739  1
  Zr  Zr69  1  0.61236697  0.41072206  -0.00601415  1
  Zr  Zr70  1  0.09899381  0.90249042  0.10329667  1
  Zr  Zr71  1  0.00212723  0.20251955  -0.01051811  1
  Zr  Zr72  1  0.10553102  0.49948108  0.89844365  1
  Zr  Zr73  1  -0.00562480  0.00217383  0.80049374  1
  Zr  Zr74  1  0.71140113  0.09388096  0.50647679  1
  Zr  Zr75  1  0.60481696  0.59341012  0.79913114  1
  Zr  Zr76  1  0.51036043  0.30479482  0.30216464  1
  Zr  Zr77  1  0.50397616  0.11597272  0.90283546  1
  Zr  Zr78  1  0.89600993  0.10782428  0.09236094  1
  Zr  Zr79  1  0.38824726  0.20576296  -0.00512207  1
  Zr  Zr80  1  0.29229719  0.09711975  0.30559159  1
  Zr  Zr81  1  0.40063011  0.59986259  0.19951275  1
  Zr  Zr82  1  0.00338548  0.59558022  0.79127792  1
  Zr  Zr83  1  0.09906893  0.90626241  0.29207589  1
  Zr  Zr84  1  0.89344483  0.70044371  0.89576602  1
  Zr  Zr85  1  0.80162015  0.59395314  0.19324689  1
  Zr  Zr86  1  0.69609615  0.10762123  0.08873108  1
  Zr  Zr87  1  -0.00104219  0.40181298  0.79031825  1
  Zr  Zr88  1  0.40510450  -0.00880633  -0.00054414  1
  Zr  Zr89  1  0.19536810  0.20509604  0.19766908  1
  Zr  Zr90  1  0.00149025  0.40312812  0.60075944  1
  Zr  Zr91  1  -0.00555543  -0.00079408  -0.00786247  1
  Zr  Zr92  1  -0.01071064  0.01121947  0.40730843  1
  Zr  Zr93  1  0.88576679  0.88665012  0.89863746  1
  Zr  Zr94  1  0.19906778  -0.00463984  0.60448140  1
  Zr  Zr95  1  0.50590710  0.89104399  0.70237942  1
  Zr  Zr96  1  0.69617754  0.89053905  0.69447560  1
  Zr  Zr97  1  0.70263023  0.09951361  0.29990423  1
  Zr  Zr98  1  0.79121379  0.58974626  0.00080380  1
  Zr  Zr99  1  0.19607236  0.60165990  0.01699053  1
  Ta  Ta100  1  0.50916583  0.50016039  0.10213785  1
  Ta  Ta101  1  0.60106801  0.79083069  0.40636293  1
  Ta  Ta102  1  0.88656312  0.90822986  0.50466964  1
  Ta  Ta103  1  0.09948343  0.09656860  0.10072650  1
  Ta  Ta104  1  0.69919374  0.70438199  0.90101498  1
  Ta  Ta105  1  0.39731191  0.00148969  0.60228592  1
  Ta  Ta106  1  0.10272055  0.30196549  0.70224924  1
  Ta  Ta107  1  0.50686857  0.70349915  0.89722417  1
  Ta  Ta108  1  0.40237747  0.80002582  0.19743891  1
  Ta  Ta109  1  0.09091716  0.30470527  0.09877190  1
  Ta  Ta110  1  0.70467458  0.49582880  0.30251546  1
  Ta  Ta111  1  0.60762397  0.40427050  0.79625618  1
  Ta  Ta112  1  0.30498269  0.68567365  0.49909685  1
  Ta  Ta113  1  0.70925456  0.30479734  0.70325294  1
  Ta  Ta114  1  0.89937873  0.30782476  0.10215388  1
  Ta  Ta115  1  0.20443509  0.80063583  0.79057203  1
  Ta  Ta116  1  0.60791796  0.20429870  0.20061176  1
  Ta  Ta117  1  -0.00063249  0.19735508  0.40018188  1
  Ta  Ta118  1  0.59758211  0.79688817  0.20225838  1
  Ta  Ta119  1  0.60196954  0.59589936  0.20192166  1
  Ta  Ta120  1  0.70099117  0.90203523  0.50375804  1
  Ta  Ta121  1  0.29675006  0.69606051  0.30232516  1
  Ta  Ta122  1  0.50511899  0.10556644  0.10048260  1
  Ta  Ta123  1  0.61183890  0.20720812  0.60507584  1
  Ta  Ta124  1  0.09829855  0.30866750  0.89953453  1
  Ta  Ta125  1  0.10939608  0.48989722  0.49405477  1
  Ta  Ta126  1  0.29881977  0.89457932  0.89562794  1
  Ta  Ta127  1  0.70423573  0.30055112  0.50277141  1
  Ta  Ta128  1  0.69385512  0.70285315  0.09697555  1
  Ta  Ta129  1  0.80175189  0.40270733  0.00180678  1
  Ta  Ta130  1  0.19511813  -0.00425005  0.41244893  1
  Ta  Ta131  1  0.89402452  0.70016622  0.69746641  1
  Ta  Ta132  1  0.50126023  0.89671787  0.29980658  1
  Ta  Ta133  1  0.39787732  0.59933163  0.78693808  1
  Ta  Ta134  1  0.70834532  0.30197708  0.89794068  1
  Ta  Ta135  1  0.39856360  0.40673878  0.00013896  1
  Ta  Ta136  1  0.59538053  -0.00546786  0.19375208  1
  Ta  Ta137  1  0.10833994  0.89355347  0.89747964  1
  Ta  Ta138  1  0.50887433  0.69958192  0.09848898  1
  Ta  Ta139  1  0.29606524  0.89798149  0.10348869  1
  Ta  Ta140  1  0.69800455  0.69044671  0.30230802  1
  Ta  Ta141  1  0.60427921  0.59836985  0.00112241  1
  Ta  Ta142  1  0.20128878  0.59702078  0.40298043  1
  Ta  Ta143  1  0.20506532  0.21307162  0.60489375  1
  Ta  Ta144  1  0.69640239  0.89077803  0.09390863  1
  Ta  Ta145  1  0.70774857  0.30155979  0.10172265  1
  Ta  Ta146  1  0.89289917  0.30474699  0.89571887  1
  Ta  Ta147  1  0.40683690  -0.00527673  0.19494309  1
  Ta  Ta148  1  0.19249289  0.40664519  0.19932174  1
  Ta  Ta149  1  0.80774146  0.19797557  0.61072326  1
  Ti  Ti150  1  0.19140556  -0.01199178  0.79625385  1
  Ti  Ti151  1  0.88698808  0.11434652  0.89568793  1
  Ti  Ti152  1  0.38969132  0.21510626  0.79912956  1
  Ti  Ti153  1  0.29472330  0.49910839  0.10552642  1
  Ti  Ti154  1  -0.00494742  0.40318986  0.00199191  1
  Ti  Ti155  1  0.10670112  0.30146861  0.49556491  1
  Ti  Ti156  1  0.10649118  0.69240099  0.29531062  1
  Ti  Ti157  1  0.61116009  0.20648606  0.79164156  1
  Ti  Ti158  1  0.60685266  0.01288076  0.61185626  1
  Ti  Ti159  1  0.08601489  0.89772983  0.51391148  1
  Ti  Ti160  1  0.39414220  0.58833929  0.60181827  1
  Ti  Ti161  1  0.30143488  0.90210934  0.50222583  1
  Ti  Ti162  1  0.50879530  0.49869140  0.53072195  1
  Ti  Ti163  1  0.60726702  0.20584888  0.40367996  1
  Ti  Ti164  1  0.69403726  0.70048385  0.69879546  1
  Ti  Ti165  1  0.50911958  0.30676664  0.51202170  1
  Ti  Ti166  1  0.80086734  0.20175903  0.19993604  1
  Ti  Ti167  1  0.10338523  0.09815454  0.89861677  1
  Ti  Ti168  1  0.29568871  0.70316649  0.10981291  1
  Ti  Ti169  1  0.09706742  0.49181360  0.10287081  1
  Ti  Ti170  1  0.90001752  0.89773757  0.09671463  1
  Ti  Ti171  1  0.00009994  0.59343227  0.00480952  1
  Ti  Ti172  1  0.30542904  0.90168974  0.70668304  1
  Ti  Ti173  1  0.00498877  0.80275085  -0.00381631  1
  Ti  Ti174  1  -0.00852311  0.20570477  0.79630103  1
  Ti  Ti175  1  0.19453121  0.20378813  -0.00441795  1
  Ti  Ti176  1  0.29273981  0.10415225  0.50244011  1
  Ti  Ti177  1  0.09989521  0.70340857  0.10301215  1
  Ti  Ti178  1  0.79751867  -0.00581749  -0.00296695  1
  Ti  Ti179  1  0.19607539  0.40057270  0.00215386  1
  Ti  Ti180  1  0.10149237  0.49299992  0.30385587  1
  Ti  Ti181  1  0.70865493  0.30994332  0.29750551  1
  Ti  Ti182  1  0.20034677  0.79384009  0.20043790  1
  Ti  Ti183  1  0.20934745  0.59126570  0.60122394  1
  Ti  Ti184  1  0.78964664  0.59876783  0.79499907  1
  Ti  Ti185  1  0.90143433  0.69586715  0.50174295  1
  Ti  Ti186  1  0.69957396  0.48942209  0.11383783  1
  Ti  Ti187  1  0.69047872  0.49436289  0.68921097  1
  Ti  Ti188  1  0.39908626  0.79267162  0.79594633  1
  Ti  Ti189  1  0.20394172  0.80100517  0.00078959  1
  Ti  Ti190  1  0.40862461  -0.00959167  0.80598196  1
  Ti  Ti191  1  -0.00645710  0.20725613  0.60346492  1
  Ti  Ti192  1  -0.00012025  0.79556582  0.20101963  1
  Ti  Ti193  1  0.88316061  0.49883922  0.70665943  1
  Ti  Ti194  1  0.89008489  0.88839370  0.69192043  1
  Ti  Ti195  1  0.29407120  0.31276655  0.49700570  1
  Ti  Ti196  1  -0.00339530  0.19619574  0.19990205  1
  Ti  Ti197  1  0.20765138  0.59618599  0.77742287  1
  Ti  Ti198  1  0.29602992  0.31802373  0.89342190  1
  Ti  Ti199  1  0.19613702  -0.00785988  -0.00344147  1
  Mo  Mo200  1  0.69211932  0.69356722  0.49497186  1
  Mo  Mo201  1  0.19325342  0.60073444  0.20508130  1
  Mo  Mo202  1  0.60125132  0.78157565  0.58687072  1
  Mo  Mo203  1  0.90598616  0.10482613  0.28889310  1
  Mo  Mo204  1  0.79968451  -0.00512740  0.40439330  1
  Mo  Mo205  1  0.79467775  0.79878594  0.00564415  1
  Mo  Mo206  1  0.80311539  0.21584506  -0.00322571  1
  Mo  Mo207  1  0.70043882  0.11212630  0.70152522  1
  Mo  Mo208  1  0.60880875  0.40265006  0.20527354  1
  Mo  Mo209  1  0.49813777  0.49717814  0.69856585  1
  Mo  Mo210  1  0.90153063  0.29918499  0.70335024  1
  Mo  Mo211  1  0.59845284  0.78956217  0.79945723  1
  Mo  Mo212  1  0.20107451  0.40307321  0.40460167  1
  Mo  Mo213  1  0.11552270  0.50079834  0.69445248  1
  Mo  Mo214  1  0.90670798  0.49140706  0.09453369  1
  Mo  Mo215  1  0.30988011  0.49745164  0.69858234  1
  Mo  Mo216  1  0.79519205  0.40522561  0.79670647  1
  Mo  Mo217  1  0.79581869  0.78519944  0.78934811  1
  Mo  Mo218  1  0.39986189  0.40508810  0.60139396  1
  Mo  Mo219  1  0.30228700  0.50518674  0.50333489  1
  Mo  Mo220  1  0.70155590  0.49415527  0.49693885  1
  Mo  Mo221  1  0.79910456  0.39626135  0.19575886  1
  Mo  Mo222  1  -0.01243945  0.80562077  0.59940468  1
  Mo  Mo223  1  0.40287278  0.59782120  0.41172590  1
  Mo  Mo224  1  -0.00514783  0.01191444  0.19293563  1
  Mo  Mo225  1  0.30234793  0.69319317  0.69687649  1
  Mo  Mo226  1  0.80123724  0.00267825  0.60207340  1
  Mo  Mo227  1  0.50097199  0.89298995  0.11115856  1
  Mo  Mo228  1  0.60717491  0.21175618  0.00251787  1
  Mo  Mo229  1  0.19707073  0.20253022  0.41520833  1
  Mo  Mo230  1  0.49738679  0.68862965  0.50432184  1
  Mo  Mo231  1  0.00523379  0.40078170  0.19325531  1
  Mo  Mo232  1  0.79687903  0.59383123  0.40436482  1
  Mo  Mo233  1  0.20097606  -0.00086981  0.19411375  1
  Mo  Mo234  1  0.20002784  0.39847557  0.79509099  1
  Mo  Mo235  1  0.39837150  0.40582112  0.79686997  1
  Mo  Mo236  1  0.60752303  0.39738558  0.60106337  1
  Mo  Mo237  1  0.30150291  0.30557773  0.70836796  1
  Mo  Mo238  1  0.59721225  0.79215464  0.00082770  1
  Mo  Mo239  1  0.79315735  0.39859808  0.40030750  1
  Mo  Mo240  1  0.89352125  0.49947925  0.48645038  1
  Mo  Mo241  1  0.09814452  0.89946233  0.70273745  1
  Mo  Mo242  1  0.90350192  0.10378027  0.50974513  1
  Mo  Mo243  1  0.49535361  0.88259390  0.88581681  1
  Mo  Mo244  1  0.60532367  0.59326291  0.60061639  1
  Mo  Mo245  1  0.00720885  0.39888976  0.40280807  1
  Mo  Mo246  1  0.80445329  0.20868796  0.79848665  1
  Mo  Mo247  1  0.50946260  0.50163080  0.29188044  1
  Mo  Mo248  1  0.90251737  0.11407078  0.70169322  1
  Mo  Mo249  1  0.70454916  0.49888975  0.89045987  1
