# generated using pymatgen
data_HfZrTaTiMo
_symmetry_space_group_name_H-M   'P 1'
_cell_length_a   16.88789082
_cell_length_b   16.89665724
_cell_length_c   16.88824871
_cell_angle_alpha   89.98618838
_cell_angle_beta   89.96962105
_cell_angle_gamma   89.97097792
_symmetry_Int_Tables_number   1
_chemical_formula_structural   HfZrTaTiMo
_chemical_formula_sum   'Hf50 Zr50 Ta50 Ti50 Mo50'
_cell_volume   4819.04180370
_cell_formula_units_Z   50
loop_
 _symmetry_equiv_pos_site_id
 _symmetry_equiv_pos_as_xyz
  1  'x, y, z'
loop_
 _atom_site_type_symbol
 _atom_site_label
 _atom_site_symmetry_multiplicity
 _atom_site_fract_x
 _atom_site_fract_y
 _atom_site_fract_z
 _atom_site_occupancy
  Hf  Hf0  1  0.69785743  0.29767711  0.09939848  1
  Hf  Hf1  1  0.29344388  0.49638651  0.50559996  1
  Hf  Hf2  1  0.39596896  0.38901821  0.80176532  1
  Hf  Hf3  1  0.10188213  0.90646927  0.29159125  1
  Hf  Hf4  1  0.10236728  0.30475931  0.29873013  1
  Hf  Hf5  1  0.91504716  0.89738210  0.10570321  1
  Hf  Hf6  1  0.49513505  0.50935598  0.89336219  1
  Hf  Hf7  1  0.20811742  0.20550532  0.18419300  1
  Hf  Hf8  1  0.40240529  0.79526882  0.40005136  1
  Hf  Hf9  1  0.01268292  0.19733111  0.59784227  1
  Hf  Hf10  1  0.70027906  0.49881452  0.89030739  1
  Hf  Hf11  1  0.39681043  0.80358735  0.79540548  1
  Hf  Hf12  1  0.69082797  0.89990296  0.50022193  1
  Hf  Hf13  1  0.00525298  0.01138704  0.41400529  1
  Hf  Hf14  1  0.90457893  0.90568821  0.70936872  1
  Hf  Hf15  1  0.91086527  0.70495071  0.10207350  1
  Hf  Hf16  1  0.59833979  0.60654300  0.20201291  1
  Hf  Hf17  1  0.08813632  0.70604026  0.89626185  1
  Hf  Hf18  1  0.30316750  0.69917153  0.89939572  1
  Hf  Hf19  1  0.60601120  0.19596660  0.60472309  1
  Hf  Hf20  1  0.50570964  0.90747848  0.49599131  1
  Hf  Hf21  1  0.49128398  0.10397501  0.89709632  1
  Hf  Hf22  1  0.79247945  0.79897285  0.20502775  1
  Hf  Hf23  1  0.30093361  0.50308942  0.89488996  1
  Hf  Hf24  1  0.20534597  0.81075602  -0.00666950  1
  Hf  Hf25  1  0.20515450  0.38798089  -0.00512160  1
  Hf  Hf26  1  0.49788147  0.90347902  0.29823236  1
  Hf  Hf27  1  0.00498476  0.00500614  -0.00816839  1
  Hf  Hf28  1  0.59969898  0.20516061  0.40015760  1
  Hf  Hf29  1  0.60276232  0.39831657  0.40597090  1
  Hf  Hf30  1  0.10223916  0.49697099  0.69715379  1
  Hf  Hf31  1  0.49444136  0.28971257  0.09608044  1
  Hf  Hf32  1  0.70313123  0.48924551  0.09540802  1
  Hf  Hf33  1  0.90835830  0.10178283  0.29676499  1
  Hf  Hf34  1  0.78103922  0.18281478  -0.00708110  1
  Hf  Hf35  1  0.39945330  0.60793714  0.59916466  1
  Hf  Hf36  1  0.09550075  0.49520451  0.09217232  1
  Hf  Hf37  1  0.79944047  0.79656935  -0.00068736  1
  Hf  Hf38  1  0.50098747  0.09380947  0.49997905  1
  Hf  Hf39  1  0.20330328  0.19995906  0.61099155  1
  Hf  Hf40  1  0.30105438  0.90486708  0.50475836  1
  Hf  Hf41  1  0.89706682  0.29107825  0.69768100  1
  Hf  Hf42  1  0.10579353  0.49568626  0.50729935  1
  Hf  Hf43  1  0.20063300  0.59365065  0.19423040  1
  Hf  Hf44  1  0.80369775  0.60538675  -0.00365585  1
  Hf  Hf45  1  0.60387675  0.79379032  0.78318494  1
  Hf  Hf46  1  0.79568865  0.79142103  0.61582541  1
  Hf  Hf47  1  0.30500337  0.90079238  0.10393869  1
  Hf  Hf48  1  0.09886171  0.70058772  0.29274721  1
  Hf  Hf49  1  0.29638815  0.49755367  0.29652580  1
  Zr  Zr50  1  0.10508737  0.90315397  0.51405447  1
  Zr  Zr51  1  0.30456799  0.70049400  0.10229581  1
  Zr  Zr52  1  0.39362692  0.00367449  -0.00332564  1
  Zr  Zr53  1  0.79664011  -0.00102675  0.20673846  1
  Zr  Zr54  1  0.49157450  0.50618810  0.29615804  1
  Zr  Zr55  1  0.60835757  0.19291275  0.81149583  1
  Zr  Zr56  1  0.59871476  0.60943349  0.01449785  1
  Zr  Zr57  1  0.70991686  0.30765158  0.70482821  1
  Zr  Zr58  1  0.80164920  -0.00168268  -0.00624989  1
  Zr  Zr59  1  0.09346471  0.70858346  0.09545833  1
  Zr  Zr60  1  0.90402057  0.49369923  0.70247787  1
  Zr  Zr61  1  0.09352221  0.50088855  0.89288783  1
  Zr  Zr62  1  0.89856282  0.29816457  0.29651877  1
  Zr  Zr63  1  0.30463875  0.09806661  0.49787981  1
  Zr  Zr64  1  0.80088741  0.00025354  0.39923404  1
  Zr  Zr65  1  0.69907415  0.69679774  0.50173531  1
  Zr  Zr66  1  0.69382094  0.69802665  0.89357003  1
  Zr  Zr67  1  0.90032559  0.49099411  0.09194445  1
  Zr  Zr68  1  0.09899553  0.90382978  0.89122928  1
  Zr  Zr69  1  0.70258384  0.90024910  0.88697961  1
  Zr  Zr70  1  0.68924454  0.90500634  0.10716097  1
  Zr  Zr71  1  0.39844468  0.79359254  0.60266087  1
  Zr  Zr72  1  0.40054261  0.60740543  0.40753005  1
  Zr  Zr73  1  0.89883807  0.29440874  0.89801581  1
  Zr  Zr74  1  0.49831175  0.69573876  0.89526212  1
  Zr  Zr75  1  0.60196134  0.01186198  -0.00553791  1
  Zr  Zr76  1  0.80891210  0.60812304  0.79498588  1
  Zr  Zr77  1  0.59030742  0.39471240  0.20712486  1
  Zr  Zr78  1  0.50135551  0.91107585  0.70132134  1
  Zr  Zr79  1  0.58453812  0.39938030  -0.00481865  1
  Zr  Zr80  1  0.00515103  0.78725393  0.60801968  1
  Zr  Zr81  1  0.29303658  0.49539147  0.69339811  1
  Zr  Zr82  1  0.70508165  0.31083116  0.90160409  1
  Zr  Zr83  1  0.00210495  0.79918388  0.40442657  1
  Zr  Zr84  1  0.20316313  0.79256002  0.40668084  1
  Zr  Zr85  1  0.80174570  0.59073184  0.39897534  1
  Zr  Zr86  1  0.90602870  0.10496101  0.10034371  1
  Zr  Zr87  1  0.79905393  0.20120083  0.40808135  1
  Zr  Zr88  1  0.40764004  0.39689553  0.40177226  1
  Zr  Zr89  1  0.50261069  0.29412693  0.70585373  1
  Zr  Zr90  1  0.30252723  0.09591897  0.30125075  1
  Zr  Zr91  1  0.00223446  0.59091509  0.40266850  1
  Zr  Zr92  1  0.80150999  0.80326090  0.39458023  1
  Zr  Zr93  1  0.19229028  0.20183402  0.41105720  1
  Zr  Zr94  1  0.19806513  0.61113919  0.78962750  1
  Zr  Zr95  1  0.90061483  0.90389885  0.51166518  1
  Zr  Zr96  1  0.49667392  0.09201948  0.30367667  1
  Zr  Zr97  1  0.10126524  0.09879902  0.29164941  1
  Zr  Zr98  1  0.89322927  0.29943608  0.09185646  1
  Zr  Zr99  1  0.79569335  0.60243602  0.20275838  1
  Ta  Ta100  1  0.30802248  0.70095506  0.29128710  1
  Ta  Ta101  1  0.89696477  0.10366057  0.51760937  1
  Ta  Ta102  1  0.09973274  0.90355833  0.70394599  1
  Ta  Ta103  1  0.20048793  0.60470140  0.40204166  1
  Ta  Ta104  1  0.00188924  0.20523988  0.41240313  1
  Ta  Ta105  1  0.39021201  0.39593776  0.00094551  1
  Ta  Ta106  1  0.90851747  0.70087129  0.29557758  1
  Ta  Ta107  1  0.40224442  0.20942411  0.40205458  1
  Ta  Ta108  1  0.89963938  0.69126370  0.50323380  1
  Ta  Ta109  1  -0.00112266  0.39169775  0.59205359  1
  Ta  Ta110  1  0.50154882  0.90205613  0.89760462  1
  Ta  Ta111  1  0.40335432  0.39567601  0.60523119  1
  Ta  Ta112  1  0.30112851  0.30460070  0.50720391  1
  Ta  Ta113  1  0.71339550  0.09434867  0.70197637  1
  Ta  Ta114  1  0.59279479  0.80033906  0.00732361  1
  Ta  Ta115  1  0.40552903  0.80741589  -0.00253997  1
  Ta  Ta116  1  0.20146589  0.37930745  0.80183265  1
  Ta  Ta117  1  0.49870329  0.90222290  0.10543545  1
  Ta  Ta118  1  0.20420624  0.80440900  0.20143209  1
  Ta  Ta119  1  0.10043212  0.90554331  0.10146185  1
  Ta  Ta120  1  0.90520310  0.10137821  0.89068881  1
  Ta  Ta121  1  0.90285358  0.09932085  0.70236398  1
  Ta  Ta122  1  0.30462517  0.90483973  0.29855528  1
  Ta  Ta123  1  0.39453402  0.00785918  0.61117388  1
  Ta  Ta124  1  0.80395343  0.40204956  0.59048446  1
  Ta  Ta125  1  0.20056719  0.59708131  -0.00016177  1
  Ta  Ta126  1  0.59386571  0.79374191  0.20122660  1
  Ta  Ta127  1  0.19453128  0.01366489  0.61147105  1
  Ta  Ta128  1  0.59741982  0.59907998  0.40022790  1
  Ta  Ta129  1  0.48395049  0.50310918  0.10318235  1
  Ta  Ta130  1  0.30007791  0.30224332  0.30104875  1
  Ta  Ta131  1  0.50055547  0.29816808  0.50887337  1
  Ta  Ta132  1  0.00372554  0.39867770  0.20065649  1
  Ta  Ta133  1  0.39025593  0.39333785  0.19186636  1
  Ta  Ta134  1  0.00061795  0.59061108  0.20318184  1
  Ta  Ta135  1  -0.00492937  0.39531181  0.40771652  1
  Ta  Ta136  1  0.00490591  0.38945448  0.79766353  1
  Ta  Ta137  1  0.10245626  0.10172831  0.09229580  1
  Ta  Ta138  1  0.19553759  0.62589350  0.59500236  1
  Ta  Ta139  1  0.20004831  0.19252163  0.80371679  1
  Ta  Ta140  1  0.19977201  0.80176405  0.79227074  1
  Ta  Ta141  1  0.70195284  0.30036734  0.30043587  1
  Ta  Ta142  1  0.00753175  0.20545691  0.19251401  1
  Ta  Ta143  1  0.20662220  0.01021442  -0.00916648  1
  Ta  Ta144  1  0.59500171  0.20083604  0.20724215  1
  Ta  Ta145  1  0.28923030  0.90635354  0.70023208  1
  Ta  Ta146  1  0.00135276  0.60085277  0.60326266  1
  Ta  Ta147  1  0.80459971  0.40099500  0.40894081  1
  Ta  Ta148  1  0.60127802  0.40439264  0.60058422  1
  Ta  Ta149  1  0.39727662  0.20029966  0.60681002  1
  Ti  Ti150  1  0.68525240  0.10077133  0.11240371  1
  Ti  Ti151  1  0.20551517  0.00586640  0.18803850  1
  Ti  Ti152  1  0.38276657  0.00223250  0.80264967  1
  Ti  Ti153  1  0.40076585  0.61182552  0.77990542  1
  Ti  Ti154  1  -0.00815059  0.60189696  -0.01096878  1
  Ti  Ti155  1  0.09443618  0.29557064  0.08956026  1
  Ti  Ti156  1  0.59337131  0.40237847  0.79653971  1
  Ti  Ti157  1  0.79938476  0.19144617  0.80189197  1
  Ti  Ti158  1  0.90028542  0.49108337  0.89441143  1
  Ti  Ti159  1  0.91741849  0.89999761  0.29106916  1
  Ti  Ti160  1  0.49319418  0.28837112  0.90576405  1
  Ti  Ti161  1  0.60651343  0.00366728  0.61068972  1
  Ti  Ti162  1  0.50198183  0.50232367  0.69987391  1
  Ti  Ti163  1  0.50441834  0.49975727  0.50837653  1
  Ti  Ti164  1  0.90381869  0.49467611  0.29928949  1
  Ti  Ti165  1  0.39340866  0.59648411  0.00837819  1
  Ti  Ti166  1  0.10276146  0.30231311  0.69859932  1
  Ti  Ti167  1  0.69998104  0.50264160  0.50628678  1
  Ti  Ti168  1  0.68948569  0.70436442  0.30902601  1
  Ti  Ti169  1  0.80126008  0.39956729  0.20684217  1
  Ti  Ti170  1  0.80424338  0.79418739  0.79318908  1
  Ti  Ti171  1  0.67895087  0.90611310  0.30598204  1
  Ti  Ti172  1  0.00918478  0.01242094  0.79755535  1
  Ti  Ti173  1  0.20042997  0.19779034  -0.01005828  1
  Ti  Ti174  1  0.70363764  0.09451533  0.50529528  1
  Ti  Ti175  1  0.79717728  -0.00336401  0.60759104  1
  Ti  Ti176  1  0.00298603  0.38946104  -0.01114120  1
  Ti  Ti177  1  0.37889054  0.19830346  0.00194976  1
  Ti  Ti178  1  0.48572794  0.70479639  0.11176870  1
  Ti  Ti179  1  0.51665157  0.70531518  0.49797482  1
  Ti  Ti180  1  0.79268129  0.19621699  0.20293882  1
  Ti  Ti181  1  0.19722607  0.39558201  0.40488153  1
  Ti  Ti182  1  0.69984247  0.49409183  0.30283634  1
  Ti  Ti183  1  0.80634189  0.59741454  0.60258286  1
  Ti  Ti184  1  0.60840439  0.00331804  0.79574061  1
  Ti  Ti185  1  0.19723893  0.00217743  0.40554291  1
  Ti  Ti186  1  0.50110922  0.10569145  0.09871702  1
  Ti  Ti187  1  0.49557234  0.09949864  0.70692421  1
  Ti  Ti188  1  0.39837353  0.00965668  0.19142332  1
  Ti  Ti189  1  0.60075405  0.60060631  0.60863310  1
  Ti  Ti190  1  0.60444954  0.79686137  0.61031616  1
  Ti  Ti191  1  0.01601928  0.19910815  0.80396530  1
  Ti  Ti192  1  0.90864192  0.89227011  0.89268410  1
  Ti  Ti193  1  0.38063040  0.19915985  0.79709986  1
  Ti  Ti194  1  0.39543636  0.20214437  0.20106201  1
  Ti  Ti195  1  0.68983809  0.09531057  0.30017083  1
  Ti  Ti196  1  0.70192677  0.49852143  0.70072505  1
  Ti  Ti197  1  0.20361734  0.39568907  0.18689851  1
  Ti  Ti198  1  0.70453066  0.29943546  0.50750645  1
  Ti  Ti199  1  0.10259191  0.49234544  0.29984729  1
  Mo  Mo200  1  0.70105708  0.68681719  0.69522045  1
  Mo  Mo201  1  0.00270120  0.00817714  0.61058380  1
  Mo  Mo202  1  0.09896331  0.09901714  0.50755776  1
  Mo  Mo203  1  0.30270389  0.90219008  0.89371896  1
  Mo  Mo204  1  0.59255313  0.00604008  0.19981865  1
  Mo  Mo205  1  0.81107449  0.00215491  0.79923260  1
  Mo  Mo206  1  0.10348522  0.30526755  0.49993819  1
  Mo  Mo207  1  0.69566840  0.70763304  0.10356744  1
  Mo  Mo208  1  0.01069187  0.00694604  0.19393819  1
  Mo  Mo209  1  0.29485991  0.10187929  0.89747584  1
  Mo  Mo210  1  0.09637622  0.69428334  0.49898019  1
  Mo  Mo211  1  0.30122314  0.29670857  0.09741849  1
  Mo  Mo212  1  0.50156572  0.70268884  0.30052408  1
  Mo  Mo213  1  0.29716265  0.10247293  0.09592789  1
  Mo  Mo214  1  0.80508897  0.40654546  -0.00962026  1
  Mo  Mo215  1  0.59707923  0.59392755  0.78065828  1
  Mo  Mo216  1  0.60590786  0.00479573  0.40059619  1
  Mo  Mo217  1  0.80769064  0.40410802  0.79441995  1
  Mo  Mo218  1  0.70645029  0.09407170  0.88761960  1
  Mo  Mo219  1  0.90461295  0.69392065  0.70171076  1
  Mo  Mo220  1  0.19830715  0.38607384  0.60444697  1
  Mo  Mo221  1  0.59360566  0.19393542  0.00693792  1
  Mo  Mo222  1  0.00656217  0.80307339  0.20221293  1
  Mo  Mo223  1  0.59635442  0.79561907  0.39352215  1
  Mo  Mo224  1  0.40070285  0.80214997  0.20093518  1
  Mo  Mo225  1  0.10046899  0.10487861  0.89891567  1
  Mo  Mo226  1  -0.00267466  0.60160395  0.79683490  1
  Mo  Mo227  1  0.79907262  0.19500224  0.60224597  1
  Mo  Mo228  1  0.20208357  0.00214741  0.79940737  1
  Mo  Mo229  1  0.01049526  0.19823014  -0.00479141  1
  Mo  Mo230  1  0.29996141  0.29574875  0.69973113  1
  Mo  Mo231  1  0.39496258  -0.00568552  0.40575127  1
  Mo  Mo232  1  0.29603324  0.71147663  0.69545717  1
  Mo  Mo233  1  0.30124661  0.09816581  0.70666948  1
  Mo  Mo234  1  0.29436487  0.70179244  0.49756757  1
  Mo  Mo235  1  0.30064746  0.29163281  0.89960923  1
  Mo  Mo236  1  0.90676590  0.71104384  0.89699122  1
  Mo  Mo237  1  0.90145397  0.49734547  0.50608929  1
  Mo  Mo238  1  -0.00161512  0.80910015  -0.00500540  1
  Mo  Mo239  1  0.10009730  0.29410265  0.89648167  1
  Mo  Mo240  1  0.10005636  0.09766504  0.70820340  1
  Mo  Mo241  1  0.19878428  0.80283795  0.60931948  1
  Mo  Mo242  1  0.70271528  0.90850534  0.69707877  1
  Mo  Mo243  1  0.39733396  0.59914253  0.19869145  1
  Mo  Mo244  1  0.50536708  0.69310318  0.69378520  1
  Mo  Mo245  1  0.29878543  0.49524552  0.09403674  1
  Mo  Mo246  1  0.09705985  0.70259265  0.70431011  1
  Mo  Mo247  1  0.49435362  0.29390771  0.29765053  1
  Mo  Mo248  1  -0.00298238  0.79614403  0.79766158  1
  Mo  Mo249  1  0.89964086  0.29837278  0.50229963  1
