# generated using pymatgen
data_HfZrTaTiMo
_symmetry_space_group_name_H-M   'P 1'
_cell_length_a   16.88276814
_cell_length_b   16.87547535
_cell_length_c   16.89544333
_cell_angle_alpha   89.98632428
_cell_angle_beta   90.01569963
_cell_angle_gamma   90.02264149
_symmetry_Int_Tables_number   1
_chemical_formula_structural   HfZrTaTiMo
_chemical_formula_sum   'Hf50 Zr50 Ta50 Ti50 Mo50'
_cell_volume   4813.59115535
_cell_formula_units_Z   50
loop_
 _symmetry_equiv_pos_site_id
 _symmetry_equiv_pos_as_xyz
  1  'x, y, z'
loop_
 _atom_site_type_symbol
 _atom_site_label
 _atom_site_symmetry_multiplicity
 _atom_site_fract_x
 _atom_site_fract_y
 _atom_site_fract_z
 _atom_site_occupancy
  Hf  Hf0  1  0.90571395  0.29912482  0.10256133  1
  Hf  Hf1  1  0.09921485  0.89958542  0.90196282  1
  Hf  Hf2  1  0.49998647  0.10179670  0.10579123  1
  Hf  Hf3  1  0.49955536  0.89624864  0.70099648  1
  Hf  Hf4  1  0.39971872  0.40185514  0.79735771  1
  Hf  Hf5  1  0.11127497  0.10354424  0.50337543  1
  Hf  Hf6  1  0.78884573  -0.00316832  0.00737646  1
  Hf  Hf7  1  0.89948191  0.10091565  0.50052390  1
  Hf  Hf8  1  0.70518630  0.30628675  0.89245108  1
  Hf  Hf9  1  0.20809199  -0.00324647  0.40184853  1
  Hf  Hf10  1  0.69639142  0.29084956  0.11274471  1
  Hf  Hf11  1  0.60267045  0.80315820  0.00455143  1
  Hf  Hf12  1  0.59637819  0.00997579  0.79216626  1
  Hf  Hf13  1  0.38974624  0.39467573  0.40223883  1
  Hf  Hf14  1  0.58977333  0.61439031  0.20089314  1
  Hf  Hf15  1  0.90651847  0.89573914  0.90937029  1
  Hf  Hf16  1  0.69326967  0.70553362  0.49282366  1
  Hf  Hf17  1  0.49919210  0.30062795  0.10627715  1
  Hf  Hf18  1  -0.00342398  0.40127442  0.40496650  1
  Hf  Hf19  1  0.90070661  0.50295794  0.09695657  1
  Hf  Hf20  1  0.50404553  0.71059769  0.88787233  1
  Hf  Hf21  1  0.20205482  0.39294397  -0.00354793  1
  Hf  Hf22  1  0.89517273  0.48843570  0.69571630  1
  Hf  Hf23  1  0.20866780  0.00717596  0.79255202  1
  Hf  Hf24  1  0.31350629  0.90662241  0.89812062  1
  Hf  Hf25  1  0.00024481  -0.00514210  0.59600922  1
  Hf  Hf26  1  0.59360194  0.40569596  0.40989485  1
  Hf  Hf27  1  0.10613426  0.30596809  0.29606215  1
  Hf  Hf28  1  0.10114427  0.49189340  0.68837489  1
  Hf  Hf29  1  0.30407873  0.50201656  0.90003494  1
  Hf  Hf30  1  0.60000457  0.59605503  0.79784824  1
  Hf  Hf31  1  0.09380385  0.49231149  0.89952066  1
  Hf  Hf32  1  0.11700383  0.69791504  0.67789598  1
  Hf  Hf33  1  0.10579467  0.89582476  0.30542743  1
  Hf  Hf34  1  0.30533030  0.70250782  0.89555812  1
  Hf  Hf35  1  0.68619998  0.28775017  0.30242990  1
  Hf  Hf36  1  0.69270756  0.70396664  0.69389931  1
  Hf  Hf37  1  0.20529896  0.80248334  0.79339564  1
  Hf  Hf38  1  0.69011695  0.50819013  0.30242319  1
  Hf  Hf39  1  0.90326481  0.29040060  0.29124356  1
  Hf  Hf40  1  0.09703443  0.30327905  0.10698102  1
  Hf  Hf41  1  0.39630828  0.20440603  0.21117061  1
  Hf  Hf42  1  0.89646635  0.90383871  0.10802810  1
  Hf  Hf43  1  0.20172849  -0.00224170  0.20312129  1
  Hf  Hf44  1  0.90697433  0.10033045  0.90114094  1
  Hf  Hf45  1  0.49383830  0.50028350  0.10094360  1
  Hf  Hf46  1  0.41070277  0.80022682  0.00644991  1
  Hf  Hf47  1  0.79696277  0.39803525  0.40716558  1
  Hf  Hf48  1  0.50576368  0.91668316  0.10342448  1
  Hf  Hf49  1  0.40789389  0.59980193  0.78924082  1
  Zr  Zr50  1  0.68869674  0.89765741  0.49398707  1
  Zr  Zr51  1  0.41043224  0.79499427  0.21449259  1
  Zr  Zr52  1  0.79966628  0.79689664  0.79779910  1
  Zr  Zr53  1  0.30052021  0.69324527  0.10530319  1
  Zr  Zr54  1  0.19958080  0.39117749  0.79637681  1
  Zr  Zr55  1  -0.00081020  -0.00717114  0.39882290  1
  Zr  Zr56  1  -0.00137509  0.60119273  0.58887097  1
  Zr  Zr57  1  0.59511325  0.80293971  0.20233265  1
  Zr  Zr58  1  0.40422955  -0.00502816  0.22342391  1
  Zr  Zr59  1  0.30288553  0.49991000  0.10926555  1
  Zr  Zr60  1  0.58786012  0.59525616  0.58868163  1
  Zr  Zr61  1  -0.00126668  0.80767288  0.20772995  1
  Zr  Zr62  1  0.60218674  0.19602321  -0.00269091  1
  Zr  Zr63  1  0.00297394  0.00056171  0.78937410  1
  Zr  Zr64  1  0.00353457  0.60610728  0.21724974  1
  Zr  Zr65  1  0.00090847  0.60238960  0.79256174  1
  Zr  Zr66  1  0.10190763  0.71045666  0.10276921  1
  Zr  Zr67  1  0.69176331  0.90038835  0.68670286  1
  Zr  Zr68  1  0.30708798  0.69610335  0.69153608  1
  Zr  Zr69  1  0.49058069  0.50142678  0.30122888  1
  Zr  Zr70  1  -0.00445831  0.79987750  0.59469628  1
  Zr  Zr71  1  0.79795368  0.19567231  0.40032396  1
  Zr  Zr72  1  0.79758364  0.40769695  0.20730534  1
  Zr  Zr73  1  0.49270855  0.29670118  0.69296131  1
  Zr  Zr74  1  0.00426399  0.60240741  -0.00271446  1
  Zr  Zr75  1  0.70844729  0.30438963  0.69308384  1
  Zr  Zr76  1  0.90279640  0.10347508  0.11042061  1
  Zr  Zr77  1  0.10647140  0.49701760  0.10820347  1
  Zr  Zr78  1  0.89064287  0.69738836  0.49343275  1
  Zr  Zr79  1  0.30650751  0.10388001  0.31466855  1
  Zr  Zr80  1  0.20543550  0.20235763  0.00033243  1
  Zr  Zr81  1  0.90156451  0.30456701  0.69377741  1
  Zr  Zr82  1  0.19834044  0.80564006  0.00338062  1
  Zr  Zr83  1  0.19152751  0.60616281  0.39856021  1
  Zr  Zr84  1  0.79251286  0.40473071  0.00127223  1
  Zr  Zr85  1  0.40955772  0.79648466  0.59476050  1
  Zr  Zr86  1  0.00139702  0.79425039  0.78674347  1
  Zr  Zr87  1  0.89568379  0.70534630  0.09885888  1
  Zr  Zr88  1  0.79782669  0.19465626  0.00092200  1
  Zr  Zr89  1  0.00161506  0.20264437  0.40349145  1
  Zr  Zr90  1  0.30195906  0.28986931  0.68739804  1
  Zr  Zr91  1  0.80149704  0.00199142  0.79582312  1
  Zr  Zr92  1  0.69158393  0.08747896  0.49728983  1
  Zr  Zr93  1  0.59635960  0.40648948  0.80049405  1
  Zr  Zr94  1  0.70925727  0.49298275  0.69553860  1
  Zr  Zr95  1  0.59970929  0.19364206  0.79581901  1
  Zr  Zr96  1  0.10368202  0.10248752  0.89573514  1
  Zr  Zr97  1  0.59374757  0.18678860  0.60270205  1
  Zr  Zr98  1  0.30609242  0.90420022  0.10305100  1
  Zr  Zr99  1  0.89580941  0.69773390  0.90392105  1
  Ta  Ta100  1  0.90414630  0.10849647  0.69200403  1
  Ta  Ta101  1  0.19964029  0.60128378  -0.00749656  1
  Ta  Ta102  1  0.39999342  0.60421247  0.40690957  1
  Ta  Ta103  1  0.10456131  0.10543830  0.10868371  1
  Ta  Ta104  1  0.30614463  0.89744509  0.50158148  1
  Ta  Ta105  1  0.70082244  0.69875819  0.10093121  1
  Ta  Ta106  1  0.49289625  0.28822331  0.49771327  1
  Ta  Ta107  1  0.80362716  -0.00013486  0.38457321  1
  Ta  Ta108  1  0.30935154  0.10418821  0.50490429  1
  Ta  Ta109  1  0.79527224  0.60696536  0.20538239  1
  Ta  Ta110  1  0.00842254  0.20340539  -0.00159520  1
  Ta  Ta111  1  0.69096424  0.89747575  0.89345465  1
  Ta  Ta112  1  0.89017667  0.70448883  0.30739287  1
  Ta  Ta113  1  0.10333065  0.10859057  0.29969765  1
  Ta  Ta114  1  0.29549636  0.70039608  0.50447089  1
  Ta  Ta115  1  0.79030869  0.80671422  0.20384653  1
  Ta  Ta116  1  0.59939804  0.40387189  0.00176356  1
  Ta  Ta117  1  0.49966981  0.29490845  0.30590626  1
  Ta  Ta118  1  0.11241452  0.88934978  0.50380953  1
  Ta  Ta119  1  0.39956797  0.39394722  0.00035736  1
  Ta  Ta120  1  0.49020553  0.09693577  0.90173674  1
  Ta  Ta121  1  0.69237516  0.90617287  0.30148120  1
  Ta  Ta122  1  0.69234280  0.50814282  0.10235072  1
  Ta  Ta123  1  0.69678932  0.70753743  0.30896020  1
  Ta  Ta124  1  0.20548065  0.39686965  0.58710928  1
  Ta  Ta125  1  0.89774012  0.48939349  0.89592787  1
  Ta  Ta126  1  0.79503969  0.59498643  0.40011176  1
  Ta  Ta127  1  0.49864617  0.49879639  0.90800811  1
  Ta  Ta128  1  0.30839988  0.29251427  0.89557971  1
  Ta  Ta129  1  0.19853840  0.59838899  0.79874301  1
  Ta  Ta130  1  0.10550982  0.10879474  0.68964227  1
  Ta  Ta131  1  0.09975924  0.50010702  0.49809548  1
  Ta  Ta132  1  0.29748649  0.50392370  0.68628774  1
  Ta  Ta133  1  0.30645288  0.09929666  0.09954074  1
  Ta  Ta134  1  0.20759927  0.20266764  0.20367269  1
  Ta  Ta135  1  0.59520864  0.40173652  0.20060968  1
  Ta  Ta136  1  0.00613003  0.78916854  0.40022802  1
  Ta  Ta137  1  0.21074052  0.21419705  0.40458034  1
  Ta  Ta138  1  0.20193350  0.00445808  0.00564786  1
  Ta  Ta139  1  0.68933171  0.08893265  0.11964281  1
  Ta  Ta140  1  0.90741533  0.30210256  0.90045575  1
  Ta  Ta141  1  0.59587435  0.40268186  0.58812071  1
  Ta  Ta142  1  0.00038158  0.00335444  0.20914207  1
  Ta  Ta143  1  0.49489244  0.29686978  0.90315883  1
  Ta  Ta144  1  0.60195891  0.00166853  -0.00572593  1
  Ta  Ta145  1  0.11205307  0.90227669  0.68875655  1
  Ta  Ta146  1  0.78830736  0.80556820  0.00571064  1
  Ta  Ta147  1  0.29773765  0.49904275  0.29562379  1
  Ta  Ta148  1  0.01284086  -0.00089758  0.01634278  1
  Ta  Ta149  1  0.80706225  0.19893229  0.79678642  1
  Ti  Ti150  1  0.78909958  0.59793135  -0.00315803  1
  Ti  Ti151  1  0.40794165  -0.01440378  0.40740875  1
  Ti  Ti152  1  0.20398706  0.79541267  0.40286478  1
  Ti  Ti153  1  0.49350636  0.09291598  0.50142228  1
  Ti  Ti154  1  0.89200025  0.89148183  0.48531528  1
  Ti  Ti155  1  0.00460441  0.38848557  0.79915285  1
  Ti  Ti156  1  0.90024767  0.50912218  0.30825203  1
  Ti  Ti157  1  0.60153277  0.60055404  -0.00310323  1
  Ti  Ti158  1  0.69733264  0.70334089  0.89865966  1
  Ti  Ti159  1  0.69113616  0.29373718  0.50105833  1
  Ti  Ti160  1  0.00153508  0.20668041  0.59512395  1
  Ti  Ti161  1  0.70144301  0.09855803  0.89478117  1
  Ti  Ti162  1  0.30530430  0.10440415  0.68600993  1
  Ti  Ti163  1  0.50158070  0.70512250  0.49060681  1
  Ti  Ti164  1  0.49092417  0.49880050  0.68488268  1
  Ti  Ti165  1  0.30198784  0.30749391  0.11145791  1
  Ti  Ti166  1  0.20514146  0.40014517  0.40283324  1
  Ti  Ti167  1  0.88513031  0.68868121  0.69352988  1
  Ti  Ti168  1  0.71271432  0.09727472  0.68877529  1
  Ti  Ti169  1  0.20938746  -0.00077205  0.59943725  1
  Ti  Ti170  1  0.29837845  0.50804019  0.50150614  1
  Ti  Ti171  1  0.89813793  0.90061150  0.69669920  1
  Ti  Ti172  1  0.80189429  0.80267980  0.59710621  1
  Ti  Ti173  1  0.30734459  0.90002744  0.69342779  1
  Ti  Ti174  1  0.39690194  0.20341328  0.00343597  1
  Ti  Ti175  1  0.68249668  0.09391797  0.30352452  1
  Ti  Ti176  1  0.39896218  0.40297825  0.58650979  1
  Ti  Ti177  1  0.79252625  0.59086321  0.81005321  1
  Ti  Ti178  1  0.30845891  0.09938762  0.90583528  1
  Ti  Ti179  1  0.20162718  0.20000681  0.79666649  1
  Ti  Ti180  1  0.80873678  -0.00480337  0.59401610  1
  Ti  Ti181  1  0.89964175  0.49436475  0.50438113  1
  Ti  Ti182  1  0.40121681  0.19166918  0.79686820  1
  Ti  Ti183  1  0.09993891  0.70543673  0.90003195  1
  Ti  Ti184  1  0.10332709  0.29509236  0.68826050  1
  Ti  Ti185  1  -0.00228714  0.40888759  0.20688593  1
  Ti  Ti186  1  0.19755896  0.60649123  0.21127716  1
  Ti  Ti187  1  0.40562632  0.60427950  0.00010719  1
  Ti  Ti188  1  0.49944053  0.90470763  0.89287946  1
  Ti  Ti189  1  0.40519448  0.61287137  0.20809007  1
  Ti  Ti190  1  0.00649402  0.20527921  0.79791809  1
  Ti  Ti191  1  0.79684742  0.17998095  0.21311272  1
  Ti  Ti192  1  0.80246731  0.20543203  0.59293415  1
  Ti  Ti193  1  0.10351455  0.49786966  0.30476176  1
  Ti  Ti194  1  0.50799126  0.10375641  0.31547596  1
  Ti  Ti195  1  0.20633808  0.79992400  0.21056792  1
  Ti  Ti196  1  0.79181087  0.58979053  0.58679142  1
  Ti  Ti197  1  0.10278086  0.30438247  0.50487972  1
  Ti  Ti198  1  0.39978693  0.00772801  0.79217800  1
  Ti  Ti199  1  0.30450482  0.70212235  0.31051070  1
  Mo  Mo200  1  0.20918715  0.80645900  0.59457229  1
  Mo  Mo201  1  0.50146398  0.70042972  0.32063997  1
  Mo  Mo202  1  -0.00259908  0.39457888  -0.00423980  1
  Mo  Mo203  1  0.40273584  0.80590220  0.79599270  1
  Mo  Mo204  1  0.89361940  0.89694104  0.30262665  1
  Mo  Mo205  1  0.40276587  0.19911426  0.40544934  1
  Mo  Mo206  1  0.30240866  0.88786823  0.31522881  1
  Mo  Mo207  1  0.58871546  -0.00096496  0.40009703  1
  Mo  Mo208  1  0.30103933  0.29938093  0.49878634  1
  Mo  Mo209  1  0.01007360  0.19564049  0.20065821  1
  Mo  Mo210  1  0.48203261  0.09511250  0.69983550  1
  Mo  Mo211  1  0.59117744  0.80337884  0.39920599  1
  Mo  Mo212  1  0.69831503  0.50600311  0.90729468  1
  Mo  Mo213  1  0.19987869  0.20208894  0.59518964  1
  Mo  Mo214  1  0.59329946  0.19738981  0.21084962  1
  Mo  Mo215  1  -0.00225075  0.80887924  0.00492640  1
  Mo  Mo216  1  0.79784256  0.80551334  0.39170687  1
  Mo  Mo217  1  0.69840723  0.90367804  0.10397321  1
  Mo  Mo218  1  0.58315894  -0.00120456  0.59689913  1
  Mo  Mo219  1  0.40027041  0.59798944  0.58951889  1
  Mo  Mo220  1  0.39569165  -0.00083550  0.59848033  1
  Mo  Mo221  1  0.40375359  0.00760325  -0.00572013  1
  Mo  Mo222  1  0.60006848  0.80092264  0.80116051  1
  Mo  Mo223  1  0.20319859  0.59147314  0.59216877  1
  Mo  Mo224  1  0.50436616  0.69041953  0.08656030  1
  Mo  Mo225  1  0.10121737  0.90932671  0.10746779  1
  Mo  Mo226  1  0.39809713  0.39512954  0.20354850  1
  Mo  Mo227  1  0.39899498  0.19215427  0.59510913  1
  Mo  Mo228  1  0.59702445  0.00193317  0.21160757  1
  Mo  Mo229  1  0.50575123  0.70337088  0.69596095  1
  Mo  Mo230  1  0.10416386  0.70105995  0.49435367  1
  Mo  Mo231  1  0.89869260  0.30205451  0.50551667  1
  Mo  Mo232  1  0.20459832  0.40077130  0.20849158  1
  Mo  Mo233  1  0.39626572  0.79758737  0.40462140  1
  Mo  Mo234  1  0.69761756  0.50369294  0.49676467  1
  Mo  Mo235  1  0.09801140  0.29572890  0.89276983  1
  Mo  Mo236  1  0.48886322  0.49713592  0.49899568  1
  Mo  Mo237  1  0.59249335  0.79521221  0.59638683  1
  Mo  Mo238  1  -0.00535927  0.59546276  0.39906657  1
  Mo  Mo239  1  0.10251154  0.70531482  0.30406125  1
  Mo  Mo240  1  0.79380994  0.00030957  0.21064470  1
  Mo  Mo241  1  0.00842574  0.39503261  0.59139132  1
  Mo  Mo242  1  0.59216961  0.19554150  0.40632095  1
  Mo  Mo243  1  0.50075458  0.90477253  0.50339206  1
  Mo  Mo244  1  0.80745850  0.39698902  0.80704692  1
  Mo  Mo245  1  0.50452952  0.89816722  0.31647611  1
  Mo  Mo246  1  0.29873665  0.30629646  0.30157919  1
  Mo  Mo247  1  0.79544108  0.39650578  0.58066922  1
  Mo  Mo248  1  0.90663462  0.09534964  0.29924097  1
  Mo  Mo249  1  0.59514650  0.60494728  0.40033112  1
