# generated using pymatgen
data_HfZrTaTiMo
_symmetry_space_group_name_H-M   'P 1'
_cell_length_a   16.88679684
_cell_length_b   16.88393974
_cell_length_c   16.88767015
_cell_angle_alpha   89.98887622
_cell_angle_beta   90.00455361
_cell_angle_gamma   89.98774217
_symmetry_Int_Tables_number   1
_chemical_formula_structural   HfZrTaTiMo
_chemical_formula_sum   'Hf50 Zr50 Ta50 Ti50 Mo50'
_cell_volume   4814.93900671
_cell_formula_units_Z   50
loop_
 _symmetry_equiv_pos_site_id
 _symmetry_equiv_pos_as_xyz
  1  'x, y, z'
loop_
 _atom_site_type_symbol
 _atom_site_label
 _atom_site_symmetry_multiplicity
 _atom_site_fract_x
 _atom_site_fract_y
 _atom_site_fract_z
 _atom_site_occupancy
  Hf  Hf0  1  0.69805549  0.10234051  0.49216202  1
  Hf  Hf1  1  0.70591302  0.49080758  0.29836522  1
  Hf  Hf2  1  0.29542078  0.91081392  0.09564434  1
  Hf  Hf3  1  0.69525733  0.09523707  0.91088290  1
  Hf  Hf4  1  0.80395578  0.20228688  0.60127849  1
  Hf  Hf5  1  -0.01680658  0.81550885  0.59829091  1
  Hf  Hf6  1  0.58976757  0.39307935  0.40107371  1
  Hf  Hf7  1  0.89838436  0.09706879  0.89924660  1
  Hf  Hf8  1  0.59202428  0.00188772  0.79632104  1
  Hf  Hf9  1  0.00399730  0.19570634  0.19564820  1
  Hf  Hf10  1  0.69930860  0.28399689  0.31032974  1
  Hf  Hf11  1  0.10328638  0.30139564  0.30125684  1
  Hf  Hf12  1  -0.00271839  0.60054138  0.19941125  1
  Hf  Hf13  1  0.80343460  0.59435164  0.60673913  1
  Hf  Hf14  1  0.70948071  0.49514956  0.90547679  1
  Hf  Hf15  1  0.20300973  0.40649501  0.60565621  1
  Hf  Hf16  1  0.19477545  0.00195505  0.40325187  1
  Hf  Hf17  1  0.89754301  0.49081707  0.29983581  1
  Hf  Hf18  1  0.19408938  0.40127733  0.80013344  1
  Hf  Hf19  1  0.59697335  0.19511899  0.60741992  1
  Hf  Hf20  1  0.10517505  0.49764758  0.08812571  1
  Hf  Hf21  1  0.30466654  0.90892590  0.90109422  1
  Hf  Hf22  1  0.70152312  0.49093991  0.70135176  1
  Hf  Hf23  1  -0.00819642  0.00854335  0.19183851  1
  Hf  Hf24  1  0.19789437  0.19810952  0.60803454  1
  Hf  Hf25  1  0.70332385  0.89585844  0.70489829  1
  Hf  Hf26  1  0.79607770  0.59462634  0.41011699  1
  Hf  Hf27  1  0.41268269  -0.00270509  0.39293789  1
  Hf  Hf28  1  -0.00888039  0.60535798  -0.01030497  1
  Hf  Hf29  1  0.09082524  0.90513914  0.70378235  1
  Hf  Hf30  1  0.70086704  0.90158734  0.89800262  1
  Hf  Hf31  1  0.09689036  0.90522875  0.29148798  1
  Hf  Hf32  1  0.69437832  0.90481319  0.10566002  1
  Hf  Hf33  1  0.89810396  0.70120311  0.50832509  1
  Hf  Hf34  1  0.20748264  0.80062295  0.79120755  1
  Hf  Hf35  1  0.29739329  0.29821810  0.89716525  1
  Hf  Hf36  1  0.40296188  0.80449600  0.79311845  1
  Hf  Hf37  1  0.81211664  -0.01400720  0.59669827  1
  Hf  Hf38  1  0.31688288  0.09965763  0.50676616  1
  Hf  Hf39  1  0.69471550  0.90788100  0.50214414  1
  Hf  Hf40  1  0.89891509  0.30442840  0.09026712  1
  Hf  Hf41  1  0.59887037  0.59478328  0.60494110  1
  Hf  Hf42  1  0.30141044  0.09920961  0.89236010  1
  Hf  Hf43  1  0.19405192  0.20080983  -0.00576508  1
  Hf  Hf44  1  0.69559922  0.70801845  0.51161205  1
  Hf  Hf45  1  0.69913360  0.70995169  0.29435749  1
  Hf  Hf46  1  0.09391210  0.70597946  0.09886787  1
  Hf  Hf47  1  0.59446244  0.59872717  0.20334757  1
  Hf  Hf48  1  0.59673774  0.19423861  0.79914506  1
  Hf  Hf49  1  0.89077085  0.49483168  0.08923816  1
  Zr  Zr50  1  0.00259006  0.19559651  0.59976877  1
  Zr  Zr51  1  0.20165846  0.79856375  0.20506139  1
  Zr  Zr52  1  0.00029386  0.39590351  0.19870874  1
  Zr  Zr53  1  0.50038681  0.70027205  0.70341229  1
  Zr  Zr54  1  0.20826168  0.40348681  0.19866921  1
  Zr  Zr55  1  0.59549808  0.39078145  0.20615977  1
  Zr  Zr56  1  0.80295649  0.80152681  0.00115876  1
  Zr  Zr57  1  0.00734318  0.20612366  0.80569810  1
  Zr  Zr58  1  0.30819560  0.89778602  0.50508873  1
  Zr  Zr59  1  0.30891418  0.70720286  0.09336599  1
  Zr  Zr60  1  0.88886624  0.90679311  0.29458892  1
  Zr  Zr61  1  0.29909831  0.10396510  0.29386848  1
  Zr  Zr62  1  0.89535128  0.09674368  0.49497796  1
  Zr  Zr63  1  0.19664278  0.80002019  -0.01203847  1
  Zr  Zr64  1  0.30798845  0.29467153  0.50541268  1
  Zr  Zr65  1  0.49221418  0.70783347  0.50791955  1
  Zr  Zr66  1  0.19623105  0.19424086  0.40366206  1
  Zr  Zr67  1  0.49621791  0.28678381  0.90325146  1
  Zr  Zr68  1  0.80673311  0.19614892  0.19723117  1
  Zr  Zr69  1  0.50045870  0.49598868  0.89929110  1
  Zr  Zr70  1  0.20026518  0.79660118  0.39783664  1
  Zr  Zr71  1  0.50320954  0.89356641  0.90358163  1
  Zr  Zr72  1  0.59687978  0.39094160  0.79834437  1
  Zr  Zr73  1  0.80600429  0.39588030  0.41207455  1
  Zr  Zr74  1  0.40551553  0.40125150  0.40006246  1
  Zr  Zr75  1  0.08814028  0.69928862  0.69555576  1
  Zr  Zr76  1  0.09692634  0.91285521  0.89277859  1
  Zr  Zr77  1  0.59354847  0.59031949  0.40074318  1
  Zr  Zr78  1  0.89580018  0.70368920  0.29577604  1
  Zr  Zr79  1  0.71110045  0.48937372  0.10038418  1
  Zr  Zr80  1  0.40512091  0.01315378  0.19188148  1
  Zr  Zr81  1  0.39945371  0.59828723  0.40008024  1
  Zr  Zr82  1  0.58627964  0.81393358  0.39442815  1
  Zr  Zr83  1  0.50486610  0.89841869  0.10200216  1
  Zr  Zr84  1  0.19958654  0.60432690  -0.01358618  1
  Zr  Zr85  1  0.60176778  0.60254515  0.00291097  1
  Zr  Zr86  1  0.79971107  0.80986781  0.40901768  1
  Zr  Zr87  1  0.19987034  0.60095419  0.79183363  1
  Zr  Zr88  1  0.10190002  0.50261600  0.31201163  1
  Zr  Zr89  1  0.09395434  0.30797305  0.49668687  1
  Zr  Zr90  1  0.79689384  0.20415446  0.79945085  1
  Zr  Zr91  1  0.39577852  0.39582279  0.00698477  1
  Zr  Zr92  1  0.70307328  0.09245000  0.30184623  1
  Zr  Zr93  1  0.19720493  0.00640289  0.60188098  1
  Zr  Zr94  1  0.39788556  0.18821437  0.01205394  1
  Zr  Zr95  1  0.20663900  0.60811961  0.20909746  1
  Zr  Zr96  1  0.69815015  0.70175997  0.89597669  1
  Zr  Zr97  1  0.09822467  0.69728820  0.50076797  1
  Zr  Zr98  1  -0.00845200  0.80708401  -0.00263305  1
  Zr  Zr99  1  0.49859334  0.49570026  0.09929982  1
  Ta  Ta100  1  0.39359648  0.59092242  0.60149213  1
  Ta  Ta101  1  0.20467811  0.80049413  0.60346980  1
  Ta  Ta102  1  0.80503986  0.39590600  0.80046965  1
  Ta  Ta103  1  0.40117170  0.60041573  0.20388320  1
  Ta  Ta104  1  0.10250462  0.91045052  0.09819561  1
  Ta  Ta105  1  0.30451770  0.29863945  0.29713855  1
  Ta  Ta106  1  0.08064668  0.70507655  0.88032492  1
  Ta  Ta107  1  0.70756722  0.09094746  0.69827689  1
  Ta  Ta108  1  0.80554797  0.60095486  0.80213682  1
  Ta  Ta109  1  0.29705851  0.29659226  0.10614037  1
  Ta  Ta110  1  0.50677349  0.28777703  0.10514492  1
  Ta  Ta111  1  0.69749578  0.47931200  0.51653961  1
  Ta  Ta112  1  0.41604868  0.20329927  0.39519334  1
  Ta  Ta113  1  0.20320509  0.59513587  0.59796892  1
  Ta  Ta114  1  0.40112901  0.60358816  -0.00305671  1
  Ta  Ta115  1  -0.00422061  0.40742803  0.60230543  1
  Ta  Ta116  1  0.90089724  0.30490176  0.90318474  1
  Ta  Ta117  1  0.88893030  0.70112030  0.10162600  1
  Ta  Ta118  1  0.40795925  0.00970386  -0.00009388  1
  Ta  Ta119  1  0.53074312  0.10096445  0.09729185  1
  Ta  Ta120  1  0.40137852  0.80152310  0.20792507  1
  Ta  Ta121  1  0.39351603  0.39620945  0.79290976  1
  Ta  Ta122  1  0.39570933  0.39954684  0.60813704  1
  Ta  Ta123  1  0.29900008  0.69760282  0.50204878  1
  Ta  Ta124  1  0.90260142  0.08855204  0.70599471  1
  Ta  Ta125  1  0.39948508  0.59622702  0.80033384  1
  Ta  Ta126  1  0.80924301  0.79650553  0.79895763  1
  Ta  Ta127  1  -0.00025486  -0.00141021  0.40583454  1
  Ta  Ta128  1  0.60884908  0.38059406  -0.00094144  1
  Ta  Ta129  1  0.39730696  0.80227387  0.39129100  1
  Ta  Ta130  1  0.70120464  0.30633261  0.69041532  1
  Ta  Ta131  1  0.89895599  0.91007412  0.89212546  1
  Ta  Ta132  1  0.30263741  0.50291953  0.30436008  1
  Ta  Ta133  1  0.21044394  0.40677490  0.40586359  1
  Ta  Ta134  1  -0.00146224  0.80662015  0.40130012  1
  Ta  Ta135  1  0.60048033  0.59862446  0.79856317  1
  Ta  Ta136  1  0.00071220  0.40459734  0.79871290  1
  Ta  Ta137  1  0.09905115  0.50193227  0.49977998  1
  Ta  Ta138  1  0.49847771  0.70790319  0.09969751  1
  Ta  Ta139  1  -0.00750684  0.59574095  0.40719782  1
  Ta  Ta140  1  0.09677922  0.30662049  0.70015337  1
  Ta  Ta141  1  -0.00098454  0.19473322  0.39573723  1
  Ta  Ta142  1  0.30106835  0.90642231  0.29391198  1
  Ta  Ta143  1  0.69655550  0.29709299  0.50508827  1
  Ta  Ta144  1  0.10616822  0.30354544  0.09087336  1
  Ta  Ta145  1  0.31725055  0.10920121  0.70063687  1
  Ta  Ta146  1  0.51639208  0.10819999  0.29396116  1
  Ta  Ta147  1  0.30097488  0.49851745  0.90067663  1
  Ta  Ta148  1  0.59388042  0.81012546  0.61105582  1
  Ta  Ta149  1  0.89620511  0.49756142  0.89992190  1
  Ti  Ti150  1  0.10275582  0.09264914  0.89561194  1
  Ti  Ti151  1  0.49223953  0.90284891  0.51511799  1
  Ti  Ti152  1  0.31437973  0.91073152  0.69045109  1
  Ti  Ti153  1  0.30674432  0.70019819  0.68940851  1
  Ti  Ti154  1  0.79005038  0.20650068  -0.00315993  1
  Ti  Ti155  1  0.90136451  0.49673228  0.70559805  1
  Ti  Ti156  1  0.49977708  0.49046487  0.51499929  1
  Ti  Ti157  1  0.09278986  0.69956547  0.30635263  1
  Ti  Ti158  1  0.31234612  0.70240539  0.89728526  1
  Ti  Ti159  1  0.19958764  0.19698981  0.19391614  1
  Ti  Ti160  1  0.20650946  0.00540040  0.78993594  1
  Ti  Ti161  1  0.11170604  0.09237969  0.09567900  1
  Ti  Ti162  1  0.49958686  0.70244179  0.90061919  1
  Ti  Ti163  1  0.59216777  -0.00226698  0.39501645  1
  Ti  Ti164  1  0.09518893  0.90414942  0.50535897  1
  Ti  Ti165  1  0.01040698  0.39613480  -0.01351313  1
  Ti  Ti166  1  -0.00064025  0.00246659  0.00321119  1
  Ti  Ti167  1  0.59006333  0.00163397  0.60879929  1
  Ti  Ti168  1  0.09900361  0.09656225  0.29672442  1
  Ti  Ti169  1  0.09128937  0.09334312  0.70426028  1
  Ti  Ti170  1  0.70109867  0.70472318  0.70361207  1
  Ti  Ti171  1  0.90169017  0.30524396  0.69988720  1
  Ti  Ti172  1  0.19698925  0.20272534  0.79298773  1
  Ti  Ti173  1  0.80281784  -0.00174588  0.00749323  1
  Ti  Ti174  1  0.90186134  0.90672802  0.71386848  1
  Ti  Ti175  1  0.49763479  0.49427770  0.70092796  1
  Ti  Ti176  1  0.80266895  0.00507242  0.18759719  1
  Ti  Ti177  1  -0.01004469  0.80757190  0.19348394  1
  Ti  Ti178  1  0.00892169  0.20084235  -0.00322059  1
  Ti  Ti179  1  0.09535431  0.50395860  0.89260658  1
  Ti  Ti180  1  0.29942530  0.50187255  0.09565868  1
  Ti  Ti181  1  -0.00172762  0.58846058  0.60328329  1
  Ti  Ti182  1  0.40278481  0.39887413  0.20545274  1
  Ti  Ti183  1  0.90401578  0.69954488  0.70793623  1
  Ti  Ti184  1  0.90065355  0.29896655  0.30631884  1
  Ti  Ti185  1  0.79805119  0.60115161  0.19760908  1
  Ti  Ti186  1  0.40574014  0.19980722  0.19919204  1
  Ti  Ti187  1  0.60054063  0.79564018  0.00278329  1
  Ti  Ti188  1  0.90407581  0.30137747  0.49923838  1
  Ti  Ti189  1  0.89245446  0.09947495  0.31039475  1
  Ti  Ti190  1  0.50203764  0.29640328  0.51016882  1
  Ti  Ti191  1  0.50192886  0.10126937  0.50259334  1
  Ti  Ti192  1  0.41228185  0.00790965  0.79542895  1
  Ti  Ti193  1  0.49986609  0.70548378  0.29494093  1
  Ti  Ti194  1  0.70047816  0.70588482  0.10745605  1
  Ti  Ti195  1  0.69536396  0.90353055  0.28973836  1
  Ti  Ti196  1  0.48523340  0.29073420  0.69771641  1
  Ti  Ti197  1  0.30299428  0.50163455  0.70447466  1
  Ti  Ti198  1  0.89711702  0.10643396  0.08519225  1
  Ti  Ti199  1  0.70155980  0.29199273  0.10195339  1
  Mo  Mo200  1  0.40640920  0.20184786  0.59958387  1
  Mo  Mo201  1  0.49851612  0.90616474  0.29304124  1
  Mo  Mo202  1  0.59620151  0.79786287  0.19998136  1
  Mo  Mo203  1  0.58685522  0.39145215  0.60165860  1
  Mo  Mo204  1  0.40375399  0.79682794  -0.00250961  1
  Mo  Mo205  1  0.60688242  0.19755385  0.19794849  1
  Mo  Mo206  1  0.70652700  0.09805066  0.09658360  1
  Mo  Mo207  1  0.49310879  0.49678443  0.29435884  1
  Mo  Mo208  1  0.60155572  0.79356089  0.79786573  1
  Mo  Mo209  1  0.20095366  0.00945841  -0.00145502  1
  Mo  Mo210  1  0.49553987  0.29181262  0.29294742  1
  Mo  Mo211  1  -0.00045185  0.00691315  0.80176197  1
  Mo  Mo212  1  0.49778932  0.09921141  0.69835238  1
  Mo  Mo213  1  0.29891275  0.29729063  0.70422764  1
  Mo  Mo214  1  0.79545791  0.80213843  0.19464685  1
  Mo  Mo215  1  0.79713594  0.38495684  -0.00624881  1
  Mo  Mo216  1  0.19894905  0.59900736  0.40595855  1
  Mo  Mo217  1  0.89543023  0.69633044  0.89635264  1
  Mo  Mo218  1  0.80960055  0.20268576  0.40496262  1
  Mo  Mo219  1  0.28641616  0.10333501  0.09915849  1
  Mo  Mo220  1  0.79771685  0.79655205  0.61352467  1
  Mo  Mo221  1  0.09053383  0.09591365  0.49765867  1
  Mo  Mo222  1  0.90098747  0.90087429  0.49399270  1
  Mo  Mo223  1  0.09700376  0.30397029  0.89735964  1
  Mo  Mo224  1  0.59140121  0.20020431  0.40891042  1
  Mo  Mo225  1  0.81031055  0.39444174  0.60625404  1
  Mo  Mo226  1  0.30946759  0.70010521  0.30488726  1
  Mo  Mo227  1  0.80268038  0.60663731  -0.00082856  1
  Mo  Mo228  1  0.09421851  0.49968767  0.69507494  1
  Mo  Mo229  1  0.49938200  0.09519181  0.90391595  1
  Mo  Mo230  1  0.60058451  0.00122239  -0.00109723  1
  Mo  Mo231  1  0.19424883  0.00513863  0.19667586  1
  Mo  Mo232  1  0.49865713  0.90190763  0.69763459  1
  Mo  Mo233  1  0.39614011  0.79908309  0.59964471  1
  Mo  Mo234  1  -0.00042764  0.39838208  0.40798604  1
  Mo  Mo235  1  0.60850828  0.20011020  0.00191939  1
  Mo  Mo236  1  0.90442384  0.50035882  0.50601743  1
  Mo  Mo237  1  0.40063119  0.20030553  0.79539767  1
  Mo  Mo238  1  0.80114196  0.38875652  0.19827502  1
  Mo  Mo239  1  0.29830004  0.50263565  0.50327399  1
  Mo  Mo240  1  0.79818606  -0.00133953  0.39724312  1
  Mo  Mo241  1  -0.00123392  -0.00056938  0.60171292  1
  Mo  Mo242  1  0.70466621  0.29640044  0.89673415  1
  Mo  Mo243  1  0.20008420  0.40096181  -0.00304499  1
  Mo  Mo244  1  0.41175716  0.00283846  0.60475777  1
  Mo  Mo245  1  0.60403869  -0.00067776  0.20370234  1
  Mo  Mo246  1  -0.01128280  0.80421431  0.79835235  1
  Mo  Mo247  1  -0.00938913  0.59279218  0.79677260  1
  Mo  Mo248  1  0.79956554  -0.00030779  0.79858246  1
  Mo  Mo249  1  0.89986827  0.90676221  0.09729778  1
