# generated using pymatgen
data_HfZrTaTiMo
_symmetry_space_group_name_H-M   'P 1'
_cell_length_a   16.88670115
_cell_length_b   16.88314211
_cell_length_c   16.88605915
_cell_angle_alpha   89.95556775
_cell_angle_beta   89.97386902
_cell_angle_gamma   89.99462438
_symmetry_Int_Tables_number   1
_chemical_formula_structural   HfZrTaTiMo
_chemical_formula_sum   'Hf50 Zr50 Ta50 Ti50 Mo50'
_cell_volume   4814.22320815
_cell_formula_units_Z   50
loop_
 _symmetry_equiv_pos_site_id
 _symmetry_equiv_pos_as_xyz
  1  'x, y, z'
loop_
 _atom_site_type_symbol
 _atom_site_label
 _atom_site_symmetry_multiplicity
 _atom_site_fract_x
 _atom_site_fract_y
 _atom_site_fract_z
 _atom_site_occupancy
  Hf  Hf0  1  0.09500989  0.70683541  0.29978930  1
  Hf  Hf1  1  0.00957144  0.40908514  0.19685027  1
  Hf  Hf2  1  0.10844773  0.70814377  0.69830707  1
  Hf  Hf3  1  0.69458770  0.50635669  0.90478580  1
  Hf  Hf4  1  -0.00056528  0.59093234  0.80677739  1
  Hf  Hf5  1  0.91069434  0.10073655  0.08319672  1
  Hf  Hf6  1  0.00400351  0.20653438  0.60546090  1
  Hf  Hf7  1  0.91728133  0.70065349  0.09520266  1
  Hf  Hf8  1  0.69882930  0.70075611  0.69597547  1
  Hf  Hf9  1  0.11099935  0.09397704  0.50190745  1
  Hf  Hf10  1  0.49516195  0.69559174  0.70058526  1
  Hf  Hf11  1  0.80222737  0.39987210  0.40785766  1
  Hf  Hf12  1  0.29892408  0.09407864  0.69826556  1
  Hf  Hf13  1  0.80164744  0.20049102  0.40534844  1
  Hf  Hf14  1  0.38518651  0.59414545  0.60309180  1
  Hf  Hf15  1  0.80257671  0.59424341  0.40615416  1
  Hf  Hf16  1  0.00683557  0.00221666  0.19347213  1
  Hf  Hf17  1  0.89795521  0.70644461  0.50532684  1
  Hf  Hf18  1  0.80081039  0.81131792  0.79441883  1
  Hf  Hf19  1  0.58956045  0.39137062  0.19812740  1
  Hf  Hf20  1  0.40271743  0.17400843  0.81130295  1
  Hf  Hf21  1  0.29588054  0.29961003  0.10163731  1
  Hf  Hf22  1  0.60079812  -0.00353530  0.41024830  1
  Hf  Hf23  1  0.70243003  0.28843783  0.90338066  1
  Hf  Hf24  1  0.29474793  0.28903814  0.90746857  1
  Hf  Hf25  1  0.00399068  -0.01066093  0.40608663  1
  Hf  Hf26  1  0.00325417  0.59894351  0.59757759  1
  Hf  Hf27  1  0.08967159  0.08711222  0.70367166  1
  Hf  Hf28  1  0.69028381  0.90634156  0.89305871  1
  Hf  Hf29  1  0.10477749  0.69364926  0.91155508  1
  Hf  Hf30  1  0.80724763  0.40008899  0.80498495  1
  Hf  Hf31  1  0.09572871  0.48932977  0.69474417  1
  Hf  Hf32  1  0.20058630  0.00330594  0.80663543  1
  Hf  Hf33  1  0.11237487  0.10421878  0.31154142  1
  Hf  Hf34  1  0.80403256  0.59748780  0.18991718  1
  Hf  Hf35  1  0.79861591  -0.01642819  0.59405027  1
  Hf  Hf36  1  0.49673210  0.50521650  0.50502043  1
  Hf  Hf37  1  0.80057918  0.39610472  0.59844591  1
  Hf  Hf38  1  0.91241670  0.09649427  0.89167943  1
  Hf  Hf39  1  0.90845520  0.89396537  0.29381480  1
  Hf  Hf40  1  0.21152319  0.41489754  0.19838604  1
  Hf  Hf41  1  0.69704909  0.50509733  0.70114040  1
  Hf  Hf42  1  0.57971233  0.00963857  0.80058653  1
  Hf  Hf43  1  0.20467567  0.39772867  0.60240621  1
  Hf  Hf44  1  0.49564228  0.09897806  0.30396600  1
  Hf  Hf45  1  0.29651777  0.09952362  0.49921639  1
  Hf  Hf46  1  0.79989581  0.80283951  0.18603438  1
  Hf  Hf47  1  0.69842166  0.09786838  0.70129532  1
  Hf  Hf48  1  0.49219936  0.70475803  0.90252356  1
  Hf  Hf49  1  0.28718888  0.90700240  0.50582971  1
  Zr  Zr50  1  0.48303133  0.69311318  0.29797880  1
  Zr  Zr51  1  0.59485625  0.00404787  0.19061759  1
  Zr  Zr52  1  0.19593239  0.01056572  0.18835321  1
  Zr  Zr53  1  0.80478061  -0.00420123  -0.00896926  1
  Zr  Zr54  1  0.70237137  0.70115255  0.30255085  1
  Zr  Zr55  1  0.49178812  0.70293088  0.09605016  1
  Zr  Zr56  1  0.79857947  -0.00014542  0.40736883  1
  Zr  Zr57  1  0.69902518  0.90286747  0.29565970  1
  Zr  Zr58  1  0.60151927  0.39200197  0.39840120  1
  Zr  Zr59  1  0.48697223  0.90078044  0.29137653  1
  Zr  Zr60  1  0.10899870  0.51184178  0.07739550  1
  Zr  Zr61  1  0.39390406  0.79788899  0.40278899  1
  Zr  Zr62  1  0.39478321  0.39499539  0.41040117  1
  Zr  Zr63  1  0.79512770  0.81639991  0.42256369  1
  Zr  Zr64  1  0.80088125  0.80458221  -0.00460364  1
  Zr  Zr65  1  0.91041120  0.09712491  0.50686850  1
  Zr  Zr66  1  0.49790401  0.28483382  0.51650293  1
  Zr  Zr67  1  0.40058324  0.39768869  0.01021165  1
  Zr  Zr68  1  0.90435907  0.70553043  0.30007767  1
  Zr  Zr69  1  0.11174562  0.30080955  0.30353456  1
  Zr  Zr70  1  0.31002020  0.90536047  0.09297011  1
  Zr  Zr71  1  0.50279423  0.28144216  0.90818548  1
  Zr  Zr72  1  0.19991507  0.60896662  0.19965699  1
  Zr  Zr73  1  0.01370985  0.19677681  0.19482100  1
  Zr  Zr74  1  0.89498328  0.70197741  0.69602739  1
  Zr  Zr75  1  0.00046510  0.39244881  0.80843524  1
  Zr  Zr76  1  0.49159636  0.50173765  0.29980237  1
  Zr  Zr77  1  0.59712133  0.39877513  0.00542964  1
  Zr  Zr78  1  0.59478565  0.80025407  0.19496274  1
  Zr  Zr79  1  0.90324206  0.30590284  0.29753555  1
  Zr  Zr80  1  0.80808390  0.19525027  0.19708243  1
  Zr  Zr81  1  0.19637564  0.20701824  0.61116566  1
  Zr  Zr82  1  0.38912811  0.79264094  0.59539386  1
  Zr  Zr83  1  0.70525941  0.49442759  0.29288372  1
  Zr  Zr84  1  0.49032789  0.89543362  0.70369715  1
  Zr  Zr85  1  0.30109015  0.52080107  0.32388639  1
  Zr  Zr86  1  0.59127735  0.59712641  0.80333624  1
  Zr  Zr87  1  0.40438594  0.20881933  0.20075613  1
  Zr  Zr88  1  0.60285356  0.20228560  0.39479111  1
  Zr  Zr89  1  0.30191541  0.70750539  0.89504106  1
  Zr  Zr90  1  0.59923558  0.39765053  0.60530817  1
  Zr  Zr91  1  0.29672105  0.91261442  0.29942834  1
  Zr  Zr92  1  0.20051286  0.58986584  0.79711709  1
  Zr  Zr93  1  0.69430714  0.28685882  0.70797517  1
  Zr  Zr94  1  0.30109844  0.70664720  0.09228267  1
  Zr  Zr95  1  0.90968853  0.29945139  0.08775492  1
  Zr  Zr96  1  0.70084127  0.10476970  0.08448541  1
  Zr  Zr97  1  0.90315958  0.70256364  0.90090432  1
  Zr  Zr98  1  0.59868872  0.20704273  0.19867414  1
  Zr  Zr99  1  0.81325371  0.40564156  -0.00709018  1
  Ta  Ta100  1  0.49196022  0.49275386  0.70365318  1
  Ta  Ta101  1  0.39188979  0.39460131  0.60783355  1
  Ta  Ta102  1  0.11332025  0.30049328  0.08966111  1
  Ta  Ta103  1  0.09997659  0.90215862  0.89629629  1
  Ta  Ta104  1  0.90274506  0.09408451  0.70154607  1
  Ta  Ta105  1  0.19803047  0.79875090  0.39682867  1
  Ta  Ta106  1  0.40093483  0.00054231  0.60278588  1
  Ta  Ta107  1  0.30258339  0.89981214  0.89479277  1
  Ta  Ta108  1  0.29467450  0.10720772  0.30779216  1
  Ta  Ta109  1  0.59504715  0.79897460  0.40830983  1
  Ta  Ta110  1  0.80598004  -0.00045751  0.19257213  1
  Ta  Ta111  1  0.00022253  0.59584532  0.40020653  1
  Ta  Ta112  1  0.50450237  0.69390148  0.50491629  1
  Ta  Ta113  1  0.60105013  0.59846717  0.19551456  1
  Ta  Ta114  1  0.69515798  0.10749891  0.89376443  1
  Ta  Ta115  1  0.49463157  0.10981840  0.08334458  1
  Ta  Ta116  1  0.39849196  0.20099163  0.40229198  1
  Ta  Ta117  1  0.10445958  0.70097056  0.49998446  1
  Ta  Ta118  1  0.59011527  0.39622137  0.80329660  1
  Ta  Ta119  1  0.19481525  0.38871491  0.80419038  1
  Ta  Ta120  1  0.30696331  0.29282821  0.71187979  1
  Ta  Ta121  1  0.09868418  0.30680633  0.49750954  1
  Ta  Ta122  1  0.19732029  0.80938240  -0.00075850  1
  Ta  Ta123  1  0.89986268  0.49612346  0.69653332  1
  Ta  Ta124  1  0.29697545  0.29875748  0.30244705  1
  Ta  Ta125  1  0.69400296  0.90254120  0.09112733  1
  Ta  Ta126  1  0.90349944  0.09563560  0.30208321  1
  Ta  Ta127  1  0.29127603  0.49198858  0.90718938  1
  Ta  Ta128  1  0.00204088  0.40735865  0.40194861  1
  Ta  Ta129  1  0.49410192  0.28978286  0.70650421  1
  Ta  Ta130  1  0.19646324  0.80392703  0.19566034  1
  Ta  Ta131  1  0.80464685  0.19800425  0.60250566  1
  Ta  Ta132  1  0.69436003  0.69997533  0.90298828  1
  Ta  Ta133  1  0.69137823  0.69481265  0.08624310  1
  Ta  Ta134  1  0.59427993  0.80640801  -0.00388362  1
  Ta  Ta135  1  0.80242612  0.59953296  -0.00177398  1
  Ta  Ta136  1  0.39635145  0.59075199  -0.00277892  1
  Ta  Ta137  1  0.19411916  0.00868031  -0.00537670  1
  Ta  Ta138  1  0.10461896  0.50141872  0.49691853  1
  Ta  Ta139  1  0.00471254  0.80448320  0.79845839  1
  Ta  Ta140  1  0.60057629  0.60418864  0.40139672  1
  Ta  Ta141  1  0.70696982  0.09681912  0.29686538  1
  Ta  Ta142  1  0.00630243  0.59948564  0.19772512  1
  Ta  Ta143  1  0.71067631  0.30082718  0.09511864  1
  Ta  Ta144  1  0.29228630  0.89401929  0.70360570  1
  Ta  Ta145  1  0.69466422  0.69933187  0.51021293  1
  Ta  Ta146  1  0.90462950  0.29864981  0.69913143  1
  Ta  Ta147  1  0.20430914  0.59677016  0.59736610  1
  Ta  Ta148  1  0.49564222  0.50499459  0.10389422  1
  Ta  Ta149  1  0.10704840  0.89695310  0.69682705  1
  Ti  Ti150  1  0.20293827  0.40359931  0.40854984  1
  Ti  Ti151  1  0.91127580  0.90175748  0.09364862  1
  Ti  Ti152  1  0.00125492  0.20364286  0.40140878  1
  Ti  Ti153  1  0.68761479  0.90193756  0.69365260  1
  Ti  Ti154  1  0.38693131  0.59491011  0.19222334  1
  Ti  Ti155  1  0.29395671  0.70896866  0.70768996  1
  Ti  Ti156  1  0.80365297  -0.00291424  0.79441739  1
  Ti  Ti157  1  0.81408942  0.19996722  0.80036531  1
  Ti  Ti158  1  0.00565353  0.80443620  0.41075016  1
  Ti  Ti159  1  0.71691213  0.30528993  0.28681087  1
  Ti  Ti160  1  0.48925084  0.90268353  0.09215476  1
  Ti  Ti161  1  0.59047675  0.00057910  -0.00551668  1
  Ti  Ti162  1  0.59607019  0.80019269  0.80153137  1
  Ti  Ti163  1  0.90150482  0.49809363  0.29409363  1
  Ti  Ti164  1  0.00875184  0.80583731  -0.00181549  1
  Ti  Ti165  1  0.00261330  0.80510558  0.60012247  1
  Ti  Ti166  1  0.29091550  0.68666273  0.48497873  1
  Ti  Ti167  1  0.80399158  0.59782499  0.80587003  1
  Ti  Ti168  1  0.50131982  0.10753881  0.68523287  1
  Ti  Ti169  1  0.39435010  0.01467297  -0.01774907  1
  Ti  Ti170  1  0.49930982  0.10125712  0.51053004  1
  Ti  Ti171  1  0.39428664  0.59075909  0.80294420  1
  Ti  Ti172  1  0.49918720  0.90154803  0.50873999  1
  Ti  Ti173  1  0.10316936  0.50609766  0.30883837  1
  Ti  Ti174  1  0.18934277  0.19668396  0.80976997  1
  Ti  Ti175  1  0.91249762  0.90486864  0.69543025  1
  Ti  Ti176  1  0.01871013  0.20007566  -0.01473844  1
  Ti  Ti177  1  0.10764425  0.89791636  0.51198232  1
  Ti  Ti178  1  0.48511223  0.89819733  0.89801175  1
  Ti  Ti179  1  0.91493173  0.90608616  0.89519968  1
  Ti  Ti180  1  0.49570010  0.49908311  0.90289310  1
  Ti  Ti181  1  0.59772584  0.80025243  0.59817425  1
  Ti  Ti182  1  0.69027768  0.10188947  0.51368366  1
  Ti  Ti183  1  0.30150331  0.48767566  0.70958103  1
  Ti  Ti184  1  0.80062649  0.59539538  0.59732578  1
  Ti  Ti185  1  0.39684424  0.01450830  0.19179999  1
  Ti  Ti186  1  0.00949321  0.20703367  0.80140283  1
  Ti  Ti187  1  0.68953139  0.50937627  0.50655259  1
  Ti  Ti188  1  0.29598672  0.11243676  0.09078362  1
  Ti  Ti189  1  0.10284756  0.89820256  0.29802183  1
  Ti  Ti190  1  0.40156804  0.00286650  0.40893812  1
  Ti  Ti191  1  0.29726739  0.29145575  0.50362513  1
  Ti  Ti192  1  0.69773392  0.28892959  0.51021784  1
  Ti  Ti193  1  0.09796248  0.90112522  0.09271378  1
  Ti  Ti194  1  0.00799351  0.40167126  -0.01586585  1
  Ti  Ti195  1  0.69787924  0.50081848  0.09809014  1
  Ti  Ti196  1  0.91069088  0.50333937  0.09202444  1
  Ti  Ti197  1  0.40033797  0.39574268  0.80581106  1
  Ti  Ti198  1  0.90990334  0.30362355  0.50431163  1
  Ti  Ti199  1  0.90987683  0.49488366  0.50711800  1
  Mo  Mo200  1  0.30396471  0.50337542  0.09473542  1
  Mo  Mo201  1  0.39566803  -0.00438504  0.79927694  1
  Mo  Mo202  1  0.00953236  -0.00454075  -0.00500962  1
  Mo  Mo203  1  0.90594314  0.28699121  0.89621590  1
  Mo  Mo204  1  0.59560295  0.59898381  0.00370155  1
  Mo  Mo205  1  0.60391862  0.20002523  0.00292057  1
  Mo  Mo206  1  0.19705842  0.80620400  0.80256977  1
  Mo  Mo207  1  0.79390562  0.80663590  0.60646048  1
  Mo  Mo208  1  0.80579329  0.20022788  -0.01315071  1
  Mo  Mo209  1  0.20935268  0.60310382  -0.00464835  1
  Mo  Mo210  1  0.49816417  0.30154530  0.10371800  1
  Mo  Mo211  1  0.39501248  0.19522944  0.00380137  1
  Mo  Mo212  1  -0.00086710  -0.01076837  0.79706189  1
  Mo  Mo213  1  0.80540140  0.40512282  0.18664371  1
  Mo  Mo214  1  0.29479863  0.09717762  0.90287311  1
  Mo  Mo215  1  0.39390352  0.80086733  0.79900248  1
  Mo  Mo216  1  0.19579182  -0.00874209  0.39962717  1
  Mo  Mo217  1  0.29372340  0.71016020  0.29724063  1
  Mo  Mo218  1  0.10333883  0.29820309  0.70479216  1
  Mo  Mo219  1  0.10539860  0.49474739  0.89974282  1
  Mo  Mo220  1  0.59814117  0.60020732  0.59968032  1
  Mo  Mo221  1  0.20627486  0.20240603  0.19904729  1
  Mo  Mo222  1  0.20016225  0.79187534  0.59550637  1
  Mo  Mo223  1  0.90215599  0.50712426  0.90167300  1
  Mo  Mo224  1  0.38974921  0.80285860  0.19733997  1
  Mo  Mo225  1  0.40158609  0.81308619  -0.00446083  1
  Mo  Mo226  1  -0.00266325  0.59566088  -0.00147262  1
  Mo  Mo227  1  0.48466288  0.30258341  0.30245625  1
  Mo  Mo228  1  0.19750896  0.19489488  0.00032316  1
  Mo  Mo229  1  -0.00170469  0.39791884  0.59509316  1
  Mo  Mo230  1  0.67794391  0.89624416  0.51246040  1
  Mo  Mo231  1  0.09742368  0.09863669  0.89841646  1
  Mo  Mo232  1  0.10359250  0.29627743  0.90233853  1
  Mo  Mo233  1  0.19002828  0.60515206  0.40408669  1
  Mo  Mo234  1  0.39922369  0.40366961  0.20575821  1
  Mo  Mo235  1  0.59289776  0.19438826  0.80019552  1
  Mo  Mo236  1  0.20574923  0.21129470  0.40592248  1
  Mo  Mo237  1  0.50288699  0.09329886  0.91065131  1
  Mo  Mo238  1  0.00210482  -0.00777137  0.60325301  1
  Mo  Mo239  1  0.91904214  0.89529882  0.51107803  1
  Mo  Mo240  1  0.10437093  0.10631511  0.09013838  1
  Mo  Mo241  1  0.40128223  0.60678513  0.41260254  1
  Mo  Mo242  1  0.39729989  0.19794808  0.60436452  1
  Mo  Mo243  1  0.10014903  0.70945624  0.09751371  1
  Mo  Mo244  1  0.29489747  0.49937267  0.50818989  1
  Mo  Mo245  1  0.59230346  0.00042183  0.60175513  1
  Mo  Mo246  1  0.19965412  0.39777175  -0.00485318  1
  Mo  Mo247  1  0.60223212  0.19347557  0.60401427  1
  Mo  Mo248  1  0.19976454  -0.00741777  0.60556971  1
  Mo  Mo249  1  0.01234679  0.80571665  0.18736659  1
