# generated using pymatgen
data_HfZrTaTiMo
_symmetry_space_group_name_H-M   'P 1'
_cell_length_a   16.88049070
_cell_length_b   16.88173456
_cell_length_c   16.88497326
_cell_angle_alpha   89.98052856
_cell_angle_beta   90.03904803
_cell_angle_gamma   89.99902946
_symmetry_Int_Tables_number   1
_chemical_formula_structural   HfZrTaTiMo
_chemical_formula_sum   'Hf50 Zr50 Ta50 Ti50 Mo50'
_cell_volume   4811.74258416
_cell_formula_units_Z   50
loop_
 _symmetry_equiv_pos_site_id
 _symmetry_equiv_pos_as_xyz
  1  'x, y, z'
loop_
 _atom_site_type_symbol
 _atom_site_label
 _atom_site_symmetry_multiplicity
 _atom_site_fract_x
 _atom_site_fract_y
 _atom_site_fract_z
 _atom_site_occupancy
  Hf  Hf0  1  0.20479634  0.79572927  0.59430024  1
  Hf  Hf1  1  -0.00936377  0.59161374  0.59508165  1
  Hf  Hf2  1  0.31123745  0.50729980  0.69170871  1
  Hf  Hf3  1  0.79909753  0.59856506  0.20171732  1
  Hf  Hf4  1  0.30488418  0.10386782  0.49622673  1
  Hf  Hf5  1  0.09695800  0.10208568  0.09650514  1
  Hf  Hf6  1  0.70542748  0.29745855  0.50229570  1
  Hf  Hf7  1  0.60059447  0.39404557  0.79300863  1
  Hf  Hf8  1  0.50235986  0.90244389  0.30284755  1
  Hf  Hf9  1  -0.00377881  0.80762288  0.20033294  1
  Hf  Hf10  1  -0.00456761  0.59691707  0.80050713  1
  Hf  Hf11  1  0.89192788  0.09871212  0.29730323  1
  Hf  Hf12  1  -0.00502157  0.39958823  0.78736676  1
  Hf  Hf13  1  0.40365736  0.60748610  -0.00798722  1
  Hf  Hf14  1  0.69742263  0.70603841  0.09109212  1
  Hf  Hf15  1  0.11044297  0.50411239  0.69179375  1
  Hf  Hf16  1  0.40863892  0.59842116  0.39901555  1
  Hf  Hf17  1  0.30398906  0.28685587  0.89309561  1
  Hf  Hf18  1  0.69228828  0.09554904  0.10394066  1
  Hf  Hf19  1  0.20076969  0.59739484  -0.00584408  1
  Hf  Hf20  1  0.59781332  0.79969815  0.59920126  1
  Hf  Hf21  1  0.89567705  0.49535911  0.09087975  1
  Hf  Hf22  1  0.00093506  -0.00396780  0.20272307  1
  Hf  Hf23  1  0.90681027  0.30221602  0.30863830  1
  Hf  Hf24  1  0.09719874  0.90222299  0.70028105  1
  Hf  Hf25  1  0.80435430  0.39583250  0.78842242  1
  Hf  Hf26  1  0.30608924  0.50159004  0.10755933  1
  Hf  Hf27  1  0.59910340  0.39710360  0.40618225  1
  Hf  Hf28  1  -0.00365244  0.00986292  0.60250258  1
  Hf  Hf29  1  -0.00395066  0.59482941  0.20823822  1
  Hf  Hf30  1  0.41072486  -0.00426552  0.00700139  1
  Hf  Hf31  1  0.09231075  0.70887580  0.90332156  1
  Hf  Hf32  1  0.19416202  0.00667127  0.79883742  1
  Hf  Hf33  1  0.69444813  0.90034284  0.50407669  1
  Hf  Hf34  1  0.70032515  0.70452781  0.69657058  1
  Hf  Hf35  1  0.19361247  0.19219240  0.59961995  1
  Hf  Hf36  1  0.40707252  0.39147414  -0.00797306  1
  Hf  Hf37  1  0.71004444  0.29523151  0.89537005  1
  Hf  Hf38  1  0.31126884  0.90359588  0.68793752  1
  Hf  Hf39  1  -0.00258201  0.20053076  0.20029375  1
  Hf  Hf40  1  0.29664865  0.90156981  0.30541077  1
  Hf  Hf41  1  0.30193730  0.70205280  0.10312485  1
  Hf  Hf42  1  0.20417567  0.39845529  0.00194521  1
  Hf  Hf43  1  0.10084022  0.69638341  0.69446514  1
  Hf  Hf44  1  0.50952877  0.08161974  0.69203949  1
  Hf  Hf45  1  0.68912938  0.10298864  0.29620656  1
  Hf  Hf46  1  0.88738292  0.70459130  0.69706697  1
  Hf  Hf47  1  0.10596363  0.90000097  0.49561790  1
  Hf  Hf48  1  0.20157854  0.39159101  0.59388868  1
  Hf  Hf49  1  0.79703705  0.00721602  0.60464939  1
  Zr  Zr50  1  0.29090110  0.90120657  0.90724488  1
  Zr  Zr51  1  0.50492807  0.89656697  0.70239589  1
  Zr  Zr52  1  0.40226665  0.78569417  0.81480310  1
  Zr  Zr53  1  0.10200578  0.28882540  0.89396528  1
  Zr  Zr54  1  0.20606358  0.19486862  0.20874991  1
  Zr  Zr55  1  0.79387434  0.81014948  0.19467456  1
  Zr  Zr56  1  0.40350688  0.79740754  0.39842890  1
  Zr  Zr57  1  0.70120931  0.49798874  0.30571355  1
  Zr  Zr58  1  0.18915705  0.80498164  0.20022228  1
  Zr  Zr59  1  0.81110563  0.40016201  0.60190248  1
  Zr  Zr60  1  0.20404574  0.79588772  0.79936287  1
  Zr  Zr61  1  0.19583761  0.00435557  0.20533011  1
  Zr  Zr62  1  0.30636482  0.10312561  0.70349240  1
  Zr  Zr63  1  0.69685568  0.50629788  0.69026508  1
  Zr  Zr64  1  -0.00079563  0.00230985  0.40572819  1
  Zr  Zr65  1  -0.00838858  0.80434952  0.59211748  1
  Zr  Zr66  1  0.89730679  0.12305189  0.49919878  1
  Zr  Zr67  1  0.09986131  0.49104191  0.30576329  1
  Zr  Zr68  1  0.29709841  0.70281286  0.29537426  1
  Zr  Zr69  1  0.89906208  0.10404682  0.89819986  1
  Zr  Zr70  1  0.40678867  -0.00676956  0.81336925  1
  Zr  Zr71  1  0.30217118  0.50102414  0.50289294  1
  Zr  Zr72  1  0.79971817  0.40326190  0.20349492  1
  Zr  Zr73  1  0.09187648  0.28919285  0.48765013  1
  Zr  Zr74  1  0.79659410  0.59910620  0.80437875  1
  Zr  Zr75  1  0.50227819  0.29786161  0.69012685  1
  Zr  Zr76  1  0.50205847  0.50255259  0.89518206  1
  Zr  Zr77  1  0.30055406  0.49828401  0.29719222  1
  Zr  Zr78  1  0.42467589  0.19785808  0.81027827  1
  Zr  Zr79  1  0.20768575  0.40168775  0.79776571  1
  Zr  Zr80  1  0.19495078  0.60854913  0.40441637  1
  Zr  Zr81  1  0.89809914  0.89860649  0.89752784  1
  Zr  Zr82  1  0.69365640  0.30423055  0.11049380  1
  Zr  Zr83  1  0.59375944  0.60475532  0.39893016  1
  Zr  Zr84  1  0.60298784  0.60125843  0.19806422  1
  Zr  Zr85  1  0.79920236  0.19523311  0.00356058  1
  Zr  Zr86  1  0.49494245  0.69328442  0.69890275  1
  Zr  Zr87  1  0.60502280  0.40552935  0.00104390  1
  Zr  Zr88  1  0.41021644  0.80238979  0.00014712  1
  Zr  Zr89  1  0.49938291  0.29296229  0.10806173  1
  Zr  Zr90  1  0.79575741  0.00134872  0.40603924  1
  Zr  Zr91  1  0.00541650  0.39823165  -0.00494162  1
  Zr  Zr92  1  0.89277679  0.70247066  0.30852237  1
  Zr  Zr93  1  0.89914933  0.70593668  0.08563487  1
  Zr  Zr94  1  0.78912502  0.00895761  0.80071813  1
  Zr  Zr95  1  0.30803885  0.28764986  0.10080453  1
  Zr  Zr96  1  0.60628262  0.19542460  0.59972531  1
  Zr  Zr97  1  0.59166718  0.20000768  -0.01155583  1
  Zr  Zr98  1  0.09443172  0.69900259  0.09737773  1
  Zr  Zr99  1  0.51200221  0.28940327  0.29749480  1
  Ta  Ta100  1  -0.00182246  0.59456760  -0.00688128  1
  Ta  Ta101  1  0.79413533  0.80560874  0.40536935  1
  Ta  Ta102  1  0.19653563  0.00212507  0.00305544  1
  Ta  Ta103  1  0.40253049  0.00627893  0.39958112  1
  Ta  Ta104  1  0.29781066  0.10297414  0.90713183  1
  Ta  Ta105  1  0.49922697  0.10268356  0.10731445  1
  Ta  Ta106  1  0.88446838  0.70005425  0.50119909  1
  Ta  Ta107  1  0.89378487  0.49495563  0.90223851  1
  Ta  Ta108  1  0.70288357  0.50772662  0.50049628  1
  Ta  Ta109  1  0.61540635  0.18920547  0.79668966  1
  Ta  Ta110  1  0.09811892  0.10053786  0.89921443  1
  Ta  Ta111  1  0.30640077  0.29514873  0.69445589  1
  Ta  Ta112  1  0.39846399  0.00277385  0.20284453  1
  Ta  Ta113  1  0.49429115  0.90633821  0.50839741  1
  Ta  Ta114  1  0.39964062  0.39308298  0.20740018  1
  Ta  Ta115  1  0.49628767  0.70131385  0.50620805  1
  Ta  Ta116  1  0.31106688  0.29321619  0.49871912  1
  Ta  Ta117  1  0.40601258  0.39856182  0.79286692  1
  Ta  Ta118  1  0.19957788  0.19497878  0.00143387  1
  Ta  Ta119  1  0.50730000  0.70358380  0.09663668  1
  Ta  Ta120  1  0.88837186  0.89685040  0.70110192  1
  Ta  Ta121  1  0.69757682  0.71062876  0.30639505  1
  Ta  Ta122  1  0.69448020  0.90583242  0.29835758  1
  Ta  Ta123  1  0.30007972  0.90338539  0.10422057  1
  Ta  Ta124  1  0.10111386  0.49526988  0.10393422  1
  Ta  Ta125  1  0.21091009  0.60521915  0.80355868  1
  Ta  Ta126  1  0.89846576  0.29782122  0.89624781  1
  Ta  Ta127  1  -0.00602001  0.80194017  0.79809530  1
  Ta  Ta128  1  0.89456925  0.70635151  0.90200505  1
  Ta  Ta129  1  0.79022174  -0.00197631  0.00042762  1
  Ta  Ta130  1  -0.00281349  0.00143797  -0.00009456  1
  Ta  Ta131  1  0.40615691  0.39495461  0.40147151  1
  Ta  Ta132  1  0.09924086  0.30037381  0.10507085  1
  Ta  Ta133  1  0.10101841  0.30049585  0.30364601  1
  Ta  Ta134  1  0.79784722  0.20541594  0.20272081  1
  Ta  Ta135  1  0.30230756  0.90530477  0.49935014  1
  Ta  Ta136  1  -0.00729140  0.59920638  0.40486811  1
  Ta  Ta137  1  0.20284240  0.39135763  0.20274169  1
  Ta  Ta138  1  0.70191210  0.69613922  0.50321247  1
  Ta  Ta139  1  0.49847938  0.10548733  0.30095584  1
  Ta  Ta140  1  0.10204170  0.29385704  0.69842446  1
  Ta  Ta141  1  0.50036859  0.49169388  0.29513625  1
  Ta  Ta142  1  0.59964839  0.60339916  0.80509295  1
  Ta  Ta143  1  0.20120087  0.01092970  0.40098134  1
  Ta  Ta144  1  0.50114998  0.49900232  0.10669740  1
  Ta  Ta145  1  -0.00290919  0.19590847  0.78889958  1
  Ta  Ta146  1  0.90006086  0.30202106  0.09582983  1
  Ta  Ta147  1  0.59254165  0.00572043  0.40746166  1
  Ta  Ta148  1  0.89020542  0.90310780  0.30261488  1
  Ta  Ta149  1  -0.00372495  0.39924111  0.59853281  1
  Ti  Ti150  1  -0.00324120  0.00586385  0.79328949  1
  Ti  Ti151  1  0.49843671  0.28792164  0.49330863  1
  Ti  Ti152  1  0.10120429  0.50001459  0.89610635  1
  Ti  Ti153  1  0.40039102  0.60217941  0.80424029  1
  Ti  Ti154  1  0.19084346  0.59869910  0.20230400  1
  Ti  Ti155  1  0.09596492  0.70920217  0.31207177  1
  Ti  Ti156  1  0.09528116  0.90027481  0.08709642  1
  Ti  Ti157  1  0.79101574  0.20710949  0.39250146  1
  Ti  Ti158  1  0.60437575  0.60058514  -0.00412879  1
  Ti  Ti159  1  0.19959870  0.80206969  0.00151577  1
  Ti  Ti160  1  0.58643690  0.59070319  0.59650129  1
  Ti  Ti161  1  0.40992221  0.80488716  0.19628507  1
  Ti  Ti162  1  0.89451929  0.90797616  0.09636147  1
  Ti  Ti163  1  0.88493817  0.50940752  0.49264507  1
  Ti  Ti164  1  0.70560035  0.49442855  0.90209390  1
  Ti  Ti165  1  0.00007894  0.40177041  0.20129253  1
  Ti  Ti166  1  0.30538342  0.49923900  0.89550035  1
  Ti  Ti167  1  0.59662048  0.79987618  0.40122116  1
  Ti  Ti168  1  0.80125057  0.40069462  0.39999381  1
  Ti  Ti169  1  -0.00781496  0.41001169  0.40892178  1
  Ti  Ti170  1  0.69525674  0.89723683  0.70933613  1
  Ti  Ti171  1  0.20816282  0.38983949  0.39926988  1
  Ti  Ti172  1  0.41475583  0.40584039  0.59300980  1
  Ti  Ti173  1  0.59425673  0.80152899  0.19889389  1
  Ti  Ti174  1  0.89318250  0.09459248  0.10408125  1
  Ti  Ti175  1  0.09169109  0.90195055  0.90389533  1
  Ti  Ti176  1  0.30774350  0.10041144  0.09744827  1
  Ti  Ti177  1  0.10419068  0.50085123  0.50054410  1
  Ti  Ti178  1  0.69647821  0.10389209  0.50057669  1
  Ti  Ti179  1  -0.00039457  0.19870169  0.60770153  1
  Ti  Ti180  1  0.30587654  0.70102243  0.50543348  1
  Ti  Ti181  1  0.69480133  0.71738986  0.89757358  1
  Ti  Ti182  1  0.52861582  0.89256831  0.90408182  1
  Ti  Ti183  1  0.30602742  0.69200132  0.68737836  1
  Ti  Ti184  1  0.09625994  0.70147023  0.49712115  1
  Ti  Ti185  1  0.79056911  0.81268786  -0.00582144  1
  Ti  Ti186  1  0.09996812  0.89468705  0.31394898  1
  Ti  Ti187  1  0.40745785  0.19262995  0.59567816  1
  Ti  Ti188  1  0.58994624  -0.00351299  0.19750785  1
  Ti  Ti189  1  -0.01174632  0.80338329  0.40531378  1
  Ti  Ti190  1  0.68546962  0.90457922  0.09477225  1
  Ti  Ti191  1  0.59635762  0.40351248  0.59572499  1
  Ti  Ti192  1  0.79249525  0.59693941  -0.00447438  1
  Ti  Ti193  1  0.51531165  0.08520798  0.90278261  1
  Ti  Ti194  1  0.41288201  0.60710637  0.20442471  1
  Ti  Ti195  1  0.89986111  0.29584863  0.50042426  1
  Ti  Ti196  1  -0.00201929  0.19977072  0.00098646  1
  Ti  Ti197  1  0.30758541  0.28549433  0.31098499  1
  Ti  Ti198  1  0.09880918  0.11586058  0.32027573  1
  Ti  Ti199  1  0.19500493  0.00820992  0.59756158  1
  Mo  Mo200  1  0.79705337  0.80400318  0.80177947  1
  Mo  Mo201  1  0.90301339  0.49686664  0.31427624  1
  Mo  Mo202  1  0.19406955  0.19574987  0.79823211  1
  Mo  Mo203  1  0.51831580  0.69858878  0.90276586  1
  Mo  Mo204  1  0.60113697  -0.00358511  0.00316243  1
  Mo  Mo205  1  0.90437508  0.50006894  0.69664752  1
  Mo  Mo206  1  0.89734928  0.10426805  0.70013379  1
  Mo  Mo207  1  0.49972825  0.50116027  0.69737384  1
  Mo  Mo208  1  0.29122963  0.69625811  0.90514493  1
  Mo  Mo209  1  0.50574395  0.70695621  0.29225278  1
  Mo  Mo210  1  0.69604783  0.09571555  0.90066237  1
  Mo  Mo211  1  0.79859467  0.60015746  0.59452602  1
  Mo  Mo212  1  0.20418443  0.20117666  0.40035156  1
  Mo  Mo213  1  0.40169954  0.18567906  -0.00091603  1
  Mo  Mo214  1  0.60102562  0.19363892  0.20289012  1
  Mo  Mo215  1  0.50085449  0.09737160  0.49670114  1
  Mo  Mo216  1  0.10255902  0.09933728  0.50000070  1
  Mo  Mo217  1  0.40444686  0.19991402  0.40236070  1
  Mo  Mo218  1  0.60624757  -0.00189422  0.59828027  1
  Mo  Mo219  1  0.60810084  -0.00287885  0.80582386  1
  Mo  Mo220  1  0.70374640  0.29748695  0.30536561  1
  Mo  Mo221  1  0.50200759  0.90155116  0.10951280  1
  Mo  Mo222  1  0.40294977  0.59969155  0.59349183  1
  Mo  Mo223  1  0.50574710  0.30057233  0.89239380  1
  Mo  Mo224  1  0.80294731  0.39933468  -0.00556833  1
  Mo  Mo225  1  0.19779191  0.80461848  0.40687495  1
  Mo  Mo226  1  0.80314396  0.20143439  0.78911147  1
  Mo  Mo227  1  -0.00385642  0.81036453  -0.00358980  1
  Mo  Mo228  1  0.50243463  0.49670939  0.50022198  1
  Mo  Mo229  1  0.69909716  0.50670181  0.08896991  1
  Mo  Mo230  1  0.60299404  0.80238453  0.00326617  1
  Mo  Mo231  1  0.80094589  0.20243173  0.61048905  1
  Mo  Mo232  1  0.79644315  -0.00292437  0.19379353  1
  Mo  Mo233  1  0.39770772  0.79817957  0.59276507  1
  Mo  Mo234  1  0.70622343  0.29247618  0.69709290  1
  Mo  Mo235  1  0.20073971  0.60632496  0.59672755  1
  Mo  Mo236  1  -0.00397948  0.20279461  0.39559676  1
  Mo  Mo237  1  0.79534336  0.60588579  0.40218127  1
  Mo  Mo238  1  0.90652102  0.29305861  0.69453863  1
  Mo  Mo239  1  0.59628307  0.40573401  0.20145623  1
  Mo  Mo240  1  0.60548897  0.79724129  0.80423067  1
  Mo  Mo241  1  0.60243907  0.19545313  0.40504417  1
  Mo  Mo242  1  0.69905468  0.90086732  0.90355104  1
  Mo  Mo243  1  0.39947175  0.18988968  0.20639543  1
  Mo  Mo244  1  0.70094305  0.09962322  0.70058869  1
  Mo  Mo245  1  0.40238788  0.00073077  0.59037060  1
  Mo  Mo246  1  0.09567952  0.10069198  0.70303460  1
  Mo  Mo247  1  0.89226743  0.89230912  0.50262839  1
  Mo  Mo248  1  0.30863819  0.10036712  0.30473360  1
  Mo  Mo249  1  0.79350247  0.80613056  0.59975539  1
