# generated using pymatgen
data_HfZrTaTiMo
_symmetry_space_group_name_H-M   'P 1'
_cell_length_a   16.87807045
_cell_length_b   16.88554680
_cell_length_c   16.89327765
_cell_angle_alpha   89.97222808
_cell_angle_beta   90.04084681
_cell_angle_gamma   89.99843761
_symmetry_Int_Tables_number   1
_chemical_formula_structural   HfZrTaTiMo
_chemical_formula_sum   'Hf50 Zr50 Ta50 Ti50 Mo50'
_cell_volume   4814.50544937
_cell_formula_units_Z   50
loop_
 _symmetry_equiv_pos_site_id
 _symmetry_equiv_pos_as_xyz
  1  'x, y, z'
loop_
 _atom_site_type_symbol
 _atom_site_label
 _atom_site_symmetry_multiplicity
 _atom_site_fract_x
 _atom_site_fract_y
 _atom_site_fract_z
 _atom_site_occupancy
  Hf  Hf0  1  0.50862399  0.90782896  0.90007171  1
  Hf  Hf1  1  0.69754240  0.69870214  0.69609025  1
  Hf  Hf2  1  0.50888283  0.68933232  0.12129533  1
  Hf  Hf3  1  0.30953190  0.50208799  0.89473297  1
  Hf  Hf4  1  0.89733112  0.69761768  0.29403462  1
  Hf  Hf5  1  0.30523019  0.70243928  0.30019730  1
  Hf  Hf6  1  0.59669644  0.00448431  0.59585315  1
  Hf  Hf7  1  0.10603563  0.89886906  0.30392688  1
  Hf  Hf8  1  0.59902517  0.40438079  0.18889946  1
  Hf  Hf9  1  0.09699056  0.69749523  0.29795641  1
  Hf  Hf10  1  0.90040756  0.30344734  0.70824490  1
  Hf  Hf11  1  0.20630624  0.19840261  0.19903131  1
  Hf  Hf12  1  0.20544455  0.39962649  -0.00511784  1
  Hf  Hf13  1  0.40320117  0.19866832  -0.00877828  1
  Hf  Hf14  1  0.89305474  0.90143394  0.50202945  1
  Hf  Hf15  1  0.80112095  0.39732010  0.19479089  1
  Hf  Hf16  1  0.09035157  0.29524628  0.89896045  1
  Hf  Hf17  1  -0.00292126  0.80507475  0.80707610  1
  Hf  Hf18  1  0.30690653  0.49104766  0.49960740  1
  Hf  Hf19  1  0.20058962  0.59804284  0.40707782  1
  Hf  Hf20  1  0.59382869  -0.00633424  0.41121144  1
  Hf  Hf21  1  0.39162239  0.60340994  0.60981418  1
  Hf  Hf22  1  0.79768796  0.20825166  0.39315451  1
  Hf  Hf23  1  0.09782570  0.30160969  0.70872359  1
  Hf  Hf24  1  0.00293664  0.79022450  -0.00292428  1
  Hf  Hf25  1  0.60296583  0.79536992  0.00441923  1
  Hf  Hf26  1  0.00115678  0.19895442  0.59963847  1
  Hf  Hf27  1  0.39543098  0.39674460  0.78438623  1
  Hf  Hf28  1  0.59585863  0.80654075  0.59424900  1
  Hf  Hf29  1  0.80090489  0.60113758  0.40516156  1
  Hf  Hf30  1  0.79234429  0.20072974  0.79649292  1
  Hf  Hf31  1  -0.00443424  -0.00076018  0.61205291  1
  Hf  Hf32  1  0.89540474  0.49891514  0.29650301  1
  Hf  Hf33  1  0.79952789  0.59428300  0.80300678  1
  Hf  Hf34  1  0.11326883  0.30549466  0.49612157  1
  Hf  Hf35  1  0.89933754  0.90440488  0.09490783  1
  Hf  Hf36  1  0.78867310  0.00229713  0.60542175  1
  Hf  Hf37  1  0.89173415  0.10095357  0.50247465  1
  Hf  Hf38  1  0.08930071  0.10615600  0.09000804  1
  Hf  Hf39  1  0.50069675  0.09686230  0.30756543  1
  Hf  Hf40  1  0.60484640  0.00282640  0.19593581  1
  Hf  Hf41  1  0.80744197  0.59451505  0.59375718  1
  Hf  Hf42  1  0.79831309  0.01497998  0.00855292  1
  Hf  Hf43  1  0.70319484  0.69631535  0.90260096  1
  Hf  Hf44  1  0.30531812  0.10508315  0.69878072  1
  Hf  Hf45  1  0.89059028  0.30460581  0.50014445  1
  Hf  Hf46  1  0.70302792  0.89556430  0.70786501  1
  Hf  Hf47  1  0.09467246  0.29506339  0.09242433  1
  Hf  Hf48  1  0.70133751  0.90311051  0.90058377  1
  Hf  Hf49  1  0.60577818  0.58333593  0.01358825  1
  Zr  Zr50  1  0.49760818  0.68901430  0.89638916  1
  Zr  Zr51  1  0.21819791  0.19727249  0.40295033  1
  Zr  Zr52  1  0.19410521  0.79794421  0.80754485  1
  Zr  Zr53  1  0.69478526  0.10301630  0.89809519  1
  Zr  Zr54  1  0.09857315  0.49799525  0.29802198  1
  Zr  Zr55  1  0.09568373  0.71244997  0.50667241  1
  Zr  Zr56  1  0.28433864  0.90609972  0.91646748  1
  Zr  Zr57  1  0.40310351  0.20762440  0.19762154  1
  Zr  Zr58  1  0.70310443  0.49076571  0.90075416  1
  Zr  Zr59  1  0.49507025  0.90609573  0.70044576  1
  Zr  Zr60  1  0.20563037  0.41083566  0.61622672  1
  Zr  Zr61  1  0.10563037  0.30577293  0.30017478  1
  Zr  Zr62  1  0.39338827  0.00612799  0.80325389  1
  Zr  Zr63  1  0.39877767  0.80707022  0.19986099  1
  Zr  Zr64  1  0.60002134  0.39830983  0.39771256  1
  Zr  Zr65  1  0.20086581  0.80037954  0.18808486  1
  Zr  Zr66  1  0.39704641  0.79632780  0.00307188  1
  Zr  Zr67  1  0.50917887  0.70775047  0.30527452  1
  Zr  Zr68  1  0.50535365  0.50752183  0.50585213  1
  Zr  Zr69  1  0.89655729  0.28630287  0.08477351  1
  Zr  Zr70  1  0.30811137  0.50090108  0.29489785  1
  Zr  Zr71  1  0.41124313  0.39628488  0.39748225  1
  Zr  Zr72  1  0.19572931  0.59648915  0.00338635  1
  Zr  Zr73  1  0.59979563  0.20254924  0.19375082  1
  Zr  Zr74  1  0.21003374  0.80489626  0.41015128  1
  Zr  Zr75  1  0.40736476  0.19756715  0.40629653  1
  Zr  Zr76  1  0.38906436  0.79786343  0.79411930  1
  Zr  Zr77  1  0.69840966  0.89401211  0.29517138  1
  Zr  Zr78  1  0.10849254  0.09736598  0.30422250  1
  Zr  Zr79  1  0.00452801  0.41325549  0.59361111  1
  Zr  Zr80  1  -0.00490285  0.00264902  0.19801116  1
  Zr  Zr81  1  -0.00646199  0.59295262  0.41774865  1
  Zr  Zr82  1  0.10515811  0.90551823  0.50710355  1
  Zr  Zr83  1  0.40881125  0.39685813  0.00900634  1
  Zr  Zr84  1  0.00044038  0.59304961  0.59968253  1
  Zr  Zr85  1  0.20429720  0.59406903  0.78844030  1
  Zr  Zr86  1  0.78940773  0.39587344  0.60625508  1
  Zr  Zr87  1  0.89758185  0.70212776  0.70529279  1
  Zr  Zr88  1  0.19579459  0.59839740  0.60234438  1
  Zr  Zr89  1  -0.00151730  0.20251081  0.39811486  1
  Zr  Zr90  1  -0.00078547  0.79675860  0.19154234  1
  Zr  Zr91  1  0.88579002  0.09181071  0.29997675  1
  Zr  Zr92  1  0.10718215  0.10062250  0.70449600  1
  Zr  Zr93  1  0.40234571  0.59005492  0.01364340  1
  Zr  Zr94  1  0.50908258  0.29763817  0.88885746  1
  Zr  Zr95  1  0.50156126  0.90518387  0.09965291  1
  Zr  Zr96  1  0.10734817  0.91252318  0.07745561  1
  Zr  Zr97  1  0.20640038  0.40492356  0.18679586  1
  Zr  Zr98  1  -0.00138297  -0.00178888  0.40281403  1
  Zr  Zr99  1  0.30083671  0.09288169  0.09430611  1
  Ta  Ta100  1  -0.00668223  0.80697441  0.60863999  1
  Ta  Ta101  1  0.78640976  0.19941813  0.60642368  1
  Ta  Ta102  1  0.19717026  0.60038013  0.18938564  1
  Ta  Ta103  1  0.39310172  0.80654487  0.60043701  1
  Ta  Ta104  1  0.20703757  0.20005610  -0.00921842  1
  Ta  Ta105  1  0.09319420  0.70155578  0.70403291  1
  Ta  Ta106  1  0.69227105  0.11140569  0.49393997  1
  Ta  Ta107  1  0.69805502  0.69803413  0.29502784  1
  Ta  Ta108  1  0.70259679  0.30238739  0.90079776  1
  Ta  Ta109  1  0.60058321  0.59557390  0.79403420  1
  Ta  Ta110  1  0.70135573  0.30130160  0.29655836  1
  Ta  Ta111  1  0.11426480  0.09872883  0.50774395  1
  Ta  Ta112  1  0.69487436  0.10473066  0.30486522  1
  Ta  Ta113  1  0.59908060  0.19903346  0.00366832  1
  Ta  Ta114  1  -0.01239227  0.20309063  0.20399555  1
  Ta  Ta115  1  0.79613122  0.79512862  0.40340077  1
  Ta  Ta116  1  0.20571424  -0.00034604  0.19951682  1
  Ta  Ta117  1  0.89509488  0.10211239  0.70518176  1
  Ta  Ta118  1  0.40507374  0.60796701  0.40346348  1
  Ta  Ta119  1  0.30154805  0.69148513  0.89824952  1
  Ta  Ta120  1  0.50521812  0.49594258  0.88904619  1
  Ta  Ta121  1  0.31153344  0.30232707  0.51554941  1
  Ta  Ta122  1  0.69563804  0.49990614  0.49829232  1
  Ta  Ta123  1  0.50105489  0.69624330  0.69800075  1
  Ta  Ta124  1  0.59809436  0.79466247  0.79999814  1
  Ta  Ta125  1  0.90128561  0.49265969  0.71573802  1
  Ta  Ta126  1  0.89746181  0.90637281  0.90580763  1
  Ta  Ta127  1  -0.01065295  0.39934984  0.39689391  1
  Ta  Ta128  1  0.79945404  0.59520085  0.18560651  1
  Ta  Ta129  1  0.60544956  0.39631782  0.78750090  1
  Ta  Ta130  1  0.80549741  0.79285427  0.00298682  1
  Ta  Ta131  1  -0.00393253  -0.00090860  0.80461004  1
  Ta  Ta132  1  0.20965761  0.80156852  0.61490110  1
  Ta  Ta133  1  0.79969990  0.79330507  0.19233395  1
  Ta  Ta134  1  0.49559960  0.29340299  0.69082865  1
  Ta  Ta135  1  0.69957151  0.50423953  0.29768451  1
  Ta  Ta136  1  0.50130314  0.51585523  0.28697243  1
  Ta  Ta137  1  0.08936515  0.49581162  0.89464062  1
  Ta  Ta138  1  0.30698385  0.90902266  0.30726451  1
  Ta  Ta139  1  0.69445636  0.69740254  0.49992356  1
  Ta  Ta140  1  -0.01262559  0.79945852  0.40381527  1
  Ta  Ta141  1  0.10124338  0.90115163  0.70540584  1
  Ta  Ta142  1  0.59972924  0.39559698  0.60308070  1
  Ta  Ta143  1  0.20188696  0.40061401  0.79881683  1
  Ta  Ta144  1  -0.00873816  0.39854196  0.19351325  1
  Ta  Ta145  1  0.50279743  0.50074502  0.69733033  1
  Ta  Ta146  1  0.70319042  0.29853798  0.08760806  1
  Ta  Ta147  1  -0.00705030  0.40308212  -0.00104263  1
  Ta  Ta148  1  0.89437027  0.30549552  0.89710052  1
  Ta  Ta149  1  -0.00383407  0.59808037  0.18006881  1
  Ti  Ti150  1  0.19270821  0.78351440  -0.00210496  1
  Ti  Ti151  1  0.29710174  0.90861733  0.09485383  1
  Ti  Ti152  1  0.31499915  0.09441261  0.51083156  1
  Ti  Ti153  1  -0.00544281  0.19119374  0.80312473  1
  Ti  Ti154  1  0.21459347  0.00153087  0.40945637  1
  Ti  Ti155  1  0.30469029  0.29569100  0.89064997  1
  Ti  Ti156  1  0.78403085  -0.00685249  0.40532177  1
  Ti  Ti157  1  0.79737581  0.19453958  0.19334398  1
  Ti  Ti158  1  0.30488590  0.31063001  0.29991553  1
  Ti  Ti159  1  0.09050477  0.49865306  0.09149776  1
  Ti  Ti160  1  0.60408255  0.80579983  0.41026759  1
  Ti  Ti161  1  0.30455384  0.70454916  0.50409506  1
  Ti  Ti162  1  0.30153685  0.69355120  0.10173984  1
  Ti  Ti163  1  0.50540788  0.30150866  0.29483779  1
  Ti  Ti164  1  0.49163001  0.10789483  0.69132624  1
  Ti  Ti165  1  0.39977702  0.00796524  -0.00879814  1
  Ti  Ti166  1  0.21341633  -0.00815739  0.60499121  1
  Ti  Ti167  1  0.59668435  0.39805389  0.00546181  1
  Ti  Ti168  1  0.70311661  0.69545413  0.10305643  1
  Ti  Ti169  1  0.09093183  0.68004786  0.89720273  1
  Ti  Ti170  1  0.49747591  0.09856955  0.09720137  1
  Ti  Ti171  1  0.89091352  0.89761175  0.29855470  1
  Ti  Ti172  1  0.40510261  0.81027782  0.41392112  1
  Ti  Ti173  1  0.79950195  0.80119184  0.59496274  1
  Ti  Ti174  1  0.50112023  0.70001278  0.50536583  1
  Ti  Ti175  1  0.20914964  0.20154885  0.80449860  1
  Ti  Ti176  1  0.80208953  0.40812198  0.00359905  1
  Ti  Ti177  1  0.30629518  0.30079317  0.09914337  1
  Ti  Ti178  1  0.90230232  0.49982932  0.90239799  1
  Ti  Ti179  1  0.60510323  0.00924351  0.00736105  1
  Ti  Ti180  1  0.80610177  0.00275877  0.79831506  1
  Ti  Ti181  1  0.90245530  0.10685506  0.90876488  1
  Ti  Ti182  1  0.50272013  0.10337564  0.89119033  1
  Ti  Ti183  1  0.69311368  0.29815942  0.49575157  1
  Ti  Ti184  1  0.60159065  0.60244833  0.40083266  1
  Ti  Ti185  1  0.30900732  0.09050309  0.30239858  1
  Ti  Ti186  1  0.50351043  0.29170839  0.50792525  1
  Ti  Ti187  1  0.79284672  0.00495664  0.19296442  1
  Ti  Ti188  1  0.20912794  0.20507266  0.60329648  1
  Ti  Ti189  1  0.60266790  0.19994106  0.78613207  1
  Ti  Ti190  1  0.09851970  0.09708546  0.90396007  1
  Ti  Ti191  1  0.80600851  0.80186070  0.80858485  1
  Ti  Ti192  1  0.69635127  0.50099915  0.69658918  1
  Ti  Ti193  1  0.19714821  -0.00014138  0.80663234  1
  Ti  Ti194  1  0.40012025  -0.00187684  0.20250105  1
  Ti  Ti195  1  0.89954125  0.68773228  0.90750544  1
  Ti  Ti196  1  0.60251273  0.19827563  0.60179545  1
  Ti  Ti197  1  0.49805172  0.89895178  0.30325654  1
  Ti  Ti198  1  0.60282363  0.01166120  0.78775554  1
  Ti  Ti199  1  0.70200746  0.89485513  0.09956467  1
  Mo  Mo200  1  -0.00651678  0.00734839  -0.01122569  1
  Mo  Mo201  1  0.69019326  0.29752941  0.70162874  1
  Mo  Mo202  1  0.29485725  0.10648490  0.89573816  1
  Mo  Mo203  1  0.50491943  0.29956652  0.09330588  1
  Mo  Mo204  1  0.11408347  0.48282150  0.47877112  1
  Mo  Mo205  1  0.60229457  0.20500864  0.39963149  1
  Mo  Mo206  1  -0.00342745  0.59846917  0.80396776  1
  Mo  Mo207  1  0.40096617  0.00146896  0.59510164  1
  Mo  Mo208  1  0.40807143  0.39445056  0.60140025  1
  Mo  Mo209  1  0.30275047  0.50001702  0.10242235  1
  Mo  Mo210  1  0.21054025  0.39607690  0.40115554  1
  Mo  Mo211  1  0.70570122  0.49402631  0.09771278  1
  Mo  Mo212  1  0.60226038  0.60075775  0.60033626  1
  Mo  Mo213  1  0.89628588  0.90449044  0.71008668  1
  Mo  Mo214  1  0.89496449  0.69545900  0.09327366  1
  Mo  Mo215  1  0.40262013  0.20153662  0.79561561  1
  Mo  Mo216  1  0.89325420  0.71429627  0.50477934  1
  Mo  Mo217  1  0.29902835  0.29316775  0.70128215  1
  Mo  Mo218  1  0.40623612  0.59642636  0.79547831  1
  Mo  Mo219  1  0.69662010  0.10044545  0.69895502  1
  Mo  Mo220  1  -0.00345895  0.40118571  0.80703645  1
  Mo  Mo221  1  0.30902771  0.49835348  0.70034016  1
  Mo  Mo222  1  0.30667940  0.90566478  0.50615581  1
  Mo  Mo223  1  0.61501649  0.59776555  0.20367981  1
  Mo  Mo224  1  0.09265019  0.91327598  0.89724288  1
  Mo  Mo225  1  0.09878860  0.69149169  0.09397947  1
  Mo  Mo226  1  0.19653335  0.01604863  -0.00533654  1
  Mo  Mo227  1  0.89604145  0.10322332  0.10042157  1
  Mo  Mo228  1  0.80486450  0.59947612  0.00332240  1
  Mo  Mo229  1  0.70112090  0.10841175  0.10394628  1
  Mo  Mo230  1  0.70116392  0.89285944  0.49907509  1
  Mo  Mo231  1  0.79425530  0.20302133  -0.00793121  1
  Mo  Mo232  1  0.08741578  0.50112230  0.72020730  1
  Mo  Mo233  1  0.39236293  0.60130766  0.20484697  1
  Mo  Mo234  1  0.40814014  0.40132881  0.19800266  1
  Mo  Mo235  1  -0.00402276  0.59359450  -0.00415628  1
  Mo  Mo236  1  0.50139218  0.10404834  0.50581462  1
  Mo  Mo237  1  0.89577348  0.30246046  0.29203573  1
  Mo  Mo238  1  0.88283676  0.48440275  0.49316800  1
  Mo  Mo239  1  -0.00520245  0.19987446  -0.01135711  1
  Mo  Mo240  1  0.61139253  0.80020222  0.19834640  1
  Mo  Mo241  1  0.49337466  0.89937699  0.49973564  1
  Mo  Mo242  1  0.40543791  0.19789214  0.59895240  1
  Mo  Mo243  1  0.90013326  0.49886214  0.09253230  1
  Mo  Mo244  1  0.49875907  0.49676524  0.11226028  1
  Mo  Mo245  1  0.29338724  0.90547921  0.70017203  1
  Mo  Mo246  1  0.79718853  0.39993888  0.80371622  1
  Mo  Mo247  1  0.79232102  0.40063284  0.39656701  1
  Mo  Mo248  1  0.40161589  -0.00350160  0.40586063  1
  Mo  Mo249  1  0.30152627  0.70353406  0.70125064  1
