# generated using pymatgen
data_HfZrTaTiMo
_symmetry_space_group_name_H-M   'P 1'
_cell_length_a   16.88819320
_cell_length_b   16.88207255
_cell_length_c   16.88589834
_cell_angle_alpha   90.00182282
_cell_angle_beta   90.01995120
_cell_angle_gamma   89.99854555
_symmetry_Int_Tables_number   1
_chemical_formula_structural   HfZrTaTiMo
_chemical_formula_sum   'Hf50 Zr50 Ta50 Ti50 Mo50'
_cell_volume   4814.29938918
_cell_formula_units_Z   50
loop_
 _symmetry_equiv_pos_site_id
 _symmetry_equiv_pos_as_xyz
  1  'x, y, z'
loop_
 _atom_site_type_symbol
 _atom_site_label
 _atom_site_symmetry_multiplicity
 _atom_site_fract_x
 _atom_site_fract_y
 _atom_site_fract_z
 _atom_site_occupancy
  Hf  Hf0  1  -0.00357680  0.60063052  -0.00553771  1
  Hf  Hf1  1  0.79550508  0.80161850  0.00516307  1
  Hf  Hf2  1  0.19879293  -0.00202422  0.20473446  1
  Hf  Hf3  1  0.49681575  0.09968956  0.50291832  1
  Hf  Hf4  1  0.89309846  0.70023245  0.89808828  1
  Hf  Hf5  1  0.49869780  0.90682097  0.89771286  1
  Hf  Hf6  1  0.40765106  0.80639941  0.38476347  1
  Hf  Hf7  1  0.89081555  0.30262220  0.90479483  1
  Hf  Hf8  1  0.78712177  0.00674002  0.00158595  1
  Hf  Hf9  1  0.09772643  0.71037288  0.69532552  1
  Hf  Hf10  1  0.70247930  0.70504687  0.69742086  1
  Hf  Hf11  1  -0.00020698  0.59395486  0.79728522  1
  Hf  Hf12  1  0.09649946  0.29069114  0.30165722  1
  Hf  Hf13  1  0.91061659  0.90085308  0.68222237  1
  Hf  Hf14  1  0.31285531  0.50063051  0.89223154  1
  Hf  Hf15  1  0.78652622  0.19366283  0.00771145  1
  Hf  Hf16  1  0.60292771  0.59300856  0.00004615  1
  Hf  Hf17  1  0.89801023  0.49750792  0.69357159  1
  Hf  Hf18  1  0.50371424  0.90725830  0.49832901  1
  Hf  Hf19  1  0.00573973  -0.00281797  0.00601445  1
  Hf  Hf20  1  0.30517457  0.29833322  0.68682516  1
  Hf  Hf21  1  0.10477485  0.28923482  0.10508749  1
  Hf  Hf22  1  0.40032206  0.80360851  -0.00150836  1
  Hf  Hf23  1  0.69508028  0.69208651  0.10921822  1
  Hf  Hf24  1  0.00942531  0.00816048  0.79733151  1
  Hf  Hf25  1  0.38814659  -0.00639299  0.60691276  1
  Hf  Hf26  1  0.19413537  0.19523355  0.79053584  1
  Hf  Hf27  1  0.50583065  0.90649158  0.09128428  1
  Hf  Hf28  1  0.60470867  0.19772256  0.19910775  1
  Hf  Hf29  1  0.19091948  0.00399740  0.39619499  1
  Hf  Hf30  1  0.90194131  0.70456973  0.50329872  1
  Hf  Hf31  1  0.09824254  0.70017984  0.30510566  1
  Hf  Hf32  1  0.29759165  0.90395956  0.48217807  1
  Hf  Hf33  1  0.49844828  0.09983362  0.69299357  1
  Hf  Hf34  1  0.18666423  0.39388520  0.78681517  1
  Hf  Hf35  1  0.59996662  0.19680182  0.80594216  1
  Hf  Hf36  1  0.89776782  0.49461722  0.49256480  1
  Hf  Hf37  1  0.19926310  0.00798999  0.60893316  1
  Hf  Hf38  1  -0.00378500  0.38913208  0.78992852  1
  Hf  Hf39  1  0.30228677  0.10320431  0.30767757  1
  Hf  Hf40  1  0.49685080  0.10200578  0.31851505  1
  Hf  Hf41  1  0.60282393  0.59826775  0.59545717  1
  Hf  Hf42  1  0.30012558  0.10889560  0.09902196  1
  Hf  Hf43  1  0.19965677  0.59457284  0.19542715  1
  Hf  Hf44  1  0.19577783  0.58923418  0.59307093  1
  Hf  Hf45  1  0.50203141  0.30027793  0.09804257  1
  Hf  Hf46  1  0.79061349  0.59651326  0.59206136  1
  Hf  Hf47  1  0.30257004  0.29731918  0.10201348  1
  Hf  Hf48  1  0.60459811  0.40209139  0.00068603  1
  Hf  Hf49  1  0.90516218  0.29417659  0.50375540  1
  Zr  Zr50  1  -0.00012254  0.80687465  0.80431614  1
  Zr  Zr51  1  0.60316714  0.39886802  0.79982664  1
  Zr  Zr52  1  0.89847641  0.10092799  0.89677187  1
  Zr  Zr53  1  0.59629642  0.00535951  0.20086673  1
  Zr  Zr54  1  0.79825479  0.39632180  0.19958044  1
  Zr  Zr55  1  0.79770027  0.39303460  0.60017705  1
  Zr  Zr56  1  0.11068320  0.10829020  0.91301417  1
  Zr  Zr57  1  0.19316522  0.59399513  0.79277106  1
  Zr  Zr58  1  0.40090460  -0.00932494  0.20703940  1
  Zr  Zr59  1  0.09969318  0.71083011  0.09962817  1
  Zr  Zr60  1  0.40145459  0.59957898  0.40123573  1
  Zr  Zr61  1  -0.00946903  0.39853805  0.19733990  1
  Zr  Zr62  1  0.20996192  0.80246449  0.60201004  1
  Zr  Zr63  1  0.30353094  0.70299474  0.09746131  1
  Zr  Zr64  1  0.70066688  0.69785474  0.89828002  1
  Zr  Zr65  1  0.89222223  0.09413367  0.11951176  1
  Zr  Zr66  1  0.49454808  0.28937151  0.49798287  1
  Zr  Zr67  1  0.30169677  0.70209057  0.89471835  1
  Zr  Zr68  1  0.88105425  0.50114767  0.08244769  1
  Zr  Zr69  1  0.48917555  0.50294974  0.89455074  1
  Zr  Zr70  1  0.31242336  0.48839178  0.69803561  1
  Zr  Zr71  1  0.40559533  0.59983653  0.21122722  1
  Zr  Zr72  1  0.09463469  0.10930713  0.50231561  1
  Zr  Zr73  1  0.80139022  0.00008229  0.58862578  1
  Zr  Zr74  1  0.19940459  0.40159218  0.00390397  1
  Zr  Zr75  1  0.30026216  0.29674241  0.89880817  1
  Zr  Zr76  1  0.89595460  0.69844908  0.10346869  1
  Zr  Zr77  1  0.59734620  0.80145099  0.79570012  1
  Zr  Zr78  1  0.39633385  0.60447278  0.59307330  1
  Zr  Zr79  1  0.89747973  0.90189225  0.10424714  1
  Zr  Zr80  1  0.09601563  0.50592430  0.30640169  1
  Zr  Zr81  1  0.80300169  0.19060549  0.40261974  1
  Zr  Zr82  1  0.39566536  0.38632189  0.38317091  1
  Zr  Zr83  1  0.08487729  0.90079050  0.51151145  1
  Zr  Zr84  1  0.60606078  0.00954623  0.80036481  1
  Zr  Zr85  1  0.08785240  0.48827393  0.90454482  1
  Zr  Zr86  1  0.19888047  0.59625417  0.00054353  1
  Zr  Zr87  1  0.10598437  0.30205745  0.50600382  1
  Zr  Zr88  1  0.28655944  0.70539525  0.30591972  1
  Zr  Zr89  1  0.50445304  0.49165613  0.49231176  1
  Zr  Zr90  1  0.39799510  0.79800432  0.59849648  1
  Zr  Zr91  1  -0.00937452  0.80463097  0.40156210  1
  Zr  Zr92  1  0.89577368  0.70447503  0.69352081  1
  Zr  Zr93  1  0.40586468  0.21332744  0.21513692  1
  Zr  Zr94  1  0.69774164  0.50451262  0.30593184  1
  Zr  Zr95  1  0.60428863  0.39445852  0.59834953  1
  Zr  Zr96  1  0.20838817  -0.00486827  -0.00037882  1
  Zr  Zr97  1  0.20810963  0.40183127  0.20606042  1
  Zr  Zr98  1  0.69508490  0.90274605  0.90427334  1
  Zr  Zr99  1  -0.01068036  0.20275045  0.01383498  1
  Ta  Ta100  1  0.50114852  0.50271921  0.10620778  1
  Ta  Ta101  1  0.30591305  0.11008027  0.49984124  1
  Ta  Ta102  1  0.49335568  0.49681853  0.70133212  1
  Ta  Ta103  1  0.70154512  0.90092783  0.29929415  1
  Ta  Ta104  1  -0.00412845  0.80547243  0.20551360  1
  Ta  Ta105  1  0.69778724  0.90552257  0.68892678  1
  Ta  Ta106  1  0.90025089  0.29460684  0.30726657  1
  Ta  Ta107  1  0.60716951  0.19989724  0.60315417  1
  Ta  Ta108  1  0.09873271  0.89606253  0.30378179  1
  Ta  Ta109  1  0.70793738  0.09270658  0.30229904  1
  Ta  Ta110  1  0.40914472  0.80421696  0.20401031  1
  Ta  Ta111  1  0.69827371  0.69984899  0.30166629  1
  Ta  Ta112  1  0.50172261  0.69656486  0.10033371  1
  Ta  Ta113  1  0.70167272  0.29688194  0.90131975  1
  Ta  Ta114  1  0.00320098  0.20555017  0.79275272  1
  Ta  Ta115  1  0.00014623  0.39719302  0.40025516  1
  Ta  Ta116  1  0.79599896  0.80514687  0.40015474  1
  Ta  Ta117  1  0.89765930  0.90470664  0.89937872  1
  Ta  Ta118  1  0.10703009  0.10621744  0.11190163  1
  Ta  Ta119  1  0.60210589  0.59483510  0.79580711  1
  Ta  Ta120  1  0.79755830  0.58797856  0.80084206  1
  Ta  Ta121  1  0.60209563  0.80471195  0.59418472  1
  Ta  Ta122  1  0.40945786  0.19105175  -0.00827929  1
  Ta  Ta123  1  0.00218449  0.20388451  0.61545322  1
  Ta  Ta124  1  0.70786494  0.29076855  0.70246060  1
  Ta  Ta125  1  0.10845138  0.71387177  0.90130576  1
  Ta  Ta126  1  0.79969216  0.00140129  0.79396060  1
  Ta  Ta127  1  0.59643090  0.80203923  0.20382450  1
  Ta  Ta128  1  0.60048015  0.40059027  0.20171188  1
  Ta  Ta129  1  0.60704840  -0.00329030  0.40030968  1
  Ta  Ta130  1  0.00846470  0.59490610  0.59356502  1
  Ta  Ta131  1  0.20451478  0.20536219  0.39865592  1
  Ta  Ta132  1  0.69926437  0.30127507  0.09834047  1
  Ta  Ta133  1  0.50228887  0.90331291  0.69673013  1
  Ta  Ta134  1  0.79544983  0.80101126  0.20754753  1
  Ta  Ta135  1  0.50177676  0.69855551  0.69861375  1
  Ta  Ta136  1  0.00614024  0.00131244  0.21180300  1
  Ta  Ta137  1  0.79949686  0.39791894  0.80030916  1
  Ta  Ta138  1  0.69533712  0.90360192  0.10656665  1
  Ta  Ta139  1  0.69416246  0.09795328  0.50176335  1
  Ta  Ta140  1  0.89942679  0.10325918  0.69607168  1
  Ta  Ta141  1  0.40302012  0.19362577  0.80321018  1
  Ta  Ta142  1  0.19932674  0.40075654  0.40472595  1
  Ta  Ta143  1  0.89383865  0.69635185  0.29946825  1
  Ta  Ta144  1  0.31990050  0.49982742  0.09613579  1
  Ta  Ta145  1  0.51019771  0.70451852  0.49377743  1
  Ta  Ta146  1  0.49488835  0.69587506  0.89612484  1
  Ta  Ta147  1  0.10332427  0.90240772  0.70132695  1
  Ta  Ta148  1  -0.01006251  0.00836291  0.39646231  1
  Ta  Ta149  1  0.89422491  0.90497288  0.29925231  1
  Ti  Ti150  1  0.80247339  0.19778725  0.79541481  1
  Ti  Ti151  1  0.89530579  0.50068473  0.30862048  1
  Ti  Ti152  1  0.20736508  0.00287782  0.79652562  1
  Ti  Ti153  1  0.10221469  0.89631803  0.10306005  1
  Ti  Ti154  1  -0.01214899  0.39345840  0.00687237  1
  Ti  Ti155  1  0.30125469  0.70040141  0.70934320  1
  Ti  Ti156  1  0.39940902  0.01043356  -0.00760072  1
  Ti  Ti157  1  -0.00770178  0.19132191  0.21263464  1
  Ti  Ti158  1  0.70659565  0.10239751  0.69148137  1
  Ti  Ti159  1  0.01007932  0.40151406  0.60374652  1
  Ti  Ti160  1  0.00067185  0.59786034  0.40689156  1
  Ti  Ti161  1  0.29005174  0.70191047  0.48600401  1
  Ti  Ti162  1  0.11023186  0.89503552  0.89878490  1
  Ti  Ti163  1  0.39921021  0.80597258  0.79234730  1
  Ti  Ti164  1  0.51658898  0.49773220  0.30591440  1
  Ti  Ti165  1  0.80323466  -0.00460635  0.40362458  1
  Ti  Ti166  1  0.71869640  0.49499782  0.91172435  1
  Ti  Ti167  1  0.79793656  0.60667753  0.40140288  1
  Ti  Ti168  1  0.70242711  0.30263756  0.30715066  1
  Ti  Ti169  1  0.40630399  0.40157801  0.21001784  1
  Ti  Ti170  1  0.30287363  0.29568563  0.50656599  1
  Ti  Ti171  1  0.29907789  0.48514464  0.50232618  1
  Ti  Ti172  1  0.79238196  0.80983208  0.58248824  1
  Ti  Ti173  1  0.10513291  0.70120561  0.49366358  1
  Ti  Ti174  1  0.49279285  0.30022481  0.69516824  1
  Ti  Ti175  1  0.30332249  0.11021931  0.69542421  1
  Ti  Ti176  1  0.39224007  0.00647300  0.80253968  1
  Ti  Ti177  1  0.51717289  0.69479379  0.30146210  1
  Ti  Ti178  1  0.79931242  0.81356744  0.79605508  1
  Ti  Ti179  1  0.30174883  0.89711861  0.09970714  1
  Ti  Ti180  1  0.90626628  0.10305335  0.50665060  1
  Ti  Ti181  1  0.00103668  0.80626505  -0.00105946  1
  Ti  Ti182  1  0.69851583  0.49631957  0.70190034  1
  Ti  Ti183  1  0.60370166  0.80736107  0.39536635  1
  Ti  Ti184  1  0.09821393  0.29431679  0.91023061  1
  Ti  Ti185  1  0.29597949  0.89696114  0.89138804  1
  Ti  Ti186  1  0.50053184  0.29897433  0.90017494  1
  Ti  Ti187  1  -0.00672800  0.59882440  0.20021144  1
  Ti  Ti188  1  0.60768148  0.20093833  0.39919360  1
  Ti  Ti189  1  0.60150706  0.03267173  0.00056548  1
  Ti  Ti190  1  0.29394372  0.50350842  0.30946793  1
  Ti  Ti191  1  0.69760199  0.48847219  0.47942814  1
  Ti  Ti192  1  0.70505512  0.29450898  0.49828243  1
  Ti  Ti193  1  0.09152968  0.49744000  0.10031129  1
  Ti  Ti194  1  0.59782488  0.79531548  0.00257602  1
  Ti  Ti195  1  0.79645669  0.19995872  0.20489346  1
  Ti  Ti196  1  0.40528585  0.39756031  -0.00117324  1
  Ti  Ti197  1  0.20376007  0.81024264  0.20428298  1
  Ti  Ti198  1  0.79670751  0.59574255  0.20148777  1
  Ti  Ti199  1  0.69343147  0.70459982  0.48982997  1
  Mo  Mo200  1  0.20280517  0.39963431  0.59222048  1
  Mo  Mo201  1  0.79424977  -0.00397905  0.20736835  1
  Mo  Mo202  1  0.89791320  0.29524002  0.70146288  1
  Mo  Mo203  1  0.20316639  0.81011829  0.79987776  1
  Mo  Mo204  1  0.09923697  0.09997042  0.70011150  1
  Mo  Mo205  1  0.70168087  0.10739916  0.88964765  1
  Mo  Mo206  1  0.79903518  0.19488864  0.60081033  1
  Mo  Mo207  1  0.28679660  0.30084828  0.30152441  1
  Mo  Mo208  1  0.51848708  0.30173536  0.30244109  1
  Mo  Mo209  1  0.09569274  0.10154537  0.30214689  1
  Mo  Mo210  1  0.89176416  0.49440640  0.89529978  1
  Mo  Mo211  1  0.40841134  0.60193049  0.00405712  1
  Mo  Mo212  1  0.60489336  0.60870872  0.40182740  1
  Mo  Mo213  1  0.69565071  0.10325155  0.11067980  1
  Mo  Mo214  1  0.09444738  0.49466678  0.68926237  1
  Mo  Mo215  1  0.80347485  0.39085775  0.39792042  1
  Mo  Mo216  1  0.79388273  0.39093570  -0.00090556  1
  Mo  Mo217  1  0.69843441  0.89930939  0.49377908  1
  Mo  Mo218  1  0.40648304  0.61322054  0.78947000  1
  Mo  Mo219  1  0.59800233  0.59901479  0.20217757  1
  Mo  Mo220  1  0.20403365  0.19899754  0.59732188  1
  Mo  Mo221  1  0.40172059  0.19668978  0.60379645  1
  Mo  Mo222  1  0.89512800  0.90433455  0.49372696  1
  Mo  Mo223  1  0.00472273  0.79264762  0.59761128  1
  Mo  Mo224  1  -0.00137721  0.19825362  0.39909568  1
  Mo  Mo225  1  0.29446970  0.89975637  0.29545663  1
  Mo  Mo226  1  0.30026911  0.90205876  0.71611732  1
  Mo  Mo227  1  0.39267562  0.20372498  0.40556554  1
  Mo  Mo228  1  0.40178565  -0.00009234  0.40247325  1
  Mo  Mo229  1  0.89760271  0.09768811  0.30459643  1
  Mo  Mo230  1  0.19924486  0.19572600  0.20631503  1
  Mo  Mo231  1  0.40921344  0.38207234  0.79751295  1
  Mo  Mo232  1  0.09580427  0.49676735  0.49669996  1
  Mo  Mo233  1  0.79512423  0.59986738  -0.00571937  1
  Mo  Mo234  1  0.50899818  0.89914307  0.30184417  1
  Mo  Mo235  1  0.40299328  0.39637648  0.59869795  1
  Mo  Mo236  1  0.30528396  0.09785412  0.89368881  1
  Mo  Mo237  1  0.59790963  0.20183857  -0.00073672  1
  Mo  Mo238  1  0.49867082  0.10413769  0.09035870  1
  Mo  Mo239  1  0.20741343  0.19898056  0.00242530  1
  Mo  Mo240  1  0.19336749  0.80261816  0.39866927  1
  Mo  Mo241  1  0.69425891  0.49729884  0.10339596  1
  Mo  Mo242  1  0.20130354  0.81061342  -0.00255080  1
  Mo  Mo243  1  0.10360256  0.29807393  0.69074625  1
  Mo  Mo244  1  -0.00134777  0.01197656  0.60384821  1
  Mo  Mo245  1  0.19887686  0.59436596  0.41092533  1
  Mo  Mo246  1  0.60465818  0.00148081  0.59906501  1
  Mo  Mo247  1  0.89130410  0.29439979  0.11003128  1
  Mo  Mo248  1  0.49682788  0.09863039  0.89751585  1
  Mo  Mo249  1  0.60812860  0.38546124  0.39590181  1
