# generated using pymatgen
data_HfZrTaTiMo
_symmetry_space_group_name_H-M   'P 1'
_cell_length_a   16.88895430
_cell_length_b   16.88442911
_cell_length_c   16.87474082
_cell_angle_alpha   89.96266274
_cell_angle_beta   90.00671065
_cell_angle_gamma   90.01401755
_symmetry_Int_Tables_number   1
_chemical_formula_structural   HfZrTaTiMo
_chemical_formula_sum   'Hf50 Zr50 Ta50 Ti50 Mo50'
_cell_volume   4812.00582707
_cell_formula_units_Z   50
loop_
 _symmetry_equiv_pos_site_id
 _symmetry_equiv_pos_as_xyz
  1  'x, y, z'
loop_
 _atom_site_type_symbol
 _atom_site_label
 _atom_site_symmetry_multiplicity
 _atom_site_fract_x
 _atom_site_fract_y
 _atom_site_fract_z
 _atom_site_occupancy
  Hf  Hf0  1  0.80096500  0.00280895  0.59091623  1
  Hf  Hf1  1  0.89414654  0.09327878  0.09802370  1
  Hf  Hf2  1  0.59796529  0.79370363  0.40289966  1
  Hf  Hf3  1  0.29733451  0.89688884  0.89043346  1
  Hf  Hf4  1  0.69830005  0.50638402  0.89908086  1
  Hf  Hf5  1  -0.00450042  0.00047993  0.80164139  1
  Hf  Hf6  1  -0.00011519  0.20589326  -0.00508260  1
  Hf  Hf7  1  0.49629773  0.90217432  0.29855347  1
  Hf  Hf8  1  0.40386427  0.00307037  0.00014623  1
  Hf  Hf9  1  0.70089348  0.70570965  0.90690824  1
  Hf  Hf10  1  0.07891213  0.49244339  0.90535121  1
  Hf  Hf11  1  0.60090748  0.59552929  0.41055950  1
  Hf  Hf12  1  0.19397951  0.00375151  -0.00245412  1
  Hf  Hf13  1  0.50548427  0.29413585  0.70454885  1
  Hf  Hf14  1  0.60302143  0.81037525  0.79581618  1
  Hf  Hf15  1  0.30111636  0.89882513  0.30025919  1
  Hf  Hf16  1  0.89887541  0.89987746  0.30068212  1
  Hf  Hf17  1  0.89724586  0.69360641  0.30252117  1
  Hf  Hf18  1  0.59593444  0.39583136  0.20045532  1
  Hf  Hf19  1  0.70272559  0.09065016  0.29172599  1
  Hf  Hf20  1  0.30581978  0.30270430  0.09978089  1
  Hf  Hf21  1  0.29584686  0.10493319  0.89379698  1
  Hf  Hf22  1  0.08785580  0.70214259  0.70801148  1
  Hf  Hf23  1  0.18766215  0.79114692  0.00137692  1
  Hf  Hf24  1  0.79968855  0.40458079  -0.00189450  1
  Hf  Hf25  1  0.18494337  0.60218810  0.81202655  1
  Hf  Hf26  1  0.51127331  0.70412608  0.90840182  1
  Hf  Hf27  1  0.00082026  0.79657397  0.20244203  1
  Hf  Hf28  1  0.69621554  0.10172740  0.70756188  1
  Hf  Hf29  1  0.29453071  0.09987109  0.69543547  1
  Hf  Hf30  1  0.09394523  0.49138618  0.50435870  1
  Hf  Hf31  1  0.30154102  0.49811013  0.49874400  1
  Hf  Hf32  1  0.39780422  0.39324472  0.60302487  1
  Hf  Hf33  1  0.49288300  0.49368321  0.09983591  1
  Hf  Hf34  1  0.11065349  0.09720298  0.50536194  1
  Hf  Hf35  1  0.68912269  0.28883454  0.89812187  1
  Hf  Hf36  1  0.29546221  0.90754496  0.69998294  1
  Hf  Hf37  1  0.19163640  0.59530881  0.00443890  1
  Hf  Hf38  1  0.69539681  0.29232855  0.09185281  1
  Hf  Hf39  1  0.90585318  0.30328313  0.69296221  1
  Hf  Hf40  1  0.49885557  0.49534472  0.70530110  1
  Hf  Hf41  1  0.60360415  0.60149575  0.79111048  1
  Hf  Hf42  1  0.49167180  0.29370138  0.07236315  1
  Hf  Hf43  1  0.09473699  0.69818889  0.49636321  1
  Hf  Hf44  1  -0.00253002  0.20510581  0.20102470  1
  Hf  Hf45  1  0.40401171  0.19843796  0.39901617  1
  Hf  Hf46  1  0.80346208  0.20368978  0.19928216  1
  Hf  Hf47  1  0.40790288  0.61381077  0.79631108  1
  Hf  Hf48  1  0.31183040  0.49415675  0.90054767  1
  Hf  Hf49  1  0.79497170  0.59913325  0.01623648  1
  Zr  Zr50  1  0.89628742  0.89244066  0.69693203  1
  Zr  Zr51  1  0.19999291  0.20359648  0.39794335  1
  Zr  Zr52  1  0.40761599  0.79601838  0.19519862  1
  Zr  Zr53  1  0.59127334  0.19151979  0.40027412  1
  Zr  Zr54  1  0.79695739  0.20009366  0.59319426  1
  Zr  Zr55  1  0.49589907  0.69420980  0.30243876  1
  Zr  Zr56  1  0.29802027  0.70987385  0.89801972  1
  Zr  Zr57  1  0.19323554  0.80074456  0.39690425  1
  Zr  Zr58  1  0.59074747  0.19691596  0.20466563  1
  Zr  Zr59  1  0.40727893  0.19671002  0.20599322  1
  Zr  Zr60  1  0.41539297  0.80513959  0.01145934  1
  Zr  Zr61  1  0.09932641  0.31943570  0.28808452  1
  Zr  Zr62  1  0.09474695  0.48949237  0.12120305  1
  Zr  Zr63  1  0.70306175  0.30614115  0.49122343  1
  Zr  Zr64  1  0.90744084  0.30694568  0.89551667  1
  Zr  Zr65  1  0.70325329  0.30405815  0.30721475  1
  Zr  Zr66  1  0.80057883  0.42074154  0.59249385  1
  Zr  Zr67  1  -0.00262976  0.00263292  -0.01018282  1
  Zr  Zr68  1  0.32202277  0.29719762  0.90796685  1
  Zr  Zr69  1  0.69803049  0.09567261  0.90024590  1
  Zr  Zr70  1  0.61194005  0.40650839  0.60618423  1
  Zr  Zr71  1  0.40037867  0.60469226  0.00949765  1
  Zr  Zr72  1  0.29793314  0.49534804  0.70731411  1
  Zr  Zr73  1  0.90454072  0.08680060  0.29768363  1
  Zr  Zr74  1  0.60100931  0.79814852  0.17859275  1
  Zr  Zr75  1  0.29189885  0.90264865  0.10639717  1
  Zr  Zr76  1  0.41074444  0.60795743  0.59868672  1
  Zr  Zr77  1  0.09538024  0.88877054  0.89566850  1
  Zr  Zr78  1  0.59984076  0.00461491  0.40229978  1
  Zr  Zr79  1  0.90636773  0.31243667  0.49303402  1
  Zr  Zr80  1  0.28657095  0.69602712  0.11921696  1
  Zr  Zr81  1  0.78954964  0.40260589  0.78825224  1
  Zr  Zr82  1  0.48970628  0.89925034  0.49753940  1
  Zr  Zr83  1  0.60150624  0.00260612  0.59451911  1
  Zr  Zr84  1  0.19837994  0.60275932  0.60033928  1
  Zr  Zr85  1  0.19609820  0.38992383  0.80770465  1
  Zr  Zr86  1  0.00064110  0.20189747  0.39780790  1
  Zr  Zr87  1  0.28706654  0.71388250  0.70664689  1
  Zr  Zr88  1  0.90671537  0.10239667  0.70104640  1
  Zr  Zr89  1  0.40664027  0.79568961  0.60472398  1
  Zr  Zr90  1  0.29774251  0.90829947  0.50437168  1
  Zr  Zr91  1  0.20107953  0.59231537  0.38816811  1
  Zr  Zr92  1  0.70753693  0.69964306  0.50843853  1
  Zr  Zr93  1  0.10357905  0.10499824  0.10097773  1
  Zr  Zr94  1  0.71634507  0.70729547  0.69620197  1
  Zr  Zr95  1  0.90333598  0.89331792  0.09235926  1
  Zr  Zr96  1  0.60895181  0.59584729  0.19310787  1
  Zr  Zr97  1  0.19558681  0.39611360  0.00374589  1
  Zr  Zr98  1  0.89858374  0.70460500  0.90434828  1
  Zr  Zr99  1  0.09918753  0.29222052  0.70200727  1
  Ta  Ta100  1  0.70571802  0.50144532  0.30315501  1
  Ta  Ta101  1  0.30446420  0.70777617  0.49174349  1
  Ta  Ta102  1  0.49942833  0.30244078  0.50125223  1
  Ta  Ta103  1  0.41719054  0.80694876  0.79553065  1
  Ta  Ta104  1  0.70612481  0.89214137  0.50076210  1
  Ta  Ta105  1  0.80258057  0.18572195  0.40089555  1
  Ta  Ta106  1  0.09961716  0.11885044  0.88257240  1
  Ta  Ta107  1  -0.00605621  0.59970327  0.59843165  1
  Ta  Ta108  1  0.60428594  -0.01004999  0.00310227  1
  Ta  Ta109  1  0.40966150  0.00130615  0.80050829  1
  Ta  Ta110  1  0.18797573  0.80700908  0.59526664  1
  Ta  Ta111  1  0.40236720  0.19858937  0.59712314  1
  Ta  Ta112  1  0.70046203  0.09550832  0.09431116  1
  Ta  Ta113  1  0.00189800  0.80285744  0.59502787  1
  Ta  Ta114  1  0.90027365  0.70259895  0.50194740  1
  Ta  Ta115  1  0.89992774  0.70022772  0.69788450  1
  Ta  Ta116  1  0.79365644  0.40632772  0.19557002  1
  Ta  Ta117  1  0.49765715  0.49681282  0.30624776  1
  Ta  Ta118  1  0.50836796  0.10753461  0.89773629  1
  Ta  Ta119  1  0.10428656  0.09431962  0.29722426  1
  Ta  Ta120  1  0.79747533  -0.00445058  0.40315213  1
  Ta  Ta121  1  0.29572907  0.09861882  0.29377444  1
  Ta  Ta122  1  0.20197408  0.00138224  0.39883916  1
  Ta  Ta123  1  0.00733236  -0.00585894  0.59537598  1
  Ta  Ta124  1  0.40616394  0.19717242  0.79867152  1
  Ta  Ta125  1  0.70807258  0.69421381  0.29865971  1
  Ta  Ta126  1  0.30168627  0.30537456  0.30091695  1
  Ta  Ta127  1  -0.00693585  0.59845252  0.00371274  1
  Ta  Ta128  1  0.10687459  0.10248761  0.69695098  1
  Ta  Ta129  1  0.90516422  0.50767931  0.69970819  1
  Ta  Ta130  1  0.60027334  0.19699925  0.59471262  1
  Ta  Ta131  1  0.09225848  0.69113376  0.10770694  1
  Ta  Ta132  1  0.08851637  0.49757842  0.70031390  1
  Ta  Ta133  1  0.60288282  0.39797769  0.80045398  1
  Ta  Ta134  1  0.20220862  0.20613746  0.20025108  1
  Ta  Ta135  1  0.20310088  0.40365768  0.39483852  1
  Ta  Ta136  1  0.90249859  0.89654512  0.49482465  1
  Ta  Ta137  1  0.50021720  0.09973653  0.70063596  1
  Ta  Ta138  1  0.79375562  0.79344944  0.19456120  1
  Ta  Ta139  1  0.80566405  0.19500874  -0.00443083  1
  Ta  Ta140  1  0.90098261  0.49911997  0.10608199  1
  Ta  Ta141  1  0.00532767  0.19729852  0.59427812  1
  Ta  Ta142  1  0.39874057  0.01627206  0.39984758  1
  Ta  Ta143  1  0.80423386  0.20042921  0.80217778  1
  Ta  Ta144  1  0.29656575  0.29911525  0.50236900  1
  Ta  Ta145  1  0.70171818  0.89383005  0.29749723  1
  Ta  Ta146  1  0.10198455  0.90545978  0.29593016  1
  Ta  Ta147  1  0.80013368  0.79847499  0.39752168  1
  Ta  Ta148  1  0.80376408  0.59191635  0.40894654  1
  Ta  Ta149  1  0.59937862  0.40489679  -0.00504685  1
  Ti  Ti150  1  0.70645843  0.90073224  0.69410346  1
  Ti  Ti151  1  0.29830798  0.49322128  0.11352718  1
  Ti  Ti152  1  0.09475492  0.30906755  0.10305172  1
  Ti  Ti153  1  0.10026532  0.89276688  0.10420265  1
  Ti  Ti154  1  0.40144066  0.60120881  0.40278289  1
  Ti  Ti155  1  0.78845980  0.80831740  0.00748060  1
  Ti  Ti156  1  0.39958026  0.39979527  0.40015639  1
  Ti  Ti157  1  0.50911693  0.10038649  0.09128832  1
  Ti  Ti158  1  -0.00222773  0.41188767  0.39264484  1
  Ti  Ti159  1  -0.00255545  0.59297869  0.39841292  1
  Ti  Ti160  1  0.79910025  -0.00846091  -0.01077435  1
  Ti  Ti161  1  0.59914557  0.40691103  0.40314380  1
  Ti  Ti162  1  0.29798884  0.29045812  0.70243968  1
  Ti  Ti163  1  0.59811337  -0.00475280  0.19185908  1
  Ti  Ti164  1  0.39597439  0.59266785  0.20795584  1
  Ti  Ti165  1  0.29924107  0.69938808  0.30104371  1
  Ti  Ti166  1  0.00608384  -0.00286146  0.19552819  1
  Ti  Ti167  1  0.49868735  0.49629832  0.50149493  1
  Ti  Ti168  1  0.10205853  0.30518516  0.50460136  1
  Ti  Ti169  1  0.79961305  0.81394402  0.81196896  1
  Ti  Ti170  1  0.19940598  0.00349395  0.20007104  1
  Ti  Ti171  1  0.40322467  0.39751940  0.20947944  1
  Ti  Ti172  1  0.60228712  0.59913901  0.60070954  1
  Ti  Ti173  1  0.49644845  0.49150711  0.89921687  1
  Ti  Ti174  1  0.80742754  0.59578623  0.80014352  1
  Ti  Ti175  1  0.19422599  0.20794206  -0.00376217  1
  Ti  Ti176  1  0.10173827  0.90083590  0.69871182  1
  Ti  Ti177  1  0.90278476  0.30966633  0.09863628  1
  Ti  Ti178  1  0.00210466  0.80250722  0.39847758  1
  Ti  Ti179  1  0.79178791  -0.01520616  0.19063609  1
  Ti  Ti180  1  -0.00460904  0.40310175  0.79773604  1
  Ti  Ti181  1  0.49825670  0.91036170  0.69421493  1
  Ti  Ti182  1  0.50672191  0.90265074  0.90414243  1
  Ti  Ti183  1  0.89242379  0.31196895  0.30402192  1
  Ti  Ti184  1  0.10480530  0.69419353  0.29055041  1
  Ti  Ti185  1  0.60271044  0.59923782  0.01110969  1
  Ti  Ti186  1  0.80456300  -0.00535938  0.81070261  1
  Ti  Ti187  1  -0.00560916  0.79851639  0.80542056  1
  Ti  Ti188  1  0.59438904  0.79661942  0.60197684  1
  Ti  Ti189  1  0.90782894  0.09509755  0.49573253  1
  Ti  Ti190  1  0.59948740  -0.00603977  0.80165503  1
  Ti  Ti191  1  0.19990941  0.39536293  0.60290827  1
  Ti  Ti192  1  0.19180049  0.00101106  0.79912217  1
  Ti  Ti193  1  0.89400189  0.49862819  0.29693504  1
  Ti  Ti194  1  0.40357633  0.00703345  0.19514699  1
  Ti  Ti195  1  0.29959025  0.11009730  0.09695864  1
  Ti  Ti196  1  0.00827596  -0.00630173  0.40394527  1
  Ti  Ti197  1  -0.00207433  0.59301898  0.20876038  1
  Ti  Ti198  1  0.29763356  0.10041346  0.50895839  1
  Ti  Ti199  1  0.89940738  0.69568289  0.10653743  1
  Mo  Mo200  1  0.18946808  0.79657162  0.20510373  1
  Mo  Mo201  1  0.18704956  0.80362220  0.79454955  1
  Mo  Mo202  1  -0.02272205  0.39773377  0.20330961  1
  Mo  Mo203  1  0.70273075  0.90285788  0.09854929  1
  Mo  Mo204  1  0.00279325  0.40457306  0.60226918  1
  Mo  Mo205  1  0.49641692  0.31693248  0.31607674  1
  Mo  Mo206  1  0.40452349  0.41183689  -0.00084997  1
  Mo  Mo207  1  0.70335739  0.70175138  0.09884661  1
  Mo  Mo208  1  0.51365792  0.70733505  0.69979755  1
  Mo  Mo209  1  0.60045354  0.19929552  0.79487636  1
  Mo  Mo210  1  -0.00707323  0.40104838  0.00860707  1
  Mo  Mo211  1  0.49430097  0.08535542  0.28994990  1
  Mo  Mo212  1  0.40887257  0.39042126  0.80244628  1
  Mo  Mo213  1  0.31190057  0.49729401  0.30097901  1
  Mo  Mo214  1  0.80940386  0.80488787  0.59340042  1
  Mo  Mo215  1  0.40064729  0.01046345  0.60237460  1
  Mo  Mo216  1  0.89624667  0.10080723  0.89839040  1
  Mo  Mo217  1  0.69802254  0.28988489  0.70335020  1
  Mo  Mo218  1  0.90652624  0.50856355  0.49652110  1
  Mo  Mo219  1  0.00123913  0.78709231  0.00776140  1
  Mo  Mo220  1  0.20457391  0.20629668  0.59774189  1
  Mo  Mo221  1  0.70136478  0.50527558  0.49746496  1
  Mo  Mo222  1  0.50386117  0.30100002  0.89493476  1
  Mo  Mo223  1  0.20648503  0.20093449  0.79715406  1
  Mo  Mo224  1  0.49326380  0.10348602  0.50962922  1
  Mo  Mo225  1  0.09105112  0.50113660  0.30406119  1
  Mo  Mo226  1  0.80519579  0.41347553  0.39388349  1
  Mo  Mo227  1  0.40428937  0.18186178  -0.00187716  1
  Mo  Mo228  1  0.19418473  -0.00076187  0.60017501  1
  Mo  Mo229  1  0.49969421  0.69587132  0.50323464  1
  Mo  Mo230  1  0.09414332  0.90195481  0.49432601  1
  Mo  Mo231  1  0.39670598  0.79125859  0.39938913  1
  Mo  Mo232  1  0.60643956  0.80826696  0.00070504  1
  Mo  Mo233  1  0.89887727  0.50477273  0.89867323  1
  Mo  Mo234  1  0.19879311  0.59551044  0.20771440  1
  Mo  Mo235  1  0.69883798  0.49289705  0.10150965  1
  Mo  Mo236  1  -0.00120395  0.19967649  0.79458832  1
  Mo  Mo237  1  0.89362946  0.89634737  0.90038828  1
  Mo  Mo238  1  -0.01012806  0.59744305  0.80151578  1
  Mo  Mo239  1  0.70262595  0.09680987  0.49508727  1
  Mo  Mo240  1  0.70445313  0.51487140  0.69965918  1
  Mo  Mo241  1  0.50281060  0.91754343  0.10070009  1
  Mo  Mo242  1  0.80212624  0.59885368  0.20512577  1
  Mo  Mo243  1  0.08496694  0.69603473  0.90711005  1
  Mo  Mo244  1  0.81029151  0.60333361  0.60031102  1
  Mo  Mo245  1  0.60107061  0.18826893  -0.00100725  1
  Mo  Mo246  1  0.21777406  0.40229813  0.20743763  1
  Mo  Mo247  1  0.70063474  0.90101793  0.90059183  1
  Mo  Mo248  1  0.09479393  0.29809718  0.89904676  1
  Mo  Mo249  1  0.50462095  0.68342908  0.09928579  1
