# generated using pymatgen
data_HfZrTaTiMo
_symmetry_space_group_name_H-M   'P 1'
_cell_length_a   16.87150278
_cell_length_b   16.89541890
_cell_length_c   16.87255408
_cell_angle_alpha   89.96181878
_cell_angle_beta   90.02942033
_cell_angle_gamma   89.99765560
_symmetry_Int_Tables_number   1
_chemical_formula_structural   HfZrTaTiMo
_chemical_formula_sum   'Hf50 Zr50 Ta50 Ti50 Mo50'
_cell_volume   4809.53851134
_cell_formula_units_Z   50
loop_
 _symmetry_equiv_pos_site_id
 _symmetry_equiv_pos_as_xyz
  1  'x, y, z'
loop_
 _atom_site_type_symbol
 _atom_site_label
 _atom_site_symmetry_multiplicity
 _atom_site_fract_x
 _atom_site_fract_y
 _atom_site_fract_z
 _atom_site_occupancy
  Hf  Hf0  1  0.40527133  -0.00455841  0.19850271  1
  Hf  Hf1  1  0.80253642  0.19967867  0.59628243  1
  Hf  Hf2  1  0.70961005  0.89493260  0.71002896  1
  Hf  Hf3  1  0.19499245  0.20649138  0.60243136  1
  Hf  Hf4  1  0.10255957  0.49709365  0.70040273  1
  Hf  Hf5  1  0.49945537  0.49614168  0.10006010  1
  Hf  Hf6  1  0.29967357  0.08875861  0.50487946  1
  Hf  Hf7  1  0.69911884  0.69976667  0.69868160  1
  Hf  Hf8  1  0.50252596  0.10328058  0.69843054  1
  Hf  Hf9  1  -0.00564908  0.40266251  0.79968263  1
  Hf  Hf10  1  0.89972292  0.29083479  0.09872930  1
  Hf  Hf11  1  0.79942362  0.40126349  0.00067390  1
  Hf  Hf12  1  0.90002525  0.29345160  0.90259320  1
  Hf  Hf13  1  0.09439261  0.89700536  0.08369759  1
  Hf  Hf14  1  0.19795191  0.00326287  0.39307725  1
  Hf  Hf15  1  0.10478153  0.69352890  0.30752027  1
  Hf  Hf16  1  0.19038479  0.20291272  0.40424832  1
  Hf  Hf17  1  0.30314553  0.71635698  0.69564945  1
  Hf  Hf18  1  -0.00813724  0.79761208  0.19538981  1
  Hf  Hf19  1  0.10562368  0.49649080  0.90435675  1
  Hf  Hf20  1  0.30821090  0.70664041  0.49371164  1
  Hf  Hf21  1  0.80590553  0.59207939  0.80612085  1
  Hf  Hf22  1  0.19947739  0.80027126  0.19665002  1
  Hf  Hf23  1  0.89988151  0.49931246  0.30408174  1
  Hf  Hf24  1  0.40442615  -0.01980496  0.60680610  1
  Hf  Hf25  1  0.60749772  -0.00981622  0.39982193  1
  Hf  Hf26  1  0.39997372  0.00113902  0.80026451  1
  Hf  Hf27  1  0.39838900  0.61196435  -0.00887355  1
  Hf  Hf28  1  0.40656713  0.59756067  0.21003164  1
  Hf  Hf29  1  0.49814031  0.49049722  0.90275908  1
  Hf  Hf30  1  0.10653088  0.50161947  0.30569949  1
  Hf  Hf31  1  0.60394148  0.20480463  0.59298307  1
  Hf  Hf32  1  0.79060459  0.80111450  0.20132000  1
  Hf  Hf33  1  0.69575017  0.70256609  0.10090561  1
  Hf  Hf34  1  0.88792285  0.69941033  0.08186520  1
  Hf  Hf35  1  -0.00452047  0.79738177  0.40606789  1
  Hf  Hf36  1  -0.00921837  0.00951196  0.19410187  1
  Hf  Hf37  1  0.18807593  0.19363685  0.18935121  1
  Hf  Hf38  1  0.41039476  0.80946907  0.79223391  1
  Hf  Hf39  1  0.39560091  0.19837538  0.81063149  1
  Hf  Hf40  1  0.79716665  0.19073965  0.80559010  1
  Hf  Hf41  1  0.09734290  0.09361509  0.50862300  1
  Hf  Hf42  1  0.28567947  0.09274018  0.70311729  1
  Hf  Hf43  1  0.10057363  0.90464687  0.50288335  1
  Hf  Hf44  1  0.89453059  0.90480310  0.49842601  1
  Hf  Hf45  1  0.50591697  0.70692015  0.10456406  1
  Hf  Hf46  1  0.79723844  0.00022501  0.60070261  1
  Hf  Hf47  1  0.60028736  0.60089336  -0.00250165  1
  Hf  Hf48  1  0.69777080  0.29694015  0.30063939  1
  Hf  Hf49  1  0.30357879  0.48905440  0.70199618  1
  Zr  Zr50  1  0.39546385  0.21299080  0.59583237  1
  Zr  Zr51  1  0.11223285  0.70087500  0.49450041  1
  Zr  Zr52  1  0.59699383  0.20076150  -0.00183397  1
  Zr  Zr53  1  0.88867599  0.69834578  0.30694601  1
  Zr  Zr54  1  0.61011438  0.00935640  0.80448217  1
  Zr  Zr55  1  0.19410819  0.01002558  0.00011953  1
  Zr  Zr56  1  0.80135565  0.40376757  0.79673895  1
  Zr  Zr57  1  0.88908995  0.90023707  0.30380809  1
  Zr  Zr58  1  0.20863533  0.60674040  0.80570411  1
  Zr  Zr59  1  0.20768198  0.59788181  0.19727309  1
  Zr  Zr60  1  0.09988058  0.89850167  0.29752894  1
  Zr  Zr61  1  0.41120496  0.80679372  0.20525290  1
  Zr  Zr62  1  0.49554826  0.09074103  0.49868084  1
  Zr  Zr63  1  0.30486705  0.10001790  0.29381239  1
  Zr  Zr64  1  0.40194613  0.60795936  0.80265236  1
  Zr  Zr65  1  0.09667905  0.50286163  0.09241628  1
  Zr  Zr66  1  0.40158141  0.00946335  0.00132574  1
  Zr  Zr67  1  0.89791429  0.70649886  0.70333334  1
  Zr  Zr68  1  0.50820642  0.30351539  0.69809826  1
  Zr  Zr69  1  0.09097785  0.70020529  0.08962340  1
  Zr  Zr70  1  0.30354623  0.69987784  0.31310920  1
  Zr  Zr71  1  0.19824572  0.19591999  -0.00611838  1
  Zr  Zr72  1  0.60711206  -0.00849188  0.59836794  1
  Zr  Zr73  1  0.20995913  0.59776172  0.60091083  1
  Zr  Zr74  1  0.79190689  0.59729302  0.20134813  1
  Zr  Zr75  1  0.41185959  0.59926725  0.60232681  1
  Zr  Zr76  1  0.30131014  0.30335738  0.29685265  1
  Zr  Zr77  1  0.80332075  0.18518558  0.20457323  1
  Zr  Zr78  1  0.79914852  0.39931820  0.19777604  1
  Zr  Zr79  1  0.00855259  0.19497068  0.80153824  1
  Zr  Zr80  1  0.59871922  0.60446227  0.79911589  1
  Zr  Zr81  1  -0.00194685  0.39968460  0.19280980  1
  Zr  Zr82  1  0.51291385  0.90523099  0.90428292  1
  Zr  Zr83  1  0.00733093  0.18250969  0.00416518  1
  Zr  Zr84  1  -0.00548796  0.38928635  0.41700696  1
  Zr  Zr85  1  0.50602414  0.10060933  0.29225064  1
  Zr  Zr86  1  0.50199584  0.69980003  0.50092803  1
  Zr  Zr87  1  0.28802099  0.90661736  0.89775793  1
  Zr  Zr88  1  0.40579070  0.39061544  0.80069997  1
  Zr  Zr89  1  0.09748418  0.70959054  0.70365669  1
  Zr  Zr90  1  -0.00804145  0.59749546  0.59956142  1
  Zr  Zr91  1  0.09222432  0.71470569  0.89976463  1
  Zr  Zr92  1  -0.00156060  0.20630802  0.59576344  1
  Zr  Zr93  1  0.40300152  0.20707456  0.40167928  1
  Zr  Zr94  1  0.30504524  0.49179233  0.09134612  1
  Zr  Zr95  1  0.60463359  0.19749930  0.39855032  1
  Zr  Zr96  1  0.80508449  0.40471521  0.59912728  1
  Zr  Zr97  1  0.11165462  0.49707144  0.49395480  1
  Zr  Zr98  1  0.09912907  0.30530279  0.30095256  1
  Zr  Zr99  1  0.21076542  0.61475174  -0.00813066  1
  Ta  Ta100  1  0.40482915  0.39647311  0.20158286  1
  Ta  Ta101  1  0.79409988  0.59677495  0.59737805  1
  Ta  Ta102  1  0.59704819  0.39087023  0.00143950  1
  Ta  Ta103  1  -0.00931746  0.59617786  0.80443829  1
  Ta  Ta104  1  0.50820682  0.10334496  0.10552794  1
  Ta  Ta105  1  0.30554648  0.71206997  0.09719355  1
  Ta  Ta106  1  0.69465245  0.29469896  0.10130539  1
  Ta  Ta107  1  -0.00886334  0.59998719  0.40589068  1
  Ta  Ta108  1  0.50666947  0.71210778  0.90281318  1
  Ta  Ta109  1  0.40273701  0.20328610  -0.00009901  1
  Ta  Ta110  1  0.79418331  0.00010279  0.20052899  1
  Ta  Ta111  1  0.69952200  0.30169751  0.70032063  1
  Ta  Ta112  1  0.69073987  0.49485215  0.30468408  1
  Ta  Ta113  1  0.90355304  0.09140998  0.70729402  1
  Ta  Ta114  1  0.29733285  0.30292865  0.90767437  1
  Ta  Ta115  1  0.69412456  0.09752441  0.10640148  1
  Ta  Ta116  1  0.20222310  0.39216873  0.59547070  1
  Ta  Ta117  1  0.40172183  0.80843210  0.00035021  1
  Ta  Ta118  1  0.79761118  0.80120345  0.59560224  1
  Ta  Ta119  1  0.69100557  0.49688996  0.10053234  1
  Ta  Ta120  1  0.79746473  0.40118326  0.40402248  1
  Ta  Ta121  1  0.89666475  0.90904674  0.89276800  1
  Ta  Ta122  1  0.69497056  0.70192485  0.49931997  1
  Ta  Ta123  1  -0.00433864  0.80700238  0.60237475  1
  Ta  Ta124  1  0.69839424  0.30031579  0.90097515  1
  Ta  Ta125  1  0.88962078  0.90236709  0.08964276  1
  Ta  Ta126  1  0.60076425  0.59364316  0.40547146  1
  Ta  Ta127  1  0.29974361  0.89666756  0.30361393  1
  Ta  Ta128  1  -0.00078594  0.19010690  0.20404082  1
  Ta  Ta129  1  0.90218331  0.90195200  0.70718257  1
  Ta  Ta130  1  0.29605204  0.90096389  0.10061327  1
  Ta  Ta131  1  0.79933794  0.01010947  -0.00213906  1
  Ta  Ta132  1  0.31251931  0.49754037  0.48733103  1
  Ta  Ta133  1  0.78909740  0.59636665  0.40606843  1
  Ta  Ta134  1  0.70921009  0.70559945  0.90829377  1
  Ta  Ta135  1  0.70236206  0.30647044  0.49574756  1
  Ta  Ta136  1  0.69767750  0.49683172  0.90550185  1
  Ta  Ta137  1  0.89828454  0.29680424  0.69955899  1
  Ta  Ta138  1  0.89663217  0.29469415  0.30577833  1
  Ta  Ta139  1  0.50212013  0.88511788  0.49492529  1
  Ta  Ta140  1  0.59551149  0.39617158  0.19882043  1
  Ta  Ta141  1  0.28408591  0.90216276  0.69766722  1
  Ta  Ta142  1  -0.00347177  0.01096266  0.39211086  1
  Ta  Ta143  1  -0.00542781  0.19477247  0.39940596  1
  Ta  Ta144  1  0.30007773  0.48134193  0.90550563  1
  Ta  Ta145  1  0.69738416  0.90353192  0.09839590  1
  Ta  Ta146  1  0.60513672  0.40788856  0.58946269  1
  Ta  Ta147  1  0.51014594  0.49921214  0.69377018  1
  Ta  Ta148  1  0.70919434  0.90133613  0.90377249  1
  Ta  Ta149  1  0.20450933  0.39804053  0.19396631  1
  Ti  Ti150  1  0.50058892  0.49110764  0.31404189  1
  Ti  Ti151  1  0.79172873  0.00394828  0.39415548  1
  Ti  Ti152  1  -0.01858444  0.80638885  -0.01660767  1
  Ti  Ti153  1  0.60459606  0.80530563  0.00054656  1
  Ti  Ti154  1  0.19485037  0.19906324  0.80508965  1
  Ti  Ti155  1  0.30239409  0.49348556  0.31098771  1
  Ti  Ti156  1  0.69331790  0.50037416  0.69645545  1
  Ti  Ti157  1  0.30026926  0.89271655  0.49759150  1
  Ti  Ti158  1  0.50285420  0.10291941  0.90229840  1
  Ti  Ti159  1  0.59917992  0.59967263  0.21330944  1
  Ti  Ti160  1  0.90082996  0.09496898  0.49936193  1
  Ti  Ti161  1  0.29848415  0.31499775  0.48926196  1
  Ti  Ti162  1  0.29698235  0.30067450  0.70479898  1
  Ti  Ti163  1  0.51361512  0.90308389  0.10280061  1
  Ti  Ti164  1  0.19359017  0.00510865  0.19703521  1
  Ti  Ti165  1  0.00375570  -0.00199345  0.61323542  1
  Ti  Ti166  1  0.60847809  -0.00608593  0.20870383  1
  Ti  Ti167  1  0.70417819  0.10069691  0.49464643  1
  Ti  Ti168  1  0.40487061  0.40115198  0.59350632  1
  Ti  Ti169  1  0.30526944  0.10191332  0.10225101  1
  Ti  Ti170  1  0.19654398  0.38791002  0.80481542  1
  Ti  Ti171  1  0.59936547  0.79991500  0.79935948  1
  Ti  Ti172  1  0.69411238  0.88313099  0.30685524  1
  Ti  Ti173  1  0.50385304  0.30301615  0.29721449  1
  Ti  Ti174  1  0.50501089  0.31988042  0.48718715  1
  Ti  Ti175  1  -0.00183125  0.39978552  -0.00576282  1
  Ti  Ti176  1  0.30447045  0.30399668  0.09409854  1
  Ti  Ti177  1  0.40523075  -0.01381216  0.39498962  1
  Ti  Ti178  1  0.60378401  0.39580492  0.80301686  1
  Ti  Ti179  1  -0.00271500  0.39514906  0.60014125  1
  Ti  Ti180  1  0.09878158  0.30345216  0.70195674  1
  Ti  Ti181  1  0.70284364  0.10343699  0.70133584  1
  Ti  Ti182  1  0.51026767  0.71030523  0.31207227  1
  Ti  Ti183  1  -0.00507448  0.60221220  0.20008045  1
  Ti  Ti184  1  0.60865574  0.00725017  0.00072319  1
  Ti  Ti185  1  0.09906713  0.08264221  0.88501839  1
  Ti  Ti186  1  0.79585018  0.18802667  -0.00126045  1
  Ti  Ti187  1  0.09990400  0.30533570  0.09095556  1
  Ti  Ti188  1  0.18955977  0.81271212  0.80301390  1
  Ti  Ti189  1  0.89646509  0.50771795  0.09233540  1
  Ti  Ti190  1  0.80551052  0.19583913  0.40234349  1
  Ti  Ti191  1  0.89544545  0.50277676  0.50005371  1
  Ti  Ti192  1  0.19470978  0.80926289  0.59953070  1
  Ti  Ti193  1  -0.01701446  0.59805128  -0.01785539  1
  Ti  Ti194  1  0.60401343  0.20296939  0.80668432  1
  Ti  Ti195  1  -0.00866544  0.00456558  -0.00784660  1
  Ti  Ti196  1  0.59796279  0.80167186  0.60493807  1
  Ti  Ti197  1  0.40908445  0.20804055  0.18839865  1
  Ti  Ti198  1  0.80828934  0.79777296  0.81197017  1
  Ti  Ti199  1  0.88916560  0.70134212  0.50105272  1
  Mo  Mo200  1  0.69902626  0.50287608  0.49827568  1
  Mo  Mo201  1  0.60195885  0.80688251  0.20595538  1
  Mo  Mo202  1  0.50466408  0.89943791  0.30390958  1
  Mo  Mo203  1  0.09577499  0.90276727  0.70065246  1
  Mo  Mo204  1  0.08762012  0.90387669  0.89432120  1
  Mo  Mo205  1  0.29590062  0.10809380  0.89657330  1
  Mo  Mo206  1  0.51338638  0.89411137  0.69639794  1
  Mo  Mo207  1  0.50850853  0.70369750  0.70120682  1
  Mo  Mo208  1  0.70159989  0.10183647  0.90748657  1
  Mo  Mo209  1  0.89325664  0.29474693  0.49838303  1
  Mo  Mo210  1  0.40281081  0.38642825  0.00325410  1
  Mo  Mo211  1  0.20649769  0.39901747  0.40046205  1
  Mo  Mo212  1  0.89319148  0.09417305  0.09616656  1
  Mo  Mo213  1  0.40652751  0.40087030  0.39456671  1
  Mo  Mo214  1  0.60159981  0.40015429  0.39708234  1
  Mo  Mo215  1  0.60732580  0.59508744  0.59913335  1
  Mo  Mo216  1  -0.00353915  0.80971784  0.79995948  1
  Mo  Mo217  1  0.19822459  -0.00691162  0.59993061  1
  Mo  Mo218  1  0.09325345  0.09164306  0.10272081  1
  Mo  Mo219  1  0.20566270  0.81048638  0.40283645  1
  Mo  Mo220  1  0.00018303  -0.00309842  0.79875634  1
  Mo  Mo221  1  0.18911791  0.00015131  0.79395597  1
  Mo  Mo222  1  0.79275586  0.59085050  -0.00234434  1
  Mo  Mo223  1  0.60113516  0.20222539  0.19678054  1
  Mo  Mo224  1  0.09852309  0.09406047  0.70228694  1
  Mo  Mo225  1  0.79644134  0.81350159  -0.00204854  1
  Mo  Mo226  1  0.79037372  0.79329819  0.40798566  1
  Mo  Mo227  1  0.70180194  0.88761936  0.49774669  1
  Mo  Mo228  1  0.40219353  0.80631556  0.60170093  1
  Mo  Mo229  1  0.19719720  0.38980397  0.00075104  1
  Mo  Mo230  1  0.89609065  0.70387460  0.89901383  1
  Mo  Mo231  1  0.49833966  0.29860806  0.10503170  1
  Mo  Mo232  1  0.09424335  0.10222087  0.29838922  1
  Mo  Mo233  1  0.89877301  0.49885598  0.90389603  1
  Mo  Mo234  1  0.30509386  0.72524058  0.90005340  1
  Mo  Mo235  1  0.89539537  0.09996639  0.30809644  1
  Mo  Mo236  1  0.50353116  0.29746712  0.90255651  1
  Mo  Mo237  1  0.70366779  0.09239203  0.30134105  1
  Mo  Mo238  1  0.50313444  0.49760381  0.49810391  1
  Mo  Mo239  1  0.90449808  0.50068117  0.69368962  1
  Mo  Mo240  1  0.21303175  0.59279496  0.39903074  1
  Mo  Mo241  1  0.10096012  0.30018748  0.50514750  1
  Mo  Mo242  1  0.60278563  0.79429969  0.39960263  1
  Mo  Mo243  1  0.40573986  0.81001168  0.39943223  1
  Mo  Mo244  1  0.89880048  0.09431049  0.90005446  1
  Mo  Mo245  1  0.41170921  0.59247187  0.39714037  1
  Mo  Mo246  1  0.20822211  0.80633721  -0.00185924  1
  Mo  Mo247  1  0.68744442  0.69263029  0.30637845  1
  Mo  Mo248  1  0.10348866  0.30724378  0.89919988  1
  Mo  Mo249  1  0.80348676  0.00389030  0.80155515  1
