# generated using pymatgen
data_HfZrTaTiMo
_symmetry_space_group_name_H-M   'P 1'
_cell_length_a   16.87683648
_cell_length_b   16.89057326
_cell_length_c   16.88489717
_cell_angle_alpha   89.98068793
_cell_angle_beta   89.99289050
_cell_angle_gamma   90.00563107
_symmetry_Int_Tables_number   1
_chemical_formula_structural   HfZrTaTiMo
_chemical_formula_sum   'Hf50 Zr50 Ta50 Ti50 Mo50'
_cell_volume   4813.19904921
_cell_formula_units_Z   50
loop_
 _symmetry_equiv_pos_site_id
 _symmetry_equiv_pos_as_xyz
  1  'x, y, z'
loop_
 _atom_site_type_symbol
 _atom_site_label
 _atom_site_symmetry_multiplicity
 _atom_site_fract_x
 _atom_site_fract_y
 _atom_site_fract_z
 _atom_site_occupancy
  Hf  Hf0  1  0.69957512  0.50134893  0.51233403  1
  Hf  Hf1  1  0.60107466  0.59439484  -0.00514517  1
  Hf  Hf2  1  0.39316270  0.19882348  0.60393561  1
  Hf  Hf3  1  0.10758005  0.89972615  0.90001733  1
  Hf  Hf4  1  -0.00102697  0.39936020  0.40050161  1
  Hf  Hf5  1  0.30158694  0.89602921  0.69582494  1
  Hf  Hf6  1  0.19790864  0.60564624  0.60958547  1
  Hf  Hf7  1  0.00359090  0.59913932  0.39482320  1
  Hf  Hf8  1  0.88523895  0.09894600  0.71088628  1
  Hf  Hf9  1  0.30474281  0.30044101  0.89263485  1
  Hf  Hf10  1  0.21590615  0.80472868  -0.00637543  1
  Hf  Hf11  1  0.79030662  0.00435230  0.20057157  1
  Hf  Hf12  1  0.79587587  0.40431354  0.20341654  1
  Hf  Hf13  1  0.01055375  -0.00099187  0.60058299  1
  Hf  Hf14  1  0.80237192  0.21453882  0.60122193  1
  Hf  Hf15  1  0.19321844  0.40351307  0.39036117  1
  Hf  Hf16  1  0.09412109  0.69727424  0.10299961  1
  Hf  Hf17  1  0.39707288  0.00361306  0.79523892  1
  Hf  Hf18  1  0.00451989  0.00506003  0.79743437  1
  Hf  Hf19  1  0.20408345  0.80262784  0.20581465  1
  Hf  Hf20  1  0.69895652  0.69272767  0.10265233  1
  Hf  Hf21  1  0.69940078  0.70153924  0.88922216  1
  Hf  Hf22  1  0.70162077  0.90283685  0.30909607  1
  Hf  Hf23  1  0.79751267  0.80316773  0.19734615  1
  Hf  Hf24  1  0.48691558  0.09509279  0.49272556  1
  Hf  Hf25  1  0.58787074  0.41923306  0.79689452  1
  Hf  Hf26  1  0.90222819  0.49666189  0.89414616  1
  Hf  Hf27  1  0.19775905  0.39979055  0.60720519  1
  Hf  Hf28  1  0.89383769  0.69338546  0.29366872  1
  Hf  Hf29  1  0.89245819  0.10387898  0.09804378  1
  Hf  Hf30  1  0.00421798  0.00743537  0.19901770  1
  Hf  Hf31  1  0.90892526  0.50049645  0.70002202  1
  Hf  Hf32  1  0.89785376  0.10046663  0.50130194  1
  Hf  Hf33  1  0.61321121  0.41573355  0.19531589  1
  Hf  Hf34  1  0.90407684  0.50423259  0.10170063  1
  Hf  Hf35  1  0.80552162  0.40446918  0.40531283  1
  Hf  Hf36  1  0.60735403  0.40637140  0.39275526  1
  Hf  Hf37  1  0.30927123  0.50374767  0.89156999  1
  Hf  Hf38  1  -0.00049227  0.19539292  0.80460439  1
  Hf  Hf39  1  0.69945448  0.09100666  0.50036562  1
  Hf  Hf40  1  0.89440219  0.09865220  0.30891596  1
  Hf  Hf41  1  0.68518671  0.10093150  0.08277360  1
  Hf  Hf42  1  0.60177360  0.60613320  0.39505791  1
  Hf  Hf43  1  0.11769494  0.09814556  0.91047675  1
  Hf  Hf44  1  0.79168513  -0.01186383  0.59778410  1
  Hf  Hf45  1  0.49570834  0.29876637  0.29980470  1
  Hf  Hf46  1  0.59087496  0.79721601  0.21069213  1
  Hf  Hf47  1  0.00869722  -0.00291052  0.41066282  1
  Hf  Hf48  1  0.30275834  0.49979889  0.70936754  1
  Hf  Hf49  1  0.20259825  0.60304975  -0.00744507  1
  Zr  Zr50  1  0.40013310  0.60629836  0.40431530  1
  Zr  Zr51  1  0.79659145  0.21375448  0.40593772  1
  Zr  Zr52  1  -0.00204839  0.39465292  0.60193975  1
  Zr  Zr53  1  -0.00063349  0.80201232  0.20172406  1
  Zr  Zr54  1  0.48771486  0.91285244  0.09515881  1
  Zr  Zr55  1  0.41652550  0.40372565  -0.00996418  1
  Zr  Zr56  1  0.89788662  0.89398764  0.69713985  1
  Zr  Zr57  1  0.20674292  0.40242268  0.00174404  1
  Zr  Zr58  1  0.48971414  0.91100117  0.30775782  1
  Zr  Zr59  1  0.09740640  0.49435751  0.89133195  1
  Zr  Zr60  1  0.59108063  0.19815541  0.60281385  1
  Zr  Zr61  1  0.30608543  0.69998813  0.09752600  1
  Zr  Zr62  1  0.50483497  0.90079756  0.51293802  1
  Zr  Zr63  1  0.40015894  0.40491879  0.20233869  1
  Zr  Zr64  1  0.09801395  0.50368719  0.10460655  1
  Zr  Zr65  1  0.49488527  0.30472578  0.49876540  1
  Zr  Zr66  1  0.00373678  0.19660970  0.00291422  1
  Zr  Zr67  1  0.00547037  0.79366733  0.79831159  1
  Zr  Zr68  1  0.20600622  0.19065212  0.20367651  1
  Zr  Zr69  1  -0.00547615  0.00506185  -0.00194589  1
  Zr  Zr70  1  0.30860321  0.29668788  0.10156819  1
  Zr  Zr71  1  0.89273486  0.89088644  0.49758583  1
  Zr  Zr72  1  0.80371516  0.79794236  -0.00376095  1
  Zr  Zr73  1  0.78647738  0.19959414  0.20224085  1
  Zr  Zr74  1  0.89020040  0.90402555  0.89076106  1
  Zr  Zr75  1  0.40061003  0.79262701  0.40744964  1
  Zr  Zr76  1  0.68846335  0.90984948  0.09190550  1
  Zr  Zr77  1  0.19448950  0.59950511  0.21850804  1
  Zr  Zr78  1  0.21074242  0.00160057  0.20219346  1
  Zr  Zr79  1  0.49556863  0.70286120  0.09908528  1
  Zr  Zr80  1  0.19915815  0.79689876  0.40568637  1
  Zr  Zr81  1  0.50284231  0.49789524  0.50866068  1
  Zr  Zr82  1  0.10844144  0.29389608  0.50346913  1
  Zr  Zr83  1  0.60087980  0.59853744  0.63055072  1
  Zr  Zr84  1  0.60197426  0.19647704  0.39180433  1
  Zr  Zr85  1  0.10694954  0.30086587  0.10230326  1
  Zr  Zr86  1  0.70008768  0.29768554  0.89074561  1
  Zr  Zr87  1  0.60125883  0.40352031  -0.00557504  1
  Zr  Zr88  1  0.41197512  0.17564213  0.20044126  1
  Zr  Zr89  1  0.89789815  0.30344578  0.09951198  1
  Zr  Zr90  1  0.69476518  0.10077807  0.70285921  1
  Zr  Zr91  1  0.29646796  0.49979224  0.49834533  1
  Zr  Zr92  1  0.50871122  0.29166602  0.09937483  1
  Zr  Zr93  1  0.70261142  0.09645925  0.88695969  1
  Zr  Zr94  1  0.20194021  0.00071104  0.41088442  1
  Zr  Zr95  1  0.20883072  -0.00016498  0.80051711  1
  Zr  Zr96  1  0.68592167  0.89183372  0.69339760  1
  Zr  Zr97  1  0.10699677  0.90663195  0.09283047  1
  Zr  Zr98  1  0.00240485  0.79440265  0.40203635  1
  Zr  Zr99  1  0.59449745  0.80069574  -0.00667417  1
  Ta  Ta100  1  0.60244532  -0.00123867  0.40190232  1
  Ta  Ta101  1  0.69717397  0.70081125  0.50697043  1
  Ta  Ta102  1  0.60141539  0.79604212  0.40486363  1
  Ta  Ta103  1  0.40365727  0.60833917  0.20938355  1
  Ta  Ta104  1  0.49552599  0.30645901  0.70463081  1
  Ta  Ta105  1  0.90454441  0.29833429  0.29925725  1
  Ta  Ta106  1  0.10073185  0.10238654  0.30772768  1
  Ta  Ta107  1  0.80192119  0.60430723  0.60224671  1
  Ta  Ta108  1  -0.00227056  0.20091403  0.60290286  1
  Ta  Ta109  1  0.69226526  0.31044866  0.69954141  1
  Ta  Ta110  1  0.49995919  0.89878361  0.89117173  1
  Ta  Ta111  1  0.20539258  0.19995883  0.79874347  1
  Ta  Ta112  1  0.00391380  0.20460550  0.40166386  1
  Ta  Ta113  1  0.00896057  0.39939876  0.21273726  1
  Ta  Ta114  1  0.89543540  0.90478745  0.30545345  1
  Ta  Ta115  1  0.80319401  0.59965716  -0.00737334  1
  Ta  Ta116  1  0.39680971  0.78484234  0.60460724  1
  Ta  Ta117  1  0.30789390  0.50787427  0.10440043  1
  Ta  Ta118  1  -0.00751345  0.79351516  -0.00357896  1
  Ta  Ta119  1  0.20163275  0.79313882  0.60013161  1
  Ta  Ta120  1  0.09892206  0.90264356  0.30374280  1
  Ta  Ta121  1  0.79959193  0.40318118  0.79358037  1
  Ta  Ta122  1  0.40184898  0.79694072  0.79606505  1
  Ta  Ta123  1  0.40076155  0.19390935  0.79699498  1
  Ta  Ta124  1  0.09626783  0.69370488  0.50626144  1
  Ta  Ta125  1  0.58656263  0.01913896  0.20735829  1
  Ta  Ta126  1  0.89938037  0.69047581  0.10189865  1
  Ta  Ta127  1  0.00039556  0.39812673  -0.00212549  1
  Ta  Ta128  1  0.50114289  0.51276228  0.10526207  1
  Ta  Ta129  1  0.49955296  0.09258984  0.89832272  1
  Ta  Ta130  1  0.90385750  0.69837083  0.69165772  1
  Ta  Ta131  1  0.70475991  0.50534893  0.89052112  1
  Ta  Ta132  1  0.10262238  0.29956168  0.89676507  1
  Ta  Ta133  1  0.30669999  0.90265048  0.50890263  1
  Ta  Ta134  1  0.39688905  0.60629289  0.60645984  1
  Ta  Ta135  1  0.29975114  0.29451033  0.49777276  1
  Ta  Ta136  1  0.09736175  0.50648848  0.50672239  1
  Ta  Ta137  1  -0.00551468  0.60738899  -0.01130273  1
  Ta  Ta138  1  0.50365811  0.50818971  0.29610390  1
  Ta  Ta139  1  0.39417889  0.80346187  0.20651210  1
  Ta  Ta140  1  0.30404043  0.29447078  0.30781290  1
  Ta  Ta141  1  0.30892610  0.08580770  0.08607485  1
  Ta  Ta142  1  0.00589053  0.60602084  0.79246764  1
  Ta  Ta143  1  0.20676742  0.78992782  0.79470183  1
  Ta  Ta144  1  0.39802590  0.40025806  0.60678687  1
  Ta  Ta145  1  0.69124935  0.90327074  0.88506063  1
  Ta  Ta146  1  0.19428723  0.60863859  0.79574469  1
  Ta  Ta147  1  0.00858221  0.20012244  0.20699518  1
  Ta  Ta148  1  0.80104680  0.60384213  0.79082463  1
  Ta  Ta149  1  0.90039551  0.30455037  0.89530945  1
  Ti  Ti150  1  0.79531914  0.40574631  -0.00114508  1
  Ti  Ti151  1  0.30073051  0.70038990  0.30531558  1
  Ti  Ti152  1  0.19768026  -0.00136758  0.59544968  1
  Ti  Ti153  1  0.19396308  0.39886400  0.79486133  1
  Ti  Ti154  1  0.10022579  0.70314331  0.90118986  1
  Ti  Ti155  1  0.50856096  0.69944576  0.51281161  1
  Ti  Ti156  1  0.19494861  0.60381729  0.40163295  1
  Ti  Ti157  1  0.59973651  0.19050822  0.20300534  1
  Ti  Ti158  1  0.28953443  0.10380716  0.69269561  1
  Ti  Ti159  1  0.58667927  0.20107697  0.79628424  1
  Ti  Ti160  1  0.79987202  0.60135166  0.40688598  1
  Ti  Ti161  1  0.31149416  0.69889238  0.89332815  1
  Ti  Ti162  1  0.10691494  0.89238851  0.69533754  1
  Ti  Ti163  1  0.41582196  0.60359443  0.79212612  1
  Ti  Ti164  1  0.39834398  0.00698855  0.60599312  1
  Ti  Ti165  1  0.69016308  0.31124975  0.51191261  1
  Ti  Ti166  1  0.30535204  0.90594865  0.30668479  1
  Ti  Ti167  1  0.79956548  0.79268614  0.79131061  1
  Ti  Ti168  1  0.69804838  0.29498367  0.09184867  1
  Ti  Ti169  1  0.20063050  0.40036352  0.20985334  1
  Ti  Ti170  1  0.21096080  0.19541039  0.00199830  1
  Ti  Ti171  1  0.10853750  0.11084835  0.50810834  1
  Ti  Ti172  1  0.40505598  0.60088861  -0.00407277  1
  Ti  Ti173  1  0.49839693  0.69989796  0.89446650  1
  Ti  Ti174  1  0.10797207  0.10963296  0.69472766  1
  Ti  Ti175  1  0.20558256  0.19644274  0.40024190  1
  Ti  Ti176  1  0.38909900  -0.00932141  -0.01668226  1
  Ti  Ti177  1  0.09856459  0.29626491  0.70740620  1
  Ti  Ti178  1  0.59114008  0.78617270  0.78641441  1
  Ti  Ti179  1  0.49879251  0.89466857  0.69323521  1
  Ti  Ti180  1  0.00611136  0.79347366  0.59624109  1
  Ti  Ti181  1  0.90018579  0.30223634  0.70888014  1
  Ti  Ti182  1  0.40527447  0.19219950  -0.00924202  1
  Ti  Ti183  1  0.80371866  0.40061822  0.60218238  1
  Ti  Ti184  1  0.29923800  0.30087689  0.70315080  1
  Ti  Ti185  1  0.31874082  0.09399028  0.31854812  1
  Ti  Ti186  1  0.70124827  0.69568688  0.29974540  1
  Ti  Ti187  1  0.69908691  0.30187648  0.29724308  1
  Ti  Ti188  1  0.89858577  0.90191729  0.09884672  1
  Ti  Ti189  1  0.79482661  0.79208473  0.40566549  1
  Ti  Ti190  1  0.58697854  0.00216146  0.78834900  1
  Ti  Ti191  1  0.90098958  0.50494507  0.29457337  1
  Ti  Ti192  1  0.30412541  0.50176875  0.30087062  1
  Ti  Ti193  1  0.39732406  0.40262796  0.39893748  1
  Ti  Ti194  1  0.80326838  0.19994046  -0.01328644  1
  Ti  Ti195  1  0.79813395  0.00232942  -0.00967618  1
  Ti  Ti196  1  0.78477126  0.58719705  0.19985762  1
  Ti  Ti197  1  0.58877916  0.19870198  -0.01403910  1
  Ti  Ti198  1  0.90414923  0.51043048  0.50835984  1
  Ti  Ti199  1  0.79296007  0.79025345  0.59786036  1
  Mo  Mo200  1  0.21505358  -0.00220965  0.00007473  1
  Mo  Mo201  1  0.00106927  0.39150055  0.80068612  1
  Mo  Mo202  1  0.59264616  0.00024888  -0.01629892  1
  Mo  Mo203  1  -0.00091131  0.60149028  0.59713375  1
  Mo  Mo204  1  0.71479232  0.49764694  0.70173754  1
  Mo  Mo205  1  0.39000640  0.20120843  0.40203663  1
  Mo  Mo206  1  0.49880820  0.28508189  0.89048158  1
  Mo  Mo207  1  0.09911862  0.49939043  0.30559708  1
  Mo  Mo208  1  0.49843178  0.51838435  0.89683935  1
  Mo  Mo209  1  0.79156289  -0.01354329  0.79643365  1
  Mo  Mo210  1  0.59302127  -0.00259070  0.59953543  1
  Mo  Mo211  1  0.49775721  0.09852848  0.31121867  1
  Mo  Mo212  1  0.09913165  0.70085916  0.30549279  1
  Mo  Mo213  1  0.10646473  0.89094588  0.51090997  1
  Mo  Mo214  1  0.09786180  0.70191755  0.69782091  1
  Mo  Mo215  1  0.69434024  0.09566750  0.30454454  1
  Mo  Mo216  1  0.49553167  0.09978815  0.70025868  1
  Mo  Mo217  1  0.69535054  0.88869360  0.49638401  1
  Mo  Mo218  1  0.10046255  0.50248536  0.70336838  1
  Mo  Mo219  1  -0.00545968  0.59564222  0.20246029  1
  Mo  Mo220  1  0.29433765  0.10000893  0.50803267  1
  Mo  Mo221  1  0.48505561  0.49960820  0.70409486  1
  Mo  Mo222  1  0.40033013  0.80127575  -0.01674425  1
  Mo  Mo223  1  0.10289352  0.29407968  0.30139661  1
  Mo  Mo224  1  0.29397610  0.69935963  0.50665932  1
  Mo  Mo225  1  0.70658044  0.70157370  0.70067988  1
  Mo  Mo226  1  0.60116413  0.60230465  0.80430070  1
  Mo  Mo227  1  0.90454749  0.29877065  0.50140260  1
  Mo  Mo228  1  0.30611809  0.10722726  0.90159987  1
  Mo  Mo229  1  0.11471408  0.10303397  0.10542595  1
  Mo  Mo230  1  0.30958003  0.90125760  0.09745244  1
  Mo  Mo231  1  0.88710621  0.10614740  0.89760938  1
  Mo  Mo232  1  0.40187571  0.39514189  0.79641556  1
  Mo  Mo233  1  0.70791824  0.50117747  0.08769625  1
  Mo  Mo234  1  0.59668817  0.40037978  0.60892581  1
  Mo  Mo235  1  0.30785662  0.89094124  0.89339010  1
  Mo  Mo236  1  0.30333735  0.69798762  0.70573391  1
  Mo  Mo237  1  0.50022264  0.70277495  0.29985346  1
  Mo  Mo238  1  0.49868205  0.70124347  0.70210930  1
  Mo  Mo239  1  0.39412078  -0.00190995  0.40916215  1
  Mo  Mo240  1  0.60102533  0.60001210  0.20321206  1
  Mo  Mo241  1  0.19989565  0.20212361  0.60869856  1
  Mo  Mo242  1  0.89324867  0.69579857  0.50325180  1
  Mo  Mo243  1  0.39621708  -0.00189499  0.20170905  1
  Mo  Mo244  1  0.59629014  0.79249335  0.59948016  1
  Mo  Mo245  1  0.49912516  0.09281854  0.07841375  1
  Mo  Mo246  1  0.89906435  0.69528672  0.89268318  1
  Mo  Mo247  1  0.79678574  -0.00747031  0.40145878  1
  Mo  Mo248  1  0.70623477  0.50819390  0.30797746  1
  Mo  Mo249  1  0.80094890  0.21795580  0.79585451  1
