# generated using pymatgen
data_HfZrTaTiMo
_symmetry_space_group_name_H-M   'P 1'
_cell_length_a   16.88150219
_cell_length_b   16.87532343
_cell_length_c   16.87481729
_cell_angle_alpha   90.02643801
_cell_angle_beta   89.98399347
_cell_angle_gamma   90.06005977
_symmetry_Int_Tables_number   1
_chemical_formula_structural   HfZrTaTiMo
_chemical_formula_sum   'Hf50 Zr50 Ta50 Ti50 Mo50'
_cell_volume   4807.30827029
_cell_formula_units_Z   50
loop_
 _symmetry_equiv_pos_site_id
 _symmetry_equiv_pos_as_xyz
  1  'x, y, z'
loop_
 _atom_site_type_symbol
 _atom_site_label
 _atom_site_symmetry_multiplicity
 _atom_site_fract_x
 _atom_site_fract_y
 _atom_site_fract_z
 _atom_site_occupancy
  Hf  Hf0  1  0.30716097  0.30832564  0.89756520  1
  Hf  Hf1  1  0.28838331  0.29483666  0.70125916  1
  Hf  Hf2  1  0.20757200  0.19049999  -0.00210338  1
  Hf  Hf3  1  0.88912961  0.09930409  0.08942474  1
  Hf  Hf4  1  0.40740524  0.19763871  0.00506464  1
  Hf  Hf5  1  0.69980141  0.89638880  0.70283215  1
  Hf  Hf6  1  0.60168528  0.59683375  0.79496543  1
  Hf  Hf7  1  -0.00914067  0.38762378  0.80960597  1
  Hf  Hf8  1  0.19679388  0.80557725  0.80232259  1
  Hf  Hf9  1  0.21372561  0.00067241  0.00350571  1
  Hf  Hf10  1  0.49999075  0.89965532  0.29073529  1
  Hf  Hf11  1  0.69276347  0.88904353  0.90821694  1
  Hf  Hf12  1  0.89129841  0.51535797  0.89112093  1
  Hf  Hf13  1  0.29410010  0.69786069  0.90246213  1
  Hf  Hf14  1  -0.00880136  0.21457801  -0.01543832  1
  Hf  Hf15  1  0.19764538  0.80242930  0.39651057  1
  Hf  Hf16  1  0.00398590  0.79263079  0.60860033  1
  Hf  Hf17  1  0.89354007  0.89238020  0.89827722  1
  Hf  Hf18  1  0.60518965  0.39683923  0.79265358  1
  Hf  Hf19  1  0.39036404  0.60379992  0.01208727  1
  Hf  Hf20  1  0.20635003  0.59999595  0.18869852  1
  Hf  Hf21  1  0.40031452  0.59811375  0.39777051  1
  Hf  Hf22  1  0.40123288  0.79448083  0.38815880  1
  Hf  Hf23  1  0.00248158  0.60107372  0.40385843  1
  Hf  Hf24  1  -0.00797494  -0.00414964  0.39998930  1
  Hf  Hf25  1  0.09565578  0.90696139  0.90879390  1
  Hf  Hf26  1  0.00253957  0.40211335  0.19418107  1
  Hf  Hf27  1  0.70373067  0.50314283  0.90810821  1
  Hf  Hf28  1  0.60709434  0.00452227  0.39844292  1
  Hf  Hf29  1  0.09770782  0.29645008  0.30878308  1
  Hf  Hf30  1  0.50467770  0.09688973  0.89844790  1
  Hf  Hf31  1  0.49689682  0.49818185  0.90597610  1
  Hf  Hf32  1  0.20014352  0.40962014  0.19517734  1
  Hf  Hf33  1  0.29173569  0.70283838  0.69851367  1
  Hf  Hf34  1  0.10510655  0.09268352  0.69228702  1
  Hf  Hf35  1  0.09048913  0.49241610  0.70768937  1
  Hf  Hf36  1  0.79480165  0.19445113  0.20392266  1
  Hf  Hf37  1  0.51030496  0.50895309  0.09829697  1
  Hf  Hf38  1  0.78942872  0.59916520  0.40495430  1
  Hf  Hf39  1  0.40185588  0.19169899  0.59949706  1
  Hf  Hf40  1  -0.01383351  0.80188974  0.19853090  1
  Hf  Hf41  1  0.00032045  0.40452685  -0.00031471  1
  Hf  Hf42  1  0.89964983  0.10099097  0.89814613  1
  Hf  Hf43  1  0.40010956  0.80482249  0.60278593  1
  Hf  Hf44  1  0.50165131  0.90377756  0.49790533  1
  Hf  Hf45  1  0.29828228  0.29886729  0.30399914  1
  Hf  Hf46  1  0.60019278  0.19401382  0.59698269  1
  Hf  Hf47  1  0.40452827  0.61192070  0.20156206  1
  Hf  Hf48  1  0.11912356  0.30246498  0.89006974  1
  Hf  Hf49  1  0.49933649  0.69594422  0.70012663  1
  Zr  Zr50  1  0.29121496  0.70001827  0.50051122  1
  Zr  Zr51  1  0.10001806  0.91274285  0.51699813  1
  Zr  Zr52  1  0.89295761  0.69508342  0.72019886  1
  Zr  Zr53  1  0.60535209  0.40217715  0.20569878  1
  Zr  Zr54  1  0.90543524  0.48874192  0.51137912  1
  Zr  Zr55  1  0.60614951  0.79537539  0.60022034  1
  Zr  Zr56  1  0.89783535  0.69886918  0.50276708  1
  Zr  Zr57  1  0.90405419  0.30093532  0.49293598  1
  Zr  Zr58  1  0.10252094  0.50726198  0.89880629  1
  Zr  Zr59  1  0.20784127  0.18881149  0.19047181  1
  Zr  Zr60  1  0.90656993  0.90012127  0.70117347  1
  Zr  Zr61  1  -0.00761035  0.80452374  0.39804987  1
  Zr  Zr62  1  0.51053027  0.10050280  0.29209884  1
  Zr  Zr63  1  0.70511315  0.29969500  0.09769558  1
  Zr  Zr64  1  -0.01638701  -0.00372256  0.20348120  1
  Zr  Zr65  1  0.78729747  0.40347303  0.39337567  1
  Zr  Zr66  1  0.20500213  0.00495916  0.39670281  1
  Zr  Zr67  1  0.08234847  0.08898746  0.08681144  1
  Zr  Zr68  1  0.80009670  0.00445092  0.59763167  1
  Zr  Zr69  1  0.88690623  0.49842823  0.09697098  1
  Zr  Zr70  1  0.70134174  0.10858232  0.90897164  1
  Zr  Zr71  1  0.18942203  0.59513398  0.60122231  1
  Zr  Zr72  1  0.10058427  0.29457546  0.09814883  1
  Zr  Zr73  1  0.50833993  0.68718120  0.49464380  1
  Zr  Zr74  1  0.31409579  0.09823344  0.89109920  1
  Zr  Zr75  1  0.50628529  0.89807599  0.10146405  1
  Zr  Zr76  1  0.31060156  0.31064758  0.09438789  1
  Zr  Zr77  1  0.40051241  0.40216992  0.59551442  1
  Zr  Zr78  1  0.71205379  0.69633182  0.89939796  1
  Zr  Zr79  1  0.79424206  0.20101471  0.60081093  1
  Zr  Zr80  1  0.39578014  0.58597132  0.60045353  1
  Zr  Zr81  1  0.89462728  0.31042567  0.69861602  1
  Zr  Zr82  1  0.28816341  0.29222342  0.49943512  1
  Zr  Zr83  1  0.09484197  0.10767589  0.30213841  1
  Zr  Zr84  1  0.40371155  0.80984649  0.80397809  1
  Zr  Zr85  1  0.90243739  0.29617743  0.30372669  1
  Zr  Zr86  1  0.69405771  0.69471766  0.29624829  1
  Zr  Zr87  1  0.29711791  0.90272304  0.50398093  1
  Zr  Zr88  1  0.69629530  0.10161618  0.71175709  1
  Zr  Zr89  1  -0.00864794  0.79691895  0.00320105  1
  Zr  Zr90  1  0.00380979  0.20553403  0.60448119  1
  Zr  Zr91  1  0.40270520  0.40534113  0.78703624  1
  Zr  Zr92  1  0.60436577  0.79607625  0.39654087  1
  Zr  Zr93  1  0.40645599  0.40270256  0.40014603  1
  Zr  Zr94  1  0.41257966  0.20871469  0.20298117  1
  Zr  Zr95  1  0.09824834  0.69835976  0.29204330  1
  Zr  Zr96  1  0.10690589  0.90061697  0.28803994  1
  Zr  Zr97  1  0.79661723  -0.00120875  0.80281837  1
  Zr  Zr98  1  0.50985554  0.69926253  0.91320874  1
  Zr  Zr99  1  0.90109950  0.49960524  0.29849087  1
  Ta  Ta100  1  0.60006459  0.00701479  0.59307199  1
  Ta  Ta101  1  0.59740991  0.39968186  0.39864566  1
  Ta  Ta102  1  0.69415082  0.29799910  0.49519678  1
  Ta  Ta103  1  0.10315567  0.90406066  0.70015359  1
  Ta  Ta104  1  0.59533775  0.80214402  0.80281698  1
  Ta  Ta105  1  0.40214175  0.00835072  0.59957219  1
  Ta  Ta106  1  0.30525248  0.10104740  0.30128777  1
  Ta  Ta107  1  0.60226112  0.39880358  -0.00043413  1
  Ta  Ta108  1  0.91046938  0.10466489  0.70637521  1
  Ta  Ta109  1  0.20410846  0.41673445  0.00717415  1
  Ta  Ta110  1  0.59700816  0.20939547  0.79780433  1
  Ta  Ta111  1  0.88832810  0.69240326  0.10499977  1
  Ta  Ta112  1  0.88693688  0.10117427  0.31525461  1
  Ta  Ta113  1  0.69377582  0.28944873  0.30239301  1
  Ta  Ta114  1  0.20498323  -0.00032993  0.80027987  1
  Ta  Ta115  1  0.89689375  0.50085746  0.70165774  1
  Ta  Ta116  1  0.40028788  0.80134156  0.00666030  1
  Ta  Ta117  1  0.70762091  0.89972661  0.49726742  1
  Ta  Ta118  1  0.40724581  0.19466462  0.40434444  1
  Ta  Ta119  1  0.21248963  0.00009219  0.18889970  1
  Ta  Ta120  1  0.50158953  0.30243604  0.90330898  1
  Ta  Ta121  1  0.60160449  -0.00589977  0.00402897  1
  Ta  Ta122  1  0.69512517  0.10023006  0.10040110  1
  Ta  Ta123  1  0.40216410  0.00814252  0.40176893  1
  Ta  Ta124  1  0.10348901  0.10894744  0.50116085  1
  Ta  Ta125  1  0.40723484  0.41055938  0.20416448  1
  Ta  Ta126  1  0.90419955  0.10157052  0.49745814  1
  Ta  Ta127  1  0.88921809  0.69625323  0.29158635  1
  Ta  Ta128  1  0.10264961  0.89822101  0.09892057  1
  Ta  Ta129  1  0.00144932  0.60094031  0.60940763  1
  Ta  Ta130  1  0.30581732  0.90210865  0.28848902  1
  Ta  Ta131  1  0.29930576  0.50257105  0.30010379  1
  Ta  Ta132  1  -0.00274418  0.60678744  0.00302578  1
  Ta  Ta133  1  0.09967584  0.50146595  0.30006991  1
  Ta  Ta134  1  0.39325475  0.59486578  0.79714343  1
  Ta  Ta135  1  0.19673902  0.40611189  0.39869560  1
  Ta  Ta136  1  0.79298309  0.59854927  0.60237159  1
  Ta  Ta137  1  0.51174576  0.09801827  0.10059166  1
  Ta  Ta138  1  0.78397324  0.58896561  0.19747422  1
  Ta  Ta139  1  0.10076969  0.69700945  0.90320291  1
  Ta  Ta140  1  0.51118358  0.51232574  0.30298828  1
  Ta  Ta141  1  0.79728246  0.79485085  0.59926829  1
  Ta  Ta142  1  0.70216611  0.30156666  0.89760259  1
  Ta  Ta143  1  0.79537440  0.79626455  0.01285319  1
  Ta  Ta144  1  0.50652367  0.29699825  0.49663519  1
  Ta  Ta145  1  0.29921338  0.49862117  0.90063606  1
  Ta  Ta146  1  0.50119323  0.09463019  0.70485464  1
  Ta  Ta147  1  0.10191397  0.70528916  0.09715796  1
  Ta  Ta148  1  0.61278917  0.59472127  0.59802372  1
  Ta  Ta149  1  0.09987299  0.30011383  0.49756912  1
  Ti  Ti150  1  0.78977717  -0.00840674  0.00708544  1
  Ti  Ti151  1  0.59924345  0.20476736  0.00131832  1
  Ti  Ti152  1  0.80101516  0.80179495  0.40065397  1
  Ti  Ti153  1  0.30675536  0.90144089  0.90287342  1
  Ti  Ti154  1  0.19471184  0.40190453  0.60224837  1
  Ti  Ti155  1  0.78427588  0.39915167  0.60168896  1
  Ti  Ti156  1  0.50309681  0.29767270  0.69406182  1
  Ti  Ti157  1  0.29220512  0.70375429  0.29316609  1
  Ti  Ti158  1  0.89183478  0.90337312  0.09805938  1
  Ti  Ti159  1  0.19926957  0.59813213  0.79590191  1
  Ti  Ti160  1  0.28883660  0.49719563  0.49570909  1
  Ti  Ti161  1  0.71181967  0.49736951  0.70490241  1
  Ti  Ti162  1  0.20204441  0.18632404  0.79546880  1
  Ti  Ti163  1  0.19567292  0.59698742  0.39745681  1
  Ti  Ti164  1  0.79282621  0.80237595  0.19499189  1
  Ti  Ti165  1  0.00102015  0.59828210  0.19073862  1
  Ti  Ti166  1  0.79410811  -0.00240849  0.20571607  1
  Ti  Ti167  1  0.09344750  0.09923245  0.89466213  1
  Ti  Ti168  1  0.29051869  0.90934815  0.69143119  1
  Ti  Ti169  1  0.71218613  0.10255105  0.48291437  1
  Ti  Ti170  1  0.10348830  0.70346587  0.50599020  1
  Ti  Ti171  1  0.00639771  0.79134134  0.80508900  1
  Ti  Ti172  1  0.09276648  0.48926566  0.49953498  1
  Ti  Ti173  1  0.40805806  0.20080254  0.79305727  1
  Ti  Ti174  1  0.40043767  -0.00583932  0.79171721  1
  Ti  Ti175  1  0.50666092  0.50192184  0.69169573  1
  Ti  Ti176  1  -0.00949978  0.19656461  0.19637970  1
  Ti  Ti177  1  0.59830025  0.19778148  0.39761195  1
  Ti  Ti178  1  0.50655901  0.30655978  0.09932028  1
  Ti  Ti179  1  0.50546064  0.90676046  0.69732206  1
  Ti  Ti180  1  0.60135099  0.79205221  0.19226789  1
  Ti  Ti181  1  0.10470262  0.29867462  0.70242663  1
  Ti  Ti182  1  0.68948251  0.68878796  0.09347795  1
  Ti  Ti183  1  0.70406183  0.70087076  0.70519020  1
  Ti  Ti184  1  0.19987257  0.59804622  0.01018882  1
  Ti  Ti185  1  0.40463495  -0.00495078  0.00524275  1
  Ti  Ti186  1  0.89455774  0.90332005  0.50397241  1
  Ti  Ti187  1  0.39654243  0.00439630  0.19348571  1
  Ti  Ti188  1  0.70701826  0.89975966  0.30111303  1
  Ti  Ti189  1  0.80097109  0.21277500  0.79993094  1
  Ti  Ti190  1  0.60227480  0.39922573  0.59810210  1
  Ti  Ti191  1  0.80187957  0.39376859  -0.00661463  1
  Ti  Ti192  1  0.29113364  0.10301862  0.50306915  1
  Ti  Ti193  1  0.61659268  -0.00241074  0.19808556  1
  Ti  Ti194  1  0.20864255  0.80338039  0.00898243  1
  Ti  Ti195  1  0.69059731  0.49781168  0.49835087  1
  Ti  Ti196  1  0.39527409  0.79241446  0.18980820  1
  Ti  Ti197  1  0.00362108  0.00066467  0.80006965  1
  Ti  Ti198  1  0.59310067  -0.00846758  0.80649483  1
  Ti  Ti199  1  0.89105120  0.30017155  0.09962755  1
  Mo  Mo200  1  0.00533580  0.19707774  0.79939637  1
  Mo  Mo201  1  0.60077516  0.60292477  0.19980046  1
  Mo  Mo202  1  0.60499755  0.59648314  0.00529061  1
  Mo  Mo203  1  0.60158924  0.59192878  0.40237575  1
  Mo  Mo204  1  0.30468794  0.09519131  0.70115520  1
  Mo  Mo205  1  0.19818128  0.19913910  0.60054007  1
  Mo  Mo206  1  0.20775542  0.00635685  0.60546502  1
  Mo  Mo207  1  0.09612890  0.69881208  0.71089339  1
  Mo  Mo208  1  0.79248870  0.79651828  0.80134210  1
  Mo  Mo209  1  0.50375677  0.30158060  0.30761492  1
  Mo  Mo210  1  0.88531879  0.30017432  0.89783516  1
  Mo  Mo211  1  0.60079286  0.79670378  0.00659910  1
  Mo  Mo212  1  0.01167416  0.40275533  0.60275795  1
  Mo  Mo213  1  0.70546592  0.69993694  0.50337102  1
  Mo  Mo214  1  0.01256757  0.40160710  0.40049549  1
  Mo  Mo215  1  0.50928234  0.70547615  0.10108800  1
  Mo  Mo216  1  0.31840477  0.09545942  0.10194912  1
  Mo  Mo217  1  -0.00336729  0.00405414  0.59880364  1
  Mo  Mo218  1  0.79940767  -0.00439745  0.39889836  1
  Mo  Mo219  1  0.09551996  0.51163651  0.09894104  1
  Mo  Mo220  1  0.20405353  0.40526191  0.80085073  1
  Mo  Mo221  1  -0.00002108  0.19520228  0.40548839  1
  Mo  Mo222  1  0.51587058  0.49514977  0.50073617  1
  Mo  Mo223  1  0.79985901  0.60643866  0.00753836  1
  Mo  Mo224  1  0.30704410  0.89889654  0.10058072  1
  Mo  Mo225  1  0.69559965  0.49789443  0.29752580  1
  Mo  Mo226  1  0.50231207  0.70035974  0.29105846  1
  Mo  Mo227  1  0.20707086  0.80322250  0.19032174  1
  Mo  Mo228  1  0.49910197  0.90307032  0.90329721  1
  Mo  Mo229  1  0.69598788  0.30545938  0.69586745  1
  Mo  Mo230  1  0.70061390  0.49894697  0.09660969  1
  Mo  Mo231  1  0.70207749  0.89893568  0.10566553  1
  Mo  Mo232  1  -0.00677965  -0.00592656  -0.00341321  1
  Mo  Mo233  1  0.50105033  0.09982556  0.49862335  1
  Mo  Mo234  1  0.90144479  0.70118904  0.90765302  1
  Mo  Mo235  1  0.87913413  0.89638005  0.30093835  1
  Mo  Mo236  1  0.79728833  0.20348709  -0.00182044  1
  Mo  Mo237  1  0.19454864  0.80401807  0.60919176  1
  Mo  Mo238  1  0.60207434  0.20093148  0.19586351  1
  Mo  Mo239  1  0.30818772  0.50154873  0.10183225  1
  Mo  Mo240  1  0.00283859  0.60681523  0.80513130  1
  Mo  Mo241  1  0.40612570  0.40312359  0.00322913  1
  Mo  Mo242  1  0.79436443  0.19864317  0.40073577  1
  Mo  Mo243  1  0.79580706  0.40122413  0.79766000  1
  Mo  Mo244  1  0.79553539  0.59589902  0.79387604  1
  Mo  Mo245  1  0.79569272  0.39623570  0.19950382  1
  Mo  Mo246  1  0.29497386  0.70847285  0.09724677  1
  Mo  Mo247  1  0.20323052  0.19899320  0.40328501  1
  Mo  Mo248  1  0.28643142  0.49794010  0.70707138  1
  Mo  Mo249  1  0.70110218  0.09987445  0.29684415  1
