# generated using pymatgen
data_HfZrTaTiMo
_symmetry_space_group_name_H-M   'P 1'
_cell_length_a   16.88531810
_cell_length_b   16.88866658
_cell_length_c   16.88796868
_cell_angle_alpha   90.04327369
_cell_angle_beta   90.01737315
_cell_angle_gamma   89.99905615
_symmetry_Int_Tables_number   1
_chemical_formula_structural   HfZrTaTiMo
_chemical_formula_sum   'Hf50 Zr50 Ta50 Ti50 Mo50'
_cell_volume   4815.94900342
_cell_formula_units_Z   50
loop_
 _symmetry_equiv_pos_site_id
 _symmetry_equiv_pos_as_xyz
  1  'x, y, z'
loop_
 _atom_site_type_symbol
 _atom_site_label
 _atom_site_symmetry_multiplicity
 _atom_site_fract_x
 _atom_site_fract_y
 _atom_site_fract_z
 _atom_site_occupancy
  Hf  Hf0  1  0.69817521  0.70515626  0.10661350  1
  Hf  Hf1  1  0.20394724  -0.00172867  0.00248160  1
  Hf  Hf2  1  0.40255670  0.80065302  0.00335858  1
  Hf  Hf3  1  0.60159400  0.60584936  0.39758056  1
  Hf  Hf4  1  -0.00637796  0.20524370  -0.01778880  1
  Hf  Hf5  1  0.10180487  0.10498041  0.09825469  1
  Hf  Hf6  1  0.59345201  0.19462208  0.40096903  1
  Hf  Hf7  1  0.69802186  0.09251123  0.50876519  1
  Hf  Hf8  1  0.60220964  0.59483874  0.80145150  1
  Hf  Hf9  1  0.59795651  0.80364621  0.00263088  1
  Hf  Hf10  1  0.10791483  0.70643411  0.90243148  1
  Hf  Hf11  1  0.40419432  0.00360380  0.40400384  1
  Hf  Hf12  1  0.79777085  0.81223046  0.79197603  1
  Hf  Hf13  1  0.79148644  0.60152740  -0.00780509  1
  Hf  Hf14  1  0.28828012  0.29701872  0.48745993  1
  Hf  Hf15  1  0.80018161  0.79705279  0.39877596  1
  Hf  Hf16  1  0.01093496  0.39998474  0.21129763  1
  Hf  Hf17  1  0.40813727  0.60360237  0.00294248  1
  Hf  Hf18  1  0.29674365  0.29672736  0.09393022  1
  Hf  Hf19  1  0.00183157  0.60240548  0.00714410  1
  Hf  Hf20  1  0.89921637  0.49517926  0.09831541  1
  Hf  Hf21  1  0.90154657  0.10803095  0.11112347  1
  Hf  Hf22  1  0.49507521  0.29766547  0.29405498  1
  Hf  Hf23  1  0.10517724  0.50367113  0.10600491  1
  Hf  Hf24  1  0.39545648  0.40509594  0.59726911  1
  Hf  Hf25  1  0.10207918  0.10490524  0.89317658  1
  Hf  Hf26  1  0.00165755  0.80320175  0.60048779  1
  Hf  Hf27  1  0.69775332  0.49021584  0.09554447  1
  Hf  Hf28  1  0.39407730  0.19605686  0.59825777  1
  Hf  Hf29  1  0.69969449  0.09939467  0.69908596  1
  Hf  Hf30  1  0.30235509  0.69711270  0.70227865  1
  Hf  Hf31  1  0.69374741  0.30412085  0.09912234  1
  Hf  Hf32  1  0.70696148  0.09991539  0.29748943  1
  Hf  Hf33  1  0.59430058  0.41110476  0.38624485  1
  Hf  Hf34  1  0.70150688  0.49897785  0.50399615  1
  Hf  Hf35  1  0.40074002  0.00199096  0.60465770  1
  Hf  Hf36  1  0.59898732  -0.00636845  0.20020345  1
  Hf  Hf37  1  0.29895664  0.90011851  0.28910494  1
  Hf  Hf38  1  0.69784735  0.29560038  0.29030371  1
  Hf  Hf39  1  0.59415612  0.39960042  0.60862752  1
  Hf  Hf40  1  0.59984758  0.20717109  0.80302084  1
  Hf  Hf41  1  0.90153583  0.49159349  0.70358958  1
  Hf  Hf42  1  0.09864571  0.30191466  0.09209503  1
  Hf  Hf43  1  0.69445301  0.29529980  0.50154318  1
  Hf  Hf44  1  0.20037926  0.80572836  0.79840768  1
  Hf  Hf45  1  0.39735526  0.00052837  0.80040933  1
  Hf  Hf46  1  0.09791218  0.49597711  0.69632814  1
  Hf  Hf47  1  0.80387278  0.00156371  -0.00284493  1
  Hf  Hf48  1  0.20577952  0.59176783  0.38759866  1
  Hf  Hf49  1  0.20053563  0.19992762  0.20143248  1
  Zr  Zr50  1  0.80284236  0.20464581  -0.01409136  1
  Zr  Zr51  1  0.40082480  0.79136809  0.39159977  1
  Zr  Zr52  1  0.79306178  0.60961306  0.39672676  1
  Zr  Zr53  1  0.90274249  0.70829799  0.90187025  1
  Zr  Zr54  1  0.30159267  0.89394026  0.49918079  1
  Zr  Zr55  1  0.69321614  0.09416603  0.89477023  1
  Zr  Zr56  1  0.70186109  0.90419051  0.50280438  1
  Zr  Zr57  1  0.29724184  0.10794574  0.90599340  1
  Zr  Zr58  1  0.00187202  0.38630836  0.40491509  1
  Zr  Zr59  1  0.10029265  0.49547086  0.49514639  1
  Zr  Zr60  1  0.19832068  0.79618611  0.59875636  1
  Zr  Zr61  1  0.81213606  0.18932191  0.40856534  1
  Zr  Zr62  1  0.00043448  0.60146829  0.79946366  1
  Zr  Zr63  1  0.50317245  0.89905127  0.50568068  1
  Zr  Zr64  1  0.80414452  0.38474838  0.60769676  1
  Zr  Zr65  1  0.20296648  0.00453628  0.60127785  1
  Zr  Zr66  1  0.01585760  0.80521635  0.01206999  1
  Zr  Zr67  1  0.09636410  0.90354140  0.49066016  1
  Zr  Zr68  1  0.50316400  0.71333959  0.88672594  1
  Zr  Zr69  1  0.29894729  0.50921267  0.10359091  1
  Zr  Zr70  1  0.39945414  0.40528000  0.20373356  1
  Zr  Zr71  1  0.08593226  0.29714442  0.70069344  1
  Zr  Zr72  1  0.48804786  0.30184218  0.70689943  1
  Zr  Zr73  1  0.89232301  0.28698994  0.28920134  1
  Zr  Zr74  1  0.49303684  0.09998942  0.09767869  1
  Zr  Zr75  1  0.39859380  0.59676078  0.38724537  1
  Zr  Zr76  1  0.79254052  0.61189489  0.59990049  1
  Zr  Zr77  1  0.70109631  0.10421928  0.10310062  1
  Zr  Zr78  1  0.90267602  0.89793668  0.90079344  1
  Zr  Zr79  1  0.40971393  0.59055354  0.79762890  1
  Zr  Zr80  1  0.38840394  0.41200823  0.39730904  1
  Zr  Zr81  1  0.60201932  0.59974504  -0.00860485  1
  Zr  Zr82  1  0.80259847  0.39632510  0.40419044  1
  Zr  Zr83  1  0.59390710  0.60162084  0.61029995  1
  Zr  Zr84  1  0.00027530  -0.00464591  0.79746173  1
  Zr  Zr85  1  0.90462958  0.50466593  0.30560298  1
  Zr  Zr86  1  0.29783690  0.49476587  0.70374158  1
  Zr  Zr87  1  0.80667627  0.21841148  0.80079846  1
  Zr  Zr88  1  0.59831769  0.79788837  0.60674555  1
  Zr  Zr89  1  0.19795665  0.78532747  0.38830520  1
  Zr  Zr90  1  0.09100254  0.49053389  0.90048498  1
  Zr  Zr91  1  0.90186668  0.70496029  0.69744961  1
  Zr  Zr92  1  0.20158979  0.39912545  -0.00753005  1
  Zr  Zr93  1  0.89702026  0.70309856  0.10490044  1
  Zr  Zr94  1  0.90008760  0.89699372  0.10397613  1
  Zr  Zr95  1  0.29993097  0.10048804  0.29888558  1
  Zr  Zr96  1  0.79024896  0.60123069  0.80770166  1
  Zr  Zr97  1  0.49384260  0.09794479  0.29156642  1
  Zr  Zr98  1  0.89466026  0.30706436  0.09966318  1
  Zr  Zr99  1  0.59951223  0.59153589  0.20848091  1
  Ta  Ta100  1  0.69995829  0.90071587  0.30103462  1
  Ta  Ta101  1  0.50628900  0.09603320  0.70267565  1
  Ta  Ta102  1  0.79750608  0.60497569  0.21068173  1
  Ta  Ta103  1  0.49067536  0.30094648  0.90527849  1
  Ta  Ta104  1  0.30390932  0.29866519  0.89678037  1
  Ta  Ta105  1  0.59860173  -0.00343710  0.39872236  1
  Ta  Ta106  1  0.69161388  0.90428937  0.89365194  1
  Ta  Ta107  1  0.00781598  0.60802089  0.20870490  1
  Ta  Ta108  1  0.29392108  0.70455502  0.10053301  1
  Ta  Ta109  1  0.70370969  0.48929222  0.70761967  1
  Ta  Ta110  1  0.00270733  0.00344338  0.00285274  1
  Ta  Ta111  1  0.80924273  -0.00490531  0.21079092  1
  Ta  Ta112  1  0.90142134  0.89933653  0.49873257  1
  Ta  Ta113  1  0.81274230  0.00033925  0.60606076  1
  Ta  Ta114  1  0.10576877  0.69303696  0.69881788  1
  Ta  Ta115  1  0.40259816  0.79353324  0.19564860  1
  Ta  Ta116  1  0.09702418  0.10555019  0.69677438  1
  Ta  Ta117  1  0.00285190  -0.00426183  0.20702283  1
  Ta  Ta118  1  0.19742371  0.20713745  0.79747195  1
  Ta  Ta119  1  0.91061955  0.10737667  0.70113335  1
  Ta  Ta120  1  0.29999149  0.89805037  0.10359017  1
  Ta  Ta121  1  0.00598103  0.79881763  0.21315356  1
  Ta  Ta122  1  0.81072272  0.19911928  0.60297292  1
  Ta  Ta123  1  -0.00690478  0.00250659  0.39544918  1
  Ta  Ta124  1  0.89784851  0.48920622  0.90035048  1
  Ta  Ta125  1  0.39946535  -0.00362601  0.00258417  1
  Ta  Ta126  1  0.40500345  0.59474633  0.60048518  1
  Ta  Ta127  1  0.09773974  0.10399413  0.49989644  1
  Ta  Ta128  1  0.19515584  0.20359810  0.60020123  1
  Ta  Ta129  1  0.59556868  -0.00496351  0.00072038  1
  Ta  Ta130  1  0.30330225  0.89908074  0.70121964  1
  Ta  Ta131  1  0.60295969  0.79368572  0.39505670  1
  Ta  Ta132  1  0.00245773  0.60310841  0.59467786  1
  Ta  Ta133  1  0.49691293  0.69891610  0.50179021  1
  Ta  Ta134  1  0.90406497  0.50631258  0.50405850  1
  Ta  Ta135  1  -0.00007659  0.19453733  0.40646098  1
  Ta  Ta136  1  0.90646739  0.70242918  0.49658336  1
  Ta  Ta137  1  0.50269348  0.90648912  0.89377099  1
  Ta  Ta138  1  0.20266665  0.59572342  0.80550398  1
  Ta  Ta139  1  0.29917804  0.70245165  0.90151500  1
  Ta  Ta140  1  0.70355185  0.89998934  0.10557911  1
  Ta  Ta141  1  0.50596957  0.49089447  0.10010838  1
  Ta  Ta142  1  0.30477999  0.69083856  0.50674060  1
  Ta  Ta143  1  0.19877285  0.39391472  0.59340039  1
  Ta  Ta144  1  0.09982522  0.09783557  0.30543234  1
  Ta  Ta145  1  0.80292429  0.79985113  0.21467685  1
  Ta  Ta146  1  0.60349766  0.39708134  0.80564111  1
  Ta  Ta147  1  0.49629550  0.29893542  0.49738412  1
  Ta  Ta148  1  0.69107593  0.91465369  0.70254419  1
  Ta  Ta149  1  0.19901866  0.39383269  0.80021582  1
  Ti  Ti150  1  0.20145059  0.00529282  0.19546824  1
  Ti  Ti151  1  0.29352568  0.10394308  0.70388624  1
  Ti  Ti152  1  0.49893791  0.89816626  0.29755997  1
  Ti  Ti153  1  0.79193675  0.41281103  0.21087960  1
  Ti  Ti154  1  0.10283029  0.90616933  0.69556433  1
  Ti  Ti155  1  0.49872971  0.09920995  0.90044736  1
  Ti  Ti156  1  0.10458182  0.90176352  0.29653245  1
  Ti  Ti157  1  0.49605462  0.89960176  0.10541461  1
  Ti  Ti158  1  0.59190566  0.20341120  0.19176777  1
  Ti  Ti159  1  0.11064725  0.89707533  0.10920717  1
  Ti  Ti160  1  0.81068422  0.00331371  0.79671414  1
  Ti  Ti161  1  -0.00248446  0.79792283  0.39134739  1
  Ti  Ti162  1  0.39743592  0.19658970  0.80030852  1
  Ti  Ti163  1  0.40679086  0.79478189  0.60900648  1
  Ti  Ti164  1  0.11418417  0.29332060  0.31834298  1
  Ti  Ti165  1  0.10000559  0.69545397  0.49809280  1
  Ti  Ti166  1  0.20234737  -0.00193771  0.79810244  1
  Ti  Ti167  1  0.39872685  0.19870014  0.00427275  1
  Ti  Ti168  1  0.39364058  0.19945682  0.19064164  1
  Ti  Ti169  1  0.59210110  0.20593925  -0.00161469  1
  Ti  Ti170  1  0.19704740  0.00201230  0.39819790  1
  Ti  Ti171  1  0.11560653  0.70408902  0.10933974  1
  Ti  Ti172  1  0.40187373  0.19629021  0.40477515  1
  Ti  Ti173  1  0.40540350  0.80608043  0.79135581  1
  Ti  Ti174  1  0.50807300  0.09961197  0.51049915  1
  Ti  Ti175  1  0.29575512  0.29652743  0.30605452  1
  Ti  Ti176  1  0.00614541  0.80676503  0.79100237  1
  Ti  Ti177  1  0.69313248  0.71056670  0.71044602  1
  Ti  Ti178  1  0.49849741  0.50199313  0.49957946  1
  Ti  Ti179  1  0.20066856  0.40769416  0.22018578  1
  Ti  Ti180  1  0.30463164  0.49701093  0.89909485  1
  Ti  Ti181  1  0.10546566  0.90051297  0.90425196  1
  Ti  Ti182  1  0.79192699  0.39152313  -0.02126804  1
  Ti  Ti183  1  0.00512731  0.60820385  0.39509106  1
  Ti  Ti184  1  0.78918519  0.80161480  -0.00471165  1
  Ti  Ti185  1  0.29808751  0.30090536  0.70463978  1
  Ti  Ti186  1  0.40318638  0.39836128  0.00227836  1
  Ti  Ti187  1  -0.00627207  0.38812862  0.59278834  1
  Ti  Ti188  1  -0.00506302  0.00239713  0.59674654  1
  Ti  Ti189  1  0.59812485  0.20645139  0.60701556  1
  Ti  Ti190  1  0.20346777  0.59430486  0.59500832  1
  Ti  Ti191  1  0.30179091  0.89474513  0.90142822  1
  Ti  Ti192  1  0.50173306  0.48500866  0.90227910  1
  Ti  Ti193  1  0.28992074  0.10506272  0.49403903  1
  Ti  Ti194  1  0.49743632  0.69825022  0.29042348  1
  Ti  Ti195  1  0.59840172  0.79906400  0.20397461  1
  Ti  Ti196  1  0.79845014  0.80423620  0.60017607  1
  Ti  Ti197  1  0.00715350  0.19808102  0.21166598  1
  Ti  Ti198  1  0.20408916  0.60344952  -0.00417756  1
  Ti  Ti199  1  0.81108102  -0.00190954  0.39907917  1
  Mo  Mo200  1  0.19992766  0.60841879  0.20217227  1
  Mo  Mo201  1  0.91716592  0.31890385  0.89291229  1
  Mo  Mo202  1  0.39539567  0.39664893  0.81037331  1
  Mo  Mo203  1  0.60150799  0.80920311  0.79623233  1
  Mo  Mo204  1  0.68246493  0.29971709  0.90392272  1
  Mo  Mo205  1  0.50380512  0.49556856  0.70646985  1
  Mo  Mo206  1  0.29495069  0.50545730  0.28848757  1
  Mo  Mo207  1  0.70056825  0.48368390  0.89847374  1
  Mo  Mo208  1  0.79647510  0.39792295  0.80376218  1
  Mo  Mo209  1  -0.00309717  0.40073124  0.00009603  1
  Mo  Mo210  1  0.20760486  0.80403492  0.00096261  1
  Mo  Mo211  1  -0.00126471  0.19509135  0.59539602  1
  Mo  Mo212  1  0.49764356  0.90134998  0.70607325  1
  Mo  Mo213  1  0.69847179  0.72134135  0.89591563  1
  Mo  Mo214  1  0.59588997  0.39711043  0.19583965  1
  Mo  Mo215  1  0.49630930  0.50146731  0.29179809  1
  Mo  Mo216  1  0.49915666  0.69994712  0.10730822  1
  Mo  Mo217  1  0.59781703  0.00443231  0.60352064  1
  Mo  Mo218  1  0.90431737  0.29636599  0.70151516  1
  Mo  Mo219  1  0.10062752  0.29388939  0.50339189  1
  Mo  Mo220  1  0.90739646  0.28908427  0.50773072  1
  Mo  Mo221  1  0.89895342  0.90504047  0.69211168  1
  Mo  Mo222  1  0.49531068  0.70180216  0.69653301  1
  Mo  Mo223  1  0.79748913  0.19164888  0.19752551  1
  Mo  Mo224  1  0.19440333  0.19414442  0.40111743  1
  Mo  Mo225  1  0.30090419  0.09716402  0.10031339  1
  Mo  Mo226  1  0.90531865  0.09209820  0.50550847  1
  Mo  Mo227  1  0.10533687  0.29806124  0.89441080  1
  Mo  Mo228  1  0.59089167  0.39490966  -0.00305465  1
  Mo  Mo229  1  0.90574551  0.09175650  0.89307082  1
  Mo  Mo230  1  0.10077807  0.50270350  0.29921540  1
  Mo  Mo231  1  0.69795539  0.29839571  0.70144091  1
  Mo  Mo232  1  0.19986762  0.20242670  -0.00593495  1
  Mo  Mo233  1  0.09994345  0.69988583  0.29797194  1
  Mo  Mo234  1  0.40064891  -0.01173723  0.19278511  1
  Mo  Mo235  1  0.19837109  0.80225352  0.19654246  1
  Mo  Mo236  1  0.90725835  0.70192388  0.30316250  1
  Mo  Mo237  1  -0.00094085  0.20044021  0.79781095  1
  Mo  Mo238  1  0.69547548  0.70882540  0.29630982  1
  Mo  Mo239  1  -0.00163907  0.39651538  0.79808303  1
  Mo  Mo240  1  0.40315542  0.60689662  0.19273335  1
  Mo  Mo241  1  0.29817274  0.69823972  0.27947089  1
  Mo  Mo242  1  0.49465554  0.29789530  0.09419235  1
  Mo  Mo243  1  0.29497679  0.50242627  0.50657734  1
  Mo  Mo244  1  0.19914115  0.39978673  0.39482174  1
  Mo  Mo245  1  0.59104731  0.00314083  0.80061842  1
  Mo  Mo246  1  0.69673938  0.70709010  0.50055499  1
  Mo  Mo247  1  0.90249982  0.89926609  0.30585207  1
  Mo  Mo248  1  0.90787554  0.09444930  0.29947562  1
  Mo  Mo249  1  0.69978127  0.49981828  0.29736152  1
