# generated using pymatgen
data_HfZrTaTiMo
_symmetry_space_group_name_H-M   'P 1'
_cell_length_a   16.88092930
_cell_length_b   16.88245161
_cell_length_c   16.88762739
_cell_angle_alpha   90.00232222
_cell_angle_beta   90.01199899
_cell_angle_gamma   90.05532005
_symmetry_Int_Tables_number   1
_chemical_formula_structural   HfZrTaTiMo
_chemical_formula_sum   'Hf50 Zr50 Ta50 Ti50 Mo50'
_cell_volume   4812.82743900
_cell_formula_units_Z   50
loop_
 _symmetry_equiv_pos_site_id
 _symmetry_equiv_pos_as_xyz
  1  'x, y, z'
loop_
 _atom_site_type_symbol
 _atom_site_label
 _atom_site_symmetry_multiplicity
 _atom_site_fract_x
 _atom_site_fract_y
 _atom_site_fract_z
 _atom_site_occupancy
  Hf  Hf0  1  0.30934908  0.11572360  0.70595164  1
  Hf  Hf1  1  0.79703348  -0.00251853  0.59850648  1
  Hf  Hf2  1  0.09773163  0.10586477  0.69687982  1
  Hf  Hf3  1  0.68996117  0.88281722  0.29883624  1
  Hf  Hf4  1  0.89736085  0.90298978  0.90826349  1
  Hf  Hf5  1  0.30391132  0.91372720  0.70529944  1
  Hf  Hf6  1  0.80357798  0.40176556  0.00859783  1
  Hf  Hf7  1  0.90035467  0.28747786  0.91016661  1
  Hf  Hf8  1  0.49753714  0.09546002  0.09481181  1
  Hf  Hf9  1  0.69536264  0.89704612  0.09492667  1
  Hf  Hf10  1  0.89629354  0.69113438  0.69576061  1
  Hf  Hf11  1  0.90626517  0.89456708  0.50439058  1
  Hf  Hf12  1  0.70102652  0.68716983  0.70504147  1
  Hf  Hf13  1  -0.01336550  0.79716326  0.38272798  1
  Hf  Hf14  1  0.50416582  0.49932525  0.09571126  1
  Hf  Hf15  1  0.49794792  0.10138082  0.29257630  1
  Hf  Hf16  1  0.69356348  0.69397817  0.30035181  1
  Hf  Hf17  1  0.39251873  0.20183574  0.19572209  1
  Hf  Hf18  1  0.20774470  0.79991707  0.60615983  1
  Hf  Hf19  1  0.51452011  0.90878188  0.71006914  1
  Hf  Hf20  1  0.80523003  0.00015804  0.79804232  1
  Hf  Hf21  1  0.19615077  0.40432438  0.59772579  1
  Hf  Hf22  1  -0.00176902  0.79408003  0.19286207  1
  Hf  Hf23  1  0.39907859  0.00280693  0.38940987  1
  Hf  Hf24  1  0.40017791  0.20931188  0.39405361  1
  Hf  Hf25  1  0.19891327  0.00843958  0.81245031  1
  Hf  Hf26  1  0.20314759  0.60201114  0.79615371  1
  Hf  Hf27  1  0.91078503  0.28968395  0.10526127  1
  Hf  Hf28  1  0.39710475  0.39348987  0.80504654  1
  Hf  Hf29  1  0.29878668  0.69932201  0.49419676  1
  Hf  Hf30  1  0.49813537  0.10323598  0.70142725  1
  Hf  Hf31  1  0.79548077  0.79494181  0.80179317  1
  Hf  Hf32  1  0.40980051  0.39829429  0.39543774  1
  Hf  Hf33  1  0.59277320  0.58793292  0.59123731  1
  Hf  Hf34  1  0.29724790  0.49606575  0.49036870  1
  Hf  Hf35  1  0.19812555  0.01225656  0.59436954  1
  Hf  Hf36  1  0.40148358  0.39812496  0.59717641  1
  Hf  Hf37  1  0.69168342  0.90939722  0.90574754  1
  Hf  Hf38  1  0.39892179  0.59588538  0.60530164  1
  Hf  Hf39  1  0.08740592  0.91152913  0.49975584  1
  Hf  Hf40  1  0.50156031  0.90446151  0.91216409  1
  Hf  Hf41  1  0.50104598  0.69414300  0.70833990  1
  Hf  Hf42  1  0.60718560  0.20853508  0.59387472  1
  Hf  Hf43  1  0.70440543  0.50139850  0.70411202  1
  Hf  Hf44  1  0.29227061  0.30970781  0.29575543  1
  Hf  Hf45  1  0.59973469  -0.00178832  0.19942353  1
  Hf  Hf46  1  0.10274015  0.90317185  0.29530175  1
  Hf  Hf47  1  -0.00011178  0.19980828  0.80206146  1
  Hf  Hf48  1  0.79737336  0.40109333  0.20673598  1
  Hf  Hf49  1  0.30111869  0.89914834  0.09781020  1
  Zr  Zr50  1  -0.00562087  -0.00426585  0.20151126  1
  Zr  Zr51  1  0.09147322  0.70160722  0.90128125  1
  Zr  Zr52  1  0.00451360  0.59038162  0.59316515  1
  Zr  Zr53  1  0.69730482  0.70001622  0.11155148  1
  Zr  Zr54  1  0.79718143  0.78395923  -0.00397368  1
  Zr  Zr55  1  0.50859093  0.89781251  0.49815106  1
  Zr  Zr56  1  0.41923302  0.60797883  0.40738915  1
  Zr  Zr57  1  0.90401395  0.30557567  0.50015541  1
  Zr  Zr58  1  0.18390206  0.59815326  0.39367417  1
  Zr  Zr59  1  0.90166895  0.10571810  0.30195965  1
  Zr  Zr60  1  0.39839768  0.39860452  0.00010135  1
  Zr  Zr61  1  0.60651072  0.39927342  0.20989002  1
  Zr  Zr62  1  0.80266788  -0.00822237  0.39474330  1
  Zr  Zr63  1  0.19958518  0.60192637  0.00249353  1
  Zr  Zr64  1  0.01856046  0.39821068  0.20817167  1
  Zr  Zr65  1  0.40518568  0.00037116  0.59490049  1
  Zr  Zr66  1  0.80522748  0.38863612  0.79506388  1
  Zr  Zr67  1  0.31179907  0.11688899  0.50582505  1
  Zr  Zr68  1  0.20637612  0.20939603  0.81259675  1
  Zr  Zr69  1  0.90900561  0.50951280  0.30668990  1
  Zr  Zr70  1  0.20160555  0.80405700  0.39379308  1
  Zr  Zr71  1  0.59800091  0.40001315  0.40820105  1
  Zr  Zr72  1  0.69543743  0.09293636  0.70619201  1
  Zr  Zr73  1  0.50673061  0.30347002  0.90453392  1
  Zr  Zr74  1  0.09231174  0.11189643  0.09703589  1
  Zr  Zr75  1  0.40266557  0.79464956  0.60052236  1
  Zr  Zr76  1  0.79765476  -0.00220420  0.20038809  1
  Zr  Zr77  1  0.70746791  0.09952980  0.91062696  1
  Zr  Zr78  1  0.50507612  0.51534253  0.28751683  1
  Zr  Zr79  1  0.20541603  0.01436704  0.39877623  1
  Zr  Zr80  1  0.78490052  0.40729205  0.39999651  1
  Zr  Zr81  1  0.70551516  0.29538486  0.90580525  1
  Zr  Zr82  1  0.40547002  0.79962260  0.39283411  1
  Zr  Zr83  1  0.00883769  0.20464226  0.40169261  1
  Zr  Zr84  1  0.60224240  0.60123830  -0.00310678  1
  Zr  Zr85  1  0.20210248  0.80074056  0.80231769  1
  Zr  Zr86  1  0.08910557  0.90356063  0.69670272  1
  Zr  Zr87  1  0.20593103  0.01073931  0.19762242  1
  Zr  Zr88  1  0.30043168  0.50661650  0.28902850  1
  Zr  Zr89  1  0.69625715  0.88813721  0.49484522  1
  Zr  Zr90  1  0.90397749  0.49970736  0.49608378  1
  Zr  Zr91  1  0.00270765  0.59872277  0.00547106  1
  Zr  Zr92  1  0.19698976  0.59788580  0.60246497  1
  Zr  Zr93  1  0.08614332  0.70520839  0.70216980  1
  Zr  Zr94  1  0.39781511  0.79930400  0.80110312  1
  Zr  Zr95  1  0.70229372  0.49979491  0.90081241  1
  Zr  Zr96  1  0.60382015  0.20436221  0.79846436  1
  Zr  Zr97  1  0.79841956  0.20265731  0.60261679  1
  Zr  Zr98  1  0.90319536  0.50462467  0.10455169  1
  Zr  Zr99  1  0.08448772  0.71230828  0.49991692  1
  Ta  Ta100  1  0.91290853  0.09158211  0.50191028  1
  Ta  Ta101  1  0.30103479  0.50070754  0.10231570  1
  Ta  Ta102  1  0.18286128  0.40159171  0.38834183  1
  Ta  Ta103  1  0.29703839  0.49775187  0.89825389  1
  Ta  Ta104  1  0.60383452  0.79285166  0.81003363  1
  Ta  Ta105  1  0.59804467  0.00613489  0.39601767  1
  Ta  Ta106  1  0.79037020  0.39707306  0.59800741  1
  Ta  Ta107  1  0.00824358  0.39895340  -0.00075973  1
  Ta  Ta108  1  0.09700874  0.30668407  0.70036158  1
  Ta  Ta109  1  0.69935040  0.29572366  0.10123062  1
  Ta  Ta110  1  -0.00190178  0.00218932  0.80654185  1
  Ta  Ta111  1  0.39870745  0.00962321  0.81587566  1
  Ta  Ta112  1  -0.00011234  0.00082293  0.00019420  1
  Ta  Ta113  1  0.19931846  0.20883873  0.40182837  1
  Ta  Ta114  1  0.29925214  0.49415610  0.70932811  1
  Ta  Ta115  1  0.09674085  0.89983719  0.90777394  1
  Ta  Ta116  1  0.50581218  0.29815385  0.09951601  1
  Ta  Ta117  1  0.90182414  0.89845029  0.69659898  1
  Ta  Ta118  1  0.59756035  0.20344884  0.40029987  1
  Ta  Ta119  1  0.69718119  0.10648004  0.30156126  1
  Ta  Ta120  1  0.89713774  0.10405383  0.90885241  1
  Ta  Ta121  1  0.70140016  0.28784002  0.30240427  1
  Ta  Ta122  1  0.79913282  0.19964137  0.20203690  1
  Ta  Ta123  1  0.40128206  0.79766793  0.19020760  1
  Ta  Ta124  1  0.89853523  0.10395945  0.09237416  1
  Ta  Ta125  1  0.60334848  0.39672938  0.59959904  1
  Ta  Ta126  1  0.39347527  0.20131785  -0.00729975  1
  Ta  Ta127  1  -0.01216597  0.80335657  0.80674493  1
  Ta  Ta128  1  0.09830842  0.10607716  0.30150740  1
  Ta  Ta129  1  0.40423201  0.39467204  0.19709362  1
  Ta  Ta130  1  0.90289373  0.29963894  0.30219369  1
  Ta  Ta131  1  0.30222107  0.70075604  0.28359365  1
  Ta  Ta132  1  0.89694282  0.90040843  0.09411199  1
  Ta  Ta133  1  0.20169894  0.79518363  0.00360718  1
  Ta  Ta134  1  0.30503241  0.89945838  0.28589093  1
  Ta  Ta135  1  0.30672193  0.69674625  0.90120486  1
  Ta  Ta136  1  0.19601413  0.60689359  0.19036088  1
  Ta  Ta137  1  0.20005128  0.39752746  -0.00295003  1
  Ta  Ta138  1  0.90003663  0.49589884  0.69923411  1
  Ta  Ta139  1  0.39974429  0.59661529  -0.00380636  1
  Ta  Ta140  1  0.70180183  0.69514700  0.49693481  1
  Ta  Ta141  1  0.29938878  0.90169743  0.91026287  1
  Ta  Ta142  1  0.59976356  0.19777449  0.00693323  1
  Ta  Ta143  1  0.20042913  0.21406334  0.59322342  1
  Ta  Ta144  1  0.10118035  0.89625725  0.09271121  1
  Ta  Ta145  1  0.79833853  0.79260851  0.59831528  1
  Ta  Ta146  1  0.19773852  0.20448289  0.20437781  1
  Ta  Ta147  1  0.10196590  0.49101846  0.89449192  1
  Ta  Ta148  1  0.49644530  0.69527372  0.90088991  1
  Ta  Ta149  1  0.09576151  0.31126921  0.50242656  1
  Ti  Ti150  1  0.09516516  0.48882284  0.70965882  1
  Ti  Ti151  1  0.81564488  0.79781282  0.20998385  1
  Ti  Ti152  1  0.49768386  0.49507672  0.70897756  1
  Ti  Ti153  1  0.60485570  0.00296877  0.59057831  1
  Ti  Ti154  1  0.29988849  0.10167858  0.09600914  1
  Ti  Ti155  1  0.10376365  0.29682581  0.09957156  1
  Ti  Ti156  1  0.49731205  0.69505186  0.10243350  1
  Ti  Ti157  1  0.50386842  0.10011085  0.90208224  1
  Ti  Ti158  1  0.89171272  0.68381127  0.89909777  1
  Ti  Ti159  1  0.39717974  0.79050126  0.00332782  1
  Ti  Ti160  1  0.39390683  0.00758305  -0.00239278  1
  Ti  Ti161  1  0.29296801  0.30629350  0.09981489  1
  Ti  Ti162  1  0.49860847  0.89615285  0.28886989  1
  Ti  Ti163  1  0.00989339  0.60628751  0.20181281  1
  Ti  Ti164  1  0.90024717  0.50123779  0.89960088  1
  Ti  Ti165  1  0.10263445  0.70149512  0.29196226  1
  Ti  Ti166  1  0.58556783  0.78260042  0.40162052  1
  Ti  Ti167  1  0.60366884  0.79100916  0.60349364  1
  Ti  Ti168  1  0.10918963  0.49467564  0.10162672  1
  Ti  Ti169  1  0.90779007  0.30158914  0.69531230  1
  Ti  Ti170  1  0.50155866  0.10681828  0.50066898  1
  Ti  Ti171  1  0.59526207  0.78985977  -0.00108130  1
  Ti  Ti172  1  0.49763901  0.90122494  0.09744956  1
  Ti  Ti173  1  0.60492729  0.59141574  0.40797374  1
  Ti  Ti174  1  -0.00276905  0.79567798  0.00436986  1
  Ti  Ti175  1  0.60096317  0.20154464  0.20037046  1
  Ti  Ti176  1  0.09390574  0.10461185  0.90927530  1
  Ti  Ti177  1  0.59910289  0.39815593  0.79509230  1
  Ti  Ti178  1  0.70088718  0.09975188  0.49002214  1
  Ti  Ti179  1  0.10126232  0.30494000  0.90233079  1
  Ti  Ti180  1  0.59283474  0.59410431  0.80893164  1
  Ti  Ti181  1  0.69857005  0.50360145  0.10246786  1
  Ti  Ti182  1  0.49321242  0.29239127  0.69958041  1
  Ti  Ti183  1  0.00618768  0.20125773  0.59647274  1
  Ti  Ti184  1  0.90531880  0.09892091  0.69689711  1
  Ti  Ti185  1  0.19857879  0.00314233  -0.00264509  1
  Ti  Ti186  1  0.80831194  0.78614304  0.39690177  1
  Ti  Ti187  1  0.79590261  0.59565158  0.20799122  1
  Ti  Ti188  1  -0.00216187  0.39747113  0.80426590  1
  Ti  Ti189  1  0.29978419  0.30066007  0.70129385  1
  Ti  Ti190  1  0.89370997  0.69050320  0.10193409  1
  Ti  Ti191  1  0.50346484  0.69835011  0.28008875  1
  Ti  Ti192  1  0.70273244  0.10100231  0.09798476  1
  Ti  Ti193  1  0.30095088  0.90141899  0.49647383  1
  Ti  Ti194  1  -0.00423735  0.59261345  0.80197730  1
  Ti  Ti195  1  0.49587158  0.29520853  0.50476694  1
  Ti  Ti196  1  0.69428813  0.89792445  0.70187007  1
  Ti  Ti197  1  0.79862526  0.20224251  0.40551004  1
  Ti  Ti198  1  0.79740638  0.59442342  0.58737782  1
  Ti  Ti199  1  0.20670734  0.20513109  -0.00157387  1
  Mo  Mo200  1  0.60094967  0.60228655  0.19422656  1
  Mo  Mo201  1  0.50195476  0.49198332  0.50448162  1
  Mo  Mo202  1  0.79718327  0.19715680  0.01596760  1
  Mo  Mo203  1  0.40188122  0.20172545  0.80552007  1
  Mo  Mo204  1  0.81490099  0.19532826  0.78757338  1
  Mo  Mo205  1  0.10267599  0.29813154  0.29791381  1
  Mo  Mo206  1  0.80870007  0.59377267  0.80480277  1
  Mo  Mo207  1  0.20155736  0.79705173  0.19377518  1
  Mo  Mo208  1  0.79837976  0.60708664  0.40271779  1
  Mo  Mo209  1  0.59553373  -0.00256732  0.80989501  1
  Mo  Mo210  1  0.80213067  0.59622539  -0.00003974  1
  Mo  Mo211  1  0.09837956  0.11201131  0.50159471  1
  Mo  Mo212  1  0.69819982  0.30618137  0.69833784  1
  Mo  Mo213  1  0.10116720  0.50913840  0.29065630  1
  Mo  Mo214  1  0.89610951  0.89429360  0.29612240  1
  Mo  Mo215  1  0.29665725  0.30071285  0.90700556  1
  Mo  Mo216  1  0.70116437  0.50084384  0.50425835  1
  Mo  Mo217  1  0.49877471  0.50039567  0.89427622  1
  Mo  Mo218  1  -0.00532884  0.00790016  0.60514740  1
  Mo  Mo219  1  0.00013151  0.39892908  0.60962908  1
  Mo  Mo220  1  0.00755687  0.20118002  -0.00288110  1
  Mo  Mo221  1  -0.00171330  0.60868762  0.39134344  1
  Mo  Mo222  1  0.30221142  0.10078279  0.91103377  1
  Mo  Mo223  1  0.30445826  0.70010350  0.09519388  1
  Mo  Mo224  1  0.40095836  0.59017353  0.80521635  1
  Mo  Mo225  1  0.10336872  0.70786759  0.10296973  1
  Mo  Mo226  1  0.51088071  0.69874720  0.50774572  1
  Mo  Mo227  1  0.88976135  0.69706837  0.49580768  1
  Mo  Mo228  1  0.59579064  0.00718676  0.00692751  1
  Mo  Mo229  1  0.40296005  0.21353921  0.60010463  1
  Mo  Mo230  1  0.00405852  0.00366921  0.40110935  1
  Mo  Mo231  1  0.80458683  0.00287651  0.00598180  1
  Mo  Mo232  1  0.60571333  0.39534786  0.01004428  1
  Mo  Mo233  1  0.00249006  0.20319277  0.20306320  1
  Mo  Mo234  1  0.29132303  0.30675296  0.49419673  1
  Mo  Mo235  1  0.89595204  0.69277356  0.29343180  1
  Mo  Mo236  1  -0.01333168  0.79945160  0.60570115  1
  Mo  Mo237  1  0.29668215  0.10705839  0.29611386  1
  Mo  Mo238  1  0.20278664  0.40202569  0.18939154  1
  Mo  Mo239  1  0.30503750  0.68776906  0.70684463  1
  Mo  Mo240  1  0.69822060  0.29703192  0.49752545  1
  Mo  Mo241  1  0.39700517  0.60674323  0.18533853  1
  Mo  Mo242  1  0.70145654  0.51369714  0.30282452  1
  Mo  Mo243  1  0.39917785  -0.00560638  0.19495213  1
  Mo  Mo244  1  0.50474213  0.29375855  0.29153207  1
  Mo  Mo245  1  0.09179445  0.49214724  0.48673376  1
  Mo  Mo246  1  0.69355852  0.69506910  0.89606766  1
  Mo  Mo247  1  0.19871785  0.40098128  0.80010343  1
  Mo  Mo248  1  0.58206070  0.80078694  0.19491498  1
  Mo  Mo249  1  0.00891573  0.40299191  0.39709727  1
