# generated using pymatgen
data_HfZrTaTiMo
_symmetry_space_group_name_H-M   'P 1'
_cell_length_a   16.88995748
_cell_length_b   16.88266044
_cell_length_c   16.89246662
_cell_angle_alpha   90.02395452
_cell_angle_beta   89.95103407
_cell_angle_gamma   90.02565282
_symmetry_Int_Tables_number   1
_chemical_formula_structural   HfZrTaTiMo
_chemical_formula_sum   'Hf50 Zr50 Ta50 Ti50 Mo50'
_cell_volume   4816.84055991
_cell_formula_units_Z   50
loop_
 _symmetry_equiv_pos_site_id
 _symmetry_equiv_pos_as_xyz
  1  'x, y, z'
loop_
 _atom_site_type_symbol
 _atom_site_label
 _atom_site_symmetry_multiplicity
 _atom_site_fract_x
 _atom_site_fract_y
 _atom_site_fract_z
 _atom_site_occupancy
  Hf  Hf0  1  0.38727068  0.41320338  0.60221329  1
  Hf  Hf1  1  0.60250293  0.00268479  0.60512781  1
  Hf  Hf2  1  0.49694019  0.69477350  0.69554668  1
  Hf  Hf3  1  0.69557610  0.30927297  0.50220894  1
  Hf  Hf4  1  0.10923048  0.10083959  0.50589937  1
  Hf  Hf5  1  0.09724739  0.49402762  0.70639071  1
  Hf  Hf6  1  -0.00084794  0.40494053  0.59374211  1
  Hf  Hf7  1  0.11324359  0.10794070  0.69681362  1
  Hf  Hf8  1  0.50154070  0.09915623  0.49823700  1
  Hf  Hf9  1  0.90553728  0.90356749  0.30237153  1
  Hf  Hf10  1  0.80206219  0.39549269  0.19498670  1
  Hf  Hf11  1  0.29412239  0.30354332  0.70204482  1
  Hf  Hf12  1  0.32132709  0.48736300  0.08690812  1
  Hf  Hf13  1  0.40086167  -0.00269439  -0.00744251  1
  Hf  Hf14  1  0.50291815  0.50914224  0.70191344  1
  Hf  Hf15  1  0.78474969  0.19428081  0.62180154  1
  Hf  Hf16  1  0.79418033  0.00047508  0.60870220  1
  Hf  Hf17  1  0.69958900  0.30440718  0.89745628  1
  Hf  Hf18  1  0.89285021  0.50201839  0.70277976  1
  Hf  Hf19  1  0.70427129  0.70311969  0.09907895  1
  Hf  Hf20  1  0.70179152  0.49988998  0.09763529  1
  Hf  Hf21  1  0.90039147  0.70190811  0.89377971  1
  Hf  Hf22  1  0.59845806  0.79860565  -0.00592973  1
  Hf  Hf23  1  0.89745558  0.88914577  0.71396747  1
  Hf  Hf24  1  0.08680373  0.88897675  0.09395064  1
  Hf  Hf25  1  0.19570148  0.79178163  0.20051129  1
  Hf  Hf26  1  0.09914625  0.69431046  0.71051263  1
  Hf  Hf27  1  0.49322975  0.49946867  0.90127959  1
  Hf  Hf28  1  0.59761869  0.60092420  -0.00177122  1
  Hf  Hf29  1  0.09937576  0.49244926  0.09376552  1
  Hf  Hf30  1  0.60679056  0.79538256  0.59385561  1
  Hf  Hf31  1  0.50231414  0.31903156  0.69973891  1
  Hf  Hf32  1  0.29289527  0.90365099  0.09784848  1
  Hf  Hf33  1  0.60402913  0.19620734  0.79165185  1
  Hf  Hf34  1  0.29789865  0.10094073  0.09824476  1
  Hf  Hf35  1  0.40662460  0.20761164  0.39894004  1
  Hf  Hf36  1  0.10231936  0.30107895  0.29985343  1
  Hf  Hf37  1  0.30636007  0.50038351  0.30392912  1
  Hf  Hf38  1  0.09467414  0.90290454  0.30068253  1
  Hf  Hf39  1  0.79990468  0.20280376  0.19198039  1
  Hf  Hf40  1  0.49624107  0.89721768  0.69869864  1
  Hf  Hf41  1  -0.00026502  0.20934406  0.40934831  1
  Hf  Hf42  1  0.60050378  -0.00590369  0.39582214  1
  Hf  Hf43  1  0.90272423  0.70382337  0.29808387  1
  Hf  Hf44  1  0.40285392  0.19691278  0.60433141  1
  Hf  Hf45  1  0.10593093  0.49628318  0.30118476  1
  Hf  Hf46  1  -0.00396824  0.40402717  0.40554490  1
  Hf  Hf47  1  0.59622903  0.20481810  0.00264932  1
  Hf  Hf48  1  -0.00118542  0.58915882  0.20111997  1
  Hf  Hf49  1  0.20114905  -0.00538861  0.80286713  1
  Zr  Zr50  1  0.89286670  0.30771116  0.70712384  1
  Zr  Zr51  1  -0.00513376  0.19233757  -0.00089672  1
  Zr  Zr52  1  0.19759814  0.79892662  0.60163732  1
  Zr  Zr53  1  0.90193970  0.09968867  0.50198336  1
  Zr  Zr54  1  0.09829273  0.09844302  0.30244212  1
  Zr  Zr55  1  0.71004101  0.10853183  0.48202107  1
  Zr  Zr56  1  0.10286257  0.29157669  0.10070797  1
  Zr  Zr57  1  0.90236567  0.90754883  0.49034186  1
  Zr  Zr58  1  0.69875434  0.89866763  0.89495828  1
  Zr  Zr59  1  0.21064818  0.20534421  0.40024756  1
  Zr  Zr60  1  0.01111527  -0.00867698  0.61471412  1
  Zr  Zr61  1  0.30501468  0.69138988  0.31361064  1
  Zr  Zr62  1  0.59909266  0.21353879  0.19424764  1
  Zr  Zr63  1  0.19736096  0.59069465  0.59529998  1
  Zr  Zr64  1  0.29666058  0.08607791  0.50681909  1
  Zr  Zr65  1  0.88986281  0.10074185  0.31512818  1
  Zr  Zr66  1  0.00727172  0.79611672  0.59815423  1
  Zr  Zr67  1  -0.00830854  0.38584099  -0.00702175  1
  Zr  Zr68  1  0.50084109  0.50673507  0.51044697  1
  Zr  Zr69  1  0.80166044  0.00158634  0.80695202  1
  Zr  Zr70  1  0.29946016  0.69242055  0.08603954  1
  Zr  Zr71  1  0.20659311  0.40036476  0.19553987  1
  Zr  Zr72  1  0.20060968  0.58760470  -0.01002861  1
  Zr  Zr73  1  0.59679985  0.40534798  0.39772674  1
  Zr  Zr74  1  0.79428518  0.78993617  0.59743021  1
  Zr  Zr75  1  0.30677743  0.09287752  0.29168876  1
  Zr  Zr76  1  0.91409839  0.71394435  0.09605019  1
  Zr  Zr77  1  0.89371071  0.69203124  0.70711966  1
  Zr  Zr78  1  0.60738795  0.60325650  0.40162543  1
  Zr  Zr79  1  0.60218925  0.80246319  0.39800788  1
  Zr  Zr80  1  0.90697512  0.10641091  0.70777703  1
  Zr  Zr81  1  0.60029107  0.19617872  0.60975533  1
  Zr  Zr82  1  0.59851399  0.39905511  0.00649707  1
  Zr  Zr83  1  0.19710079  0.20357155  0.81077983  1
  Zr  Zr84  1  0.39720231  0.79864371  0.19890848  1
  Zr  Zr85  1  0.00954838  0.00446122  0.81684059  1
  Zr  Zr86  1  0.40991228  0.59440898  0.19358122  1
  Zr  Zr87  1  0.80825587  0.59514382  0.19911829  1
  Zr  Zr88  1  0.60487347  0.00008593  0.20101304  1
  Zr  Zr89  1  -0.01085835  0.01108769  0.18411331  1
  Zr  Zr90  1  0.48562815  0.69892775  0.50061472  1
  Zr  Zr91  1  -0.00262043  0.59174297  0.40486791  1
  Zr  Zr92  1  0.29326419  0.90079575  0.30860129  1
  Zr  Zr93  1  0.88188070  0.29991659  0.50748003  1
  Zr  Zr94  1  0.40041506  0.79885519  -0.00719751  1
  Zr  Zr95  1  0.11213101  0.91275571  0.48619395  1
  Zr  Zr96  1  0.70035108  0.90250741  0.09444431  1
  Zr  Zr97  1  0.09805350  0.70087966  0.08986576  1
  Zr  Zr98  1  0.49114231  0.09620074  0.10398405  1
  Zr  Zr99  1  0.40079414  0.19519349  0.79737411  1
  Ta  Ta100  1  0.70539539  0.69670793  0.89041108  1
  Ta  Ta101  1  0.79859206  0.59670060  0.40083080  1
  Ta  Ta102  1  0.39468464  0.79892500  0.79818004  1
  Ta  Ta103  1  0.80257825  0.81048893  0.19942192  1
  Ta  Ta104  1  0.79614659  0.79623914  0.39648748  1
  Ta  Ta105  1  0.10300072  0.70284685  0.89914368  1
  Ta  Ta106  1  0.30793339  0.49105776  0.89770066  1
  Ta  Ta107  1  0.69801278  0.10049363  0.90637231  1
  Ta  Ta108  1  0.69791705  0.89092603  0.70677746  1
  Ta  Ta109  1  0.39220667  0.59812450  0.79767546  1
  Ta  Ta110  1  0.49365310  0.30645502  0.89315722  1
  Ta  Ta111  1  0.59544669  0.00096839  -0.00578817  1
  Ta  Ta112  1  0.70625481  0.90234413  0.49546645  1
  Ta  Ta113  1  0.49256132  0.90092372  0.29583252  1
  Ta  Ta114  1  0.29668707  0.69698752  0.89325703  1
  Ta  Ta115  1  0.30000132  0.69606059  0.70014804  1
  Ta  Ta116  1  0.69978478  0.10759055  0.30233231  1
  Ta  Ta117  1  0.49720393  0.69487688  0.89105978  1
  Ta  Ta118  1  0.70164733  0.70148642  0.29214766  1
  Ta  Ta119  1  0.00108020  0.59530450  0.59021232  1
  Ta  Ta120  1  0.50380233  0.69896746  0.09837442  1
  Ta  Ta121  1  0.89839070  0.69651734  0.49715484  1
  Ta  Ta122  1  0.50382883  0.30687271  0.50499203  1
  Ta  Ta123  1  -0.01358389  0.39642322  0.20163166  1
  Ta  Ta124  1  0.20724711  0.40369545  0.41230090  1
  Ta  Ta125  1  0.79938714  0.20740352  0.00347463  1
  Ta  Ta126  1  0.69862417  0.30165545  0.30536799  1
  Ta  Ta127  1  0.70621098  0.50597371  0.89702443  1
  Ta  Ta128  1  0.89382388  0.49835146  0.89655333  1
  Ta  Ta129  1  0.19791916  0.39698105  0.80758442  1
  Ta  Ta130  1  0.30455007  0.69905208  0.49876701  1
  Ta  Ta131  1  0.81018904  0.80981812  -0.00568536  1
  Ta  Ta132  1  0.49994544  0.09876284  0.89607525  1
  Ta  Ta133  1  0.39505539  -0.00341925  0.79706608  1
  Ta  Ta134  1  0.70110399  0.49949047  0.29688651  1
  Ta  Ta135  1  0.50062174  0.70308726  0.29951013  1
  Ta  Ta136  1  0.11324326  0.30138448  0.51025591  1
  Ta  Ta137  1  0.50065927  0.10131065  0.30127028  1
  Ta  Ta138  1  0.30685174  0.29837609  0.09702518  1
  Ta  Ta139  1  0.79874795  0.00136773  0.19609966  1
  Ta  Ta140  1  0.49910036  0.89932175  0.10206446  1
  Ta  Ta141  1  0.40390663  0.20936618  0.20129353  1
  Ta  Ta142  1  0.30923069  0.30937953  0.29689268  1
  Ta  Ta143  1  0.40194570  -0.00642561  0.40337503  1
  Ta  Ta144  1  0.00621555  0.20848035  0.81257550  1
  Ta  Ta145  1  0.30004714  0.09814382  0.90328518  1
  Ta  Ta146  1  0.39934928  0.20491203  -0.00606259  1
  Ta  Ta147  1  0.00670124  0.78984213  0.40446326  1
  Ta  Ta148  1  0.00994588  0.21376570  0.61009199  1
  Ta  Ta149  1  0.50103350  0.89903187  0.89027960  1
  Ti  Ti150  1  0.70030146  0.50929660  0.70419390  1
  Ti  Ti151  1  0.60069887  0.78886704  0.79558394  1
  Ti  Ti152  1  0.40377650  0.39889529  0.40192777  1
  Ti  Ti153  1  0.49790009  0.49926186  0.29818973  1
  Ti  Ti154  1  0.10370509  0.10108620  0.09480391  1
  Ti  Ti155  1  0.49031795  0.89859327  0.50092828  1
  Ti  Ti156  1  0.30144497  0.30135977  0.50458946  1
  Ti  Ti157  1  0.20063080  0.40483772  0.60188044  1
  Ti  Ti158  1  0.62109812  0.60776881  0.59787533  1
  Ti  Ti159  1  0.00259452  0.38796833  0.80682905  1
  Ti  Ti160  1  0.19783033  0.79084088  0.40683574  1
  Ti  Ti161  1  0.80122571  0.41380285  0.40110520  1
  Ti  Ti162  1  -0.00118474  0.59558750  -0.00892106  1
  Ti  Ti163  1  0.19293070  0.00047346  0.19532673  1
  Ti  Ti164  1  0.80480132  0.60284709  -0.00398199  1
  Ti  Ti165  1  0.59533437  0.00510544  0.79757472  1
  Ti  Ti166  1  0.00700825  0.80610929  0.80684281  1
  Ti  Ti167  1  0.79690236  0.20115803  0.80585342  1
  Ti  Ti168  1  0.79467417  0.59593098  0.59048930  1
  Ti  Ti169  1  0.59462851  0.40185616  0.19985974  1
  Ti  Ti170  1  0.90140472  0.49660145  0.08865613  1
  Ti  Ti171  1  0.00092397  0.59246149  0.80818966  1
  Ti  Ti172  1  0.10190953  0.89162069  0.90832530  1
  Ti  Ti173  1  0.09741638  0.69727189  0.29933889  1
  Ti  Ti174  1  0.29572632  0.89493399  0.90151766  1
  Ti  Ti175  1  0.38447030  0.81078248  0.60023290  1
  Ti  Ti176  1  0.20695542  0.20215874  0.19979852  1
  Ti  Ti177  1  0.69758990  0.32538703  0.69528924  1
  Ti  Ti178  1  0.60344211  0.41094702  0.80260528  1
  Ti  Ti179  1  -0.01303238  0.20313758  0.19284557  1
  Ti  Ti180  1  -0.01316063  -0.00436019  -0.00221770  1
  Ti  Ti181  1  0.21406017  -0.02369815  0.61409968  1
  Ti  Ti182  1  0.60151766  0.80122008  0.20232241  1
  Ti  Ti183  1  0.80322647  0.39079842  0.00103347  1
  Ti  Ti184  1  0.31047394  0.51549400  0.48964744  1
  Ti  Ti185  1  0.09722877  0.49207526  0.89908584  1
  Ti  Ti186  1  0.20122297  0.20146709  -0.00699889  1
  Ti  Ti187  1  0.20258213  0.59760500  0.19495189  1
  Ti  Ti188  1  0.70451109  0.09762453  0.09087858  1
  Ti  Ti189  1  0.18987082  0.60097188  0.40932448  1
  Ti  Ti190  1  0.89349828  0.30037023  0.30507940  1
  Ti  Ti191  1  0.48682788  0.31559345  0.10035460  1
  Ti  Ti192  1  0.20458859  0.38568585  -0.01172972  1
  Ti  Ti193  1  0.20396973  0.58931423  0.80218988  1
  Ti  Ti194  1  0.59824776  0.59731605  0.19937153  1
  Ti  Ti195  1  0.20260178  0.80445370  0.79699309  1
  Ti  Ti196  1  0.30095334  0.09453273  0.69643952  1
  Ti  Ti197  1  0.79713005  0.40416530  0.80361984  1
  Ti  Ti198  1  0.88964218  0.10171811  0.90831614  1
  Ti  Ti199  1  0.19077675  0.00271817  -0.00703481  1
  Mo  Mo200  1  0.69732903  0.08813844  0.71757569  1
  Mo  Mo201  1  0.40378229  0.00090233  0.20251075  1
  Mo  Mo202  1  0.19838749  0.80174551  -0.01204926  1
  Mo  Mo203  1  0.60334719  0.60142072  0.79998385  1
  Mo  Mo204  1  0.88965936  0.29852182  0.89618532  1
  Mo  Mo205  1  0.20564626  0.00255421  0.39481209  1
  Mo  Mo206  1  0.59682540  0.20614816  0.39269630  1
  Mo  Mo207  1  0.20568361  0.21047212  0.60405815  1
  Mo  Mo208  1  0.80079106  0.00612420  0.00218407  1
  Mo  Mo209  1  0.00801361  0.00999578  0.40059702  1
  Mo  Mo210  1  0.10702966  0.49445370  0.50140078  1
  Mo  Mo211  1  0.50090320  0.30348517  0.30169174  1
  Mo  Mo212  1  0.40709535  0.60013113  0.39747011  1
  Mo  Mo213  1  0.79771417  0.59583884  0.80382780  1
  Mo  Mo214  1  0.30185233  0.29915566  0.90351172  1
  Mo  Mo215  1  0.30247542  0.89378498  0.70574536  1
  Mo  Mo216  1  0.40466346  0.60221553  -0.01013663  1
  Mo  Mo217  1  0.78831206  -0.01183074  0.38804484  1
  Mo  Mo218  1  0.00023368  0.79708171  0.21167791  1
  Mo  Mo219  1  -0.00116736  0.80526839  -0.01663927  1
  Mo  Mo220  1  0.79284837  0.79646226  0.80223283  1
  Mo  Mo221  1  0.10410626  0.09771532  0.91037169  1
  Mo  Mo222  1  0.69672763  0.69318294  0.70362914  1
  Mo  Mo223  1  0.29328382  0.49998242  0.71088821  1
  Mo  Mo224  1  0.39318616  0.40298355  0.79916557  1
  Mo  Mo225  1  0.70327814  0.89744371  0.29590329  1
  Mo  Mo226  1  0.10411728  0.89266331  0.71495014  1
  Mo  Mo227  1  0.39945870  -0.00538610  0.60194082  1
  Mo  Mo228  1  0.70398166  0.50250993  0.50153294  1
  Mo  Mo229  1  0.79027090  0.41585782  0.60317745  1
  Mo  Mo230  1  0.89012720  0.50402169  0.50445974  1
  Mo  Mo231  1  0.89846995  0.29585572  0.10116478  1
  Mo  Mo232  1  0.70890901  0.70026843  0.49279625  1
  Mo  Mo233  1  0.40262860  0.39058957  -0.00596950  1
  Mo  Mo234  1  0.90265156  0.89842088  0.90438477  1
  Mo  Mo235  1  0.40174662  0.80335882  0.40370725  1
  Mo  Mo236  1  0.10198572  0.29939277  0.90095502  1
  Mo  Mo237  1  0.70014014  0.30440464  0.10077234  1
  Mo  Mo238  1  0.30539100  0.89268857  0.49774539  1
  Mo  Mo239  1  0.89453248  0.49315910  0.30351118  1
  Mo  Mo240  1  0.38452609  0.60273227  0.60521056  1
  Mo  Mo241  1  0.10069402  0.30498167  0.70238143  1
  Mo  Mo242  1  0.89679068  0.90316062  0.09700379  1
  Mo  Mo243  1  0.88828796  0.09812218  0.09247610  1
  Mo  Mo244  1  0.60390018  0.41159964  0.60405397  1
  Mo  Mo245  1  0.79572276  0.21766329  0.39211561  1
  Mo  Mo246  1  0.10009737  0.69486856  0.49590378  1
  Mo  Mo247  1  0.40955714  0.39669063  0.20451077  1
  Mo  Mo248  1  0.49520750  0.08697616  0.70374869  1
  Mo  Mo249  1  0.50597711  0.50141452  0.10341405  1
