# generated using pymatgen
data_HfZrTaTiMo
_symmetry_space_group_name_H-M   'P 1'
_cell_length_a   16.88998953
_cell_length_b   16.89161470
_cell_length_c   16.88786677
_cell_angle_alpha   89.96413151
_cell_angle_beta   89.98123536
_cell_angle_gamma   90.03089272
_symmetry_Int_Tables_number   1
_chemical_formula_structural   HfZrTaTiMo
_chemical_formula_sum   'Hf50 Zr50 Ta50 Ti50 Mo50'
_cell_volume   4818.09289844
_cell_formula_units_Z   50
loop_
 _symmetry_equiv_pos_site_id
 _symmetry_equiv_pos_as_xyz
  1  'x, y, z'
loop_
 _atom_site_type_symbol
 _atom_site_label
 _atom_site_symmetry_multiplicity
 _atom_site_fract_x
 _atom_site_fract_y
 _atom_site_fract_z
 _atom_site_occupancy
  Hf  Hf0  1  0.70790470  0.89850005  0.49796083  1
  Hf  Hf1  1  0.30063700  0.10310808  0.70856980  1
  Hf  Hf2  1  0.39249516  0.80130133  0.00491229  1
  Hf  Hf3  1  0.00662575  0.20867156  0.80217457  1
  Hf  Hf4  1  0.40135221  -0.00650326  0.20133895  1
  Hf  Hf5  1  0.41883951  0.40243088  0.19182114  1
  Hf  Hf6  1  0.69323533  0.30798516  0.49422402  1
  Hf  Hf7  1  0.19847572  0.60598850  0.39424328  1
  Hf  Hf8  1  0.60089002  0.39644605  0.80146946  1
  Hf  Hf9  1  -0.00581225  0.20450147  0.59660362  1
  Hf  Hf10  1  0.70152966  0.69852078  0.89393476  1
  Hf  Hf11  1  0.79740606  0.19967058  0.59713240  1
  Hf  Hf12  1  0.48897642  0.48617948  0.90419698  1
  Hf  Hf13  1  0.49815040  0.69462792  0.50420906  1
  Hf  Hf14  1  0.01030606  0.20372648  0.00471096  1
  Hf  Hf15  1  0.60662106  0.00117684  -0.01336594  1
  Hf  Hf16  1  0.89762385  0.89802734  0.49567576  1
  Hf  Hf17  1  0.70328055  0.49284296  0.09930038  1
  Hf  Hf18  1  0.49712026  0.49951446  0.70179781  1
  Hf  Hf19  1  0.59891159  -0.00091734  0.39865661  1
  Hf  Hf20  1  0.39748801  0.79356951  0.20139987  1
  Hf  Hf21  1  0.80584299  0.58989779  0.79501426  1
  Hf  Hf22  1  0.10701482  0.69769795  0.89549726  1
  Hf  Hf23  1  0.50012789  0.09518708  0.50415997  1
  Hf  Hf24  1  0.90405095  0.31208282  0.69567781  1
  Hf  Hf25  1  -0.00066959  0.80737426  -0.00639143  1
  Hf  Hf26  1  0.80860708  0.80044028  -0.00192617  1
  Hf  Hf27  1  0.19307760  -0.00364623  0.38791584  1
  Hf  Hf28  1  0.80847666  0.21358841  0.40438836  1
  Hf  Hf29  1  0.59907508  0.20423520  -0.00529485  1
  Hf  Hf30  1  0.29921474  0.30625600  0.10011718  1
  Hf  Hf31  1  0.39416731  0.59867688  0.00577105  1
  Hf  Hf32  1  0.29626211  0.09876298  0.29123362  1
  Hf  Hf33  1  0.49573423  0.30178360  0.70087729  1
  Hf  Hf34  1  0.49749897  0.90948281  0.68862651  1
  Hf  Hf35  1  0.50267472  0.30446045  0.31418237  1
  Hf  Hf36  1  0.19610487  0.19722416  0.39844394  1
  Hf  Hf37  1  0.38217958  0.59431337  0.80599412  1
  Hf  Hf38  1  0.80500395  0.60068798  0.00444463  1
  Hf  Hf39  1  0.49024027  0.49974919  0.49686133  1
  Hf  Hf40  1  0.89832443  0.09643495  0.10413400  1
  Hf  Hf41  1  0.21318394  0.60323274  0.19899627  1
  Hf  Hf42  1  0.29731801  0.70163264  0.49523296  1
  Hf  Hf43  1  0.10670262  0.69886424  0.09579907  1
  Hf  Hf44  1  0.08822229  0.30938223  0.49926147  1
  Hf  Hf45  1  0.30934751  0.31279361  0.49727262  1
  Hf  Hf46  1  0.02234814  0.19998421  0.19724611  1
  Hf  Hf47  1  0.50381637  0.89984531  0.09866753  1
  Hf  Hf48  1  0.09220937  0.50035703  0.30283484  1
  Hf  Hf49  1  0.38420472  0.60244799  0.61393207  1
  Zr  Zr50  1  0.39777379  -0.00678732  0.80006323  1
  Zr  Zr51  1  0.29811968  0.09969703  0.10052580  1
  Zr  Zr52  1  0.70647536  0.09881513  0.10905858  1
  Zr  Zr53  1  0.09559047  0.90128167  0.69485830  1
  Zr  Zr54  1  0.19862806  0.40241363  0.39988732  1
  Zr  Zr55  1  0.39986938  0.19483794  0.40039397  1
  Zr  Zr56  1  0.78733488  0.20275368  -0.00337544  1
  Zr  Zr57  1  0.39792274  0.19984793  0.60283820  1
  Zr  Zr58  1  0.90431504  0.09522049  0.49271276  1
  Zr  Zr59  1  0.19811415  -0.00466573  0.00395297  1
  Zr  Zr60  1  0.31233551  0.49112092  0.30069201  1
  Zr  Zr61  1  0.90087919  0.10478949  0.90452859  1
  Zr  Zr62  1  0.59564835  0.21006131  0.19034952  1
  Zr  Zr63  1  0.19200187  0.21181995  0.00421208  1
  Zr  Zr64  1  0.80487131  0.41321177  0.59680621  1
  Zr  Zr65  1  0.50174672  0.70022355  0.70271272  1
  Zr  Zr66  1  0.29990207  0.50370670  0.50303101  1
  Zr  Zr67  1  0.80726835  0.39989654  0.20554367  1
  Zr  Zr68  1  -0.01095620  0.58800711  0.60863696  1
  Zr  Zr69  1  -0.00542055  0.59586334  0.19847983  1
  Zr  Zr70  1  -0.00142843  0.78669604  0.59716708  1
  Zr  Zr71  1  0.80561605  0.79490076  0.20265551  1
  Zr  Zr72  1  0.89148291  0.89826595  0.69730948  1
  Zr  Zr73  1  0.48771118  0.10198827  0.90030350  1
  Zr  Zr74  1  0.00611511  -0.00427694  0.38342978  1
  Zr  Zr75  1  0.69291407  0.70293851  0.70712206  1
  Zr  Zr76  1  0.00026391  0.59521380  -0.00344975  1
  Zr  Zr77  1  0.60266521  0.79937432  0.40477215  1
  Zr  Zr78  1  0.59666505  -0.00110296  0.20683376  1
  Zr  Zr79  1  0.49560760  0.70125443  0.89389544  1
  Zr  Zr80  1  0.59697835  0.59365702  0.00256957  1
  Zr  Zr81  1  0.38793227  0.80712954  0.60450804  1
  Zr  Zr82  1  0.20373106  0.20241330  0.59351877  1
  Zr  Zr83  1  0.79595760  0.01201405  0.79562977  1
  Zr  Zr84  1  0.10828574  0.89033911  0.10495626  1
  Zr  Zr85  1  0.60096557  0.80472830  -0.00607799  1
  Zr  Zr86  1  0.01926359  -0.00003383  0.20386484  1
  Zr  Zr87  1  0.89528857  0.29242453  0.10748140  1
  Zr  Zr88  1  0.71187428  0.89168537  0.88134355  1
  Zr  Zr89  1  0.10292087  0.69348197  0.70843616  1
  Zr  Zr90  1  0.09719287  0.89720258  0.49957093  1
  Zr  Zr91  1  -0.00146883  -0.00167396  0.80583251  1
  Zr  Zr92  1  0.70030206  0.30350049  0.30146685  1
  Zr  Zr93  1  0.79521949  0.20363838  0.79599524  1
  Zr  Zr94  1  0.21420185  -0.00766822  0.59970982  1
  Zr  Zr95  1  0.10181564  0.10313719  0.69784036  1
  Zr  Zr96  1  0.51004885  0.70229264  0.29792290  1
  Zr  Zr97  1  0.79393415  0.78233807  0.59563998  1
  Zr  Zr98  1  0.60014310  0.58820811  0.20413404  1
  Zr  Zr99  1  0.89697292  0.11269467  0.29264811  1
  Ta  Ta100  1  0.21228209  0.79230660  0.20173982  1
  Ta  Ta101  1  0.90089229  0.49247677  0.90155322  1
  Ta  Ta102  1  0.89688453  0.68967102  0.48725169  1
  Ta  Ta103  1  0.40614991  0.20385070  0.19618917  1
  Ta  Ta104  1  0.90099472  0.90488541  0.10437527  1
  Ta  Ta105  1  0.00421057  0.40674810  0.80013940  1
  Ta  Ta106  1  0.09126935  0.50116478  0.50152668  1
  Ta  Ta107  1  0.59969367  0.00512839  0.79703908  1
  Ta  Ta108  1  0.29986707  0.49109555  0.09325721  1
  Ta  Ta109  1  0.30189920  0.29977986  0.29306739  1
  Ta  Ta110  1  0.80186439  0.59785243  0.20356913  1
  Ta  Ta111  1  0.50340010  0.30688008  0.50116905  1
  Ta  Ta112  1  0.80076167  0.40105826  0.80144095  1
  Ta  Ta113  1  0.00484764  -0.00131844  0.00064321  1
  Ta  Ta114  1  0.10586666  0.30917011  0.70322877  1
  Ta  Ta115  1  0.89934699  0.69283112  0.30752445  1
  Ta  Ta116  1  0.00107840  0.39783831  0.20012133  1
  Ta  Ta117  1  0.69537114  0.30437737  0.69560542  1
  Ta  Ta118  1  0.20525651  0.59271992  -0.00556329  1
  Ta  Ta119  1  0.10803732  0.10322981  0.89935298  1
  Ta  Ta120  1  0.09237005  0.09741034  0.49654593  1
  Ta  Ta121  1  0.70414032  0.89795718  0.10651785  1
  Ta  Ta122  1  0.09888855  0.30300052  0.30176931  1
  Ta  Ta123  1  0.40409805  0.59779406  0.19296888  1
  Ta  Ta124  1  0.79429382  0.01200030  0.60050115  1
  Ta  Ta125  1  0.59967019  0.19848811  0.79938783  1
  Ta  Ta126  1  0.28875589  0.70487114  0.89989479  1
  Ta  Ta127  1  0.70537746  0.49820464  0.30717992  1
  Ta  Ta128  1  0.70013577  0.10896335  0.30661738  1
  Ta  Ta129  1  0.60173515  0.20201727  0.59777962  1
  Ta  Ta130  1  0.80217926  -0.00707207  -0.00280156  1
  Ta  Ta131  1  0.00869250  0.39528286  -0.00401217  1
  Ta  Ta132  1  0.50637565  0.70159538  0.10338355  1
  Ta  Ta133  1  0.29709825  0.89945751  0.90749809  1
  Ta  Ta134  1  0.70237597  0.89453605  0.29971053  1
  Ta  Ta135  1  0.00139765  0.79283495  0.39440944  1
  Ta  Ta136  1  0.29026631  0.30749861  0.71285060  1
  Ta  Ta137  1  -0.00400835  0.80514575  0.80870622  1
  Ta  Ta138  1  0.59988978  0.40603324  0.59815630  1
  Ta  Ta139  1  0.29926587  0.89807457  0.30070254  1
  Ta  Ta140  1  0.69709516  0.70393254  0.10772078  1
  Ta  Ta141  1  0.49152239  0.09855961  0.09213339  1
  Ta  Ta142  1  0.80175271  0.39551173  -0.00291210  1
  Ta  Ta143  1  0.10801235  0.49341029  0.09558231  1
  Ta  Ta144  1  0.70222073  0.49310773  0.90308273  1
  Ta  Ta145  1  0.29714395  0.10609069  0.90167590  1
  Ta  Ta146  1  0.20101589  -0.00194031  0.80662305  1
  Ta  Ta147  1  0.20242592  0.79683996  0.60002973  1
  Ta  Ta148  1  0.60037688  0.80220800  0.59517213  1
  Ta  Ta149  1  0.40173292  0.80420941  0.39521366  1
  Ti  Ti150  1  0.49070731  0.90737796  0.50034490  1
  Ti  Ti151  1  0.09725628  0.69197511  0.49884769  1
  Ti  Ti152  1  0.59711239  0.41599518  0.39924337  1
  Ti  Ti153  1  0.89370627  0.89246114  0.30449463  1
  Ti  Ti154  1  0.19253739  0.40749403  0.60516522  1
  Ti  Ti155  1  0.60976938  0.00300326  0.59793583  1
  Ti  Ti156  1  0.58351315  0.81703512  0.80002821  1
  Ti  Ti157  1  0.69813332  0.49812357  0.70017191  1
  Ti  Ti158  1  0.69829868  0.30568714  0.89808783  1
  Ti  Ti159  1  0.39616958  0.20757447  0.80344817  1
  Ti  Ti160  1  0.90089827  0.69772980  0.70784897  1
  Ti  Ti161  1  0.40319333  0.60414202  0.38503994  1
  Ti  Ti162  1  0.09392315  0.69936788  0.29828335  1
  Ti  Ti163  1  0.39949940  0.20976797  0.00252945  1
  Ti  Ti164  1  0.59707159  0.40042101  0.19445428  1
  Ti  Ti165  1  0.69892858  0.89678665  0.69699377  1
  Ti  Ti166  1  0.79386288  0.00454936  0.39557349  1
  Ti  Ti167  1  0.29909813  0.31053792  0.89730930  1
  Ti  Ti168  1  0.90197304  0.69733057  0.89138400  1
  Ti  Ti169  1  0.50053321  0.10277539  0.30340136  1
  Ti  Ti170  1  0.19474950  0.39722796  0.19898996  1
  Ti  Ti171  1  0.19558207  0.81675925  0.80496246  1
  Ti  Ti172  1  0.39244673  0.80630894  0.80126116  1
  Ti  Ti173  1  0.49934308  0.09916128  0.69535116  1
  Ti  Ti174  1  0.61117035  0.59968376  0.59457060  1
  Ti  Ti175  1  0.90380038  0.49311493  0.09576418  1
  Ti  Ti176  1  0.39489235  0.40331737  0.60974759  1
  Ti  Ti177  1  0.18831780  0.40545554  0.81534054  1
  Ti  Ti178  1  0.19522716  0.59624185  0.60870518  1
  Ti  Ti179  1  0.79653433  0.59821193  0.39993587  1
  Ti  Ti180  1  0.30486342  0.90141410  0.48966566  1
  Ti  Ti181  1  0.80118153  0.59633975  0.59991027  1
  Ti  Ti182  1  0.90242537  0.30569906  0.90037316  1
  Ti  Ti183  1  0.90390561  0.70257847  0.10548428  1
  Ti  Ti184  1  0.48939460  0.30486929  0.90029569  1
  Ti  Ti185  1  0.28363923  0.70561173  0.71457316  1
  Ti  Ti186  1  0.90756632  0.49435253  0.48771309  1
  Ti  Ti187  1  0.59967696  0.58997246  0.80416940  1
  Ti  Ti188  1  0.19901841  0.79600441  0.39258459  1
  Ti  Ti189  1  0.70338906  0.50248075  0.49469418  1
  Ti  Ti190  1  -0.00021057  0.80101870  0.20703397  1
  Ti  Ti191  1  0.70545958  0.70086879  0.30357246  1
  Ti  Ti192  1  0.00370105  0.58642018  0.80132332  1
  Ti  Ti193  1  0.79873196  -0.00383538  0.20813155  1
  Ti  Ti194  1  0.60513760  0.59879538  0.40206585  1
  Ti  Ti195  1  0.90115838  0.49902322  0.31113993  1
  Ti  Ti196  1  0.30834575  0.08475521  0.49478264  1
  Ti  Ti197  1  0.59549706  0.38984444  0.01026054  1
  Ti  Ti198  1  0.28662304  0.48941415  0.71413922  1
  Ti  Ti199  1  0.69090342  0.10588608  0.69719197  1
  Mo  Mo200  1  0.60115353  0.19296290  0.40794247  1
  Mo  Mo201  1  0.20303748  0.20640499  0.80703314  1
  Mo  Mo202  1  0.00351549  0.20758701  0.39543845  1
  Mo  Mo203  1  0.10322697  0.49405242  0.70106478  1
  Mo  Mo204  1  0.90315868  0.31309919  0.49463323  1
  Mo  Mo205  1  0.80447242  0.40833584  0.40096629  1
  Mo  Mo206  1  0.00272812  0.40414415  0.60044267  1
  Mo  Mo207  1  0.10040695  0.30445789  0.89620059  1
  Mo  Mo208  1  0.10715766  0.87401583  0.29789968  1
  Mo  Mo209  1  0.80371337  0.79177175  0.39577015  1
  Mo  Mo210  1  0.30124033  0.69252916  0.09833386  1
  Mo  Mo211  1  0.60732805  0.80035671  0.20062458  1
  Mo  Mo212  1  0.69556859  0.30716661  0.09800703  1
  Mo  Mo213  1  0.20370217  0.21154891  0.20250911  1
  Mo  Mo214  1  0.91354331  0.30403888  0.30533031  1
  Mo  Mo215  1  0.81590163  0.78936908  0.79866842  1
  Mo  Mo216  1  0.30011032  0.89492653  0.10430370  1
  Mo  Mo217  1  0.39627985  -0.00004749  0.59559168  1
  Mo  Mo218  1  -0.01294916  0.01214145  0.60242783  1
  Mo  Mo219  1  0.90329777  0.90295644  0.90591847  1
  Mo  Mo220  1  0.40671714  0.40016689  0.39605880  1
  Mo  Mo221  1  0.10251019  0.90125046  0.89968931  1
  Mo  Mo222  1  0.90077846  0.10211289  0.69105999  1
  Mo  Mo223  1  -0.00606170  0.40181681  0.39663152  1
  Mo  Mo224  1  0.20638657  -0.01359311  0.20081341  1
  Mo  Mo225  1  0.38947019  0.39602478  0.80049108  1
  Mo  Mo226  1  0.79511409  0.20318885  0.20729518  1
  Mo  Mo227  1  0.39627026  -0.00389778  -0.00044732  1
  Mo  Mo228  1  0.50922295  0.50150581  0.30283433  1
  Mo  Mo229  1  0.90169921  0.49961750  0.70912046  1
  Mo  Mo230  1  0.30702272  0.70142568  0.30315813  1
  Mo  Mo231  1  0.20456950  0.79503508  -0.00057791  1
  Mo  Mo232  1  0.69724676  0.10122091  0.49758377  1
  Mo  Mo233  1  0.69275063  0.10097137  0.89166054  1
  Mo  Mo234  1  0.10594920  0.09105858  0.10116712  1
  Mo  Mo235  1  0.49998131  0.49763102  0.09664343  1
  Mo  Mo236  1  0.00056366  0.60071645  0.40287389  1
  Mo  Mo237  1  0.09815941  0.49956502  0.89940334  1
  Mo  Mo238  1  0.39716867  0.39641941  -0.00241712  1
  Mo  Mo239  1  0.10407850  0.31622098  0.10299408  1
  Mo  Mo240  1  0.70031006  0.68542953  0.49797127  1
  Mo  Mo241  1  0.11058712  0.11387435  0.29728741  1
  Mo  Mo242  1  0.49678197  0.29782028  0.08911872  1
  Mo  Mo243  1  0.40285996  -0.00767928  0.39483030  1
  Mo  Mo244  1  0.19925446  0.40443507  -0.00572959  1
  Mo  Mo245  1  0.49841881  0.89956601  0.30477010  1
  Mo  Mo246  1  0.29381099  0.89427511  0.71131901  1
  Mo  Mo247  1  0.20023897  0.58842941  0.80278936  1
  Mo  Mo248  1  0.49060443  0.90321829  0.89689323  1
  Mo  Mo249  1  0.29200238  0.49397868  0.90309469  1
