# generated using pymatgen
data_HfZrTaTiMo
_symmetry_space_group_name_H-M   'P 1'
_cell_length_a   16.88272464
_cell_length_b   16.88144456
_cell_length_c   16.88436437
_cell_angle_alpha   89.99831977
_cell_angle_beta   90.01092952
_cell_angle_gamma   89.96123239
_symmetry_Int_Tables_number   1
_chemical_formula_structural   HfZrTaTiMo
_chemical_formula_sum   'Hf50 Zr50 Ta50 Ti50 Mo50'
_cell_volume   4812.12336374
_cell_formula_units_Z   50
loop_
 _symmetry_equiv_pos_site_id
 _symmetry_equiv_pos_as_xyz
  1  'x, y, z'
loop_
 _atom_site_type_symbol
 _atom_site_label
 _atom_site_symmetry_multiplicity
 _atom_site_fract_x
 _atom_site_fract_y
 _atom_site_fract_z
 _atom_site_occupancy
  Hf  Hf0  1  0.49853555  0.09569249  0.10622732  1
  Hf  Hf1  1  0.19454502  -0.00663963  0.19522698  1
  Hf  Hf2  1  0.19822618  0.00120548  0.78596357  1
  Hf  Hf3  1  0.30197208  0.69996241  0.09395399  1
  Hf  Hf4  1  0.00049055  0.40575804  0.19784270  1
  Hf  Hf5  1  0.70314078  0.09758428  0.49841432  1
  Hf  Hf6  1  0.81122835  0.80636496  0.58925873  1
  Hf  Hf7  1  0.90621894  0.90346521  0.70395640  1
  Hf  Hf8  1  0.70193949  0.51109949  0.69792434  1
  Hf  Hf9  1  0.50054527  0.70649190  0.89658732  1
  Hf  Hf10  1  0.00019365  0.60211084  0.80356052  1
  Hf  Hf11  1  0.40321488  -0.00582104  0.40234895  1
  Hf  Hf12  1  0.50517642  0.69613520  0.10359665  1
  Hf  Hf13  1  0.20454387  0.81129521  0.60327903  1
  Hf  Hf14  1  0.20080527  0.38942592  0.60170339  1
  Hf  Hf15  1  0.80017029  0.80445435  0.21111844  1
  Hf  Hf16  1  0.59812834  0.19685188  0.60895206  1
  Hf  Hf17  1  0.59900206  0.00412578  0.60493671  1
  Hf  Hf18  1  0.30275542  0.69563738  0.69917767  1
  Hf  Hf19  1  0.60496051  0.39534439  0.19349212  1
  Hf  Hf20  1  0.89454997  0.70260018  0.09646052  1
  Hf  Hf21  1  0.89676235  0.09206189  0.50163316  1
  Hf  Hf22  1  0.30894685  0.50455201  0.70531953  1
  Hf  Hf23  1  0.78793323  0.21203218  0.60429127  1
  Hf  Hf24  1  0.09768662  0.70845114  0.31344625  1
  Hf  Hf25  1  0.89854293  0.49861533  0.50138023  1
  Hf  Hf26  1  0.50391357  0.69089189  0.29863496  1
  Hf  Hf27  1  0.49919837  0.49657948  0.29491017  1
  Hf  Hf28  1  0.89418073  0.09991968  0.69988306  1
  Hf  Hf29  1  0.40484321  0.79956994  0.41055712  1
  Hf  Hf30  1  0.78602573  0.40392910  -0.00293240  1
  Hf  Hf31  1  0.70246417  0.71593402  0.89566206  1
  Hf  Hf32  1  0.79968555  0.60162345  -0.01334257  1
  Hf  Hf33  1  0.39808643  0.59799607  -0.00200043  1
  Hf  Hf34  1  0.29428941  0.49056764  0.90136802  1
  Hf  Hf35  1  0.11185233  0.29930402  0.90798468  1
  Hf  Hf36  1  0.60368079  0.19787479  0.20440831  1
  Hf  Hf37  1  0.00129294  0.00306760  0.19345592  1
  Hf  Hf38  1  0.20204410  0.40124730  0.40187375  1
  Hf  Hf39  1  0.00079087  0.19131393  0.39528627  1
  Hf  Hf40  1  0.60158512  0.80405152  0.40364978  1
  Hf  Hf41  1  0.09461810  0.89460191  0.49604887  1
  Hf  Hf42  1  0.38936503  0.39876689  0.41229286  1
  Hf  Hf43  1  0.61438768  0.38733306  0.60548036  1
  Hf  Hf44  1  0.89931441  0.09946502  0.89182158  1
  Hf  Hf45  1  0.19275613  0.60832354  0.81273437  1
  Hf  Hf46  1  0.60068355  0.80982067  0.21075632  1
  Hf  Hf47  1  0.30499410  0.30372528  0.70302244  1
  Hf  Hf48  1  0.19564676  0.19897423  0.79317486  1
  Hf  Hf49  1  0.40347520  0.80609514  0.20387499  1
  Zr  Zr50  1  0.28281705  0.10070193  0.91157193  1
  Zr  Zr51  1  0.18875169  0.79120925  -0.00704226  1
  Zr  Zr52  1  0.70488872  0.50084299  0.50271371  1
  Zr  Zr53  1  0.10106209  0.69843850  0.50439875  1
  Zr  Zr54  1  0.70203481  0.70022994  0.10512025  1
  Zr  Zr55  1  0.60879225  0.60234348  0.80013193  1
  Zr  Zr56  1  0.60690889  0.39669700  0.40293694  1
  Zr  Zr57  1  -0.00033840  0.40384166  0.00076168  1
  Zr  Zr58  1  0.79423441  0.39596655  0.79188833  1
  Zr  Zr59  1  0.89188842  0.30067217  0.29772803  1
  Zr  Zr60  1  0.40008162  0.59312912  0.40548946  1
  Zr  Zr61  1  0.50475705  0.69596661  0.69660351  1
  Zr  Zr62  1  0.88564622  0.30207274  0.10285335  1
  Zr  Zr63  1  0.29378224  0.70083656  0.30627284  1
  Zr  Zr64  1  0.69951805  0.09307099  0.10675297  1
  Zr  Zr65  1  0.59899307  0.00642324  -0.00851734  1
  Zr  Zr66  1  -0.00115015  0.19297587  0.19886022  1
  Zr  Zr67  1  0.09490243  0.90526768  0.88467820  1
  Zr  Zr68  1  0.10140644  0.50561355  0.50395631  1
  Zr  Zr69  1  0.69852160  0.68968912  0.51246273  1
  Zr  Zr70  1  0.30297752  0.89689975  0.89515714  1
  Zr  Zr71  1  0.70450590  0.90080135  0.09820597  1
  Zr  Zr72  1  0.00602072  0.80000161  0.18899777  1
  Zr  Zr73  1  0.89138919  0.50021741  0.88615797  1
  Zr  Zr74  1  0.40401162  0.20351099  0.00041446  1
  Zr  Zr75  1  0.29616949  0.09821044  0.50100040  1
  Zr  Zr76  1  0.49589542  0.29771148  0.50543387  1
  Zr  Zr77  1  0.91156021  0.90664062  0.31260375  1
  Zr  Zr78  1  0.49613693  0.29763408  0.30002000  1
  Zr  Zr79  1  -0.00371023  0.20009547  0.00386170  1
  Zr  Zr80  1  0.11325893  0.10461552  0.08010864  1
  Zr  Zr81  1  0.50305167  0.89812719  0.89443954  1
  Zr  Zr82  1  0.39424418  0.20702300  0.19322530  1
  Zr  Zr83  1  0.49521486  0.49758016  0.89627086  1
  Zr  Zr84  1  0.10963262  0.50333525  0.69831544  1
  Zr  Zr85  1  0.00795119  0.39558491  0.79489567  1
  Zr  Zr86  1  0.00690992  0.60790502  -0.00666148  1
  Zr  Zr87  1  0.60835316  0.58955532  -0.00245929  1
  Zr  Zr88  1  0.00641481  -0.00441166  0.60081807  1
  Zr  Zr89  1  0.79427558  0.79775297  0.39963004  1
  Zr  Zr90  1  0.19584636  0.20437167  0.19818313  1
  Zr  Zr91  1  0.39793375  0.00398282  0.60898508  1
  Zr  Zr92  1  0.19111504  0.80620636  0.18526856  1
  Zr  Zr93  1  0.89490502  0.29579116  0.49477589  1
  Zr  Zr94  1  0.40550398  0.18696866  0.80038649  1
  Zr  Zr95  1  0.19375884  0.60546539  0.19346161  1
  Zr  Zr96  1  0.90199796  0.70181305  0.70078030  1
  Zr  Zr97  1  0.29643955  0.90008240  0.30297060  1
  Zr  Zr98  1  0.19991157  0.20300592  0.40071833  1
  Zr  Zr99  1  0.00030845  0.40288770  0.39626270  1
  Ta  Ta100  1  0.30279300  0.09661426  0.29619247  1
  Ta  Ta101  1  0.00607179  0.20301358  0.60633824  1
  Ta  Ta102  1  0.69988304  0.10429268  0.89227195  1
  Ta  Ta103  1  0.39603087  0.19839842  0.60308369  1
  Ta  Ta104  1  0.59674781  0.59911849  0.40695076  1
  Ta  Ta105  1  0.29754541  0.49421926  0.09592422  1
  Ta  Ta106  1  0.29656559  0.69799849  0.50596017  1
  Ta  Ta107  1  0.40610391  0.39610989  0.80201662  1
  Ta  Ta108  1  0.19749198  0.19651035  0.60501011  1
  Ta  Ta109  1  0.60299569  0.39308523  -0.00111254  1
  Ta  Ta110  1  0.60015568  0.20510691  -0.00241354  1
  Ta  Ta111  1  0.29829975  0.30614401  0.90042962  1
  Ta  Ta112  1  -0.00304357  0.80099795  -0.00754429  1
  Ta  Ta113  1  0.50430649  0.89804598  0.70214813  1
  Ta  Ta114  1  0.49853455  0.90917128  0.10658076  1
  Ta  Ta115  1  -0.00442950  0.39329786  0.60728984  1
  Ta  Ta116  1  0.80520973  0.60186747  0.39275658  1
  Ta  Ta117  1  0.49714069  0.09437712  0.29981956  1
  Ta  Ta118  1  0.89309771  0.29209216  0.89511010  1
  Ta  Ta119  1  0.50454909  0.90026421  0.50716351  1
  Ta  Ta120  1  0.10345333  0.50292977  0.09852158  1
  Ta  Ta121  1  0.80328726  0.00155378  -0.00709843  1
  Ta  Ta122  1  0.80325799  0.39512198  0.60571808  1
  Ta  Ta123  1  -0.00434697  -0.00024463  -0.00422520  1
  Ta  Ta124  1  0.40162758  0.79909310  0.79193657  1
  Ta  Ta125  1  0.29953177  0.50434088  0.51900175  1
  Ta  Ta126  1  0.49847968  0.49622132  0.69694959  1
  Ta  Ta127  1  0.09825130  0.89631853  0.31635197  1
  Ta  Ta128  1  0.20091763  -0.00444954  0.40626108  1
  Ta  Ta129  1  0.39549209  0.59165409  0.19572545  1
  Ta  Ta130  1  0.10137771  0.70975788  0.69766984  1
  Ta  Ta131  1  0.79453787  0.19449394  -0.00096458  1
  Ta  Ta132  1  0.60365629  0.80008197  0.60092178  1
  Ta  Ta133  1  0.50114308  0.30052403  0.70513368  1
  Ta  Ta134  1  0.59761029  0.00849511  0.79499749  1
  Ta  Ta135  1  0.70722961  0.29527522  0.29915217  1
  Ta  Ta136  1  0.70220040  0.90021611  0.89335746  1
  Ta  Ta137  1  0.39391683  0.19904297  0.40102728  1
  Ta  Ta138  1  0.29874281  0.30375122  0.29800719  1
  Ta  Ta139  1  0.40154737  0.00293298  -0.00206621  1
  Ta  Ta140  1  0.89585387  0.90143392  0.09098866  1
  Ta  Ta141  1  0.70041485  0.89751471  0.70214101  1
  Ta  Ta142  1  0.59784982  0.00035180  0.39915719  1
  Ta  Ta143  1  0.79528099  -0.00203683  0.79900119  1
  Ta  Ta144  1  0.00642489  0.19873787  0.79933291  1
  Ta  Ta145  1  0.49892667  0.49547312  0.10166919  1
  Ta  Ta146  1  0.09744514  0.29604994  0.50426075  1
  Ta  Ta147  1  0.60273038  0.39650284  0.80431711  1
  Ta  Ta148  1  -0.00861278  0.60017277  0.39597171  1
  Ta  Ta149  1  0.09652957  0.50929344  0.29559705  1
  Ti  Ti150  1  -0.02465398  0.79193157  0.42488385  1
  Ti  Ti151  1  0.30689428  0.70427379  0.89228414  1
  Ti  Ti152  1  0.19410790  0.40075750  0.19598102  1
  Ti  Ti153  1  0.30625279  0.89814334  0.70421368  1
  Ti  Ti154  1  0.20340023  0.59350410  0.40250513  1
  Ti  Ti155  1  0.80552065  0.59629268  0.20859692  1
  Ti  Ti156  1  0.81004981  0.00728846  0.20502028  1
  Ti  Ti157  1  0.49965972  0.10222095  0.49656642  1
  Ti  Ti158  1  0.31062154  0.90738038  0.09698985  1
  Ti  Ti159  1  0.10132451  0.30504953  0.29854613  1
  Ti  Ti160  1  0.28452297  0.30868540  0.08874708  1
  Ti  Ti161  1  0.79615681  0.40580112  0.39354015  1
  Ti  Ti162  1  0.69628934  0.50670567  0.29844517  1
  Ti  Ti163  1  0.50455430  0.29597141  0.89678050  1
  Ti  Ti164  1  0.40800907  0.39245540  0.00442836  1
  Ti  Ti165  1  0.19204601  0.60104839  -0.00509647  1
  Ti  Ti166  1  0.10310083  0.08635729  0.30798548  1
  Ti  Ti167  1  0.29648546  0.49470550  0.29079567  1
  Ti  Ti168  1  0.40352393  0.80270563  0.59717170  1
  Ti  Ti169  1  0.19461419  -0.01473336  0.00062105  1
  Ti  Ti170  1  0.20086644  -0.00186174  0.60359506  1
  Ti  Ti171  1  0.90018175  0.50955754  0.10498826  1
  Ti  Ti172  1  0.59968623  0.80675765  0.00487138  1
  Ti  Ti173  1  0.40365594  0.00641970  0.79909021  1
  Ti  Ti174  1  -0.00423303  0.60024821  0.60203120  1
  Ti  Ti175  1  0.79598220  0.18855775  0.38906219  1
  Ti  Ti176  1  0.69959497  0.50680238  0.10815055  1
  Ti  Ti177  1  0.80038486  0.79937169  0.79582005  1
  Ti  Ti178  1  0.79756664  0.41168931  0.20471341  1
  Ti  Ti179  1  0.70451525  0.29406945  0.10359752  1
  Ti  Ti180  1  0.40371679  0.80541257  0.00083756  1
  Ti  Ti181  1  0.80315453  0.18383436  0.20427904  1
  Ti  Ti182  1  0.40825441  0.60401528  0.59407186  1
  Ti  Ti183  1  0.10077333  0.09827226  0.50140697  1
  Ti  Ti184  1  0.39681128  0.39633800  0.18914165  1
  Ti  Ti185  1  0.90003121  0.29301668  0.70643678  1
  Ti  Ti186  1  0.70402364  0.91015838  0.50569123  1
  Ti  Ti187  1  0.70086302  0.28937956  0.89315312  1
  Ti  Ti188  1  0.00504595  0.79619795  0.80123292  1
  Ti  Ti189  1  0.69715888  0.91944227  0.29801821  1
  Ti  Ti190  1  0.80129346  0.00029418  0.39699917  1
  Ti  Ti191  1  0.80937341  0.60084531  0.60772153  1
  Ti  Ti192  1  0.09262505  0.09606223  0.70178959  1
  Ti  Ti193  1  0.70355548  0.10229798  0.70884857  1
  Ti  Ti194  1  0.29978905  0.09392421  0.09871251  1
  Ti  Ti195  1  0.60473291  0.19534158  0.39736543  1
  Ti  Ti196  1  0.50376524  0.49918020  0.51454950  1
  Ti  Ti197  1  0.69385487  0.68695135  0.29797256  1
  Ti  Ti198  1  0.89616891  0.89747584  0.89587302  1
  Ti  Ti199  1  0.90649471  0.69605898  0.29639378  1
  Mo  Mo200  1  0.69706173  0.49300025  0.89611514  1
  Mo  Mo201  1  0.09457945  0.69714433  0.09007595  1
  Mo  Mo202  1  0.19692452  0.40481050  0.00443180  1
  Mo  Mo203  1  0.89680713  0.71288094  0.89487810  1
  Mo  Mo204  1  0.09337564  0.09868683  0.89423713  1
  Mo  Mo205  1  -0.00120773  0.60000388  0.20137615  1
  Mo  Mo206  1  0.09934703  0.29572477  0.69847556  1
  Mo  Mo207  1  0.29756996  0.09952674  0.69591620  1
  Mo  Mo208  1  0.59321108  -0.00074323  0.21220220  1
  Mo  Mo209  1  0.70501727  0.29464809  0.48135427  1
  Mo  Mo210  1  0.89597143  0.09610906  0.30015949  1
  Mo  Mo211  1  0.00197499  0.79944647  0.60205907  1
  Mo  Mo212  1  0.79963461  0.61021156  0.79413114  1
  Mo  Mo213  1  0.20613268  0.20938343  0.00133810  1
  Mo  Mo214  1  0.89903635  0.49836404  0.69079380  1
  Mo  Mo215  1  0.79932225  0.19827870  0.80134572  1
  Mo  Mo216  1  0.59155123  0.59885560  0.59850485  1
  Mo  Mo217  1  0.80701985  0.80875911  -0.01078475  1
  Mo  Mo218  1  0.60067434  0.19965462  0.80364989  1
  Mo  Mo219  1  0.10748873  0.49549366  0.90484641  1
  Mo  Mo220  1  0.39511533  0.00180464  0.19742650  1
  Mo  Mo221  1  0.09809190  0.89427402  0.69789776  1
  Mo  Mo222  1  0.08908929  0.90407747  0.08425564  1
  Mo  Mo223  1  0.30113819  0.89773780  0.50546880  1
  Mo  Mo224  1  0.39965178  0.60016060  0.80266752  1
  Mo  Mo225  1  0.50361868  0.90640781  0.30380055  1
  Mo  Mo226  1  0.89641585  0.90828650  0.50190861  1
  Mo  Mo227  1  0.10748014  0.31015574  0.10186609  1
  Mo  Mo228  1  0.70030955  0.09649363  0.30497978  1
  Mo  Mo229  1  0.00659054  0.00569263  0.40184608  1
  Mo  Mo230  1  0.20854691  0.80429537  0.41085710  1
  Mo  Mo231  1  0.20617083  0.39858635  0.80259783  1
  Mo  Mo232  1  0.20376058  0.60661745  0.60363566  1
  Mo  Mo233  1  0.09639792  0.70706838  0.89289268  1
  Mo  Mo234  1  0.49962137  0.10065908  0.70348057  1
  Mo  Mo235  1  0.89589588  0.50571773  0.29656821  1
  Mo  Mo236  1  0.60336296  0.80685122  0.79039048  1
  Mo  Mo237  1  0.60079399  0.59067157  0.20330354  1
  Mo  Mo238  1  0.50085001  0.70329373  0.50431274  1
  Mo  Mo239  1  0.69466788  0.29377045  0.71454364  1
  Mo  Mo240  1  0.40416232  0.40023173  0.60533598  1
  Mo  Mo241  1  0.79266097  -0.00171223  0.60544527  1
  Mo  Mo242  1  0.89073989  0.09130857  0.09663670  1
  Mo  Mo243  1  0.50740339  0.30510525  0.09276915  1
  Mo  Mo244  1  0.29802891  0.29698040  0.50433025  1
  Mo  Mo245  1  -0.00142395  0.00464792  0.80148351  1
  Mo  Mo246  1  0.50645497  0.10000326  0.90027474  1
  Mo  Mo247  1  0.70704808  0.70562263  0.70021116  1
  Mo  Mo248  1  0.20502006  0.80021870  0.79287491  1
  Mo  Mo249  1  0.89899667  0.68555804  0.50211259  1
