# generated using pymatgen
data_HfZrTaTiMo
_symmetry_space_group_name_H-M   'P 1'
_cell_length_a   16.88786128
_cell_length_b   16.88699757
_cell_length_c   16.88853267
_cell_angle_alpha   89.98352769
_cell_angle_beta   90.01943254
_cell_angle_gamma   90.01890851
_symmetry_Int_Tables_number   1
_chemical_formula_structural   HfZrTaTiMo
_chemical_formula_sum   'Hf50 Zr50 Ta50 Ti50 Mo50'
_cell_volume   4816.36004863
_cell_formula_units_Z   50
loop_
 _symmetry_equiv_pos_site_id
 _symmetry_equiv_pos_as_xyz
  1  'x, y, z'
loop_
 _atom_site_type_symbol
 _atom_site_label
 _atom_site_symmetry_multiplicity
 _atom_site_fract_x
 _atom_site_fract_y
 _atom_site_fract_z
 _atom_site_occupancy
  Hf  Hf0  1  -0.01324202  0.79287650  0.80624124  1
  Hf  Hf1  1  0.30407041  0.29824196  0.90081620  1
  Hf  Hf2  1  0.09074047  0.90786696  0.30224347  1
  Hf  Hf3  1  0.29841765  0.29953587  0.49785038  1
  Hf  Hf4  1  0.80123585  0.21673023  0.80737865  1
  Hf  Hf5  1  -0.01251061  0.80067289  0.20590055  1
  Hf  Hf6  1  0.70348077  0.49925592  0.10502298  1
  Hf  Hf7  1  0.60384908  -0.00483531  0.59467028  1
  Hf  Hf8  1  0.60528865  0.20522783  0.40176510  1
  Hf  Hf9  1  0.70076476  0.89680908  0.30268837  1
  Hf  Hf10  1  0.10129012  0.70902207  0.69720012  1
  Hf  Hf11  1  0.50568213  0.50011132  0.90707984  1
  Hf  Hf12  1  0.80071712  0.40008730  0.79593777  1
  Hf  Hf13  1  0.60025801  0.19965256  0.18851283  1
  Hf  Hf14  1  0.89630272  0.10086055  0.09614867  1
  Hf  Hf15  1  0.50371525  0.10053011  0.70468467  1
  Hf  Hf16  1  0.90201776  0.10205786  0.29242832  1
  Hf  Hf17  1  0.51525664  0.50694360  0.29909475  1
  Hf  Hf18  1  0.80172516  -0.00634583  0.20100919  1
  Hf  Hf19  1  0.50122710  0.70696362  0.89299365  1
  Hf  Hf20  1  0.29122186  0.89864164  0.50376935  1
  Hf  Hf21  1  0.40436503  -0.00247911  0.39915726  1
  Hf  Hf22  1  0.20000315  0.60487898  0.60052601  1
  Hf  Hf23  1  0.10145721  0.89231433  0.90214921  1
  Hf  Hf24  1  0.60200541  0.00482137  0.19442331  1
  Hf  Hf25  1  0.60115234  0.00459638  0.40508193  1
  Hf  Hf26  1  0.19298510  0.19784806  0.00323535  1
  Hf  Hf27  1  0.19399140  0.41133603  0.38787176  1
  Hf  Hf28  1  0.60198004  0.59876157  0.79288518  1
  Hf  Hf29  1  0.80072408  0.79566308  0.79534998  1
  Hf  Hf30  1  0.09153030  0.90428652  0.10249310  1
  Hf  Hf31  1  0.40033897  0.60440988  0.79164548  1
  Hf  Hf32  1  0.80615484  0.60307022  0.40777616  1
  Hf  Hf33  1  0.70183575  0.49862702  0.90471556  1
  Hf  Hf34  1  0.40793178  0.40780265  0.78827107  1
  Hf  Hf35  1  0.30728327  0.10139234  0.10641843  1
  Hf  Hf36  1  0.60552943  0.20907469  0.59603751  1
  Hf  Hf37  1  0.90032077  0.50507214  0.29771810  1
  Hf  Hf38  1  -0.00001130  0.18770711  0.40265841  1
  Hf  Hf39  1  0.89715878  0.09349231  0.70381158  1
  Hf  Hf40  1  0.08842790  0.51406622  0.49725126  1
  Hf  Hf41  1  0.80283163  0.21415392  0.59946665  1
  Hf  Hf42  1  0.29839515  0.90618830  0.10373161  1
  Hf  Hf43  1  0.40384442  0.61359803  0.01226718  1
  Hf  Hf44  1  0.80985359  0.79511681  0.40157935  1
  Hf  Hf45  1  0.39501924  -0.00546788  0.80010755  1
  Hf  Hf46  1  -0.01581742  0.59956235  0.79111919  1
  Hf  Hf47  1  0.79740975  0.39862772  0.40546922  1
  Hf  Hf48  1  0.80194750  -0.01078728  0.59445929  1
  Hf  Hf49  1  0.40143380  0.60201661  0.39765638  1
  Zr  Zr50  1  0.89622137  0.69867477  0.10157226  1
  Zr  Zr51  1  0.40290669  0.40224670  0.20128982  1
  Zr  Zr52  1  0.09741064  0.50196846  0.90032478  1
  Zr  Zr53  1  -0.00453937  0.19285030  0.59535706  1
  Zr  Zr54  1  0.08709341  0.29868409  0.29555772  1
  Zr  Zr55  1  -0.00962507  0.40875975  0.18996286  1
  Zr  Zr56  1  0.09125206  0.29965257  0.10133483  1
  Zr  Zr57  1  0.20864164  0.60650686  0.79367781  1
  Zr  Zr58  1  0.60768556  0.21045622  0.80777398  1
  Zr  Zr59  1  0.10054400  0.29897559  0.70293961  1
  Zr  Zr60  1  0.40711239  0.19811731  0.59585560  1
  Zr  Zr61  1  0.30517415  0.29243307  0.30598465  1
  Zr  Zr62  1  0.20063690  0.79466133  0.20804617  1
  Zr  Zr63  1  0.30967779  0.29552679  0.10469374  1
  Zr  Zr64  1  0.69416278  0.69118168  0.29864899  1
  Zr  Zr65  1  0.09926705  0.68956138  0.90998887  1
  Zr  Zr66  1  0.00581558  0.00176956  0.59383611  1
  Zr  Zr67  1  0.18267404  0.18741827  0.59567002  1
  Zr  Zr68  1  0.50740517  0.70211334  0.50067649  1
  Zr  Zr69  1  0.50480483  0.89338119  0.30066396  1
  Zr  Zr70  1  0.29646680  0.70642641  0.50451985  1
  Zr  Zr71  1  0.08681673  0.69378068  0.30681787  1
  Zr  Zr72  1  0.60345079  0.79792393  -0.00194299  1
  Zr  Zr73  1  0.69677404  0.49923803  0.29595490  1
  Zr  Zr74  1  0.59858369  0.40292478  0.60124058  1
  Zr  Zr75  1  0.39405068  0.79020547  0.20012234  1
  Zr  Zr76  1  0.09747406  0.30781629  0.49597725  1
  Zr  Zr77  1  0.20242099  0.40327076  0.79844596  1
  Zr  Zr78  1  0.80378028  0.79559382  -0.01104550  1
  Zr  Zr79  1  0.40143941  -0.00488137  0.60208663  1
  Zr  Zr80  1  0.40691600  0.59328613  0.60651589  1
  Zr  Zr81  1  0.49926387  0.30473343  0.90545949  1
  Zr  Zr82  1  0.49948283  0.29996037  0.30035397  1
  Zr  Zr83  1  0.09956971  0.30244395  0.90068569  1
  Zr  Zr84  1  0.50968034  0.88745903  0.69883696  1
  Zr  Zr85  1  0.29437120  0.09440403  0.49836105  1
  Zr  Zr86  1  0.71492225  0.10755599  0.49296186  1
  Zr  Zr87  1  -0.00824594  0.20034192  0.80284057  1
  Zr  Zr88  1  0.60600971  -0.00166061  0.80804380  1
  Zr  Zr89  1  0.30178735  0.50400165  0.91219065  1
  Zr  Zr90  1  0.19262742  0.19181156  0.20804655  1
  Zr  Zr91  1  0.20206498  0.78536066  0.01560876  1
  Zr  Zr92  1  0.29999761  0.49500320  0.49904419  1
  Zr  Zr93  1  0.70654818  0.09788853  0.70470950  1
  Zr  Zr94  1  0.30043196  0.10686990  0.90065850  1
  Zr  Zr95  1  0.28954004  0.10783734  0.70804117  1
  Zr  Zr96  1  0.40820616  0.00305713  -0.00137466  1
  Zr  Zr97  1  0.80123104  0.40231390  0.59958183  1
  Zr  Zr98  1  0.10108867  0.51403267  0.08995788  1
  Zr  Zr99  1  0.49946377  0.89447709  0.89723711  1
  Ta  Ta100  1  0.19902660  0.60335079  0.39040827  1
  Ta  Ta101  1  0.50126397  0.88791843  0.49986524  1
  Ta  Ta102  1  0.90137255  0.89504475  0.69741345  1
  Ta  Ta103  1  0.50886228  0.70784122  0.69668061  1
  Ta  Ta104  1  -0.01258493  0.40655449  0.60062145  1
  Ta  Ta105  1  0.40531147  0.00001474  0.20455121  1
  Ta  Ta106  1  0.71098784  0.10652260  0.29846875  1
  Ta  Ta107  1  0.19462162  0.40263431  0.60120579  1
  Ta  Ta108  1  0.60050255  0.79687442  0.19351323  1
  Ta  Ta109  1  -0.00134248  -0.00368649  0.80384061  1
  Ta  Ta110  1  0.08560530  0.09639371  0.10475320  1
  Ta  Ta111  1  0.30344037  0.50693452  0.10550114  1
  Ta  Ta112  1  -0.01535578  0.40278661  0.79460203  1
  Ta  Ta113  1  0.29787724  0.29763917  0.69870662  1
  Ta  Ta114  1  0.69669864  0.51155370  0.50184474  1
  Ta  Ta115  1  0.89596563  0.29806677  0.29483049  1
  Ta  Ta116  1  0.50273008  0.89861043  0.10018879  1
  Ta  Ta117  1  0.20538757  0.40233933  0.01041611  1
  Ta  Ta118  1  0.80347599  0.38954735  0.00656577  1
  Ta  Ta119  1  0.09807407  0.89548821  0.70362354  1
  Ta  Ta120  1  0.70335195  0.70207886  0.68481496  1
  Ta  Ta121  1  0.49607988  0.30596461  0.49482907  1
  Ta  Ta122  1  -0.00837135  0.40951082  0.39977156  1
  Ta  Ta123  1  -0.00241723  0.00312411  -0.00525074  1
  Ta  Ta124  1  0.50485707  0.69365927  0.29589798  1
  Ta  Ta125  1  0.71031988  0.10138215  0.91062277  1
  Ta  Ta126  1  0.09625535  0.10080908  0.90026676  1
  Ta  Ta127  1  0.60691698  0.20120940  0.00390956  1
  Ta  Ta128  1  0.19400953  0.00374778  0.00004397  1
  Ta  Ta129  1  -0.00282504  0.80058307  0.59797202  1
  Ta  Ta130  1  0.39206783  0.79969704  0.39152745  1
  Ta  Ta131  1  0.39702932  0.79739520  0.00697609  1
  Ta  Ta132  1  0.89851141  0.90429279  0.09560758  1
  Ta  Ta133  1  0.60151807  0.60602942  0.00565965  1
  Ta  Ta134  1  0.20203409  0.60589730  0.19998716  1
  Ta  Ta135  1  0.80826925  -0.00469609  0.40059958  1
  Ta  Ta136  1  0.70469197  0.51010497  0.69510230  1
  Ta  Ta137  1  0.09145530  0.50247139  0.69327903  1
  Ta  Ta138  1  0.20179671  0.80095158  0.39448154  1
  Ta  Ta139  1  0.50705692  0.50429124  0.10550613  1
  Ta  Ta140  1  -0.01355656  0.20375975  -0.00194063  1
  Ta  Ta141  1  0.19833756  0.41238101  0.20157579  1
  Ta  Ta142  1  0.29263852  0.89374685  0.90076188  1
  Ta  Ta143  1  0.70198008  0.69880442  0.10328137  1
  Ta  Ta144  1  0.70271126  0.89909004  0.09661251  1
  Ta  Ta145  1  0.60840632  0.40080812  0.79255191  1
  Ta  Ta146  1  0.19268303  -0.00170398  0.80316622  1
  Ta  Ta147  1  0.18926305  0.18372939  0.39561586  1
  Ta  Ta148  1  0.79655718  0.20949374  0.19013623  1
  Ta  Ta149  1  -0.01615357  0.40171320  -0.00300110  1
  Ti  Ti150  1  -0.00795637  0.00018816  0.40143691  1
  Ti  Ti151  1  0.29653999  0.49380020  0.69287664  1
  Ti  Ti152  1  0.60496328  0.40006530  0.40965348  1
  Ti  Ti153  1  0.40819028  0.18863222  0.40533306  1
  Ti  Ti154  1  0.09565675  0.70337530  0.49807182  1
  Ti  Ti155  1  0.69860228  0.69857060  0.50849833  1
  Ti  Ti156  1  0.50049457  0.10389942  0.29588709  1
  Ti  Ti157  1  0.19865546  0.00446480  0.20743001  1
  Ti  Ti158  1  0.28062709  0.88739020  0.70084443  1
  Ti  Ti159  1  0.20067045  0.00023542  0.38919402  1
  Ti  Ti160  1  0.29691078  0.70577905  0.90065808  1
  Ti  Ti161  1  0.90064310  0.29821251  0.48979780  1
  Ti  Ti162  1  0.60599072  0.39066941  0.00639143  1
  Ti  Ti163  1  0.18708450  -0.00091630  0.60787655  1
  Ti  Ti164  1  -0.00532785  0.79295307  0.00189636  1
  Ti  Ti165  1  0.80497888  0.60532706  0.79353248  1
  Ti  Ti166  1  0.40506558  0.40156115  0.59973242  1
  Ti  Ti167  1  0.70737013  0.29999555  0.29740007  1
  Ti  Ti168  1  0.89148496  0.50038864  0.90248280  1
  Ti  Ti169  1  0.79951692  -0.01154439  0.80042570  1
  Ti  Ti170  1  0.40652079  0.20122889  0.80275816  1
  Ti  Ti171  1  -0.01725258  0.59897749  0.00118455  1
  Ti  Ti172  1  0.42477841  0.19432931  0.01195997  1
  Ti  Ti173  1  0.40624477  0.40188858  0.01196588  1
  Ti  Ti174  1  0.91468444  0.69244039  0.50449138  1
  Ti  Ti175  1  0.30776736  0.09974725  0.29761938  1
  Ti  Ti176  1  0.80151247  0.59724573  0.00157345  1
  Ti  Ti177  1  0.40630204  0.40881683  0.40129292  1
  Ti  Ti178  1  0.70063413  0.88412968  0.50401716  1
  Ti  Ti179  1  0.59642183  0.00990948  0.00132647  1
  Ti  Ti180  1  0.89001816  0.09470936  0.90487836  1
  Ti  Ti181  1  0.70945352  0.09814090  0.09083790  1
  Ti  Ti182  1  -0.00808404  0.79988898  0.40035258  1
  Ti  Ti183  1  0.10237345  0.89464157  0.49814889  1
  Ti  Ti184  1  0.81479228  0.60075319  0.60176990  1
  Ti  Ti185  1  0.89945368  0.90653791  0.90457883  1
  Ti  Ti186  1  0.60228797  0.79446303  0.40114928  1
  Ti  Ti187  1  0.59557937  0.59557542  0.60025603  1
  Ti  Ti188  1  0.30356926  0.50848632  0.29283762  1
  Ti  Ti189  1  0.90297247  0.89513406  0.50097679  1
  Ti  Ti190  1  0.38701496  0.79641062  0.79354411  1
  Ti  Ti191  1  0.70590508  0.91023911  0.90940122  1
  Ti  Ti192  1  0.80520822  0.60184981  0.20011449  1
  Ti  Ti193  1  0.80165045  0.80046876  0.20474248  1
  Ti  Ti194  1  0.49870570  0.30089382  0.69865269  1
  Ti  Ti195  1  0.39567516  0.79876565  0.60579923  1
  Ti  Ti196  1  -0.00096007  0.60149698  0.19716112  1
  Ti  Ti197  1  0.60488161  0.38711872  0.18981534  1
  Ti  Ti198  1  0.62068896  0.80200619  0.79511549  1
  Ti  Ti199  1  0.70354274  0.69042025  0.89849490  1
  Mo  Mo200  1  0.80667026  0.79363416  0.59447665  1
  Mo  Mo201  1  0.69876595  0.30771210  0.49331439  1
  Mo  Mo202  1  0.50979750  0.10656842  0.90479810  1
  Mo  Mo203  1  0.50616952  0.30334768  0.09830754  1
  Mo  Mo204  1  0.80109081  -0.00351608  -0.00189885  1
  Mo  Mo205  1  0.30076019  0.71381245  0.69843683  1
  Mo  Mo206  1  0.21264760  0.59982720  0.00737119  1
  Mo  Mo207  1  -0.00170968  0.60559440  0.59920940  1
  Mo  Mo208  1  0.09299567  0.08887774  0.29473623  1
  Mo  Mo209  1  0.59690989  0.60707119  0.18826607  1
  Mo  Mo210  1  0.50383125  0.10254016  0.49623761  1
  Mo  Mo211  1  0.40253141  0.59841491  0.20293738  1
  Mo  Mo212  1  0.09793734  0.50659626  0.29592494  1
  Mo  Mo213  1  0.61114768  0.79880137  0.59727292  1
  Mo  Mo214  1  0.70093439  0.30462403  0.90887440  1
  Mo  Mo215  1  0.70940949  0.89172446  0.69839024  1
  Mo  Mo216  1  -0.00877451  0.19786108  0.19542945  1
  Mo  Mo217  1  0.29550514  0.90763559  0.30305068  1
  Mo  Mo218  1  0.79704593  0.20112369  -0.00135891  1
  Mo  Mo219  1  0.89760261  0.69802757  0.29984990  1
  Mo  Mo220  1  0.89865832  0.89904526  0.30488685  1
  Mo  Mo221  1  0.09604987  0.08914683  0.71812720  1
  Mo  Mo222  1  0.09221213  0.69360830  0.10270723  1
  Mo  Mo223  1  0.69934846  0.30963003  0.70051434  1
  Mo  Mo224  1  0.80342425  0.20499449  0.39094908  1
  Mo  Mo225  1  0.18702135  0.80636957  0.59419092  1
  Mo  Mo226  1  0.89205335  0.50314710  0.09709934  1
  Mo  Mo227  1  0.50559306  0.50177888  0.69888132  1
  Mo  Mo228  1  0.89894782  0.30598910  0.90455117  1
  Mo  Mo229  1  0.89243301  0.68775516  0.90365354  1
  Mo  Mo230  1  0.29970788  0.69535542  0.30366929  1
  Mo  Mo231  1  0.89644621  0.70236071  0.68874533  1
  Mo  Mo232  1  -0.00361220  0.60285089  0.40233284  1
  Mo  Mo233  1  0.50533982  0.49436177  0.49568360  1
  Mo  Mo234  1  0.89678483  0.50621427  0.69507460  1
  Mo  Mo235  1  0.79826339  0.39405020  0.19973887  1
  Mo  Mo236  1  0.20076296  0.19717746  0.80348619  1
  Mo  Mo237  1  0.20173794  0.80395962  0.80148920  1
  Mo  Mo238  1  -0.00527504  -0.00251063  0.19416258  1
  Mo  Mo239  1  0.60197775  0.60037620  0.41279079  1
  Mo  Mo240  1  0.10112425  0.07615817  0.48255842  1
  Mo  Mo241  1  0.40831157  0.18865418  0.20441795  1
  Mo  Mo242  1  0.50316114  0.70254703  0.10318245  1
  Mo  Mo243  1  0.89546673  0.29787726  0.10057174  1
  Mo  Mo244  1  0.90340504  0.30520410  0.69820241  1
  Mo  Mo245  1  0.30174021  0.69414321  0.10805883  1
  Mo  Mo246  1  0.90012185  0.50410206  0.49888691  1
  Mo  Mo247  1  0.50498191  0.09670711  0.10043197  1
  Mo  Mo248  1  0.89864171  0.09486307  0.49176056  1
  Mo  Mo249  1  0.70187565  0.30221451  0.09880436  1
