# generated using pymatgen
data_HfZrTaTiMo
_symmetry_space_group_name_H-M   'P 1'
_cell_length_a   16.88786088
_cell_length_b   16.87361126
_cell_length_c   16.88707432
_cell_angle_alpha   89.99111156
_cell_angle_beta   90.07324850
_cell_angle_gamma   89.94950418
_symmetry_Int_Tables_number   1
_chemical_formula_structural   HfZrTaTiMo
_chemical_formula_sum   'Hf50 Zr50 Ta50 Ti50 Mo50'
_cell_volume   4812.12132228
_cell_formula_units_Z   50
loop_
 _symmetry_equiv_pos_site_id
 _symmetry_equiv_pos_as_xyz
  1  'x, y, z'
loop_
 _atom_site_type_symbol
 _atom_site_label
 _atom_site_symmetry_multiplicity
 _atom_site_fract_x
 _atom_site_fract_y
 _atom_site_fract_z
 _atom_site_occupancy
  Hf  Hf0  1  0.30457359  0.49285917  0.30130063  1
  Hf  Hf1  1  0.39140645  0.58891434  0.00648209  1
  Hf  Hf2  1  0.10440021  0.50768562  0.11056383  1
  Hf  Hf3  1  0.09663612  0.10781507  0.10393583  1
  Hf  Hf4  1  0.00351284  0.00050367  0.59184950  1
  Hf  Hf5  1  0.10476646  0.30722490  0.10025860  1
  Hf  Hf6  1  0.20154503  0.60263618  0.40229250  1
  Hf  Hf7  1  0.50012901  0.49626214  0.69692400  1
  Hf  Hf8  1  0.59800894  0.20739298  -0.00053581  1
  Hf  Hf9  1  0.89455905  0.30281099  0.10329424  1
  Hf  Hf10  1  0.58504614  0.59266821  0.00687359  1
  Hf  Hf11  1  0.71805448  0.68932202  0.10424614  1
  Hf  Hf12  1  0.69159227  0.49950530  0.69003140  1
  Hf  Hf13  1  0.39191105  0.00428772  0.21520388  1
  Hf  Hf14  1  0.50119025  0.09524895  0.10586265  1
  Hf  Hf15  1  0.59676943  0.79134645  0.00874874  1
  Hf  Hf16  1  0.79355829  0.39907168  0.58567817  1
  Hf  Hf17  1  0.29712780  0.29943799  0.50243048  1
  Hf  Hf18  1  0.30083182  0.10120819  0.09588678  1
  Hf  Hf19  1  0.30009593  0.70550996  0.89558537  1
  Hf  Hf20  1  0.90002605  0.50021219  0.68692742  1
  Hf  Hf21  1  0.70425289  0.30881782  0.30654078  1
  Hf  Hf22  1  -0.00746769  0.60314101  0.22333645  1
  Hf  Hf23  1  0.30267283  0.89594973  0.89555719  1
  Hf  Hf24  1  0.40178083  0.19665155  0.39959796  1
  Hf  Hf25  1  0.10872884  0.10368730  0.89336677  1
  Hf  Hf26  1  0.40225476  0.60660488  0.41005016  1
  Hf  Hf27  1  0.49564650  0.89336264  0.89656516  1
  Hf  Hf28  1  0.50111216  0.30727827  0.30307464  1
  Hf  Hf29  1  -0.00621331  0.19945391  -0.00775372  1
  Hf  Hf30  1  0.48966911  0.70121536  0.88938716  1
  Hf  Hf31  1  0.70086131  0.70341321  0.67980986  1
  Hf  Hf32  1  0.29824259  0.10041368  0.70202567  1
  Hf  Hf33  1  0.79587415  0.20267699  0.59713087  1
  Hf  Hf34  1  0.59947020  0.20434571  0.59479855  1
  Hf  Hf35  1  0.39787083  0.20274806  0.20421393  1
  Hf  Hf36  1  0.30180898  0.89429694  0.10180175  1
  Hf  Hf37  1  0.20544155  0.60317371  0.00311295  1
  Hf  Hf38  1  0.90609105  0.89156676  0.69426544  1
  Hf  Hf39  1  0.70105598  0.89577691  0.30249290  1
  Hf  Hf40  1  0.70290349  0.90370890  0.10794914  1
  Hf  Hf41  1  0.60477886  0.19861119  0.19672739  1
  Hf  Hf42  1  0.19789556  -0.00390498  0.00120553  1
  Hf  Hf43  1  0.19225239  -0.00530347  0.20182858  1
  Hf  Hf44  1  0.70670627  0.09947917  0.49241825  1
  Hf  Hf45  1  0.09816081  0.50369015  0.50138789  1
  Hf  Hf46  1  -0.00460502  -0.00890644  0.19627342  1
  Hf  Hf47  1  0.41547937  0.40424258  0.42848274  1
  Hf  Hf48  1  0.58509196  0.39430818  0.57652080  1
  Hf  Hf49  1  0.19622672  0.60549202  0.61032162  1
  Zr  Zr50  1  0.10357945  0.29692894  0.30767903  1
  Zr  Zr51  1  0.40260251  0.80132842  0.59275741  1
  Zr  Zr52  1  0.59775388  0.40339869  0.18824774  1
  Zr  Zr53  1  0.69015316  0.69477369  0.89867414  1
  Zr  Zr54  1  0.88860752  0.69594997  0.50397661  1
  Zr  Zr55  1  0.50483474  0.49989546  0.30539059  1
  Zr  Zr56  1  0.79971955  0.39623247  -0.01614798  1
  Zr  Zr57  1  0.51077954  0.90119080  0.30111637  1
  Zr  Zr58  1  0.18523790  0.00245918  0.41298467  1
  Zr  Zr59  1  0.40099641  0.79723331  0.40513962  1
  Zr  Zr60  1  0.69989800  0.89980107  0.89917330  1
  Zr  Zr61  1  0.89538039  0.50765546  0.10975456  1
  Zr  Zr62  1  0.49862639  0.89696913  0.11261431  1
  Zr  Zr63  1  0.60185930  0.00454025  0.00226344  1
  Zr  Zr64  1  0.00245949  0.00244947  0.79450035  1
  Zr  Zr65  1  0.29811151  0.09969836  0.50326517  1
  Zr  Zr66  1  0.00160614  0.60197094  0.59522232  1
  Zr  Zr67  1  -0.00756778  0.41213929  0.40375362  1
  Zr  Zr68  1  -0.00609155  0.40944962  -0.00621179  1
  Zr  Zr69  1  0.71165542  0.49820087  0.09887474  1
  Zr  Zr70  1  0.50272261  0.09936483  0.70036997  1
  Zr  Zr71  1  0.90168197  0.10511700  0.30791777  1
  Zr  Zr72  1  0.20703423  0.20528846  0.20151571  1
  Zr  Zr73  1  0.81293255  0.80057053  0.00435692  1
  Zr  Zr74  1  0.60571271  -0.00500915  0.59510821  1
  Zr  Zr75  1  0.09872122  0.50753663  0.90019866  1
  Zr  Zr76  1  0.82587586  0.59843059  -0.02454314  1
  Zr  Zr77  1  0.40055124  0.60182433  0.59427835  1
  Zr  Zr78  1  0.70017670  0.10761213  0.89440076  1
  Zr  Zr79  1  -0.00166009  -0.00637968  0.00303727  1
  Zr  Zr80  1  0.49957207  0.89591301  0.70122547  1
  Zr  Zr81  1  0.29222888  0.89314891  0.31341921  1
  Zr  Zr82  1  0.29850057  0.29692522  0.89850645  1
  Zr  Zr83  1  0.68688111  0.49408216  0.88686744  1
  Zr  Zr84  1  0.90093964  0.30186778  0.70091538  1
  Zr  Zr85  1  -0.00210274  0.40425893  0.21085252  1
  Zr  Zr86  1  0.09134140  0.89302983  0.30675580  1
  Zr  Zr87  1  0.60182681  0.60124220  0.19977974  1
  Zr  Zr88  1  0.00477640  0.20173856  0.59927969  1
  Zr  Zr89  1  0.69076393  0.30206924  0.71480844  1
  Zr  Zr90  1  0.19376439  0.79492896  0.78838203  1
  Zr  Zr91  1  0.80519169  0.59877305  0.79251841  1
  Zr  Zr92  1  0.18813019  -0.00504198  0.60341165  1
  Zr  Zr93  1  0.80305897  0.79527660  0.80285299  1
  Zr  Zr94  1  0.10117483  0.89261487  0.89200415  1
  Zr  Zr95  1  0.39573819  0.39947911  0.80397533  1
  Zr  Zr96  1  0.51212289  0.70338625  0.30679708  1
  Zr  Zr97  1  0.19534489  0.40750325  0.79198361  1
  Zr  Zr98  1  0.21775886  0.40884566  0.00482593  1
  Zr  Zr99  1  0.79359624  0.19557358  0.19490966  1
  Ta  Ta100  1  0.19675856  0.60132196  0.79055579  1
  Ta  Ta101  1  0.69901485  0.69774865  0.49058579  1
  Ta  Ta102  1  0.28297952  0.71031044  0.50001671  1
  Ta  Ta103  1  0.80319951  -0.00177880  0.59867751  1
  Ta  Ta104  1  0.50170203  0.09457790  0.49500456  1
  Ta  Ta105  1  0.90297557  0.29936312  0.88978575  1
  Ta  Ta106  1  0.70487502  0.89861919  0.69508035  1
  Ta  Ta107  1  0.09852664  0.29953438  0.89501459  1
  Ta  Ta108  1  0.89099063  0.30189782  0.30650882  1
  Ta  Ta109  1  0.80899129  0.00506493  -0.00046965  1
  Ta  Ta110  1  0.30146297  0.29736598  0.69317037  1
  Ta  Ta111  1  0.89836859  0.10063359  0.09896891  1
  Ta  Ta112  1  0.19040540  0.39673152  0.60450622  1
  Ta  Ta113  1  0.29998384  0.90423676  0.70425241  1
  Ta  Ta114  1  0.00157485  0.60376796  0.79571275  1
  Ta  Ta115  1  0.40006400  0.20118588  -0.00409301  1
  Ta  Ta116  1  0.40664324  0.20523234  0.59959661  1
  Ta  Ta117  1  0.70338509  0.09864179  0.70428098  1
  Ta  Ta118  1  0.19677626  0.79152122  0.20331701  1
  Ta  Ta119  1  0.49390899  0.49848095  0.89519584  1
  Ta  Ta120  1  0.20341368  0.20565853  -0.00128197  1
  Ta  Ta121  1  0.80609238  -0.00293991  0.19854020  1
  Ta  Ta122  1  0.90532184  0.89801456  0.89739653  1
  Ta  Ta123  1  0.89506824  0.09933113  0.69831183  1
  Ta  Ta124  1  0.80470417  0.00099569  0.79950996  1
  Ta  Ta125  1  0.70108927  0.09259231  0.30199006  1
  Ta  Ta126  1  0.60241107  0.20406304  0.40263199  1
  Ta  Ta127  1  0.48936567  0.30267763  0.09681363  1
  Ta  Ta128  1  0.81435005  0.79637148  0.20586880  1
  Ta  Ta129  1  0.70046735  0.50633631  0.48736597  1
  Ta  Ta130  1  0.40480175  0.20132931  0.80157522  1
  Ta  Ta131  1  0.40007487  0.00446420  0.80363806  1
  Ta  Ta132  1  0.51277311  0.09425623  0.30602694  1
  Ta  Ta133  1  0.89754785  0.10179369  0.49745085  1
  Ta  Ta134  1  0.09485239  0.69612921  0.10650537  1
  Ta  Ta135  1  0.19831150  0.39948171  0.40770825  1
  Ta  Ta136  1  0.18851692  0.20592562  0.59722995  1
  Ta  Ta137  1  0.30124234  0.31073029  0.30452601  1
  Ta  Ta138  1  -0.00534949  0.78762586  0.40468491  1
  Ta  Ta139  1  0.58671108  0.39635448  -0.00491667  1
  Ta  Ta140  1  0.09507633  0.10518258  0.30796126  1
  Ta  Ta141  1  0.89964400  0.70466277  0.69188464  1
  Ta  Ta142  1  0.60315063  0.00019577  0.79856254  1
  Ta  Ta143  1  0.80562580  -0.00698506  0.40238191  1
  Ta  Ta144  1  0.89400387  0.29713000  0.48893655  1
  Ta  Ta145  1  0.10062856  0.70084910  0.30752976  1
  Ta  Ta146  1  0.70807000  0.50127317  0.30383571  1
  Ta  Ta147  1  0.40075142  0.00565100  -0.00731729  1
  Ta  Ta148  1  -0.00013234  0.79712154  0.00628237  1
  Ta  Ta149  1  0.50334530  0.70229021  0.69771039  1
  Ti  Ti150  1  0.00471362  0.40394101  0.79188202  1
  Ti  Ti151  1  0.39753081  0.40592245  0.00554783  1
  Ti  Ti152  1  -0.00329435  -0.00241880  0.40869927  1
  Ti  Ti153  1  -0.00360621  0.20332350  0.20344185  1
  Ti  Ti154  1  0.29177294  0.89614212  0.50242852  1
  Ti  Ti155  1  0.61326092  0.78903692  0.20215788  1
  Ti  Ti156  1  0.69232191  0.29934573  0.88895379  1
  Ti  Ti157  1  0.10416017  0.10172590  0.70416020  1
  Ti  Ti158  1  0.49163008  0.70042806  0.10995369  1
  Ti  Ti159  1  0.39661362  0.59654472  0.19812800  1
  Ti  Ti160  1  0.00490768  0.20370395  0.40937054  1
  Ti  Ti161  1  0.80488794  0.40380531  0.79995305  1
  Ti  Ti162  1  0.90076367  0.89533503  0.30594293  1
  Ti  Ti163  1  0.80130499  0.19758631  -0.00530022  1
  Ti  Ti164  1  0.10853709  0.50182141  0.30301581  1
  Ti  Ti165  1  0.28696853  0.10482630  0.31323235  1
  Ti  Ti166  1  0.09262912  0.87870076  0.50273328  1
  Ti  Ti167  1  0.19216996  0.80197156  0.60252084  1
  Ti  Ti168  1  0.19103672  0.79692806  0.01059609  1
  Ti  Ti169  1  0.20854259  0.60632024  0.20755715  1
  Ti  Ti170  1  0.60242150  0.79897767  0.79312703  1
  Ti  Ti171  1  0.70397322  0.30646174  0.09562837  1
  Ti  Ti172  1  0.29920348  0.70091066  0.10741546  1
  Ti  Ti173  1  0.40165738  -0.00230515  0.40553009  1
  Ti  Ti174  1  -0.00012412  0.20006478  0.79690960  1
  Ti  Ti175  1  0.40017665  0.79571725  0.00733239  1
  Ti  Ti176  1  0.39135338  0.59735231  0.79441118  1
  Ti  Ti177  1  0.00526193  0.39375832  0.59660809  1
  Ti  Ti178  1  0.09339118  0.69914601  0.90335753  1
  Ti  Ti179  1  0.80801337  0.19598872  0.80389025  1
  Ti  Ti180  1  0.40081235  -0.00346370  0.59460352  1
  Ti  Ti181  1  0.30138342  0.49460477  0.69291662  1
  Ti  Ti182  1  0.29700132  0.10049272  0.89403065  1
  Ti  Ti183  1  0.59372139  0.60139273  0.79280554  1
  Ti  Ti184  1  0.59561395  0.60291320  0.58764345  1
  Ti  Ti185  1  0.80065702  0.79512456  0.39508578  1
  Ti  Ti186  1  0.29687798  0.49691993  0.51044569  1
  Ti  Ti187  1  0.30777013  0.70894807  0.69876259  1
  Ti  Ti188  1  0.49865052  0.30222496  0.70519793  1
  Ti  Ti189  1  0.19784852  0.20774375  0.79243595  1
  Ti  Ti190  1  0.38940722  0.78903308  0.21192802  1
  Ti  Ti191  1  0.51317814  0.89315365  0.49585582  1
  Ti  Ti192  1  0.90714723  0.69328413  0.10344007  1
  Ti  Ti193  1  0.81013669  0.59723422  0.39242617  1
  Ti  Ti194  1  0.50181080  0.10468485  0.89523460  1
  Ti  Ti195  1  0.60656202  -0.00347519  0.40355135  1
  Ti  Ti196  1  0.70614418  0.88730312  0.50187668  1
  Ti  Ti197  1  0.08401582  0.71399661  0.69407972  1
  Ti  Ti198  1  -0.00293838  0.79927966  0.19872881  1
  Ti  Ti199  1  0.89627678  0.89293267  0.50165136  1
  Mo  Mo200  1  0.30015147  0.49983765  0.11962818  1
  Mo  Mo201  1  0.09925869  0.88241891  0.10378737  1
  Mo  Mo202  1  0.79902674  0.40098997  0.20629322  1
  Mo  Mo203  1  0.50875623  0.51444004  0.50056363  1
  Mo  Mo204  1  0.70015990  0.30023196  0.48739701  1
  Mo  Mo205  1  0.10142988  0.29985176  0.70296140  1
  Mo  Mo206  1  0.71170724  0.69993218  0.30262988  1
  Mo  Mo207  1  0.79926814  0.19770300  0.39924639  1
  Mo  Mo208  1  0.49806075  0.28502645  0.49805163  1
  Mo  Mo209  1  -0.00152513  0.80082529  0.59547140  1
  Mo  Mo210  1  0.49555375  0.30087269  0.90417962  1
  Mo  Mo211  1  0.19694466  0.20415064  0.40282760  1
  Mo  Mo212  1  0.89658499  0.10316272  0.89554853  1
  Mo  Mo213  1  0.00644364  0.60942059  -0.00224950  1
  Mo  Mo214  1  0.58879242  0.39662806  0.80652661  1
  Mo  Mo215  1  0.39758851  0.79884466  0.79006227  1
  Mo  Mo216  1  0.70987986  0.09753968  0.09904482  1
  Mo  Mo217  1  0.48861161  0.49398984  0.09725003  1
  Mo  Mo218  1  0.90314020  0.70459105  0.30631719  1
  Mo  Mo219  1  0.20520982  0.40378079  0.20920659  1
  Mo  Mo220  1  0.79482582  0.59509424  0.59068464  1
  Mo  Mo221  1  0.80071907  0.40342930  0.40167540  1
  Mo  Mo222  1  0.00002974  0.79529602  0.79828636  1
  Mo  Mo223  1  0.61142497  0.79953773  0.40466747  1
  Mo  Mo224  1  0.92066416  0.70407078  0.89269496  1
  Mo  Mo225  1  0.91047613  0.49516776  0.88024859  1
  Mo  Mo226  1  0.60876907  0.60149937  0.40067335  1
  Mo  Mo227  1  0.10049710  0.89574904  0.69332873  1
  Mo  Mo228  1  0.30586612  0.30244558  0.10049614  1
  Mo  Mo229  1  0.00104700  0.60227272  0.39953209  1
  Mo  Mo230  1  0.39505533  0.39786991  0.18971981  1
  Mo  Mo231  1  0.79886111  0.80568918  0.59360444  1
  Mo  Mo232  1  0.80367396  0.60593068  0.21673799  1
  Mo  Mo233  1  0.10021602  0.70315629  0.50032859  1
  Mo  Mo234  1  0.09182987  0.11135523  0.49437103  1
  Mo  Mo235  1  0.60572409  0.40255534  0.40267066  1
  Mo  Mo236  1  0.19157609  0.79544578  0.40520885  1
  Mo  Mo237  1  0.09574501  0.49940659  0.69777451  1
  Mo  Mo238  1  0.20753904  0.00286659  0.79664127  1
  Mo  Mo239  1  0.89456594  0.49909100  0.49673650  1
  Mo  Mo240  1  0.29669416  0.69593847  0.29938564  1
  Mo  Mo241  1  0.61141877  0.00628065  0.20631757  1
  Mo  Mo242  1  0.09776193  0.30607157  0.50120551  1
  Mo  Mo243  1  0.90000329  0.89759529  0.10120754  1
  Mo  Mo244  1  0.88596082  0.49907479  0.30551646  1
  Mo  Mo245  1  0.60318219  0.79857074  0.59402748  1
  Mo  Mo246  1  0.51850935  0.70528234  0.50314127  1
  Mo  Mo247  1  0.59273591  0.20025830  0.80129589  1
  Mo  Mo248  1  0.39581359  0.39710709  0.60542599  1
  Mo  Mo249  1  0.30065231  0.51309132  0.88468466  1
