# generated using pymatgen
data_HfZrTaTiMo
_symmetry_space_group_name_H-M   'P 1'
_cell_length_a   16.89947648
_cell_length_b   16.88817211
_cell_length_c   16.88550765
_cell_angle_alpha   89.99061507
_cell_angle_beta   90.04652459
_cell_angle_gamma   89.99465965
_symmetry_Int_Tables_number   1
_chemical_formula_structural   HfZrTaTiMo
_chemical_formula_sum   'Hf50 Zr50 Ta50 Ti50 Mo50'
_cell_volume   4819.14360760
_cell_formula_units_Z   50
loop_
 _symmetry_equiv_pos_site_id
 _symmetry_equiv_pos_as_xyz
  1  'x, y, z'
loop_
 _atom_site_type_symbol
 _atom_site_label
 _atom_site_symmetry_multiplicity
 _atom_site_fract_x
 _atom_site_fract_y
 _atom_site_fract_z
 _atom_site_occupancy
  Hf  Hf0  1  -0.00295569  0.19419864  0.20583910  1
  Hf  Hf1  1  -0.00503320  0.60470652  -0.00560516  1
  Hf  Hf2  1  0.20184924  0.40114846  0.39394365  1
  Hf  Hf3  1  0.89764465  0.50201751  0.50175584  1
  Hf  Hf4  1  -0.00987770  0.40248846  0.80853982  1
  Hf  Hf5  1  0.40452226  0.19182174  0.39843293  1
  Hf  Hf6  1  0.09527369  0.71493058  0.10269490  1
  Hf  Hf7  1  0.70336401  0.90171908  0.31080935  1
  Hf  Hf8  1  0.60792957  0.60315400  0.19011475  1
  Hf  Hf9  1  0.50649711  0.30317542  0.29029773  1
  Hf  Hf10  1  0.29639835  0.28867181  0.29110469  1
  Hf  Hf11  1  0.50268556  0.29712388  0.70686470  1
  Hf  Hf12  1  0.80181033  0.60122398  -0.00262194  1
  Hf  Hf13  1  0.00165935  -0.00114199  0.81510918  1
  Hf  Hf14  1  0.29111472  0.89630436  0.50131286  1
  Hf  Hf15  1  0.68995932  0.70188443  0.49812331  1
  Hf  Hf16  1  0.19958462  0.59534999  0.19957028  1
  Hf  Hf17  1  0.60755011  0.80242292  0.19832023  1
  Hf  Hf18  1  0.50767143  0.90741372  0.08809014  1
  Hf  Hf19  1  0.60329051  0.40715255  0.41046120  1
  Hf  Hf20  1  0.69932219  0.71116136  0.90045443  1
  Hf  Hf21  1  0.10058273  0.29348927  0.71421925  1
  Hf  Hf22  1  0.89635629  0.09298232  0.49736322  1
  Hf  Hf23  1  0.69673150  0.30095236  0.89564026  1
  Hf  Hf24  1  0.40444745  0.79344281  0.80580974  1
  Hf  Hf25  1  0.50377220  0.29482574  0.51074404  1
  Hf  Hf26  1  -0.00351457  -0.00372107  -0.00112760  1
  Hf  Hf27  1  0.30407916  0.70092175  0.29659151  1
  Hf  Hf28  1  0.00982173  0.00407114  0.39878455  1
  Hf  Hf29  1  0.39705967  0.80701176  -0.00738120  1
  Hf  Hf30  1  0.80248022  0.40349046  -0.00498138  1
  Hf  Hf31  1  0.28687378  0.09211268  0.48815727  1
  Hf  Hf32  1  0.00465380  0.39553746  0.19646683  1
  Hf  Hf33  1  0.80113532  0.60267659  0.39532504  1
  Hf  Hf34  1  0.79612338  0.78373785  0.61627354  1
  Hf  Hf35  1  0.89440205  0.29656835  0.09909186  1
  Hf  Hf36  1  0.10213795  0.50455984  0.50339836  1
  Hf  Hf37  1  0.60438519  0.60230612  -0.00231444  1
  Hf  Hf38  1  0.29933687  0.90209744  0.70398802  1
  Hf  Hf39  1  0.89677303  0.50000081  0.29306751  1
  Hf  Hf40  1  0.79588219  0.60996116  0.79131071  1
  Hf  Hf41  1  0.78841799  0.39431851  0.59214430  1
  Hf  Hf42  1  0.39363231  -0.00583719  0.19186246  1
  Hf  Hf43  1  0.89510746  0.90082995  0.29323676  1
  Hf  Hf44  1  0.30028475  0.29452588  0.49955188  1
  Hf  Hf45  1  0.40127157  0.40035702  0.19451525  1
  Hf  Hf46  1  0.30485248  0.49859085  0.09032921  1
  Hf  Hf47  1  0.00045704  0.60719704  0.38829827  1
  Hf  Hf48  1  0.12071557  0.10029782  0.90421906  1
  Hf  Hf49  1  0.89399156  0.29201444  0.70565526  1
  Zr  Zr50  1  0.89908749  0.51205826  0.10887017  1
  Zr  Zr51  1  0.69624464  0.90362986  0.90543529  1
  Zr  Zr52  1  0.78927956  0.19980696  0.19864241  1
  Zr  Zr53  1  0.41581077  0.60557791  -0.01513519  1
  Zr  Zr54  1  0.10419990  0.89396681  0.50412508  1
  Zr  Zr55  1  -0.00148418  0.78380136  0.38323729  1
  Zr  Zr56  1  0.10455984  0.89002519  0.29331275  1
  Zr  Zr57  1  0.19187187  0.60256928  -0.00300658  1
  Zr  Zr58  1  0.10230340  0.72071132  0.88502407  1
  Zr  Zr59  1  0.30299667  0.50537679  0.70410629  1
  Zr  Zr60  1  0.11002959  0.10723650  0.09864243  1
  Zr  Zr61  1  0.10876169  0.70019055  0.50538126  1
  Zr  Zr62  1  0.59252328  0.59708052  0.60096811  1
  Zr  Zr63  1  0.00990541  0.00610610  0.60839380  1
  Zr  Zr64  1  0.80525422  0.79125743  0.39876967  1
  Zr  Zr65  1  0.40133766  0.40607580  0.39816799  1
  Zr  Zr66  1  0.79529452  0.20849310  0.40039122  1
  Zr  Zr67  1  0.50981408  0.88786331  0.50105202  1
  Zr  Zr68  1  0.19383895  0.19333232  0.59791241  1
  Zr  Zr69  1  -0.00034635  0.60737376  0.61079544  1
  Zr  Zr70  1  0.10497651  0.88492356  0.72128073  1
  Zr  Zr71  1  0.40664482  0.59389866  0.40263139  1
  Zr  Zr72  1  0.30679940  0.10325545  0.90012685  1
  Zr  Zr73  1  0.19701348  0.39012422  0.60278708  1
  Zr  Zr74  1  0.29401083  0.68820728  0.70518413  1
  Zr  Zr75  1  -0.00998805  0.19593555  -0.00161437  1
  Zr  Zr76  1  0.60220557  0.20120141  0.39697303  1
  Zr  Zr77  1  0.00719751  0.19626049  0.59443469  1
  Zr  Zr78  1  0.49877443  0.89610605  0.29943667  1
  Zr  Zr79  1  0.39941638  -0.00000673  0.59633198  1
  Zr  Zr80  1  0.30219058  0.70572623  0.09430421  1
  Zr  Zr81  1  0.89067392  0.49944276  0.69239984  1
  Zr  Zr82  1  0.89831726  0.89619848  0.71045729  1
  Zr  Zr83  1  0.29732044  0.51339336  0.51318775  1
  Zr  Zr84  1  0.00207652  0.00034384  0.19648127  1
  Zr  Zr85  1  0.00344424  0.39093574  0.40214932  1
  Zr  Zr86  1  0.60116692  0.00137416  0.60992271  1
  Zr  Zr87  1  0.50603486  0.30702000  0.89480104  1
  Zr  Zr88  1  0.10389242  0.29201765  0.90396121  1
  Zr  Zr89  1  0.69219680  0.09160504  0.09472937  1
  Zr  Zr90  1  0.29972079  0.10687014  0.09409507  1
  Zr  Zr91  1  0.30317365  0.50410138  0.89283237  1
  Zr  Zr92  1  0.49598040  0.10395104  0.71132820  1
  Zr  Zr93  1  0.90352605  0.89319512  0.50678611  1
  Zr  Zr94  1  0.39705957  0.79444216  0.40594858  1
  Zr  Zr95  1  0.79221987  0.20143946  0.59965925  1
  Zr  Zr96  1  0.69827625  0.09491509  0.50259442  1
  Zr  Zr97  1  0.40655230  0.59713839  0.19734363  1
  Zr  Zr98  1  -0.00803524  0.60430950  0.80369049  1
  Zr  Zr99  1  0.59192260  0.00493291  0.39959673  1
  Ta  Ta100  1  0.88796901  0.89285208  0.10103776  1
  Ta  Ta101  1  0.50004792  0.89669765  0.70640345  1
  Ta  Ta102  1  0.49952229  0.09921544  0.09401557  1
  Ta  Ta103  1  0.29679515  0.10075802  0.71188145  1
  Ta  Ta104  1  0.10061200  0.49635355  0.89821383  1
  Ta  Ta105  1  0.69242839  0.49659883  0.89309751  1
  Ta  Ta106  1  0.39466418  0.19653672  0.60488509  1
  Ta  Ta107  1  0.69460736  0.50194676  0.70242935  1
  Ta  Ta108  1  0.10885989  0.29706192  0.10061919  1
  Ta  Ta109  1  0.40337071  0.79007441  0.60286346  1
  Ta  Ta110  1  0.50724834  0.71062014  0.09634125  1
  Ta  Ta111  1  0.69503109  0.31108024  0.29262213  1
  Ta  Ta112  1  0.20333798  0.40109679  0.19537036  1
  Ta  Ta113  1  0.30541922  0.29967519  0.89879168  1
  Ta  Ta114  1  0.50588532  0.90524245  0.90072360  1
  Ta  Ta115  1  0.79620664  -0.00422202  0.60808382  1
  Ta  Ta116  1  0.87906688  0.10144823  0.89843708  1
  Ta  Ta117  1  0.20617764  -0.00581602  0.19688287  1
  Ta  Ta118  1  0.70279362  0.89477801  0.50429044  1
  Ta  Ta119  1  0.10642561  0.29206881  0.29560060  1
  Ta  Ta120  1  0.10070371  0.49832265  0.29442663  1
  Ta  Ta121  1  0.51115112  0.48971656  0.09257475  1
  Ta  Ta122  1  0.88810428  0.09291224  0.09935842  1
  Ta  Ta123  1  0.11841054  0.10271679  0.30223164  1
  Ta  Ta124  1  0.69711984  0.89558572  0.70607649  1
  Ta  Ta125  1  -0.00577980  0.81090823  -0.00302217  1
  Ta  Ta126  1  0.59802616  0.20438948  0.00319214  1
  Ta  Ta127  1  0.40869384  0.21002276  0.00281573  1
  Ta  Ta128  1  0.51647078  0.50167501  0.29490069  1
  Ta  Ta129  1  0.68911738  0.30028957  0.70571739  1
  Ta  Ta130  1  0.59614122  0.79641252  0.79870857  1
  Ta  Ta131  1  0.79369333  0.39857748  0.19818348  1
  Ta  Ta132  1  0.89155148  0.71811172  0.89900962  1
  Ta  Ta133  1  0.89140249  0.09915306  0.70926817  1
  Ta  Ta134  1  0.30893487  0.29373574  0.71224280  1
  Ta  Ta135  1  0.20250571  0.39842649  0.80475314  1
  Ta  Ta136  1  0.10521018  0.50160251  0.70566536  1
  Ta  Ta137  1  0.88824648  0.09433962  0.30414639  1
  Ta  Ta138  1  0.51248791  0.69975246  0.30276550  1
  Ta  Ta139  1  0.79377208  0.39805672  0.39927465  1
  Ta  Ta140  1  0.70072975  0.50262628  0.29558275  1
  Ta  Ta141  1  0.79686965  0.40285763  0.80114144  1
  Ta  Ta142  1  -0.00163563  0.40323959  -0.00286261  1
  Ta  Ta143  1  0.59847604  0.40431913  0.60198924  1
  Ta  Ta144  1  0.20080514  0.39799514  0.00050042  1
  Ta  Ta145  1  0.29838804  0.09999654  0.29477449  1
  Ta  Ta146  1  0.40699465  0.40409075  0.60327281  1
  Ta  Ta147  1  0.89692704  0.29890469  0.30028388  1
  Ta  Ta148  1  0.00476368  0.39064350  0.59924876  1
  Ta  Ta149  1  0.49708940  0.10297048  0.28136961  1
  Ti  Ti150  1  0.59770284  0.79488337  0.61204551  1
  Ti  Ti151  1  0.70107815  0.89866772  0.09262638  1
  Ti  Ti152  1  0.49736638  0.50279081  0.70573548  1
  Ti  Ti153  1  0.20592216  -0.01433047  0.00644168  1
  Ti  Ti154  1  0.70052305  0.10542798  0.70630782  1
  Ti  Ti155  1  0.60105388  0.00048174  0.20057168  1
  Ti  Ti156  1  0.90024919  0.69718075  0.51434304  1
  Ti  Ti157  1  0.40776271  0.39649709  -0.00095650  1
  Ti  Ti158  1  0.70066528  0.09535115  0.30083206  1
  Ti  Ti159  1  0.40431440  -0.00265527  0.80552725  1
  Ti  Ti160  1  0.60473342  0.18757290  0.80980787  1
  Ti  Ti161  1  0.20051791  0.59897772  0.38771724  1
  Ti  Ti162  1  0.00856393  0.61064158  0.20171311  1
  Ti  Ti163  1  0.90261201  0.29815474  0.49754945  1
  Ti  Ti164  1  0.40050068  0.80419072  0.19492579  1
  Ti  Ti165  1  0.00734862  0.19668208  0.40034553  1
  Ti  Ti166  1  0.11075240  0.10062893  0.72139343  1
  Ti  Ti167  1  0.71576964  0.71276211  0.09752887  1
  Ti  Ti168  1  -0.00747166  0.18979642  0.80679056  1
  Ti  Ti169  1  0.60007244  0.20778612  0.18764390  1
  Ti  Ti170  1  0.29421701  0.69330774  0.88990062  1
  Ti  Ti171  1  0.40462496  0.20599596  0.18649677  1
  Ti  Ti172  1  0.78743809  0.19807143  -0.00080102  1
  Ti  Ti173  1  0.40215814  0.00258492  0.39575575  1
  Ti  Ti174  1  0.89029264  0.29141183  0.89691175  1
  Ti  Ti175  1  0.69829451  0.49062707  0.09981743  1
  Ti  Ti176  1  0.59069377  0.60347168  0.80490625  1
  Ti  Ti177  1  0.29670517  0.69309273  0.51005602  1
  Ti  Ti178  1  0.29678097  0.90979919  0.89557411  1
  Ti  Ti179  1  0.49464491  0.69443437  0.70217511  1
  Ti  Ti180  1  0.50038879  0.09422715  0.90928802  1
  Ti  Ti181  1  0.21052251  0.80643556  0.19483382  1
  Ti  Ti182  1  0.79698885  0.00159146  -0.00169657  1
  Ti  Ti183  1  0.88536485  0.89815968  0.90084308  1
  Ti  Ti184  1  0.20258440  0.81142675  -0.00581376  1
  Ti  Ti185  1  0.09750096  0.49734051  0.09577062  1
  Ti  Ti186  1  0.19901931  0.79093697  0.61239558  1
  Ti  Ti187  1  0.70062614  0.51108850  0.50130596  1
  Ti  Ti188  1  0.19226155  0.00463199  0.60589396  1
  Ti  Ti189  1  0.78967276  0.00470770  0.80068657  1
  Ti  Ti190  1  0.79285703  -0.00213975  0.19852620  1
  Ti  Ti191  1  0.60157882  0.00200116  0.80405775  1
  Ti  Ti192  1  0.50173190  0.10508687  0.50978324  1
  Ti  Ti193  1  0.69865064  0.69812600  0.29896077  1
  Ti  Ti194  1  0.20039936  0.79108509  0.39368622  1
  Ti  Ti195  1  0.88554208  0.69936432  0.26446707  1
  Ti  Ti196  1  0.29683461  0.90342770  0.30545773  1
  Ti  Ti197  1  0.09925928  0.89544562  0.09965649  1
  Ti  Ti198  1  0.40593301  0.40728872  0.80223639  1
  Ti  Ti199  1  0.50456522  0.69523962  0.49535710  1
  Mo  Mo200  1  0.60355806  0.79326933  0.39866235  1
  Mo  Mo201  1  0.80145320  -0.00260279  0.40661700  1
  Mo  Mo202  1  0.21869653  0.80415403  0.80986428  1
  Mo  Mo203  1  0.29936084  0.90003311  0.09645680  1
  Mo  Mo204  1  0.60177874  0.41155472  0.79478520  1
  Mo  Mo205  1  0.40378002  0.00173093  -0.00589216  1
  Mo  Mo206  1  0.20374888  -0.00058847  0.80404999  1
  Mo  Mo207  1  0.50332843  0.29980494  0.09540729  1
  Mo  Mo208  1  0.00044436  0.78836599  0.61814052  1
  Mo  Mo209  1  0.79179809  0.60044899  0.59929911  1
  Mo  Mo210  1  0.79316923  0.80143949  0.19646672  1
  Mo  Mo211  1  0.18473087  0.59686251  0.80076998  1
  Mo  Mo212  1  0.59845739  0.20407786  0.61026589  1
  Mo  Mo213  1  0.19818429  0.19948832  0.39694053  1
  Mo  Mo214  1  0.60048223  0.80138471  0.00160824  1
  Mo  Mo215  1  0.69278180  0.30675652  0.50333982  1
  Mo  Mo216  1  0.68544725  0.69847820  0.70377945  1
  Mo  Mo217  1  0.60415621  0.40330460  0.19381661  1
  Mo  Mo218  1  0.09719087  0.29463550  0.48914550  1
  Mo  Mo219  1  0.19407251  0.60348142  0.60897549  1
  Mo  Mo220  1  0.29480272  0.49878800  0.29323149  1
  Mo  Mo221  1  0.78776198  0.60025249  0.19508097  1
  Mo  Mo222  1  0.90113154  0.70786630  0.09648154  1
  Mo  Mo223  1  0.89435691  0.49834330  0.90081755  1
  Mo  Mo224  1  0.80010287  0.80513051  0.00350281  1
  Mo  Mo225  1  0.59811692  0.00672328  -0.00476570  1
  Mo  Mo226  1  0.79070889  0.80280827  0.80056913  1
  Mo  Mo227  1  0.20464775  -0.00436187  0.38944662  1
  Mo  Mo228  1  0.30337822  0.30442810  0.09355469  1
  Mo  Mo229  1  -0.00853684  0.79833994  0.18803270  1
  Mo  Mo230  1  0.41936633  0.60161888  0.80018480  1
  Mo  Mo231  1  0.20980318  0.20276913  0.80200173  1
  Mo  Mo232  1  0.50886621  0.70827734  0.90225881  1
  Mo  Mo233  1  0.50635732  0.49749677  0.89714157  1
  Mo  Mo234  1  0.90309108  0.70614339  0.70696491  1
  Mo  Mo235  1  0.60210056  0.59823098  0.39474116  1
  Mo  Mo236  1  0.10266640  0.09707577  0.48659349  1
  Mo  Mo237  1  0.69569056  0.30369711  0.09509504  1
  Mo  Mo238  1  0.69630023  0.10146866  0.90076674  1
  Mo  Mo239  1  0.10063029  0.70348026  0.70503973  1
  Mo  Mo240  1  0.20314998  0.20215452  0.19791927  1
  Mo  Mo241  1  0.49942943  0.49943450  0.50500344  1
  Mo  Mo242  1  0.21471147  0.21654129  0.00287637  1
  Mo  Mo243  1  0.79319699  0.20020947  0.80003855  1
  Mo  Mo244  1  -0.01449130  0.80632946  0.80936780  1
  Mo  Mo245  1  0.10877459  0.90287616  0.91001617  1
  Mo  Mo246  1  0.40840124  0.60345074  0.60013068  1
  Mo  Mo247  1  0.11164674  0.69660468  0.29130745  1
  Mo  Mo248  1  0.40349305  0.19777618  0.80583900  1
  Mo  Mo249  1  0.60515944  0.40175329  -0.00007554  1
