# generated using pymatgen
data_HfZrTaTiMo
_symmetry_space_group_name_H-M   'P 1'
_cell_length_a   16.88301946
_cell_length_b   16.89034572
_cell_length_c   16.89102914
_cell_angle_alpha   89.94203088
_cell_angle_beta   89.99192819
_cell_angle_gamma   89.99322602
_symmetry_Int_Tables_number   1
_chemical_formula_structural   HfZrTaTiMo
_chemical_formula_sum   'Hf50 Zr50 Ta50 Ti50 Mo50'
_cell_volume   4816.64392161
_cell_formula_units_Z   50
loop_
 _symmetry_equiv_pos_site_id
 _symmetry_equiv_pos_as_xyz
  1  'x, y, z'
loop_
 _atom_site_type_symbol
 _atom_site_label
 _atom_site_symmetry_multiplicity
 _atom_site_fract_x
 _atom_site_fract_y
 _atom_site_fract_z
 _atom_site_occupancy
  Hf  Hf0  1  0.61104977  0.20017252  0.20802814  1
  Hf  Hf1  1  0.30569934  0.71088480  0.11492816  1
  Hf  Hf2  1  0.29610184  0.30161474  0.69611741  1
  Hf  Hf3  1  0.10388817  0.30235057  0.70131618  1
  Hf  Hf4  1  0.69763813  0.90310960  0.69758951  1
  Hf  Hf5  1  0.39343436  0.20207454  0.80495603  1
  Hf  Hf6  1  0.50240878  0.30613292  0.69819178  1
  Hf  Hf7  1  0.40167207  0.20167760  0.59281283  1
  Hf  Hf8  1  0.29097028  0.89566488  0.91006327  1
  Hf  Hf9  1  0.49048224  0.71756418  0.28607900  1
  Hf  Hf10  1  -0.00742895  0.80401163  0.20761841  1
  Hf  Hf11  1  0.39946729  0.40333818  0.39815827  1
  Hf  Hf12  1  0.60023407  0.00668206  0.40332590  1
  Hf  Hf13  1  0.80697045  -0.00171009  0.59761852  1
  Hf  Hf14  1  0.59734355  0.00155763  0.00778043  1
  Hf  Hf15  1  0.60483129  0.20078730  0.00806721  1
  Hf  Hf16  1  -0.00104070  0.19611757  0.00847509  1
  Hf  Hf17  1  0.91264520  0.08518053  0.29157938  1
  Hf  Hf18  1  0.20704537  0.60207466  0.00570429  1
  Hf  Hf19  1  0.10688921  0.30095814  0.89954973  1
  Hf  Hf20  1  0.40018506  -0.00074327  0.00678422  1
  Hf  Hf21  1  0.89987452  0.29345637  0.69521017  1
  Hf  Hf22  1  -0.00208021  0.80499113  0.59670447  1
  Hf  Hf23  1  0.00617091  0.19536511  0.58764885  1
  Hf  Hf24  1  0.10137126  0.70999294  0.10020950  1
  Hf  Hf25  1  0.01211433  0.18963072  0.39807047  1
  Hf  Hf26  1  0.18913404  0.00018243  0.20482112  1
  Hf  Hf27  1  -0.00419660  0.58921566  0.59377244  1
  Hf  Hf28  1  0.90222999  0.89503289  0.91411486  1
  Hf  Hf29  1  0.59083615  0.59709928  0.19931574  1
  Hf  Hf30  1  0.90006654  0.90177888  0.49027176  1
  Hf  Hf31  1  0.79883345  0.79793436  0.39362201  1
  Hf  Hf32  1  0.89504546  0.70419251  0.68964573  1
  Hf  Hf33  1  0.29416741  0.69869018  0.49431325  1
  Hf  Hf34  1  0.79907003  0.40698280  0.79641088  1
  Hf  Hf35  1  0.10111482  0.89629211  0.91068153  1
  Hf  Hf36  1  0.31171767  0.49803524  0.90898453  1
  Hf  Hf37  1  0.50333185  0.10560192  0.30035747  1
  Hf  Hf38  1  0.80170606  0.60156054  0.79487524  1
  Hf  Hf39  1  0.80130301  0.41000028  0.59500950  1
  Hf  Hf40  1  0.40285440  0.80517512  0.59972095  1
  Hf  Hf41  1  0.09243535  0.68860053  0.30616891  1
  Hf  Hf42  1  0.29501251  0.90175641  0.49632527  1
  Hf  Hf43  1  0.29321292  0.10626784  0.30315866  1
  Hf  Hf44  1  0.59687154  0.60467478  0.00715203  1
  Hf  Hf45  1  0.00023999  0.40585488  0.58863451  1
  Hf  Hf46  1  0.58980126  0.59462587  0.39728007  1
  Hf  Hf47  1  0.90554130  0.69876332  0.09139004  1
  Hf  Hf48  1  0.69010849  0.70108859  0.30562089  1
  Hf  Hf49  1  0.10943583  0.50086103  0.90123932  1
  Zr  Zr50  1  0.70216850  0.90361885  0.90191705  1
  Zr  Zr51  1  0.19158226  0.81557895  0.21906399  1
  Zr  Zr52  1  0.48981968  0.47971362  0.09913868  1
  Zr  Zr53  1  0.59519817  0.79845062  0.59536556  1
  Zr  Zr54  1  0.10357009  0.10633137  0.70292641  1
  Zr  Zr55  1  0.59529680  0.78722971  0.79084470  1
  Zr  Zr56  1  0.39718973  0.79852956  0.78931449  1
  Zr  Zr57  1  0.39266645  -0.00313165  0.20777335  1
  Zr  Zr58  1  -0.00765104  -0.00244522  0.79812460  1
  Zr  Zr59  1  -0.00785086  0.41210118  0.79496513  1
  Zr  Zr60  1  0.80265031  0.80035095  0.79682583  1
  Zr  Zr61  1  0.89626301  0.69525440  0.48897378  1
  Zr  Zr62  1  0.89603727  0.29041064  0.90148946  1
  Zr  Zr63  1  0.89031856  0.29305578  0.49437533  1
  Zr  Zr64  1  0.29280323  0.30302914  0.10896371  1
  Zr  Zr65  1  0.60946791  0.39162371  0.00021287  1
  Zr  Zr66  1  0.20522862  -0.00395315  0.79767064  1
  Zr  Zr67  1  0.70134525  0.09990347  0.69848350  1
  Zr  Zr68  1  0.39761149  0.19683315  0.00320436  1
  Zr  Zr69  1  0.50431084  0.90836034  0.88728395  1
  Zr  Zr70  1  0.11269356  0.49996505  0.69828188  1
  Zr  Zr71  1  0.79921274  0.39042887  0.00333685  1
  Zr  Zr72  1  0.70730662  0.09864396  0.90452005  1
  Zr  Zr73  1  0.39872689  0.58621894  0.20890915  1
  Zr  Zr74  1  0.59336703  0.81006431  0.40633612  1
  Zr  Zr75  1  0.29857092  0.10347531  0.49344406  1
  Zr  Zr76  1  0.90174225  0.49963169  0.30175998  1
  Zr  Zr77  1  0.10207193  0.30990739  0.29211521  1
  Zr  Zr78  1  0.10624669  0.69677800  0.69615565  1
  Zr  Zr79  1  0.19782313  0.59372292  0.20491872  1
  Zr  Zr80  1  0.90280934  0.30364986  0.29998908  1
  Zr  Zr81  1  0.10068322  0.89305796  0.70225929  1
  Zr  Zr82  1  0.49991765  0.09205334  0.70595489  1
  Zr  Zr83  1  0.40778936  0.79533632  0.00339495  1
  Zr  Zr84  1  0.80625419  0.61513604  0.21129897  1
  Zr  Zr85  1  0.59761394  0.79394230  0.00395156  1
  Zr  Zr86  1  0.60566328  0.40290028  0.79964432  1
  Zr  Zr87  1  0.39526584  0.59085978  0.39334806  1
  Zr  Zr88  1  0.90490691  0.50019126  0.11088328  1
  Zr  Zr89  1  0.19565895  -0.00078194  0.59582300  1
  Zr  Zr90  1  0.71150630  0.50012764  0.10733657  1
  Zr  Zr91  1  0.60514196  0.40406250  0.58985956  1
  Zr  Zr92  1  0.29330723  0.29509492  0.30638803  1
  Zr  Zr93  1  0.60160393  0.20434794  0.80554546  1
  Zr  Zr94  1  0.89351497  0.51601638  0.91677592  1
  Zr  Zr95  1  0.60113345  0.19930498  0.58598139  1
  Zr  Zr96  1  0.80405385  0.80486643  0.20566371  1
  Zr  Zr97  1  0.49979029  0.50072417  0.89725848  1
  Zr  Zr98  1  0.00754857  0.39596166  0.00845670  1
  Zr  Zr99  1  0.10743081  0.70937055  0.90001510  1
  Ta  Ta100  1  0.18570497  0.00328561  0.39377819  1
  Ta  Ta101  1  0.79233003  0.60025202  0.59108209  1
  Ta  Ta102  1  -0.00020967  0.19353042  0.80424476  1
  Ta  Ta103  1  0.90427742  0.29416175  0.11595808  1
  Ta  Ta104  1  0.71058796  0.29607173  0.69024399  1
  Ta  Ta105  1  0.09518729  0.90048975  0.09018306  1
  Ta  Ta106  1  0.49852430  0.09772806  0.89927727  1
  Ta  Ta107  1  0.49150588  0.30456026  0.90661895  1
  Ta  Ta108  1  0.10392568  0.09742381  0.90702153  1
  Ta  Ta109  1  0.29605873  0.70961930  0.30733131  1
  Ta  Ta110  1  0.29280977  0.09788567  0.90608461  1
  Ta  Ta111  1  0.69816373  0.91328423  0.29258472  1
  Ta  Ta112  1  0.28996740  0.89965305  0.10040490  1
  Ta  Ta113  1  0.20216794  0.20409242  0.58900584  1
  Ta  Ta114  1  0.30139030  0.69272007  0.69054851  1
  Ta  Ta115  1  0.90019251  0.90676076  0.10139630  1
  Ta  Ta116  1  0.49748430  0.68639879  0.89036989  1
  Ta  Ta117  1  0.49969336  0.30141285  0.29764150  1
  Ta  Ta118  1  -0.00243917  0.00418006  0.59291160  1
  Ta  Ta119  1  0.59429979  0.60313527  0.59824870  1
  Ta  Ta120  1  0.50425647  0.89425753  0.11869806  1
  Ta  Ta121  1  0.70528568  0.09199914  0.11316167  1
  Ta  Ta122  1  0.21489254  0.59998955  0.79900000  1
  Ta  Ta123  1  0.49552168  0.29755791  0.10814104  1
  Ta  Ta124  1  0.10407160  0.69918751  0.49382567  1
  Ta  Ta125  1  0.80888033  -0.00071202  0.79590639  1
  Ta  Ta126  1  0.50027114  0.30195026  0.49067056  1
  Ta  Ta127  1  0.60424695  0.39680747  0.39823301  1
  Ta  Ta128  1  0.21293843  0.40314434  0.80298563  1
  Ta  Ta129  1  0.70436759  0.49460088  0.30081065  1
  Ta  Ta130  1  0.39777858  0.81089884  0.39863448  1
  Ta  Ta131  1  0.59472148  0.00031504  0.58584330  1
  Ta  Ta132  1  0.70088347  0.90442098  0.10829909  1
  Ta  Ta133  1  -0.00738495  0.79735353  0.80044270  1
  Ta  Ta134  1  0.90025937  0.10402722  0.69340632  1
  Ta  Ta135  1  0.19375116  0.19930557  0.00612355  1
  Ta  Ta136  1  0.40603181  -0.00230911  0.40282201  1
  Ta  Ta137  1  0.80390106  0.19057316  0.20639894  1
  Ta  Ta138  1  0.70992337  0.10157551  0.49759389  1
  Ta  Ta139  1  0.00984143  0.41114585  0.40689762  1
  Ta  Ta140  1  0.69410682  0.50905304  0.69724716  1
  Ta  Ta141  1  0.29928313  0.48475624  0.09853892  1
  Ta  Ta142  1  -0.00312230  0.60387346  0.80013720  1
  Ta  Ta143  1  0.01213003  0.60082854  0.00291747  1
  Ta  Ta144  1  0.50272987  0.09877602  0.10953098  1
  Ta  Ta145  1  0.39912198  0.40265737  0.79472302  1
  Ta  Ta146  1  0.49182894  0.69785064  0.49721421  1
  Ta  Ta147  1  0.29000425  0.09799288  0.10027556  1
  Ta  Ta148  1  0.39980502  0.40440731  0.59485631  1
  Ta  Ta149  1  0.30038591  0.10038821  0.69801934  1
  Ti  Ti150  1  0.40555217  0.59639315  0.78409258  1
  Ti  Ti151  1  0.50334299  0.91279510  0.69934007  1
  Ti  Ti152  1  0.89741131  0.10110125  0.90367330  1
  Ti  Ti153  1  0.60487917  0.39380555  0.20608419  1
  Ti  Ti154  1  0.21243861  0.79636781  0.79091204  1
  Ti  Ti155  1  0.06608922  0.92657797  0.30311455  1
  Ti  Ti156  1  0.19143151  0.81049610  0.39521679  1
  Ti  Ti157  1  0.79875028  0.18992079  0.39602780  1
  Ti  Ti158  1  0.09550250  0.89983495  0.49330610  1
  Ti  Ti159  1  0.40498498  0.60657578  0.01303562  1
  Ti  Ti160  1  0.80527124  0.19392257  0.79529051  1
  Ti  Ti161  1  0.39947269  0.19800003  0.19925118  1
  Ti  Ti162  1  0.69897163  0.69701630  0.68869281  1
  Ti  Ti163  1  0.30311874  0.49932427  0.69449012  1
  Ti  Ti164  1  0.80522392  0.00726008  0.01030404  1
  Ti  Ti165  1  0.50430912  0.90318511  0.29535498  1
  Ti  Ti166  1  0.79473876  0.79554130  0.00464622  1
  Ti  Ti167  1  -0.00270496  0.80161313  0.39354671  1
  Ti  Ti168  1  0.71389296  0.29390353  0.11100888  1
  Ti  Ti169  1  0.38955894  -0.00115808  0.79694526  1
  Ti  Ti170  1  0.80078344  0.00345085  0.39366552  1
  Ti  Ti171  1  0.71004321  0.30322813  0.30444758  1
  Ti  Ti172  1  0.20216944  0.80105578  0.59946427  1
  Ti  Ti173  1  0.60947144  0.20417328  0.40041558  1
  Ti  Ti174  1  0.40512275  0.59474110  0.60026299  1
  Ti  Ti175  1  0.10353624  0.48891636  0.11128453  1
  Ti  Ti176  1  0.29505484  0.49617566  0.49891106  1
  Ti  Ti177  1  0.49942943  0.49844982  0.50038071  1
  Ti  Ti178  1  0.20120698  0.59617417  0.59306960  1
  Ti  Ti179  1  0.09249939  0.09604502  0.10543243  1
  Ti  Ti180  1  0.40495807  0.20205653  0.40504057  1
  Ti  Ti181  1  0.11589001  0.30339746  0.48837213  1
  Ti  Ti182  1  0.00119463  0.58927079  0.40513845  1
  Ti  Ti183  1  0.69680527  0.70599896  0.10788708  1
  Ti  Ti184  1  0.70044248  0.51070541  0.49186855  1
  Ti  Ti185  1  0.69802850  0.69329613  0.89796777  1
  Ti  Ti186  1  0.29789682  0.30665187  0.90941906  1
  Ti  Ti187  1  0.79569554  0.40501621  0.40622885  1
  Ti  Ti188  1  0.20480670  0.19952055  0.80588841  1
  Ti  Ti189  1  0.69964740  0.51329590  0.90076810  1
  Ti  Ti190  1  0.20531273  0.39947946  0.58831687  1
  Ti  Ti191  1  0.40461731  -0.00012102  0.59369788  1
  Ti  Ti192  1  0.30671738  0.69707289  0.89860024  1
  Ti  Ti193  1  0.71062603  0.28982176  0.89887313  1
  Ti  Ti194  1  0.19474103  0.58382925  0.39840060  1
  Ti  Ti195  1  0.70638396  0.89966800  0.49947035  1
  Ti  Ti196  1  0.18362830  0.19531555  0.19742065  1
  Ti  Ti197  1  0.90353902  0.70088324  0.90771378  1
  Ti  Ti198  1  0.28303127  0.47982839  0.29270367  1
  Ti  Ti199  1  -0.00339680  0.00695729  0.00618996  1
  Mo  Mo200  1  0.79064717  0.59724804  0.40163675  1
  Mo  Mo201  1  0.49712628  0.50060101  0.69286220  1
  Mo  Mo202  1  0.20091698  0.40556650  0.40460022  1
  Mo  Mo203  1  0.49769100  0.70542315  0.10218576  1
  Mo  Mo204  1  0.79123895  0.79847697  0.59066645  1
  Mo  Mo205  1  0.29972534  0.90590494  0.30984756  1
  Mo  Mo206  1  0.00477561  0.59761634  0.19809902  1
  Mo  Mo207  1  0.89834691  0.09655031  0.49541140  1
  Mo  Mo208  1  -0.00366824  0.80002853  0.00075439  1
  Mo  Mo209  1  0.78856435  0.61894402  -0.00164297  1
  Mo  Mo210  1  0.19596281  0.00540797  0.00781979  1
  Mo  Mo211  1  0.39797885  0.39122093  0.20615446  1
  Mo  Mo212  1  0.30146990  0.30442168  0.50041147  1
  Mo  Mo213  1  0.80152455  -0.00165718  0.20083181  1
  Mo  Mo214  1  0.49361896  0.90592339  0.50000001  1
  Mo  Mo215  1  0.89547310  0.09964874  0.09961120  1
  Mo  Mo216  1  0.30452526  0.90033476  0.69332112  1
  Mo  Mo217  1  0.39206281  0.81221663  0.20763333  1
  Mo  Mo218  1  0.09576818  0.49890451  0.30035697  1
  Mo  Mo219  1  0.20236407  0.39743214  0.00119337  1
  Mo  Mo220  1  0.19533735  0.19937051  0.40339899  1
  Mo  Mo221  1  0.19523398  0.39906937  0.19704206  1
  Mo  Mo222  1  0.60340433  0.00267050  0.79863160  1
  Mo  Mo223  1  0.60183825  0.00339987  0.20459539  1
  Mo  Mo224  1  0.69500904  0.69566381  0.50069285  1
  Mo  Mo225  1  0.90981762  0.69528376  0.30593410  1
  Mo  Mo226  1  0.39903286  0.38962988  -0.00078719  1
  Mo  Mo227  1  0.20636211  0.79956866  0.00407685  1
  Mo  Mo228  1  0.70119631  0.29391649  0.48964616  1
  Mo  Mo229  1  0.10366726  0.09878011  0.49665824  1
  Mo  Mo230  1  -0.00241821  -0.00032541  0.18384426  1
  Mo  Mo231  1  0.51268790  0.48002175  0.29764121  1
  Mo  Mo232  1  0.89017285  0.51074200  0.69524671  1
  Mo  Mo233  1  0.80216437  0.19368828  0.01568204  1
  Mo  Mo234  1  0.00385209  0.40057657  0.20234481  1
  Mo  Mo235  1  -0.00055285  0.00410435  0.41500725  1
  Mo  Mo236  1  0.49393110  0.68577265  0.69299390  1
  Mo  Mo237  1  0.00256803  0.19639070  0.19710164  1
  Mo  Mo238  1  0.89926133  0.90138295  0.69524049  1
  Mo  Mo239  1  0.11072456  0.50270513  0.49702966  1
  Mo  Mo240  1  0.09870049  0.10105396  0.29643463  1
  Mo  Mo241  1  0.79746176  0.38757353  0.20802774  1
  Mo  Mo242  1  0.89657314  0.90587730  0.30122502  1
  Mo  Mo243  1  0.89168722  0.50024158  0.49299070  1
  Mo  Mo244  1  0.70791477  0.10090655  0.30589868  1
  Mo  Mo245  1  0.50128704  0.10330756  0.49220205  1
  Mo  Mo246  1  0.60464073  0.80621172  0.20005879  1
  Mo  Mo247  1  0.09818845  0.29591381  0.10271500  1
  Mo  Mo248  1  0.60372707  0.60112124  0.79240589  1
  Mo  Mo249  1  0.80076905  0.19590866  0.59434416  1
