# generated using pymatgen
data_HfZrTaTiMo
_symmetry_space_group_name_H-M   'P 1'
_cell_length_a   16.89572823
_cell_length_b   16.89317727
_cell_length_c   16.89077081
_cell_angle_alpha   89.97840759
_cell_angle_beta   90.00527280
_cell_angle_gamma   90.02970497
_symmetry_Int_Tables_number   1
_chemical_formula_structural   HfZrTaTiMo
_chemical_formula_sum   'Hf50 Zr50 Ta50 Ti50 Mo50'
_cell_volume   4821.00556469
_cell_formula_units_Z   50
loop_
 _symmetry_equiv_pos_site_id
 _symmetry_equiv_pos_as_xyz
  1  'x, y, z'
loop_
 _atom_site_type_symbol
 _atom_site_label
 _atom_site_symmetry_multiplicity
 _atom_site_fract_x
 _atom_site_fract_y
 _atom_site_fract_z
 _atom_site_occupancy
  Hf  Hf0  1  0.38854336  0.20458439  0.01666285  1
  Hf  Hf1  1  0.29484101  0.70504307  0.89648533  1
  Hf  Hf2  1  0.41065473  0.39684515  0.59424760  1
  Hf  Hf3  1  0.89148656  0.88584375  0.29612046  1
  Hf  Hf4  1  0.80120762  0.40153318  0.20045456  1
  Hf  Hf5  1  0.19863718  0.61058293  0.19905960  1
  Hf  Hf6  1  0.39661749  0.61022260  0.18371258  1
  Hf  Hf7  1  -0.00258318  0.19314760  0.80018538  1
  Hf  Hf8  1  0.90818569  0.90206200  0.10085307  1
  Hf  Hf9  1  0.60054870  0.00465550  0.80098739  1
  Hf  Hf10  1  0.70063853  0.29773830  0.50115334  1
  Hf  Hf11  1  0.20028260  0.59581190  0.80552326  1
  Hf  Hf12  1  0.09482218  0.49430424  0.09461200  1
  Hf  Hf13  1  0.70197481  0.89431065  0.70136563  1
  Hf  Hf14  1  0.49591803  0.51112992  0.29742082  1
  Hf  Hf15  1  0.30527997  0.50009116  0.69730118  1
  Hf  Hf16  1  0.39498683  0.60339350  -0.00485042  1
  Hf  Hf17  1  0.59350810  0.59960027  0.80164293  1
  Hf  Hf18  1  0.29309100  0.69856844  0.69535595  1
  Hf  Hf19  1  0.21129158  0.59627411  0.41143469  1
  Hf  Hf20  1  0.50062942  0.89194289  0.69608456  1
  Hf  Hf21  1  0.20302058  0.20541090  0.00430389  1
  Hf  Hf22  1  0.60347283  0.40504440  0.20451034  1
  Hf  Hf23  1  0.69563574  0.30481352  0.69653863  1
  Hf  Hf24  1  0.59805404  0.00208327  0.59769361  1
  Hf  Hf25  1  0.59536976  0.39693738  0.39695863  1
  Hf  Hf26  1  0.79848221  0.40958884  0.80713742  1
  Hf  Hf27  1  0.08844003  0.49591665  0.89587367  1
  Hf  Hf28  1  -0.00626137  0.40631453  0.60309387  1
  Hf  Hf29  1  0.39848362  0.00579861  0.60537589  1
  Hf  Hf30  1  0.69995595  0.50619342  0.69700843  1
  Hf  Hf31  1  0.80656389  0.79183930  0.60371519  1
  Hf  Hf32  1  0.59524026  0.19439594  0.78777265  1
  Hf  Hf33  1  0.49690199  0.89966054  0.30594617  1
  Hf  Hf34  1  0.49674930  0.30325962  0.89746520  1
  Hf  Hf35  1  0.39622297  0.39595882  0.19442656  1
  Hf  Hf36  1  0.79351908  0.00666877  0.39539640  1
  Hf  Hf37  1  0.69454868  0.29271768  0.89780937  1
  Hf  Hf38  1  0.20747430  0.20212173  0.80582450  1
  Hf  Hf39  1  0.20014416  0.20037424  0.39605236  1
  Hf  Hf40  1  -0.00347943  0.19726842  -0.00123198  1
  Hf  Hf41  1  0.79550115  -0.00088964  -0.00342684  1
  Hf  Hf42  1  0.50253159  0.49906922  0.09280571  1
  Hf  Hf43  1  0.32035739  0.10998626  0.30464053  1
  Hf  Hf44  1  0.89718878  0.68787155  0.89413898  1
  Hf  Hf45  1  0.89722185  0.89588831  0.49349414  1
  Hf  Hf46  1  0.09472384  0.30486968  0.10300170  1
  Hf  Hf47  1  -0.00544099  -0.00216932  0.60398182  1
  Hf  Hf48  1  0.09448868  0.30433449  0.30349394  1
  Hf  Hf49  1  0.80492914  0.19643616  0.60486842  1
  Zr  Zr50  1  0.29676446  0.89934623  0.90234360  1
  Zr  Zr51  1  0.89950205  0.30485289  0.71005723  1
  Zr  Zr52  1  0.09827451  0.50281276  0.70091707  1
  Zr  Zr53  1  0.20333721  0.00429136  0.20664610  1
  Zr  Zr54  1  0.20732046  -0.00245710  0.39510046  1
  Zr  Zr55  1  0.50351007  0.11057781  0.91455285  1
  Zr  Zr56  1  0.50951081  0.89248474  0.10668223  1
  Zr  Zr57  1  0.69337098  0.88802884  0.30291151  1
  Zr  Zr58  1  0.49393960  0.09820104  0.48989534  1
  Zr  Zr59  1  0.70171136  0.50544464  0.50254673  1
  Zr  Zr60  1  0.19003535  0.79715568  0.00203377  1
  Zr  Zr61  1  0.69306593  0.28941558  0.10077470  1
  Zr  Zr62  1  0.89621358  0.51049909  0.49773384  1
  Zr  Zr63  1  0.09481828  0.49546832  0.31104667  1
  Zr  Zr64  1  0.10674892  0.69085457  0.51415911  1
  Zr  Zr65  1  0.59837246  0.79235764  0.80234665  1
  Zr  Zr66  1  0.38540364  0.39768766  -0.00701815  1
  Zr  Zr67  1  -0.00119094  -0.00655464  0.79904318  1
  Zr  Zr68  1  0.20669134  -0.00214794  0.59686003  1
  Zr  Zr69  1  0.69943476  0.89338106  0.49925523  1
  Zr  Zr70  1  0.40464542  0.00348981  0.79703446  1
  Zr  Zr71  1  0.00881858  0.78991349  0.20270544  1
  Zr  Zr72  1  0.90352260  0.09248797  0.10297900  1
  Zr  Zr73  1  0.09525562  0.10241095  0.49611019  1
  Zr  Zr74  1  0.71649146  0.70436851  0.29189434  1
  Zr  Zr75  1  0.10190319  0.09864642  0.69926573  1
  Zr  Zr76  1  0.50391088  0.71009292  0.29133890  1
  Zr  Zr77  1  0.30425727  0.70522136  0.29993289  1
  Zr  Zr78  1  0.09357663  0.31210457  0.89792030  1
  Zr  Zr79  1  0.61208846  0.01055987  0.00692908  1
  Zr  Zr80  1  0.60476171  0.60399775  0.39588745  1
  Zr  Zr81  1  0.20594962  0.00195796  0.79704925  1
  Zr  Zr82  1  0.00031881  0.60176722  0.20408084  1
  Zr  Zr83  1  0.70598860  0.50956025  0.09483665  1
  Zr  Zr84  1  0.21238489  0.20014331  0.60168417  1
  Zr  Zr85  1  0.40075834  0.00377678  0.19956876  1
  Zr  Zr86  1  0.09881520  0.09094296  0.09811722  1
  Zr  Zr87  1  0.39946479  0.19630035  0.78655240  1
  Zr  Zr88  1  0.78999604  0.18668190  -0.00182205  1
  Zr  Zr89  1  0.10421770  0.31148836  0.70442713  1
  Zr  Zr90  1  0.20342884  0.79849955  0.40113963  1
  Zr  Zr91  1  0.70657449  0.28665088  0.30154611  1
  Zr  Zr92  1  0.00484521  -0.00192713  0.39135112  1
  Zr  Zr93  1  0.09458882  0.30910452  0.49540524  1
  Zr  Zr94  1  0.79743280  0.79981691  -0.00257170  1
  Zr  Zr95  1  -0.00316445  0.79693847  0.60291653  1
  Zr  Zr96  1  0.88265000  0.69510778  0.10702928  1
  Zr  Zr97  1  0.20613953  0.40212112  0.20172783  1
  Zr  Zr98  1  0.39918894  0.00136319  0.01082966  1
  Zr  Zr99  1  0.89888358  0.30209440  0.48827332  1
  Ta  Ta100  1  0.10137081  0.69697285  0.70545245  1
  Ta  Ta101  1  0.79336316  0.00212194  0.20296015  1
  Ta  Ta102  1  0.80262930  0.00494704  0.60374970  1
  Ta  Ta103  1  0.00264353  0.78846278  0.39779489  1
  Ta  Ta104  1  0.31191065  0.89970433  0.49890808  1
  Ta  Ta105  1  -0.00435755  0.19993120  0.20672631  1
  Ta  Ta106  1  0.30697725  0.29883585  0.30321198  1
  Ta  Ta107  1  0.89979871  0.09252140  0.89717732  1
  Ta  Ta108  1  0.29651752  0.09797167  0.91074944  1
  Ta  Ta109  1  0.40374755  0.79602800  0.41156279  1
  Ta  Ta110  1  0.40283029  0.40218885  0.39963044  1
  Ta  Ta111  1  0.21457970  0.40414915  0.40490124  1
  Ta  Ta112  1  0.59429689  0.60786309  0.59991679  1
  Ta  Ta113  1  0.49878681  0.50698935  0.49662452  1
  Ta  Ta114  1  0.20928360  0.40841448  0.58837767  1
  Ta  Ta115  1  0.30891934  0.30764021  0.69730537  1
  Ta  Ta116  1  0.69814156  0.89580206  0.89848423  1
  Ta  Ta117  1  0.70038908  0.10739012  0.49804236  1
  Ta  Ta118  1  0.79988613  0.40094870  -0.00302515  1
  Ta  Ta119  1  0.60293352  0.40342778  -0.00773036  1
  Ta  Ta120  1  0.89678026  0.10212101  0.49679428  1
  Ta  Ta121  1  0.71157220  0.69481781  0.50106942  1
  Ta  Ta122  1  -0.00689092  0.19664923  0.60285677  1
  Ta  Ta123  1  0.19751796  0.59853919  -0.00056649  1
  Ta  Ta124  1  0.40004250  0.79481509  0.00727635  1
  Ta  Ta125  1  0.00058667  0.79781182  0.80069361  1
  Ta  Ta126  1  0.59663923  0.60615243  -0.00299487  1
  Ta  Ta127  1  0.30029749  0.88577010  0.69978672  1
  Ta  Ta128  1  0.60745454  0.00822715  0.20722551  1
  Ta  Ta129  1  0.40262917  0.79532426  0.80112700  1
  Ta  Ta130  1  -0.01414979  0.39836945  0.20163006  1
  Ta  Ta131  1  0.59949859  0.19750764  0.39745757  1
  Ta  Ta132  1  -0.00265301  0.61017800  0.39892460  1
  Ta  Ta133  1  0.28923562  0.89625613  0.10430197  1
  Ta  Ta134  1  -0.00263365  0.59990031  -0.00169279  1
  Ta  Ta135  1  0.89641279  0.50365793  0.09678875  1
  Ta  Ta136  1  0.50660649  0.29732960  0.09968419  1
  Ta  Ta137  1  0.10676398  0.88970329  0.29417685  1
  Ta  Ta138  1  0.40015286  0.60425699  0.59144804  1
  Ta  Ta139  1  0.80220333  0.40644061  0.60161899  1
  Ta  Ta140  1  0.89463405  0.29892688  0.90086425  1
  Ta  Ta141  1  0.40197607  0.59884691  0.80110300  1
  Ta  Ta142  1  0.60480350  0.61145589  0.18914721  1
  Ta  Ta143  1  0.70438809  0.69339527  0.90149468  1
  Ta  Ta144  1  0.30862747  0.30091012  0.49866955  1
  Ta  Ta145  1  0.40427983  0.79508135  0.59385007  1
  Ta  Ta146  1  0.89344774  0.50768330  0.30038665  1
  Ta  Ta147  1  0.10969664  0.88507979  0.70202856  1
  Ta  Ta148  1  0.79462381  0.40873331  0.39269928  1
  Ta  Ta149  1  0.70224845  0.89345837  0.10859775  1
  Ti  Ti150  1  0.59195658  0.79393473  0.41509944  1
  Ti  Ti151  1  0.20611848  0.19935349  0.19859494  1
  Ti  Ti152  1  0.59950393  0.00241798  0.39967437  1
  Ti  Ti153  1  0.79889452  0.18746076  0.79913485  1
  Ti  Ti154  1  0.41224305  0.21734674  0.40554242  1
  Ti  Ti155  1  0.90116649  0.89932333  0.89788997  1
  Ti  Ti156  1  0.69967304  0.09948569  0.69366169  1
  Ti  Ti157  1  0.89839221  0.30081046  0.30535954  1
  Ti  Ti158  1  0.29310620  0.50326848  0.09485149  1
  Ti  Ti159  1  0.00351251  0.00336500  0.21294957  1
  Ti  Ti160  1  0.20742682  0.79917846  0.59354764  1
  Ti  Ti161  1  0.49418049  0.49620961  0.89559256  1
  Ti  Ti162  1  0.49416776  0.69718028  0.69734230  1
  Ti  Ti163  1  0.00041836  0.79771397  -0.00519697  1
  Ti  Ti164  1  0.09917730  0.69846669  0.09583304  1
  Ti  Ti165  1  0.10005233  0.90074948  0.90077045  1
  Ti  Ti166  1  0.09333510  0.69810275  0.89402166  1
  Ti  Ti167  1  0.79720985  0.00378677  0.79857370  1
  Ti  Ti168  1  0.59315511  0.40335481  0.79728414  1
  Ti  Ti169  1  0.09895525  0.90486926  0.09906155  1
  Ti  Ti170  1  0.60181898  0.79060063  0.00603906  1
  Ti  Ti171  1  0.10095023  0.89613418  0.49954194  1
  Ti  Ti172  1  0.89891482  0.68873219  0.70858565  1
  Ti  Ti173  1  0.21052299  0.39756366  -0.00502218  1
  Ti  Ti174  1  0.31162490  0.10460663  0.49466189  1
  Ti  Ti175  1  0.59281480  0.40145947  0.59781358  1
  Ti  Ti176  1  0.50251893  0.10462023  0.30082072  1
  Ti  Ti177  1  -0.00731217  0.60353781  0.60347508  1
  Ti  Ti178  1  0.89668278  0.10454401  0.30317458  1
  Ti  Ti179  1  0.89511121  0.29700478  0.10037396  1
  Ti  Ti180  1  0.30977129  0.50461195  0.30442328  1
  Ti  Ti181  1  0.09695081  0.50069716  0.50041165  1
  Ti  Ti182  1  0.49910200  0.29133879  0.29002458  1
  Ti  Ti183  1  0.79969514  0.18794741  0.20430614  1
  Ti  Ti184  1  0.50970903  0.11523115  0.11074185  1
  Ti  Ti185  1  -0.00343431  0.19562860  0.39425773  1
  Ti  Ti186  1  0.39036657  0.80078953  0.19172619  1
  Ti  Ti187  1  0.70236018  0.50916181  0.90198362  1
  Ti  Ti188  1  0.89621811  0.89878869  0.70637567  1
  Ti  Ti189  1  0.89724681  0.51329471  0.71206408  1
  Ti  Ti190  1  -0.01880465  0.40159483  -0.00094171  1
  Ti  Ti191  1  0.80145939  0.79707446  0.80137653  1
  Ti  Ti192  1  0.10208919  0.08620333  0.90948932  1
  Ti  Ti193  1  0.70728377  0.69191244  0.70163677  1
  Ti  Ti194  1  0.49848374  0.70372016  0.90348486  1
  Ti  Ti195  1  0.59487332  0.78832234  0.59272482  1
  Ti  Ti196  1  0.49732499  0.49960512  0.69859218  1
  Ti  Ti197  1  0.22277907  0.39993419  0.81214192  1
  Ti  Ti198  1  0.58229918  0.20362352  0.59807605  1
  Ti  Ti199  1  0.50348189  0.89478044  0.90642920  1
  Mo  Mo200  1  0.69469021  0.70186561  0.09566516  1
  Mo  Mo201  1  -0.00119582  0.60453789  0.79967182  1
  Mo  Mo202  1  0.29802057  0.50391424  0.89824303  1
  Mo  Mo203  1  0.50357745  0.30751909  0.69391090  1
  Mo  Mo204  1  0.59791496  0.20441133  0.00329127  1
  Mo  Mo205  1  0.50068950  0.89475005  0.49913645  1
  Mo  Mo206  1  0.50475281  0.69757425  0.50231112  1
  Mo  Mo207  1  0.79923121  0.60405739  0.60745290  1
  Mo  Mo208  1  0.89964541  0.69690688  0.49905570  1
  Mo  Mo209  1  0.40331350  0.20543494  0.59605492  1
  Mo  Mo210  1  0.69674212  0.09903868  0.30556557  1
  Mo  Mo211  1  0.40155376  -0.01093700  0.39989164  1
  Mo  Mo212  1  0.79843160  0.59675397  0.20109169  1
  Mo  Mo213  1  0.79444940  0.60108204  0.80063632  1
  Mo  Mo214  1  0.89819250  0.49977451  0.90539324  1
  Mo  Mo215  1  0.89349068  0.09651005  0.70087043  1
  Mo  Mo216  1  0.29512099  0.10190612  0.10560882  1
  Mo  Mo217  1  0.50257935  0.10350996  0.68716474  1
  Mo  Mo218  1  0.29395254  0.70458389  0.09404860  1
  Mo  Mo219  1  0.29275320  0.29958911  0.11090640  1
  Mo  Mo220  1  0.80239836  0.19606130  0.40049073  1
  Mo  Mo221  1  0.31047211  0.49996413  0.49904342  1
  Mo  Mo222  1  0.40144009  0.60086147  0.40681480  1
  Mo  Mo223  1  0.40407380  0.40430532  0.79426633  1
  Mo  Mo224  1  0.19822657  0.80350004  0.19705886  1
  Mo  Mo225  1  0.80070706  0.80435096  0.19473369  1
  Mo  Mo226  1  0.30569351  0.89572566  0.30183629  1
  Mo  Mo227  1  0.40454803  0.20465214  0.20272240  1
  Mo  Mo228  1  0.10302369  0.69963437  0.30710770  1
  Mo  Mo229  1  0.79810545  0.59513498  -0.00482948  1
  Mo  Mo230  1  0.81074138  0.78960609  0.40824443  1
  Mo  Mo231  1  0.20266371  0.59374040  0.60055465  1
  Mo  Mo232  1  0.70494537  0.50738376  0.29437840  1
  Mo  Mo233  1  0.00202625  -0.01039438  -0.01034250  1
  Mo  Mo234  1  0.89776334  0.69664739  0.30611459  1
  Mo  Mo235  1  0.80385271  0.60276751  0.39624984  1
  Mo  Mo236  1  0.19248976  0.79705275  0.79918899  1
  Mo  Mo237  1  0.60499583  0.79846936  0.19197597  1
  Mo  Mo238  1  0.30396886  0.10750150  0.69516564  1
  Mo  Mo239  1  0.19766794  -0.00137042  0.00249163  1
  Mo  Mo240  1  0.30184344  0.29879572  0.89431896  1
  Mo  Mo241  1  0.50512907  0.30289853  0.49458153  1
  Mo  Mo242  1  0.70531728  0.09605712  0.88409195  1
  Mo  Mo243  1  0.50048337  0.70265677  0.09323610  1
  Mo  Mo244  1  -0.01786216  0.40734066  0.80646233  1
  Mo  Mo245  1  0.30705194  0.70041622  0.50444761  1
  Mo  Mo246  1  0.09264118  0.10833976  0.29388845  1
  Mo  Mo247  1  0.69945717  0.09729367  0.11667048  1
  Mo  Mo248  1  0.59518090  0.19573943  0.20694504  1
  Mo  Mo249  1  -0.00907075  0.41010025  0.39396614  1
