# generated using pymatgen
data_HfZrTaTiMo
_symmetry_space_group_name_H-M   'P 1'
_cell_length_a   16.89660218
_cell_length_b   16.88865423
_cell_length_c   16.89806905
_cell_angle_alpha   90.00385077
_cell_angle_beta   90.03569989
_cell_angle_gamma   89.96602878
_symmetry_Int_Tables_number   1
_chemical_formula_structural   HfZrTaTiMo
_chemical_formula_sum   'Hf50 Zr50 Ta50 Ti50 Mo50'
_cell_volume   4822.04592362
_cell_formula_units_Z   50
loop_
 _symmetry_equiv_pos_site_id
 _symmetry_equiv_pos_as_xyz
  1  'x, y, z'
loop_
 _atom_site_type_symbol
 _atom_site_label
 _atom_site_symmetry_multiplicity
 _atom_site_fract_x
 _atom_site_fract_y
 _atom_site_fract_z
 _atom_site_occupancy
  Hf  Hf0  1  0.80159581  0.19761051  0.60801294  1
  Hf  Hf1  1  0.49886065  0.70359767  0.89979670  1
  Hf  Hf2  1  -0.00222826  0.20769563  0.19224607  1
  Hf  Hf3  1  0.29918794  0.70802319  0.08856983  1
  Hf  Hf4  1  0.70256446  0.70143893  0.29901895  1
  Hf  Hf5  1  -0.00587473  0.61032170  0.00990778  1
  Hf  Hf6  1  0.80818313  -0.00859047  0.00202061  1
  Hf  Hf7  1  0.49884777  0.70021400  0.71077862  1
  Hf  Hf8  1  0.88851100  0.88483117  0.49755468  1
  Hf  Hf9  1  0.60741260  0.59901693  0.19457695  1
  Hf  Hf10  1  -0.00948678  0.79451005  0.18402562  1
  Hf  Hf11  1  0.19196354  -0.01378388  0.41174034  1
  Hf  Hf12  1  0.30212872  0.49410657  0.69991696  1
  Hf  Hf13  1  0.40301383  0.59830308  0.19022280  1
  Hf  Hf14  1  0.49600037  0.89985490  0.70500361  1
  Hf  Hf15  1  0.09259326  0.90470112  0.91686575  1
  Hf  Hf16  1  0.00043346  -0.00748436  0.59599281  1
  Hf  Hf17  1  0.69660318  0.70265340  0.90221169  1
  Hf  Hf18  1  0.89785686  0.09931241  0.29344091  1
  Hf  Hf19  1  0.40278892  0.01078453  0.18891407  1
  Hf  Hf20  1  -0.00299361  0.40371128  0.00246197  1
  Hf  Hf21  1  0.60749103  0.59335530  -0.00492426  1
  Hf  Hf22  1  0.09070741  0.11271195  0.49694025  1
  Hf  Hf23  1  0.39982850  0.19825225  0.60625218  1
  Hf  Hf24  1  0.40467933  0.60132732  0.59308896  1
  Hf  Hf25  1  0.59940459  0.79527336  0.59533064  1
  Hf  Hf26  1  0.19679429  0.39973306  0.00882968  1
  Hf  Hf27  1  0.89581447  0.49413361  0.49580305  1
  Hf  Hf28  1  0.60483362  -0.00413198  0.59580275  1
  Hf  Hf29  1  0.50913861  0.50200424  0.30568714  1
  Hf  Hf30  1  0.50681515  0.49034643  0.09464029  1
  Hf  Hf31  1  0.30164813  0.30048254  0.50387221  1
  Hf  Hf32  1  0.19739068  0.60099436  0.80130054  1
  Hf  Hf33  1  0.09623808  0.89677607  0.29137653  1
  Hf  Hf34  1  0.10422751  0.71001011  0.91303278  1
  Hf  Hf35  1  0.60599385  0.19928550  0.79959307  1
  Hf  Hf36  1  0.89920827  0.49890244  0.71479494  1
  Hf  Hf37  1  0.50926924  0.29917058  0.91451318  1
  Hf  Hf38  1  0.89849947  0.70326734  0.90449849  1
  Hf  Hf39  1  0.09984474  0.09856552  0.90321088  1
  Hf  Hf40  1  0.29789587  0.09967275  0.50074446  1
  Hf  Hf41  1  0.40884595  0.60836904  0.41040501  1
  Hf  Hf42  1  0.19820430  0.80553008  0.58980791  1
  Hf  Hf43  1  0.40191023  0.18860782  0.01353872  1
  Hf  Hf44  1  0.50544835  0.30174174  0.29826384  1
  Hf  Hf45  1  0.50289153  0.09750162  0.50149769  1
  Hf  Hf46  1  0.08825473  0.70047790  0.69460604  1
  Hf  Hf47  1  0.90653214  0.30580874  0.49549760  1
  Hf  Hf48  1  0.29900986  0.89880539  0.29351932  1
  Hf  Hf49  1  0.70356815  0.89912338  0.69866898  1
  Zr  Zr50  1  0.00093980  0.20566512  0.00335168  1
  Zr  Zr51  1  0.41104918  0.39661133  0.40703273  1
  Zr  Zr52  1  0.09166404  0.69620770  0.49735741  1
  Zr  Zr53  1  -0.00418608  0.80670940  0.79954881  1
  Zr  Zr54  1  0.30762742  0.70493312  0.70350291  1
  Zr  Zr55  1  0.70809899  0.30135677  0.90711617  1
  Zr  Zr56  1  0.09421062  0.49749819  0.70392627  1
  Zr  Zr57  1  0.19912058  0.39585791  0.20394515  1
  Zr  Zr58  1  0.39915411  0.00537319  0.00812758  1
  Zr  Zr59  1  0.50781631  0.70495523  0.29636375  1
  Zr  Zr60  1  -0.00316926  0.20186930  0.79961164  1
  Zr  Zr61  1  0.20646600  0.59458505  0.19807629  1
  Zr  Zr62  1  0.08916235  0.49357364  0.50184697  1
  Zr  Zr63  1  0.69485793  0.30402487  0.50398173  1
  Zr  Zr64  1  0.00252602  0.39656570  0.20230912  1
  Zr  Zr65  1  0.50284843  0.90054257  0.29385202  1
  Zr  Zr66  1  0.69278513  0.90348757  0.90496259  1
  Zr  Zr67  1  0.19289678  0.21286535  0.39377508  1
  Zr  Zr68  1  0.29988058  0.49616359  0.50091193  1
  Zr  Zr69  1  0.09851361  0.69578813  0.28959529  1
  Zr  Zr70  1  -0.00211070  -0.00274549  0.78935472  1
  Zr  Zr71  1  0.70862282  0.09260059  0.29020373  1
  Zr  Zr72  1  0.79854509  0.39909060  0.61154057  1
  Zr  Zr73  1  0.59674801  0.60049255  0.59285515  1
  Zr  Zr74  1  -0.01014937  0.19912114  0.61301329  1
  Zr  Zr75  1  0.30502829  0.70617465  0.90080233  1
  Zr  Zr76  1  0.30198287  0.49944916  0.90258589  1
  Zr  Zr77  1  0.38706622  0.00722749  0.79535470  1
  Zr  Zr78  1  0.19705170  -0.00758674  0.60707418  1
  Zr  Zr79  1  0.29783089  0.89496168  0.90351714  1
  Zr  Zr80  1  0.19978969  0.00723997  0.01757433  1
  Zr  Zr81  1  0.09320366  0.51256109  0.10841831  1
  Zr  Zr82  1  0.39759491  0.19908106  0.79972391  1
  Zr  Zr83  1  0.80095280  0.80306910  0.80503627  1
  Zr  Zr84  1  0.79252170  0.21029066  0.38859868  1
  Zr  Zr85  1  0.40970408  0.19482439  0.20136979  1
  Zr  Zr86  1  0.79720772  0.38885053  0.20721121  1
  Zr  Zr87  1  0.29122340  0.09810928  0.29923292  1
  Zr  Zr88  1  -0.00633031  -0.00934633  0.40070557  1
  Zr  Zr89  1  0.09146255  0.09898671  0.29474387  1
  Zr  Zr90  1  0.29568219  0.29512622  0.90395475  1
  Zr  Zr91  1  0.70043675  0.29612962  0.08955559  1
  Zr  Zr92  1  0.30220977  0.70676676  0.29506071  1
  Zr  Zr93  1  0.80943908  0.20183528  0.79099280  1
  Zr  Zr94  1  0.51373342  0.09165544  0.89892675  1
  Zr  Zr95  1  0.18888479  0.40170170  0.39074652  1
  Zr  Zr96  1  0.59792355  0.19412294  0.39354234  1
  Zr  Zr97  1  0.19254041  0.81601217  0.78781731  1
  Zr  Zr98  1  0.60655269  0.40507041  0.80777159  1
  Zr  Zr99  1  0.89159631  0.69958246  0.49948621  1
  Ta  Ta100  1  0.20244526  0.79854183  0.40548916  1
  Ta  Ta101  1  0.60502302  0.39609595  0.20006785  1
  Ta  Ta102  1  0.09679890  0.30785210  0.70426529  1
  Ta  Ta103  1  0.70643108  0.89280396  0.49385779  1
  Ta  Ta104  1  0.89219250  0.69546439  0.69721079  1
  Ta  Ta105  1  0.20156696  0.60227940  0.59458391  1
  Ta  Ta106  1  0.69698856  0.50634179  0.70674659  1
  Ta  Ta107  1  0.40028536  0.79977064  0.40567732  1
  Ta  Ta108  1  0.90224976  0.09148822  0.90098132  1
  Ta  Ta109  1  0.70323038  0.49832887  0.30484138  1
  Ta  Ta110  1  0.70598354  0.09669937  0.90073905  1
  Ta  Ta111  1  0.50573643  0.89979240  0.90022617  1
  Ta  Ta112  1  0.70296328  0.09657222  0.50158554  1
  Ta  Ta113  1  0.39934767  0.39717358  0.00508307  1
  Ta  Ta114  1  0.40032730  0.39988718  0.19534356  1
  Ta  Ta115  1  0.70393720  0.70171571  0.49155239  1
  Ta  Ta116  1  0.89662477  0.50125331  0.29845584  1
  Ta  Ta117  1  0.40568524  0.19653786  0.39802804  1
  Ta  Ta118  1  0.50714950  0.30229878  0.69461223  1
  Ta  Ta119  1  -0.00958025  0.59636013  0.60105752  1
  Ta  Ta120  1  -0.00233921  0.59546249  0.38991604  1
  Ta  Ta121  1  0.19853831  0.19979886  0.79179911  1
  Ta  Ta122  1  0.50534874  0.49658400  0.70210077  1
  Ta  Ta123  1  0.79931374  0.60039093  0.00399821  1
  Ta  Ta124  1  0.70213658  0.70707340  0.09847312  1
  Ta  Ta125  1  0.30881882  0.50003170  0.30110691  1
  Ta  Ta126  1  0.89201109  0.50885367  0.10983601  1
  Ta  Ta127  1  0.89429622  0.10360829  0.49199425  1
  Ta  Ta128  1  0.69965170  0.09260979  0.70270643  1
  Ta  Ta129  1  0.19379050  0.39462382  0.60154047  1
  Ta  Ta130  1  0.19587885  0.20640115  0.60752087  1
  Ta  Ta131  1  -0.00490935  0.79424981  0.39170491  1
  Ta  Ta132  1  0.20163008  0.59978515  0.39854103  1
  Ta  Ta133  1  0.51076493  0.09910277  0.69760828  1
  Ta  Ta134  1  0.51260668  0.89739497  0.09739705  1
  Ta  Ta135  1  0.59988131  0.80197812  0.40227116  1
  Ta  Ta136  1  0.30186563  0.29808123  0.10382444  1
  Ta  Ta137  1  0.29920419  0.30629241  0.70045063  1
  Ta  Ta138  1  0.70916801  0.10043290  0.09885485  1
  Ta  Ta139  1  0.69936140  0.50163997  0.49473904  1
  Ta  Ta140  1  0.40689479  0.39612259  0.80148248  1
  Ta  Ta141  1  0.89513730  0.88703639  0.68486819  1
  Ta  Ta142  1  0.69545607  0.89534315  0.10409952  1
  Ta  Ta143  1  0.80351226  0.00142847  0.59733222  1
  Ta  Ta144  1  0.60580170  0.19736248  0.19766357  1
  Ta  Ta145  1  0.79941131  0.59857784  0.39585188  1
  Ta  Ta146  1  0.89698438  0.31595806  0.89346729  1
  Ta  Ta147  1  0.80136966  0.80040693  0.19628751  1
  Ta  Ta148  1  0.49782679  0.90268161  0.49701393  1
  Ta  Ta149  1  0.60432658  -0.00487186  0.39839992  1
  Ti  Ti150  1  0.19931894  0.00125368  0.78902714  1
  Ti  Ti151  1  0.50948794  0.29859842  0.09654898  1
  Ti  Ti152  1  0.90389832  0.30338521  0.30876752  1
  Ti  Ti153  1  0.19061363  0.80242671  0.18491415  1
  Ti  Ti154  1  0.90294678  0.09395902  0.10182422  1
  Ti  Ti155  1  -0.00303021  0.60065038  0.80911094  1
  Ti  Ti156  1  0.79648304  -0.00532900  0.39975682  1
  Ti  Ti157  1  0.80218328  0.41917866  -0.00985434  1
  Ti  Ti158  1  0.60064255  0.80251931  0.80073561  1
  Ti  Ti159  1  0.79493119  0.59883450  0.60069115  1
  Ti  Ti160  1  0.29880491  0.89559055  0.10163337  1
  Ti  Ti161  1  0.19158415  0.00262339  0.18914123  1
  Ti  Ti162  1  0.59939029  0.00417291  0.19941691  1
  Ti  Ti163  1  0.10297340  0.10193224  0.69878538  1
  Ti  Ti164  1  0.89321482  0.69135870  0.29126973  1
  Ti  Ti165  1  0.40567267  0.58955269  0.80252463  1
  Ti  Ti166  1  0.40695243  0.00538034  0.39173829  1
  Ti  Ti167  1  0.19305129  0.20042062  0.01307491  1
  Ti  Ti168  1  0.80597943  -0.01149896  0.19131048  1
  Ti  Ti169  1  0.28814036  0.10382513  0.90098812  1
  Ti  Ti170  1  0.60633570  0.40093366  0.40200234  1
  Ti  Ti171  1  0.30804175  0.30084881  0.29808611  1
  Ti  Ti172  1  0.31351578  0.90221483  0.49744417  1
  Ti  Ti173  1  0.70274445  0.89388552  0.29807250  1
  Ti  Ti174  1  0.40896455  0.80867096  0.00254947  1
  Ti  Ti175  1  0.51106441  0.29885197  0.51124593  1
  Ti  Ti176  1  0.09902386  0.30261608  0.89735443  1
  Ti  Ti177  1  0.18990614  0.20660317  0.19431586  1
  Ti  Ti178  1  0.70557710  0.49606396  0.10083255  1
  Ti  Ti179  1  0.31226767  0.89260454  0.69596810  1
  Ti  Ti180  1  0.81254342  0.80478411  0.00985106  1
  Ti  Ti181  1  0.80963781  0.19111935  -0.00429716  1
  Ti  Ti182  1  0.70217850  0.69319579  0.70555240  1
  Ti  Ti183  1  0.88687292  0.30304605  0.09157679  1
  Ti  Ti184  1  0.69140706  0.30377500  0.69774563  1
  Ti  Ti185  1  0.08537345  0.30354949  0.50057165  1
  Ti  Ti186  1  0.89523269  0.89619505  0.29520197  1
  Ti  Ti187  1  0.39734473  0.00479034  0.60493767  1
  Ti  Ti188  1  0.20028609  0.59774440  0.00504804  1
  Ti  Ti189  1  0.40124800  0.59377845  0.00331744  1
  Ti  Ti190  1  0.41094121  0.40083698  0.60214073  1
  Ti  Ti191  1  0.50346916  0.49753895  0.90127709  1
  Ti  Ti192  1  0.60433109  0.00353897  0.00838917  1
  Ti  Ti193  1  0.09495362  0.49967773  0.89987291  1
  Ti  Ti194  1  0.19875998  0.39651220  0.80245195  1
  Ti  Ti195  1  0.40265432  0.79031845  0.58416750  1
  Ti  Ti196  1  0.80892399  -0.00387674  0.80003331  1
  Ti  Ti197  1  0.51123026  0.70989844  0.09418400  1
  Ti  Ti198  1  0.40641876  0.80264846  0.19162134  1
  Ti  Ti199  1  0.79457639  0.59132778  0.81333299  1
  Mo  Mo200  1  0.79891312  0.40569264  0.80375341  1
  Mo  Mo201  1  0.00385200  0.40178790  0.81254869  1
  Mo  Mo202  1  0.51282766  0.49316415  0.50540715  1
  Mo  Mo203  1  0.78976225  0.79005273  0.60565813  1
  Mo  Mo204  1  0.28318342  0.11285858  0.10831001  1
  Mo  Mo205  1  0.70464152  0.50398456  0.90080599  1
  Mo  Mo206  1  0.79891400  0.79983339  0.38430700  1
  Mo  Mo207  1  0.50489400  0.70889835  0.49628766  1
  Mo  Mo208  1  0.40715910  0.80913615  0.80802320  1
  Mo  Mo209  1  0.80520787  0.19942711  0.18899448  1
  Mo  Mo210  1  0.59807080  0.79981077  0.00295275  1
  Mo  Mo211  1  0.08593907  0.29830455  0.30085461  1
  Mo  Mo212  1  -0.01245101  0.60278907  0.20312438  1
  Mo  Mo213  1  0.10535385  0.70684040  0.09492759  1
  Mo  Mo214  1  0.30887376  0.49522949  0.09894527  1
  Mo  Mo215  1  0.89114565  0.08098206  0.69962322  1
  Mo  Mo216  1  0.69454949  0.30410680  0.29517830  1
  Mo  Mo217  1  0.08646940  0.88356933  0.49319096  1
  Mo  Mo218  1  0.60302500  0.19556021  0.60533943  1
  Mo  Mo219  1  0.50734133  0.09676735  0.30138508  1
  Mo  Mo220  1  0.79715092  0.40556827  0.39599375  1
  Mo  Mo221  1  0.19205140  0.80757322  0.01549143  1
  Mo  Mo222  1  -0.00284826  0.40226541  0.39184453  1
  Mo  Mo223  1  0.60218687  0.40447649  0.00372371  1
  Mo  Mo224  1  -0.00779569  0.79331811  0.59630960  1
  Mo  Mo225  1  0.89740436  0.90032643  0.10278414  1
  Mo  Mo226  1  0.29225322  0.10595219  0.69757311  1
  Mo  Mo227  1  0.88651208  0.69952055  0.10084648  1
  Mo  Mo228  1  -0.00029515  0.39979629  0.60834899  1
  Mo  Mo229  1  0.59957561  0.40485850  0.60386135  1
  Mo  Mo230  1  -0.00690376  -0.00575131  0.19310904  1
  Mo  Mo231  1  -0.00706588  0.80642486  0.00547249  1
  Mo  Mo232  1  0.29718174  0.70215821  0.49663805  1
  Mo  Mo233  1  -0.00406162  0.00486607  0.00965555  1
  Mo  Mo234  1  0.08981224  0.90435831  0.10268314  1
  Mo  Mo235  1  0.60069663  0.59861817  0.79973818  1
  Mo  Mo236  1  0.89817127  0.50680949  0.90609827  1
  Mo  Mo237  1  0.90393954  0.90177575  0.90963188  1
  Mo  Mo238  1  0.60729779  0.80318341  0.19697302  1
  Mo  Mo239  1  0.09196106  0.89658109  0.68789427  1
  Mo  Mo240  1  0.79659539  0.59854532  0.19861994  1
  Mo  Mo241  1  0.09393117  0.50373043  0.30480386  1
  Mo  Mo242  1  0.60765223  0.60026463  0.40288498  1
  Mo  Mo243  1  -0.00653397  0.20553159  0.39484171  1
  Mo  Mo244  1  0.52324869  0.09639866  0.10285203  1
  Mo  Mo245  1  0.91024018  0.32029297  0.70869365  1
  Mo  Mo246  1  0.09297837  0.10002682  0.10371546  1
  Mo  Mo247  1  0.10706591  0.29900357  0.09820112  1
  Mo  Mo248  1  0.60726139  0.18822629  0.00438433  1
  Mo  Mo249  1  0.60691671  0.00026282  0.79776765  1
