# generated using pymatgen
data_HfZrTaTiMo
_symmetry_space_group_name_H-M   'P 1'
_cell_length_a   16.89346680
_cell_length_b   16.89226196
_cell_length_c   16.88953875
_cell_angle_alpha   89.94773959
_cell_angle_beta   90.02665399
_cell_angle_gamma   90.04064473
_symmetry_Int_Tables_number   1
_chemical_formula_structural   HfZrTaTiMo
_chemical_formula_sum   'Hf50 Zr50 Ta50 Ti50 Mo50'
_cell_volume   4819.74479291
_cell_formula_units_Z   50
loop_
 _symmetry_equiv_pos_site_id
 _symmetry_equiv_pos_as_xyz
  1  'x, y, z'
loop_
 _atom_site_type_symbol
 _atom_site_label
 _atom_site_symmetry_multiplicity
 _atom_site_fract_x
 _atom_site_fract_y
 _atom_site_fract_z
 _atom_site_occupancy
  Hf  Hf0  1  0.40024106  0.40444973  0.38939633  1
  Hf  Hf1  1  -0.00671659  0.20421440  0.60715860  1
  Hf  Hf2  1  0.20609139  0.59407065  0.00430242  1
  Hf  Hf3  1  0.39072016  0.18485794  0.80614506  1
  Hf  Hf4  1  0.29268093  0.89323193  0.69411272  1
  Hf  Hf5  1  -0.00097277  0.40399866  0.38776693  1
  Hf  Hf6  1  0.79446232  -0.01495594  0.80684452  1
  Hf  Hf7  1  0.00873830  0.79294169  0.40118247  1
  Hf  Hf8  1  0.09635045  0.09342312  0.89918689  1
  Hf  Hf9  1  0.50056351  0.90008651  0.50891197  1
  Hf  Hf10  1  0.71000274  0.50932183  0.90316920  1
  Hf  Hf11  1  0.30375021  0.30289640  0.90505887  1
  Hf  Hf12  1  0.89774390  0.69921424  0.90587458  1
  Hf  Hf13  1  0.60950504  0.61450793  0.79648277  1
  Hf  Hf14  1  0.11434207  0.09921993  0.30549043  1
  Hf  Hf15  1  0.60759807  0.60074913  0.20144697  1
  Hf  Hf16  1  0.50573410  0.70292869  0.30399197  1
  Hf  Hf17  1  0.10073059  0.89908309  0.09356496  1
  Hf  Hf18  1  0.80311130  0.59679275  0.19351393  1
  Hf  Hf19  1  0.00567009  0.60586144  0.80324778  1
  Hf  Hf20  1  0.39807416  0.00408548  0.60252430  1
  Hf  Hf21  1  -0.00423956  0.20181429  0.38933828  1
  Hf  Hf22  1  0.59383887  0.19036229  0.01428345  1
  Hf  Hf23  1  0.19755108  0.79693407  0.21161118  1
  Hf  Hf24  1  0.29151184  0.09873716  0.48986701  1
  Hf  Hf25  1  0.90449611  0.70477712  0.69232367  1
  Hf  Hf26  1  0.59292180  -0.00354563  0.80373609  1
  Hf  Hf27  1  0.10638258  0.29601610  0.49005552  1
  Hf  Hf28  1  0.80999138  0.40303722  0.00598023  1
  Hf  Hf29  1  0.39585482  0.80385464  -0.00029409  1
  Hf  Hf30  1  0.80315241  0.39537649  0.60727966  1
  Hf  Hf31  1  0.29961366  0.28979837  0.48389197  1
  Hf  Hf32  1  0.49573707  0.50691870  0.70041412  1
  Hf  Hf33  1  0.90439383  0.29543051  0.10876754  1
  Hf  Hf34  1  0.69839769  0.50595135  0.69189816  1
  Hf  Hf35  1  0.49835019  0.70639746  0.89788361  1
  Hf  Hf36  1  0.81348818  0.20508315  0.79406311  1
  Hf  Hf37  1  0.79156884  0.19689518  0.19578287  1
  Hf  Hf38  1  0.00765050  0.40391223  0.00667395  1
  Hf  Hf39  1  0.70404561  0.50160666  0.09572672  1
  Hf  Hf40  1  0.09725988  0.50737467  0.69667394  1
  Hf  Hf41  1  0.89984455  0.70219196  0.30133261  1
  Hf  Hf42  1  0.78476498  0.79940815  -0.00007815  1
  Hf  Hf43  1  0.69276243  0.09796277  0.70004176  1
  Hf  Hf44  1  0.69754931  0.69525937  0.49814447  1
  Hf  Hf45  1  0.40883506  -0.00252461  0.19803797  1
  Hf  Hf46  1  0.20554473  0.39792779  0.60797363  1
  Hf  Hf47  1  0.19887720  0.00475589  0.00231964  1
  Hf  Hf48  1  0.69507822  0.30338704  0.49313024  1
  Hf  Hf49  1  0.30952709  0.30343371  0.09731324  1
  Zr  Zr50  1  0.29202931  0.90046495  0.90175350  1
  Zr  Zr51  1  0.49049683  0.10347342  0.49304681  1
  Zr  Zr52  1  0.61124045  0.80539822  0.80491065  1
  Zr  Zr53  1  0.20601507  0.40023763  0.79811114  1
  Zr  Zr54  1  0.49324321  0.30201088  0.49197533  1
  Zr  Zr55  1  0.00014993  0.39586579  0.60081251  1
  Zr  Zr56  1  0.00565382  0.00583185  0.19198860  1
  Zr  Zr57  1  0.49320103  0.30088106  0.71091059  1
  Zr  Zr58  1  0.11061357  0.09847474  0.49439212  1
  Zr  Zr59  1  0.19430998  0.60755522  0.39536797  1
  Zr  Zr60  1  0.89685317  0.09433783  0.29259234  1
  Zr  Zr61  1  0.79506764  0.80063646  0.19172356  1
  Zr  Zr62  1  0.59124597  0.19797620  0.59894732  1
  Zr  Zr63  1  0.00619215  0.80690108  0.80258790  1
  Zr  Zr64  1  0.89603849  0.89108169  0.49505727  1
  Zr  Zr65  1  -0.00496624  -0.00057641  0.59832727  1
  Zr  Zr66  1  0.69997921  0.69869063  0.31055629  1
  Zr  Zr67  1  0.30546055  0.10397616  0.30391546  1
  Zr  Zr68  1  0.90889687  0.70092165  0.09593063  1
  Zr  Zr69  1  0.40247644  0.60024739  0.59237515  1
  Zr  Zr70  1  0.39586036  0.60137520  -0.00078688  1
  Zr  Zr71  1  0.49927326  0.29354723  0.90137696  1
  Zr  Zr72  1  0.10733512  0.90439130  0.50309717  1
  Zr  Zr73  1  0.49439283  0.30845991  0.09954099  1
  Zr  Zr74  1  0.30162784  0.89565682  0.10617693  1
  Zr  Zr75  1  0.19942432  0.79044977  0.39985129  1
  Zr  Zr76  1  0.09735030  0.70167574  0.09843683  1
  Zr  Zr77  1  0.60198311  0.79495595  0.60338191  1
  Zr  Zr78  1  0.50274541  0.49864842  0.09830142  1
  Zr  Zr79  1  0.48976168  0.70465722  0.69678832  1
  Zr  Zr80  1  0.79705837  0.19598632  0.39455147  1
  Zr  Zr81  1  0.19897985  0.20788495  0.61658135  1
  Zr  Zr82  1  0.20549196  0.40664905  0.20225778  1
  Zr  Zr83  1  0.28919602  0.08574417  0.70605915  1
  Zr  Zr84  1  0.20066424  0.60674513  0.59609896  1
  Zr  Zr85  1  0.00129575  0.39153206  0.79798110  1
  Zr  Zr86  1  0.49727143  0.70976327  0.10389872  1
  Zr  Zr87  1  0.69739037  0.29709613  0.90380240  1
  Zr  Zr88  1  0.89875657  0.08682780  0.70626426  1
  Zr  Zr89  1  0.90472616  0.29184484  0.90900938  1
  Zr  Zr90  1  0.20478425  0.59266481  0.20191286  1
  Zr  Zr91  1  0.69358547  0.49712821  0.48928703  1
  Zr  Zr92  1  0.59165501  0.41523393  0.81039417  1
  Zr  Zr93  1  0.30232519  0.50207013  0.49437068  1
  Zr  Zr94  1  0.69913012  0.10290946  0.90167179  1
  Zr  Zr95  1  0.00933822  0.18541401  0.01201340  1
  Zr  Zr96  1  0.89131483  0.30541314  0.48832249  1
  Zr  Zr97  1  0.69951599  0.89586862  0.30778767  1
  Zr  Zr98  1  0.19769726  0.41212745  0.38295813  1
  Zr  Zr99  1  0.68917137  0.29746857  0.70738163  1
  Ta  Ta100  1  0.69374505  0.09385684  0.50017645  1
  Ta  Ta101  1  0.40719384  0.80159977  0.40543648  1
  Ta  Ta102  1  0.49300490  0.90147499  0.70090887  1
  Ta  Ta103  1  0.60721949  0.40208100  0.20548840  1
  Ta  Ta104  1  0.80516355  0.59539970  0.40108100  1
  Ta  Ta105  1  0.89897140  0.90536698  0.09274171  1
  Ta  Ta106  1  0.19658110  0.20166010  0.80609926  1
  Ta  Ta107  1  0.09994839  0.09083268  0.70443067  1
  Ta  Ta108  1  0.29386398  0.70328577  0.89612754  1
  Ta  Ta109  1  0.20115178  0.60246662  0.79927611  1
  Ta  Ta110  1  0.39432124  0.80493754  0.80077928  1
  Ta  Ta111  1  0.31740027  0.70378726  0.30026086  1
  Ta  Ta112  1  0.69266782  0.09460677  0.29809832  1
  Ta  Ta113  1  0.80837883  0.40444966  0.79857171  1
  Ta  Ta114  1  0.89675368  0.89861300  0.30119036  1
  Ta  Ta115  1  0.90114129  0.50783701  0.90080736  1
  Ta  Ta116  1  0.61051560  0.61625422  -0.00331563  1
  Ta  Ta117  1  0.80067372  0.60265556  0.59784595  1
  Ta  Ta118  1  0.80275470  0.39920810  0.20526626  1
  Ta  Ta119  1  0.39715704  0.18068656  0.00268011  1
  Ta  Ta120  1  0.79109029  -0.00496415  0.59375151  1
  Ta  Ta121  1  0.51125359  0.50003453  0.30567140  1
  Ta  Ta122  1  0.50308789  0.29970017  0.29439068  1
  Ta  Ta123  1  0.79410355  0.80069854  0.59872531  1
  Ta  Ta124  1  0.58555954  0.40687139  0.59302464  1
  Ta  Ta125  1  0.50733277  0.90525418  0.09168109  1
  Ta  Ta126  1  0.69850231  0.30485025  0.30226896  1
  Ta  Ta127  1  0.00741445  0.20010326  0.79630607  1
  Ta  Ta128  1  0.19111164  0.79442955  0.80003767  1
  Ta  Ta129  1  0.89495925  0.89363903  0.69728535  1
  Ta  Ta130  1  0.80153176  0.60733717  0.79593600  1
  Ta  Ta131  1  0.30328993  0.09832600  0.10340440  1
  Ta  Ta132  1  0.10911690  0.29763144  0.10177060  1
  Ta  Ta133  1  0.30019272  0.90093281  0.50071389  1
  Ta  Ta134  1  0.79301272  -0.00351511  0.40182206  1
  Ta  Ta135  1  0.40164961  0.59587013  0.20509811  1
  Ta  Ta136  1  0.39147482  0.39852758  0.60818912  1
  Ta  Ta137  1  0.79336330  -0.00579796  0.19618993  1
  Ta  Ta138  1  0.00322729  0.40555837  0.19743826  1
  Ta  Ta139  1  0.10219432  0.50350628  0.90237169  1
  Ta  Ta140  1  0.90040265  0.50784925  0.69961525  1
  Ta  Ta141  1  0.80091745  0.19616495  0.59971749  1
  Ta  Ta142  1  0.50538681  0.10050021  0.29776213  1
  Ta  Ta143  1  0.89900810  0.50174134  0.29741788  1
  Ta  Ta144  1  0.60471382  0.80523992  0.19033115  1
  Ta  Ta145  1  0.29918821  0.70294769  0.70409875  1
  Ta  Ta146  1  0.38984352  0.20374271  0.61057251  1
  Ta  Ta147  1  -0.00163030  0.59740273  0.40234856  1
  Ta  Ta148  1  0.59964845  0.19816224  0.39212596  1
  Ta  Ta149  1  0.59845221  -0.00126704  0.40170491  1
  Ti  Ti150  1  0.89260223  0.09759452  0.49862259  1
  Ti  Ti151  1  0.68594199  0.90967008  0.92308666  1
  Ti  Ti152  1  0.31362370  0.71121104  0.50206338  1
  Ti  Ti153  1  -0.00005703  0.81104603  0.20371846  1
  Ti  Ti154  1  0.49753062  0.08630886  0.91231886  1
  Ti  Ti155  1  0.31388453  0.48956169  0.10180814  1
  Ti  Ti156  1  0.89907809  0.90474617  0.90961701  1
  Ti  Ti157  1  0.79754312  0.19504809  0.00705131  1
  Ti  Ti158  1  0.30529632  0.89564131  0.30479261  1
  Ti  Ti159  1  -0.00535488  0.00086401  0.39841448  1
  Ti  Ti160  1  0.50299060  0.89493140  0.29686694  1
  Ti  Ti161  1  0.60060029  -0.00214159  0.19720543  1
  Ti  Ti162  1  0.09464147  0.70168412  0.68695000  1
  Ti  Ti163  1  0.59926006  0.40728656  -0.00353902  1
  Ti  Ti164  1  0.00037122  -0.01043971  0.80521245  1
  Ti  Ti165  1  0.00510670  0.81003519  -0.00906199  1
  Ti  Ti166  1  0.41146485  0.60348371  0.40307928  1
  Ti  Ti167  1  0.38846067  0.58942679  0.80827137  1
  Ti  Ti168  1  0.10119618  0.90910465  0.30513095  1
  Ti  Ti169  1  0.90143994  0.08867116  0.90860377  1
  Ti  Ti170  1  0.60204695  0.19803269  0.19865700  1
  Ti  Ti171  1  0.18932857  -0.00900193  0.80381410  1
  Ti  Ti172  1  0.79068411  0.79837678  0.79926181  1
  Ti  Ti173  1  0.00627523  0.19736488  0.19888305  1
  Ti  Ti174  1  0.40503631  -0.00730211  0.39536642  1
  Ti  Ti175  1  0.10548365  0.29686539  0.90698695  1
  Ti  Ti176  1  0.00230391  0.58791561  0.00858990  1
  Ti  Ti177  1  0.20560336  0.19304564  0.00160125  1
  Ti  Ti178  1  0.69486777  0.90480450  0.68983744  1
  Ti  Ti179  1  0.40578858  0.42270063  -0.03017171  1
  Ti  Ti180  1  0.20320497  -0.00181727  0.20140954  1
  Ti  Ti181  1  0.20532855  0.20213220  0.19624624  1
  Ti  Ti182  1  0.50054977  0.09652745  0.70350878  1
  Ti  Ti183  1  0.40723252  0.19858704  0.19807108  1
  Ti  Ti184  1  0.08478418  0.68624929  0.28702158  1
  Ti  Ti185  1  0.89352671  0.08869893  0.09277376  1
  Ti  Ti186  1  0.09913367  0.89969616  0.69279500  1
  Ti  Ti187  1  0.59787432  0.80379590  0.40873356  1
  Ti  Ti188  1  0.19601972  0.79309331  0.59616704  1
  Ti  Ti189  1  0.10574243  0.70104195  0.91035727  1
  Ti  Ti190  1  0.39748577  -0.00354241  0.80942305  1
  Ti  Ti191  1  0.19895274  0.40799831  0.00304115  1
  Ti  Ti192  1  0.49807618  0.90272582  0.90868573  1
  Ti  Ti193  1  0.30207766  0.70842416  0.10809937  1
  Ti  Ti194  1  0.69699975  0.30563052  0.10124715  1
  Ti  Ti195  1  0.09402057  0.50613245  0.50140043  1
  Ti  Ti196  1  0.10265250  0.29745201  0.29064982  1
  Ti  Ti197  1  0.90178222  0.69934194  0.50262520  1
  Ti  Ti198  1  0.69742198  0.08318772  0.09576385  1
  Ti  Ti199  1  0.89767743  0.50140570  0.49935151  1
  Mo  Mo200  1  -0.00643271  0.59935795  0.59259644  1
  Mo  Mo201  1  0.80140809  0.40748711  0.38819310  1
  Mo  Mo202  1  0.40620668  0.40516969  0.20836576  1
  Mo  Mo203  1  0.09852793  0.89855412  0.90029814  1
  Mo  Mo204  1  0.50339377  0.70050093  0.49434545  1
  Mo  Mo205  1  0.10053149  0.29409204  0.70764974  1
  Mo  Mo206  1  0.20336241  0.21682737  0.37701449  1
  Mo  Mo207  1  0.80036286  -0.00212444  0.00314152  1
  Mo  Mo208  1  0.31894632  0.51177991  0.29946663  1
  Mo  Mo209  1  0.49943746  0.09674702  0.10761445  1
  Mo  Mo210  1  0.50825413  0.51570824  0.90021239  1
  Mo  Mo211  1  -0.00118714  0.58811455  0.19907438  1
  Mo  Mo212  1  0.40491516  0.20312412  0.38310850  1
  Mo  Mo213  1  0.30317125  0.50449378  0.70503863  1
  Mo  Mo214  1  0.59751993  0.39805141  0.39346262  1
  Mo  Mo215  1  0.19859328  -0.00484780  0.59875581  1
  Mo  Mo216  1  0.59712422  -0.00172802  0.60231624  1
  Mo  Mo217  1  0.40100131  0.00289026  0.00147687  1
  Mo  Mo218  1  0.59800069  0.80412244  0.00047786  1
  Mo  Mo219  1  0.89984758  0.30482757  0.28821948  1
  Mo  Mo220  1  0.71289540  0.70168674  0.69593860  1
  Mo  Mo221  1  0.50336660  0.50219793  0.49877795  1
  Mo  Mo222  1  0.39424454  0.80173679  0.60030146  1
  Mo  Mo223  1  0.08223764  0.69840797  0.51191615  1
  Mo  Mo224  1  0.08608697  0.50743501  0.29538666  1
  Mo  Mo225  1  0.70490684  0.49561194  0.30131744  1
  Mo  Mo226  1  0.90117174  0.29956261  0.70135339  1
  Mo  Mo227  1  0.80415790  0.79608230  0.40620614  1
  Mo  Mo228  1  0.19879337  0.79186986  -0.00388679  1
  Mo  Mo229  1  0.59496779  0.59542460  0.40279804  1
  Mo  Mo230  1  0.69517761  0.90613557  0.10087380  1
  Mo  Mo231  1  0.59585853  0.00143981  0.00426838  1
  Mo  Mo232  1  0.40718433  0.80369073  0.20900441  1
  Mo  Mo233  1  0.60021577  0.59802810  0.59482018  1
  Mo  Mo234  1  0.21158979  -0.01603988  0.39166075  1
  Mo  Mo235  1  0.90347618  0.50046050  0.10196449  1
  Mo  Mo236  1  0.31009292  0.29670997  0.28801848  1
  Mo  Mo237  1  0.30457149  0.30071281  0.71024115  1
  Mo  Mo238  1  0.69611869  0.70165214  0.09465814  1
  Mo  Mo239  1  0.80330365  0.60314027  -0.00277727  1
  Mo  Mo240  1  0.69711934  0.90132093  0.50040173  1
  Mo  Mo241  1  0.58411709  0.18371543  0.80747955  1
  Mo  Mo242  1  0.39275845  0.41564618  0.79975822  1
  Mo  Mo243  1  0.29251526  0.50407175  0.89960275  1
  Mo  Mo244  1  0.70612247  0.70483903  0.89795489  1
  Mo  Mo245  1  0.11612284  0.10402306  0.10802303  1
  Mo  Mo246  1  -0.00406534  -0.00307024  -0.00222574  1
  Mo  Mo247  1  -0.00061362  0.79827093  0.60067185  1
  Mo  Mo248  1  0.29353927  0.09709285  0.90277274  1
  Mo  Mo249  1  0.10092022  0.49507132  0.09816073  1
