# generated using pymatgen
data_HfZrTaTiMo
_symmetry_space_group_name_H-M   'P 1'
_cell_length_a   16.88955315
_cell_length_b   16.89285718
_cell_length_c   16.88991070
_cell_angle_alpha   90.04556916
_cell_angle_beta   89.92563101
_cell_angle_gamma   90.00930726
_symmetry_Int_Tables_number   1
_chemical_formula_structural   HfZrTaTiMo
_chemical_formula_sum   'Hf50 Zr50 Ta50 Ti50 Mo50'
_cell_volume   4818.90222210
_cell_formula_units_Z   50
loop_
 _symmetry_equiv_pos_site_id
 _symmetry_equiv_pos_as_xyz
  1  'x, y, z'
loop_
 _atom_site_type_symbol
 _atom_site_label
 _atom_site_symmetry_multiplicity
 _atom_site_fract_x
 _atom_site_fract_y
 _atom_site_fract_z
 _atom_site_occupancy
  Hf  Hf0  1  0.31011911  0.28928788  0.49691335  1
  Hf  Hf1  1  0.79195361  0.19359319  0.00196649  1
  Hf  Hf2  1  0.31049844  0.10111996  0.09396812  1
  Hf  Hf3  1  0.79606635  0.20720873  0.59930411  1
  Hf  Hf4  1  0.78562714  0.40468573  0.80232769  1
  Hf  Hf5  1  0.40575260  0.40469659  0.40474384  1
  Hf  Hf6  1  0.31060614  0.30447118  0.69501090  1
  Hf  Hf7  1  0.18555010  0.60056537  0.19934133  1
  Hf  Hf8  1  0.59960294  0.39918567  0.80016413  1
  Hf  Hf9  1  -0.00034179  0.20130375  0.80622181  1
  Hf  Hf10  1  0.40379447  0.80796377  -0.00321904  1
  Hf  Hf11  1  0.49745353  0.50280549  0.70035524  1
  Hf  Hf12  1  0.09118598  0.70824606  0.90912393  1
  Hf  Hf13  1  0.20378898  0.60459477  0.79700715  1
  Hf  Hf14  1  0.89346676  0.69905802  0.30254947  1
  Hf  Hf15  1  0.09477434  0.89293173  0.90386669  1
  Hf  Hf16  1  0.18920241  0.80142667  0.39690261  1
  Hf  Hf17  1  0.40397678  0.59469404  0.19974721  1
  Hf  Hf18  1  0.10230711  0.10551433  0.30799028  1
  Hf  Hf19  1  0.89533893  0.09754334  0.50590947  1
  Hf  Hf20  1  0.89730233  0.90322614  0.69715895  1
  Hf  Hf21  1  0.69879116  0.90143429  0.89262801  1
  Hf  Hf22  1  0.29914097  0.48838923  0.10276880  1
  Hf  Hf23  1  0.51325887  0.89825706  0.89164568  1
  Hf  Hf24  1  0.21990731  -0.01329884  -0.00586759  1
  Hf  Hf25  1  -0.00414001  0.00856219  0.19130145  1
  Hf  Hf26  1  0.29338593  0.70757851  0.10166611  1
  Hf  Hf27  1  0.40742900  0.20940052  0.80133884  1
  Hf  Hf28  1  0.19471648  0.59596579  0.00318763  1
  Hf  Hf29  1  0.32431715  0.30265836  0.08564281  1
  Hf  Hf30  1  0.30583573  0.89837640  0.29630076  1
  Hf  Hf31  1  0.09137187  0.49882762  0.69892793  1
  Hf  Hf32  1  0.69799230  0.70709359  0.89531955  1
  Hf  Hf33  1  0.51072106  0.10693527  0.49995626  1
  Hf  Hf34  1  0.60034019  0.60829237  0.59347499  1
  Hf  Hf35  1  -0.01372810  0.60715721  0.60209395  1
  Hf  Hf36  1  0.80193246  0.59696359  -0.00027727  1
  Hf  Hf37  1  0.30405234  0.70137317  0.29985831  1
  Hf  Hf38  1  0.09156352  0.50058469  0.49994623  1
  Hf  Hf39  1  0.79962741  0.00459254  0.00526359  1
  Hf  Hf40  1  0.60436927  0.39761262  0.21115838  1
  Hf  Hf41  1  0.20754127  0.60475993  0.59696516  1
  Hf  Hf42  1  0.19888438  0.39484522  0.39899595  1
  Hf  Hf43  1  0.50360551  0.89570831  0.28370568  1
  Hf  Hf44  1  -0.00902353  0.39926283  0.80452721  1
  Hf  Hf45  1  0.79741684  0.40230722  0.21147956  1
  Hf  Hf46  1  -0.00225445  0.39163059  0.20632886  1
  Hf  Hf47  1  0.79563443  -0.00890580  0.40353709  1
  Hf  Hf48  1  0.30220199  0.49814110  0.30125065  1
  Hf  Hf49  1  -0.00851554  0.39319791  0.39421525  1
  Zr  Zr50  1  0.29746610  0.89929705  0.69308707  1
  Zr  Zr51  1  0.09805567  0.89070947  0.08889978  1
  Zr  Zr52  1  0.68999824  0.29390018  0.49888179  1
  Zr  Zr53  1  0.49613392  0.47986640  0.09604909  1
  Zr  Zr54  1  0.00255617  0.78672345  0.19900164  1
  Zr  Zr55  1  0.68981556  0.09812791  0.89519561  1
  Zr  Zr56  1  0.90025675  0.88965258  0.09579963  1
  Zr  Zr57  1  0.18875798  0.39210999  0.20751145  1
  Zr  Zr58  1  -0.01147204  0.39902754  -0.00648755  1
  Zr  Zr59  1  -0.00527107  0.00361540  0.80633522  1
  Zr  Zr60  1  0.09846680  0.09584617  0.69452713  1
  Zr  Zr61  1  0.50812945  0.70622492  0.70489185  1
  Zr  Zr62  1  0.50185652  0.71598535  0.11843428  1
  Zr  Zr63  1  0.10382871  0.09999180  0.49935853  1
  Zr  Zr64  1  0.30579683  0.50226040  0.70008267  1
  Zr  Zr65  1  0.20051543  0.40299630  0.59396062  1
  Zr  Zr66  1  0.70073329  0.10050820  0.70099603  1
  Zr  Zr67  1  0.20123538  0.00082719  0.19802566  1
  Zr  Zr68  1  0.60694663  0.59821193  0.79885012  1
  Zr  Zr69  1  0.60638163  0.40600866  0.39659710  1
  Zr  Zr70  1  0.29955475  0.90495840  0.49789136  1
  Zr  Zr71  1  0.30089133  0.70398019  0.49209748  1
  Zr  Zr72  1  0.19773645  0.20430471  0.60053639  1
  Zr  Zr73  1  0.69648396  0.29743928  0.10758402  1
  Zr  Zr74  1  0.80408515  0.39347240  0.39547946  1
  Zr  Zr75  1  0.48968573  0.30775584  0.92647647  1
  Zr  Zr76  1  0.30499414  0.10301038  0.69163265  1
  Zr  Zr77  1  0.11325923  0.10572660  0.91116059  1
  Zr  Zr78  1  0.42634873  0.19318311  0.19149248  1
  Zr  Zr79  1  0.89109980  0.29855268  0.70541940  1
  Zr  Zr80  1  0.09399777  0.70869614  0.70138496  1
  Zr  Zr81  1  0.58378988  0.19620642  0.02391160  1
  Zr  Zr82  1  -0.01385532  0.19484984  -0.00030437  1
  Zr  Zr83  1  0.41024539  0.79380504  0.59689742  1
  Zr  Zr84  1  0.40870013  0.00125177  0.59355893  1
  Zr  Zr85  1  0.11174943  0.29620411  0.07535255  1
  Zr  Zr86  1  -0.00152395  0.20404358  0.19936753  1
  Zr  Zr87  1  0.50642609  0.69882366  0.30589558  1
  Zr  Zr88  1  0.79616672  -0.00368054  0.20368442  1
  Zr  Zr89  1  -0.00234356  -0.00656499  0.40543470  1
  Zr  Zr90  1  0.70336178  0.50923911  0.49794689  1
  Zr  Zr91  1  0.40162179  0.60507455  -0.00538614  1
  Zr  Zr92  1  0.20361421  0.20287684  0.19984546  1
  Zr  Zr93  1  0.09450765  0.50188169  0.89669787  1
  Zr  Zr94  1  0.51031599  0.10491164  0.69698135  1
  Zr  Zr95  1  0.59898245  0.60526781  0.00606712  1
  Zr  Zr96  1  -0.00594269  0.80338157  0.40997884  1
  Zr  Zr97  1  0.50618425  0.09567036  0.89894924  1
  Zr  Zr98  1  0.20657392  -0.00056444  0.80061173  1
  Zr  Zr99  1  0.29233821  0.71038992  0.90048251  1
  Ta  Ta100  1  0.70048386  0.69963087  0.30436120  1
  Ta  Ta101  1  0.89250614  0.50181464  0.70052077  1
  Ta  Ta102  1  0.70193157  0.71078580  0.69445267  1
  Ta  Ta103  1  0.40828391  -0.00729647  0.00207066  1
  Ta  Ta104  1  0.51041895  0.89828944  0.49555985  1
  Ta  Ta105  1  0.89689792  0.89396550  0.90310261  1
  Ta  Ta106  1  0.89644504  0.89425833  0.30105761  1
  Ta  Ta107  1  0.89611118  0.70314919  0.89953544  1
  Ta  Ta108  1  -0.01354969  0.20696928  0.39989036  1
  Ta  Ta109  1  0.51654647  0.89751401  0.69957104  1
  Ta  Ta110  1  0.20380082  0.21231010  0.80474730  1
  Ta  Ta111  1  0.79662151  0.40437760  -0.00261362  1
  Ta  Ta112  1  0.79436487  0.40457966  0.60368337  1
  Ta  Ta113  1  -0.00656537  0.60201679  0.40441642  1
  Ta  Ta114  1  0.09431138  0.69995389  0.50161355  1
  Ta  Ta115  1  0.19167234  0.79640842  0.20077256  1
  Ta  Ta116  1  0.79914574  0.19819794  0.39560832  1
  Ta  Ta117  1  0.69621634  0.09909488  0.49993899  1
  Ta  Ta118  1  0.61053086  -0.00894499  0.59485334  1
  Ta  Ta119  1  0.49767953  0.50401034  0.89833270  1
  Ta  Ta120  1  0.89543810  0.09830669  0.30202822  1
  Ta  Ta121  1  -0.00579790  0.20756730  0.59710695  1
  Ta  Ta122  1  0.31219016  0.29299106  0.30084728  1
  Ta  Ta123  1  0.09776321  0.90332215  0.29762195  1
  Ta  Ta124  1  0.39730473  0.40249626  0.80802678  1
  Ta  Ta125  1  0.88769640  0.30086878  0.10170633  1
  Ta  Ta126  1  0.50358763  0.29349454  0.30556585  1
  Ta  Ta127  1  0.89827689  0.49914974  0.10285385  1
  Ta  Ta128  1  0.40186229  0.80086158  0.79987678  1
  Ta  Ta129  1  0.60441049  -0.00253386  0.39534520  1
  Ta  Ta130  1  0.50290416  0.29214416  0.50358267  1
  Ta  Ta131  1  0.79650790  0.79618942  0.20124097  1
  Ta  Ta132  1  0.40278766  -0.00662219  0.80271164  1
  Ta  Ta133  1  0.89391901  0.10144878  0.70030261  1
  Ta  Ta134  1  -0.01077908  0.80002933  0.79622189  1
  Ta  Ta135  1  0.87963508  0.29493611  0.89932871  1
  Ta  Ta136  1  0.20570347  0.00198287  0.39880515  1
  Ta  Ta137  1  0.59961699  0.80092040  0.00385272  1
  Ta  Ta138  1  0.40196550  0.60230245  0.59228373  1
  Ta  Ta139  1  0.60300990  0.39995155  0.60843730  1
  Ta  Ta140  1  0.88643253  0.70329203  0.50014992  1
  Ta  Ta141  1  0.40987941  0.00567274  0.39265467  1
  Ta  Ta142  1  0.09570150  0.29443790  0.49407337  1
  Ta  Ta143  1  0.60471055  0.79928536  0.40359618  1
  Ta  Ta144  1  -0.01345674  0.39436062  0.59382617  1
  Ta  Ta145  1  0.80256033  0.80064199  0.79389996  1
  Ta  Ta146  1  -0.01551168  0.01232164  -0.00046751  1
  Ta  Ta147  1  0.60461487  0.22325515  0.79718884  1
  Ta  Ta148  1  0.68970031  0.09517117  0.11714656  1
  Ta  Ta149  1  0.19511614  0.59594905  0.40238138  1
  Ti  Ti150  1  0.20271564  0.39546166  0.80451236  1
  Ti  Ti151  1  0.20411795  0.80548504  0.79718026  1
  Ti  Ti152  1  0.31047805  0.10763809  0.90326956  1
  Ti  Ti153  1  0.79671096  0.59988059  0.19801481  1
  Ti  Ti154  1  0.80134001  0.60209550  0.79525560  1
  Ti  Ti155  1  0.30901979  0.09867077  0.29829751  1
  Ti  Ti156  1  0.09396190  0.69365614  0.30651324  1
  Ti  Ti157  1  -0.00314900  -0.00424655  0.59838821  1
  Ti  Ti158  1  -0.00731525  0.59844593  0.00318796  1
  Ti  Ti159  1  0.40852486  0.40470718  0.59323356  1
  Ti  Ti160  1  0.89343986  0.50357568  0.50216889  1
  Ti  Ti161  1  0.30950591  0.89449468  0.11009542  1
  Ti  Ti162  1  0.11019765  0.10159013  0.08945973  1
  Ti  Ti163  1  -0.01711540  0.60394338  0.79931044  1
  Ti  Ti164  1  0.61136402  0.39945580  -0.00196484  1
  Ti  Ti165  1  0.59744553  -0.00831373  0.01496288  1
  Ti  Ti166  1  0.69805268  0.70318837  0.10762988  1
  Ti  Ti167  1  0.50572977  0.50526822  0.30493946  1
  Ti  Ti168  1  0.70405067  0.70529641  0.49603528  1
  Ti  Ti169  1  0.60803701  0.59546948  0.20500566  1
  Ti  Ti170  1  0.00142602  0.59810096  0.19329386  1
  Ti  Ti171  1  0.79802196  0.59956240  0.39735901  1
  Ti  Ti172  1  0.79473201  0.19661464  0.21019394  1
  Ti  Ti173  1  0.79482209  0.79710990  0.00362833  1
  Ti  Ti174  1  0.10641453  0.90212686  0.51076287  1
  Ti  Ti175  1  0.70202862  0.49976062  0.10327616  1
  Ti  Ti176  1  0.80191466  0.00124743  0.80068757  1
  Ti  Ti177  1  -0.00924892  0.80159171  0.59883059  1
  Ti  Ti178  1  0.41023781  0.80330403  0.40198183  1
  Ti  Ti179  1  0.21060005  0.39659109  -0.02235650  1
  Ti  Ti180  1  0.40742672  0.19066703  0.39468869  1
  Ti  Ti181  1  0.09984861  0.90043472  0.69383679  1
  Ti  Ti182  1  0.39793615  0.61014791  0.80215586  1
  Ti  Ti183  1  0.69868202  0.89034382  0.29982708  1
  Ti  Ti184  1  0.60626960  0.19091177  0.38451150  1
  Ti  Ti185  1  0.69054632  0.89447799  0.10724516  1
  Ti  Ti186  1  0.20116319  0.79525375  0.60269122  1
  Ti  Ti187  1  0.90105878  0.51040184  0.29645214  1
  Ti  Ti188  1  0.79783002  0.60307491  0.60935566  1
  Ti  Ti189  1  0.09697296  0.30546133  0.69885107  1
  Ti  Ti190  1  0.80017490  0.80291441  0.59910778  1
  Ti  Ti191  1  0.09270671  0.49252144  0.09599019  1
  Ti  Ti192  1  0.70079144  0.89024113  0.50203818  1
  Ti  Ti193  1  0.40364384  0.59670670  0.40994901  1
  Ti  Ti194  1  0.30210657  0.10179129  0.49600540  1
  Ti  Ti195  1  0.79452443  -0.00683145  0.59906233  1
  Ti  Ti196  1  0.09202394  0.50412147  0.30517310  1
  Ti  Ti197  1  0.89992969  0.69692473  0.09675720  1
  Ti  Ti198  1  0.69786016  0.50433732  0.90426817  1
  Ti  Ti199  1  0.50610632  0.50428731  0.49885999  1
  Mo  Mo200  1  0.70582980  0.89978990  0.69707526  1
  Mo  Mo201  1  0.89218148  0.28913093  0.29479419  1
  Mo  Mo202  1  0.30110479  0.29865821  0.89721992  1
  Mo  Mo203  1  0.61088200  0.80243929  0.59384761  1
  Mo  Mo204  1  0.30852821  0.90047077  0.89410919  1
  Mo  Mo205  1  0.50390234  0.70221421  0.49437691  1
  Mo  Mo206  1  0.40565404  0.18367961  -0.00030379  1
  Mo  Mo207  1  0.60334891  -0.00700583  0.78529194  1
  Mo  Mo208  1  0.38683602  0.41752914  -0.01762155  1
  Mo  Mo209  1  0.79457972  0.79902055  0.40123472  1
  Mo  Mo210  1  0.89147308  0.89528839  0.50905648  1
  Mo  Mo211  1  0.49890382  0.30757338  0.68935950  1
  Mo  Mo212  1  0.49931652  0.31693672  0.10759594  1
  Mo  Mo213  1  0.39098385  0.80049839  0.20136073  1
  Mo  Mo214  1  0.70018714  0.09452329  0.30521509  1
  Mo  Mo215  1  0.40425705  -0.00285712  0.19922162  1
  Mo  Mo216  1  0.88637618  0.10492344  0.10831099  1
  Mo  Mo217  1  0.50426841  0.07270614  0.11085825  1
  Mo  Mo218  1  0.88651765  0.09894337  0.89033533  1
  Mo  Mo219  1  0.50195584  0.70379292  0.89740670  1
  Mo  Mo220  1  0.69572123  0.30147038  0.90650107  1
  Mo  Mo221  1  0.21301112  0.19617188  0.39645104  1
  Mo  Mo222  1  0.89674229  0.29995927  0.50074025  1
  Mo  Mo223  1  0.60748473  0.79983658  0.79723356  1
  Mo  Mo224  1  0.89095774  0.50884799  0.89819035  1
  Mo  Mo225  1  0.30000358  0.50315776  0.89130111  1
  Mo  Mo226  1  0.69779976  0.28347194  0.30045305  1
  Mo  Mo227  1  0.69656166  0.30446952  0.69883111  1
  Mo  Mo228  1  0.89054930  0.70202111  0.69954714  1
  Mo  Mo229  1  -0.01129546  0.79038509  -0.00465493  1
  Mo  Mo230  1  0.70384875  0.52182971  0.29692418  1
  Mo  Mo231  1  0.10707300  0.28959272  0.31725372  1
  Mo  Mo232  1  0.60169986  0.60654342  0.40185562  1
  Mo  Mo233  1  0.10793079  0.30238045  0.89047534  1
  Mo  Mo234  1  0.40745063  0.20438808  0.59486362  1
  Mo  Mo235  1  0.79331950  0.20034596  0.80348262  1
  Mo  Mo236  1  0.30921249  0.50548413  0.49637027  1
  Mo  Mo237  1  0.21570435  0.20231162  -0.00811623  1
  Mo  Mo238  1  0.09452734  0.69380119  0.09766047  1
  Mo  Mo239  1  0.20103789  0.80314806  0.00680610  1
  Mo  Mo240  1  0.60303742  0.19331775  0.21142175  1
  Mo  Mo241  1  0.30559221  0.70509021  0.70224751  1
  Mo  Mo242  1  0.61784742  0.79945604  0.20253466  1
  Mo  Mo243  1  0.50663096  0.09249114  0.30296320  1
  Mo  Mo244  1  0.41005957  0.39405872  0.21883575  1
  Mo  Mo245  1  0.50415823  0.89836832  0.10002417  1
  Mo  Mo246  1  0.60223463  0.20666953  0.60483245  1
  Mo  Mo247  1  0.60379086  -0.00449519  0.20592096  1
  Mo  Mo248  1  0.70382188  0.50757580  0.69408872  1
  Mo  Mo249  1  0.19549314  -0.00351124  0.59074525  1
