# generated using pymatgen
data_HfZrTaTiMo
_symmetry_space_group_name_H-M   'P 1'
_cell_length_a   16.89094659
_cell_length_b   16.88591468
_cell_length_c   16.87622354
_cell_angle_alpha   90.02515868
_cell_angle_beta   89.98895558
_cell_angle_gamma   89.94612360
_symmetry_Int_Tables_number   1
_chemical_formula_structural   HfZrTaTiMo
_chemical_formula_sum   'Hf50 Zr50 Ta50 Ti50 Mo50'
_cell_volume   4813.41831984
_cell_formula_units_Z   50
loop_
 _symmetry_equiv_pos_site_id
 _symmetry_equiv_pos_as_xyz
  1  'x, y, z'
loop_
 _atom_site_type_symbol
 _atom_site_label
 _atom_site_symmetry_multiplicity
 _atom_site_fract_x
 _atom_site_fract_y
 _atom_site_fract_z
 _atom_site_occupancy
  Hf  Hf0  1  0.49913685  0.11080433  0.11651273  1
  Hf  Hf1  1  0.90818423  0.70750060  0.88270347  1
  Hf  Hf2  1  0.59503816  0.19748037  0.80643933  1
  Hf  Hf3  1  0.80554274  -0.00920917  0.59989048  1
  Hf  Hf4  1  0.10295282  0.50889355  0.49678784  1
  Hf  Hf5  1  0.49806436  0.89164886  0.90833731  1
  Hf  Hf6  1  0.39621101  0.60812530  0.20492076  1
  Hf  Hf7  1  0.10859598  0.90070740  0.10270936  1
  Hf  Hf8  1  0.48950464  0.89473358  0.69314079  1
  Hf  Hf9  1  0.49807067  0.90062422  0.09992704  1
  Hf  Hf10  1  0.89360272  0.90269321  0.89421976  1
  Hf  Hf11  1  0.90391590  0.30446604  0.29254379  1
  Hf  Hf12  1  0.70207007  0.29837770  0.50352131  1
  Hf  Hf13  1  0.89916761  0.30084125  0.50547999  1
  Hf  Hf14  1  -0.00016146  0.17887273  0.19757986  1
  Hf  Hf15  1  0.60575989  0.59155341  0.60299760  1
  Hf  Hf16  1  0.19556245  0.19612037  0.60775727  1
  Hf  Hf17  1  0.18837057  0.79744900  0.59749838  1
  Hf  Hf18  1  0.41369530  -0.00213975  0.39600895  1
  Hf  Hf19  1  0.89053533  0.89570659  0.10590822  1
  Hf  Hf20  1  0.50451612  0.30374386  0.10081957  1
  Hf  Hf21  1  0.59541577  0.00559302  0.00156097  1
  Hf  Hf22  1  0.59705368  -0.00236960  0.39748578  1
  Hf  Hf23  1  0.49975322  0.70367848  0.70142272  1
  Hf  Hf24  1  0.40724730  0.18479406  0.60607621  1
  Hf  Hf25  1  0.69544210  0.71208930  0.50225585  1
  Hf  Hf26  1  0.59001742  0.00553154  0.59791203  1
  Hf  Hf27  1  0.90794991  0.70797406  0.49339489  1
  Hf  Hf28  1  0.50115512  0.30051683  0.50493561  1
  Hf  Hf29  1  0.79434319  0.40662601  0.40164462  1
  Hf  Hf30  1  0.10519283  0.29594970  0.89385547  1
  Hf  Hf31  1  0.10084105  0.50623965  0.29691010  1
  Hf  Hf32  1  0.20524481  0.61051403  0.59509205  1
  Hf  Hf33  1  0.69509216  0.70480857  0.09380577  1
  Hf  Hf34  1  0.90170816  0.69853493  0.30475061  1
  Hf  Hf35  1  0.20005189  0.40446394  -0.00049072  1
  Hf  Hf36  1  0.10136915  0.50554517  0.70226015  1
  Hf  Hf37  1  0.90114291  0.30776464  0.90137291  1
  Hf  Hf38  1  0.50031670  0.49374368  0.29605480  1
  Hf  Hf39  1  0.50503778  0.70262895  0.08635053  1
  Hf  Hf40  1  0.79072940  0.60470985  0.78729074  1
  Hf  Hf41  1  0.90643399  0.50485253  0.29133259  1
  Hf  Hf42  1  0.00379064  0.59876514  0.00014377  1
  Hf  Hf43  1  0.89849619  0.50065078  0.88750296  1
  Hf  Hf44  1  0.39883384  0.39828412  0.39752823  1
  Hf  Hf45  1  0.00343746  0.19294877  0.60321364  1
  Hf  Hf46  1  0.10137110  0.30016464  0.29203829  1
  Hf  Hf47  1  0.79928871  0.60002076  0.60394777  1
  Hf  Hf48  1  0.50161272  0.29092765  0.28877749  1
  Hf  Hf49  1  0.39062936  0.60296227  -0.00424637  1
  Zr  Zr50  1  0.89483978  0.70266320  0.10932795  1
  Zr  Zr51  1  0.59511877  0.80341718  0.38958135  1
  Zr  Zr52  1  0.30517442  0.89565121  0.50517279  1
  Zr  Zr53  1  0.50352218  0.50225080  0.09189418  1
  Zr  Zr54  1  0.91283395  0.89179339  0.70993073  1
  Zr  Zr55  1  0.90669391  0.50763724  0.50240937  1
  Zr  Zr56  1  0.29096038  0.90276538  0.90541166  1
  Zr  Zr57  1  0.49345472  0.49912519  0.70767456  1
  Zr  Zr58  1  0.89483878  0.89502925  0.31402428  1
  Zr  Zr59  1  0.80562575  0.19489529  0.60320527  1
  Zr  Zr60  1  0.88148229  0.08932754  0.08643291  1
  Zr  Zr61  1  0.00172581  0.19406527  0.40010101  1
  Zr  Zr62  1  0.00338654  0.79874942  -0.00157562  1
  Zr  Zr63  1  0.00354103  0.39931929  0.40302728  1
  Zr  Zr64  1  0.40586771  0.18869823  0.39556709  1
  Zr  Zr65  1  0.30086837  0.29785317  0.50805126  1
  Zr  Zr66  1  0.19370305  -0.01011727  0.60761918  1
  Zr  Zr67  1  0.59644868  0.80146368  0.21082386  1
  Zr  Zr68  1  0.29908145  0.49934117  0.88981411  1
  Zr  Zr69  1  0.00743017  -0.00147587  -0.00424843  1
  Zr  Zr70  1  0.60102139  0.19488143  0.60884833  1
  Zr  Zr71  1  0.79430062  0.21310158  0.80451417  1
  Zr  Zr72  1  0.39651390  0.80168621  0.20501860  1
  Zr  Zr73  1  0.59466890  0.59956986  0.40022097  1
  Zr  Zr74  1  0.40288101  0.00477726  0.80177254  1
  Zr  Zr75  1  0.89893206  0.09268228  0.89099546  1
  Zr  Zr76  1  0.90021763  0.31254274  0.70407407  1
  Zr  Zr77  1  0.39083473  0.60241844  0.40303928  1
  Zr  Zr78  1  0.40280368  0.79250537  0.39188053  1
  Zr  Zr79  1  0.01236823  0.80152745  0.21051950  1
  Zr  Zr80  1  0.79871885  0.19672589  0.19663492  1
  Zr  Zr81  1  0.00502340  0.19483365  -0.00181139  1
  Zr  Zr82  1  0.28756904  0.10290027  0.89744369  1
  Zr  Zr83  1  0.20207123  0.18848089  0.19511718  1
  Zr  Zr84  1  0.69810754  0.29773317  0.29495030  1
  Zr  Zr85  1  0.60831213  0.20547249  0.00007363  1
  Zr  Zr86  1  0.80367775  0.60550217  -0.00623935  1
  Zr  Zr87  1  0.59503766  0.00281319  0.80503058  1
  Zr  Zr88  1  0.50328860  0.50511972  0.89703341  1
  Zr  Zr89  1  0.90150986  0.31032796  0.10040458  1
  Zr  Zr90  1  0.72275415  0.08981581  0.91535747  1
  Zr  Zr91  1  0.20498428  0.39779759  0.40018206  1
  Zr  Zr92  1  0.78695690  0.60151095  0.39815698  1
  Zr  Zr93  1  0.09793689  0.30640638  0.10297693  1
  Zr  Zr94  1  0.71288013  0.08715141  0.70993173  1
  Zr  Zr95  1  0.30413490  0.49011959  0.69710800  1
  Zr  Zr96  1  0.29466951  0.09093883  0.49745300  1
  Zr  Zr97  1  0.39910378  0.19785796  -0.00305444  1
  Zr  Zr98  1  0.80322442  0.79638101  0.60924864  1
  Zr  Zr99  1  0.69464695  0.50221692  0.08725151  1
  Ta  Ta100  1  0.30113128  0.71062427  0.69788033  1
  Ta  Ta101  1  0.39148378  0.80177265  0.80097418  1
  Ta  Ta102  1  0.60386021  0.39954775  0.79678616  1
  Ta  Ta103  1  0.19207125  -0.00339455  0.79756335  1
  Ta  Ta104  1  0.70131907  0.09695772  0.30150950  1
  Ta  Ta105  1  0.49306509  0.30542188  0.70457168  1
  Ta  Ta106  1  0.78725898  -0.00775868  0.20614117  1
  Ta  Ta107  1  0.80302820  0.19115480  0.39918424  1
  Ta  Ta108  1  0.00970735  0.40177246  0.60443495  1
  Ta  Ta109  1  0.39436898  0.60558765  0.59689607  1
  Ta  Ta110  1  0.90704619  0.08502549  0.70765043  1
  Ta  Ta111  1  0.01052630  0.61486966  0.60131387  1
  Ta  Ta112  1  0.49848284  0.30890863  0.89772410  1
  Ta  Ta113  1  0.60160385  0.40297925  0.60361057  1
  Ta  Ta114  1  0.39353207  0.39682420  -0.00160795  1
  Ta  Ta115  1  0.49383736  0.49490576  0.50907128  1
  Ta  Ta116  1  0.69306829  0.50288064  0.89426098  1
  Ta  Ta117  1  0.30112928  0.29678307  0.10009994  1
  Ta  Ta118  1  0.50116120  0.70297583  0.89771686  1
  Ta  Ta119  1  0.89788513  0.08428714  0.30612569  1
  Ta  Ta120  1  0.10006321  0.08989509  0.49479714  1
  Ta  Ta121  1  0.00579646  -0.00894949  0.59759579  1
  Ta  Ta122  1  0.70619588  0.09332210  0.49439368  1
  Ta  Ta123  1  0.49706215  0.70626854  0.51227678  1
  Ta  Ta124  1  0.60123019  0.40280949  0.40482281  1
  Ta  Ta125  1  0.00606581  0.41743698  0.00102331  1
  Ta  Ta126  1  0.60271027  0.60530337  0.20604205  1
  Ta  Ta127  1  0.39279699  0.40080609  0.19480521  1
  Ta  Ta128  1  0.29765587  0.09518852  0.70312303  1
  Ta  Ta129  1  0.60604975  0.39958722  0.19497183  1
  Ta  Ta130  1  0.19962595  0.19480537  0.00008860  1
  Ta  Ta131  1  0.70350671  0.89884298  0.49588441  1
  Ta  Ta132  1  0.00777240  0.40463379  0.80007423  1
  Ta  Ta133  1  0.29303837  0.70575168  0.89772753  1
  Ta  Ta134  1  0.10497392  0.70156163  0.89359904  1
  Ta  Ta135  1  0.20094445  0.61118255  0.79316826  1
  Ta  Ta136  1  0.30065732  0.29529860  0.28981538  1
  Ta  Ta137  1  0.29472124  0.90378426  0.30405769  1
  Ta  Ta138  1  0.20327810  0.79838210  0.20619541  1
  Ta  Ta139  1  0.20815197  -0.00471314  0.19833669  1
  Ta  Ta140  1  0.29296904  0.70397664  0.09653744  1
  Ta  Ta141  1  0.90320110  0.08492476  0.49535910  1
  Ta  Ta142  1  0.20435527  0.40809920  0.19468496  1
  Ta  Ta143  1  0.39224473  0.00506900  0.01081219  1
  Ta  Ta144  1  0.19898012  0.80130287  0.00089940  1
  Ta  Ta145  1  0.10900896  0.69857517  0.09917214  1
  Ta  Ta146  1  0.20460027  0.60415914  0.19942799  1
  Ta  Ta147  1  0.60008511  0.18994387  0.40057148  1
  Ta  Ta148  1  0.39359069  0.00521616  0.20283516  1
  Ta  Ta149  1  0.10367042  0.08300869  0.30390563  1
  Ti  Ti150  1  0.09995270  0.90028669  0.89457042  1
  Ti  Ti151  1  0.59791619  0.80252369  0.80288489  1
  Ti  Ti152  1  0.30332661  0.49432379  0.50744436  1
  Ti  Ti153  1  0.70001710  0.31916581  0.90745806  1
  Ti  Ti154  1  0.79284995  0.59848184  0.19870992  1
  Ti  Ti155  1  0.92009802  0.70380378  0.70461549  1
  Ti  Ti156  1  0.49779932  0.89115364  0.51131093  1
  Ti  Ti157  1  0.19671827  0.39393961  0.60256754  1
  Ti  Ti158  1  0.00809404  0.59716273  0.18722282  1
  Ti  Ti159  1  0.59901334  -0.00046603  0.20890917  1
  Ti  Ti160  1  0.20071275  0.39657579  0.79705882  1
  Ti  Ti161  1  0.79693512  0.40874272  0.19176112  1
  Ti  Ti162  1  0.68357488  0.69901153  0.90007329  1
  Ti  Ti163  1  0.39157774  0.61301143  0.79795737  1
  Ti  Ti164  1  0.00185990  -0.00469944  0.20409777  1
  Ti  Ti165  1  0.29864776  0.29673903  0.89224420  1
  Ti  Ti166  1  0.40483827  0.19548876  0.80076678  1
  Ti  Ti167  1  0.69591674  0.49864642  0.29432740  1
  Ti  Ti168  1  0.02106763  0.80155789  0.40600996  1
  Ti  Ti169  1  0.79339302  0.79999024  -0.00669117  1
  Ti  Ti170  1  0.69083237  0.89373386  0.69597473  1
  Ti  Ti171  1  0.78126060  0.80052942  0.21850364  1
  Ti  Ti172  1  0.10218225  0.29914390  0.70587822  1
  Ti  Ti173  1  0.29831074  0.50251800  0.09951127  1
  Ti  Ti174  1  0.90308995  0.89410151  0.49681162  1
  Ti  Ti175  1  0.69917512  0.09951157  0.10486069  1
  Ti  Ti176  1  0.10210090  0.69352476  0.30365141  1
  Ti  Ti177  1  0.69909289  0.89665423  0.90150774  1
  Ti  Ti178  1  0.00462719  0.19613635  0.79864493  1
  Ti  Ti179  1  0.10225221  0.29587585  0.50120418  1
  Ti  Ti180  1  0.78667065  0.79846538  0.79766437  1
  Ti  Ti181  1  0.19759928  0.60065513  -0.00110013  1
  Ti  Ti182  1  0.11057080  0.08743557  0.09483033  1
  Ti  Ti183  1  0.80190221  0.40669505  0.00126394  1
  Ti  Ti184  1  0.90797976  0.50312884  0.70161322  1
  Ti  Ti185  1  0.70131431  0.31070534  0.70210584  1
  Ti  Ti186  1  0.10279460  0.50810146  0.89022992  1
  Ti  Ti187  1  0.00963166  -0.01271738  0.40236503  1
  Ti  Ti188  1  0.29511516  0.49994525  0.29812603  1
  Ti  Ti189  1  0.19745884  0.80549536  0.79235626  1
  Ti  Ti190  1  0.29688190  0.09737720  0.29986080  1
  Ti  Ti191  1  0.38799297  0.80163321  0.00165827  1
  Ti  Ti192  1  0.30477367  0.29719295  0.70734159  1
  Ti  Ti193  1  0.09675888  0.09479391  0.70927727  1
  Ti  Ti194  1  0.68378541  0.70761616  0.70088645  1
  Ti  Ti195  1  0.19804438  0.19542851  0.39751116  1
  Ti  Ti196  1  0.19741081  0.79938738  0.39952883  1
  Ti  Ti197  1  0.79184675  0.41576553  0.60650581  1
  Ti  Ti198  1  0.20877976  0.61423935  0.40161299  1
  Ti  Ti199  1  0.69543887  0.89729945  0.09825433  1
  Mo  Mo200  1  0.79845204  -0.00194255  0.40382958  1
  Mo  Mo201  1  0.39451446  0.79666505  0.60219450  1
  Mo  Mo202  1  0.00975503  0.60981833  0.39936347  1
  Mo  Mo203  1  0.49262620  0.10575568  0.90780815  1
  Mo  Mo204  1  0.78915496  -0.02170943  0.00921177  1
  Mo  Mo205  1  0.19883777  -0.00524851  0.39489482  1
  Mo  Mo206  1  0.28783143  0.70294027  0.29997270  1
  Mo  Mo207  1  0.29957553  0.70320598  0.49942600  1
  Mo  Mo208  1  0.10733754  0.50829528  0.09914504  1
  Mo  Mo209  1  0.70337078  0.69633303  0.29757474  1
  Mo  Mo210  1  0.60447951  0.80519277  -0.00669099  1
  Mo  Mo211  1  0.61065412  0.19912609  0.20191609  1
  Mo  Mo212  1  0.50795480  0.10214414  0.29457854  1
  Mo  Mo213  1  0.69940973  0.90490031  0.30242745  1
  Mo  Mo214  1  0.29906785  0.90009781  0.10331671  1
  Mo  Mo215  1  0.09873238  0.89648274  0.70246197  1
  Mo  Mo216  1  0.59823806  0.60723186  -0.00868233  1
  Mo  Mo217  1  0.09707477  0.89852101  0.49741355  1
  Mo  Mo218  1  0.50124780  0.68738772  0.30045112  1
  Mo  Mo219  1  0.00489379  0.41937905  0.18904279  1
  Mo  Mo220  1  0.79418237  0.40952769  0.79737603  1
  Mo  Mo221  1  0.79603083  -0.01990606  0.79634340  1
  Mo  Mo222  1  0.60264103  0.60585678  0.80049425  1
  Mo  Mo223  1  0.50761231  0.09812280  0.50118660  1
  Mo  Mo224  1  0.79505202  0.22420331  0.00373490  1
  Mo  Mo225  1  0.59803829  0.40111368  -0.00724161  1
  Mo  Mo226  1  0.69318873  0.49395009  0.50608526  1
  Mo  Mo227  1  0.01914036  0.80072008  0.79817659  1
  Mo  Mo228  1  0.10836518  0.90290074  0.30327539  1
  Mo  Mo229  1  0.10354852  0.10012027  0.89315692  1
  Mo  Mo230  1  0.59936920  0.80627444  0.59992341  1
  Mo  Mo231  1  0.29773235  0.89873688  0.70523213  1
  Mo  Mo232  1  0.40171465  0.39707640  0.60286616  1
  Mo  Mo233  1  0.39901663  -0.00121911  0.60275470  1
  Mo  Mo234  1  0.10098221  0.70106714  0.49162832  1
  Mo  Mo235  1  0.39671254  0.38428615  0.80330000  1
  Mo  Mo236  1  0.39100312  0.20005740  0.20092975  1
  Mo  Mo237  1  0.79410910  0.80432910  0.40031685  1
  Mo  Mo238  1  0.19984788  0.19798179  0.79333656  1
  Mo  Mo239  1  0.29820434  0.09697520  0.10010472  1
  Mo  Mo240  1  0.49450084  0.91248130  0.28972469  1
  Mo  Mo241  1  0.00569993  0.80124255  0.59659640  1
  Mo  Mo242  1  0.00654867  0.60231728  0.79492985  1
  Mo  Mo243  1  0.70417328  0.30834339  0.09275657  1
  Mo  Mo244  1  0.19925987  -0.00113170  0.00096357  1
  Mo  Mo245  1  0.90062856  0.50160317  0.10128190  1
  Mo  Mo246  1  0.70069516  0.49555903  0.70386954  1
  Mo  Mo247  1  0.01147527  -0.00146524  0.79787465  1
  Mo  Mo248  1  0.49245348  0.10123413  0.70705663  1
  Mo  Mo249  1  0.10122871  0.70349474  0.70339778  1
