# generated using pymatgen
data_HfZrTaTiMo
_symmetry_space_group_name_H-M   'P 1'
_cell_length_a   16.88889099
_cell_length_b   16.88005033
_cell_length_c   16.88556560
_cell_angle_alpha   89.95980437
_cell_angle_beta   90.03087834
_cell_angle_gamma   90.03843461
_symmetry_Int_Tables_number   1
_chemical_formula_structural   HfZrTaTiMo
_chemical_formula_sum   'Hf50 Zr50 Ta50 Ti50 Mo50'
_cell_volume   4813.82407246
_cell_formula_units_Z   50
loop_
 _symmetry_equiv_pos_site_id
 _symmetry_equiv_pos_as_xyz
  1  'x, y, z'
loop_
 _atom_site_type_symbol
 _atom_site_label
 _atom_site_symmetry_multiplicity
 _atom_site_fract_x
 _atom_site_fract_y
 _atom_site_fract_z
 _atom_site_occupancy
  Hf  Hf0  1  0.00684936  0.79952753  0.60361707  1
  Hf  Hf1  1  0.80008548  0.40566619  0.01070397  1
  Hf  Hf2  1  0.40062851  0.20520673  0.80509398  1
  Hf  Hf3  1  0.89960266  0.90327247  0.69531788  1
  Hf  Hf4  1  0.09528536  0.69493800  0.29559476  1
  Hf  Hf5  1  0.10850436  0.49485614  0.90111101  1
  Hf  Hf6  1  0.00471476  0.59201129  0.59532715  1
  Hf  Hf7  1  0.50160908  0.91023147  0.30826893  1
  Hf  Hf8  1  0.48938586  0.09685342  0.48978619  1
  Hf  Hf9  1  0.79927287  0.79809853  0.80241128  1
  Hf  Hf10  1  0.61029797  0.19557220  0.19538161  1
  Hf  Hf11  1  0.08975269  0.11061057  0.49440849  1
  Hf  Hf12  1  0.10175868  0.49812586  0.09554354  1
  Hf  Hf13  1  0.39580694  0.39641279  -0.00102967  1
  Hf  Hf14  1  0.09750167  0.29878496  0.50615659  1
  Hf  Hf15  1  0.20066330  0.20692457  0.19608243  1
  Hf  Hf16  1  0.69345613  0.09204309  0.90695978  1
  Hf  Hf17  1  0.30391651  0.69552289  0.30144738  1
  Hf  Hf18  1  -0.00367528  0.60871347  -0.00141692  1
  Hf  Hf19  1  0.70374373  0.90210862  0.69484750  1
  Hf  Hf20  1  -0.00815015  0.80494141  0.19161138  1
  Hf  Hf21  1  0.30822366  0.90075855  0.49826001  1
  Hf  Hf22  1  0.90628869  0.28216301  0.51229415  1
  Hf  Hf23  1  0.09582203  0.90986008  0.49455316  1
  Hf  Hf24  1  0.60215752  0.79799116  0.79618371  1
  Hf  Hf25  1  0.59003825  0.79060053  0.39863580  1
  Hf  Hf26  1  0.09332910  0.29842794  0.30684150  1
  Hf  Hf27  1  0.30959924  0.10961865  0.30381223  1
  Hf  Hf28  1  0.90631148  0.09571898  0.31576750  1
  Hf  Hf29  1  0.48511859  0.69944315  0.70222259  1
  Hf  Hf30  1  0.79624362  0.20347251  0.80631502  1
  Hf  Hf31  1  0.48934542  0.49355721  0.49622167  1
  Hf  Hf32  1  0.49565857  0.48959787  0.70387527  1
  Hf  Hf33  1  0.80160600  0.00126506  0.19763803  1
  Hf  Hf34  1  0.60300093  0.19809828  0.39874163  1
  Hf  Hf35  1  0.49168334  0.69729375  0.89551061  1
  Hf  Hf36  1  0.00437987  0.00401510  0.79724089  1
  Hf  Hf37  1  0.19162862  0.20165119  0.00363559  1
  Hf  Hf38  1  0.80274455  0.59741218  0.18632314  1
  Hf  Hf39  1  0.59947962  -0.00236190  0.59207479  1
  Hf  Hf40  1  0.59606939  0.79839945  0.59380200  1
  Hf  Hf41  1  0.19348212  0.00392302  0.19837026  1
  Hf  Hf42  1  0.70520800  0.29908847  0.50564880  1
  Hf  Hf43  1  0.70320129  0.90812116  0.90313911  1
  Hf  Hf44  1  0.19858054  0.59730569  0.40479682  1
  Hf  Hf45  1  0.49034852  0.29441491  0.29946762  1
  Hf  Hf46  1  0.60326251  0.80265903  -0.00041167  1
  Hf  Hf47  1  0.59821462  0.40019343  0.39610131  1
  Hf  Hf48  1  0.89124085  0.69898229  0.30461448  1
  Hf  Hf49  1  0.59722018  0.59658339  0.59916441  1
  Zr  Zr50  1  0.89561573  0.69678259  0.69978370  1
  Zr  Zr51  1  -0.00008200  0.19693759  0.19736876  1
  Zr  Zr52  1  0.30239299  0.68889614  0.69023158  1
  Zr  Zr53  1  0.90439000  0.90204257  0.90792201  1
  Zr  Zr54  1  0.39073909  -0.00671723  0.79693659  1
  Zr  Zr55  1  0.39764465  0.20210079  0.60714847  1
  Zr  Zr56  1  0.90277011  0.30240451  0.90394206  1
  Zr  Zr57  1  0.70244949  0.89276579  0.30282772  1
  Zr  Zr58  1  0.29202851  0.09520887  0.90233312  1
  Zr  Zr59  1  0.46516321  0.68950555  0.50559241  1
  Zr  Zr60  1  0.50268236  0.90597980  0.89761769  1
  Zr  Zr61  1  0.00136091  -0.00743772  0.20416277  1
  Zr  Zr62  1  0.70693325  0.69667458  0.48726140  1
  Zr  Zr63  1  0.40087886  0.59564784  0.19529831  1
  Zr  Zr64  1  0.70123870  0.50253093  0.49102771  1
  Zr  Zr65  1  0.60020178  0.60622669  0.20992876  1
  Zr  Zr66  1  0.31075760  0.30206241  0.48551787  1
  Zr  Zr67  1  0.30954646  0.51315580  0.50618293  1
  Zr  Zr68  1  0.01635203  0.79659560  0.79923014  1
  Zr  Zr69  1  0.90772730  0.30175651  0.69799150  1
  Zr  Zr70  1  0.20249993  0.00339287  0.60611227  1
  Zr  Zr71  1  0.09415946  0.49844935  0.29578434  1
  Zr  Zr72  1  0.20889958  0.20479824  0.60398535  1
  Zr  Zr73  1  0.70130065  0.49869969  0.90008363  1
  Zr  Zr74  1  0.19801762  0.80044710  0.60512012  1
  Zr  Zr75  1  0.90181231  0.49793243  0.70467645  1
  Zr  Zr76  1  0.10280033  0.70734704  0.08944266  1
  Zr  Zr77  1  0.49911573  0.09770856  0.69990443  1
  Zr  Zr78  1  0.90174425  0.11454850  0.69116438  1
  Zr  Zr79  1  0.01155496  0.60959802  0.80559829  1
  Zr  Zr80  1  0.70134211  0.10310444  0.69817505  1
  Zr  Zr81  1  0.20040539  0.79967077  0.39871103  1
  Zr  Zr82  1  0.50535340  0.48974491  0.10136259  1
  Zr  Zr83  1  0.00304769  0.80410416  0.39414521  1
  Zr  Zr84  1  0.19832373  0.40365973  0.40068432  1
  Zr  Zr85  1  0.30349222  0.10282588  0.09612731  1
  Zr  Zr86  1  0.59854680  0.20267937  0.00519521  1
  Zr  Zr87  1  0.40406840  0.80625801  0.19462457  1
  Zr  Zr88  1  0.29638825  0.70178717  0.09300388  1
  Zr  Zr89  1  0.61186060  0.59753437  0.00589290  1
  Zr  Zr90  1  0.80005282  0.19496985  0.39974493  1
  Zr  Zr91  1  0.10735860  0.90263375  0.90454007  1
  Zr  Zr92  1  0.10921924  0.49518157  0.70293864  1
  Zr  Zr93  1  0.40526007  -0.00197965  0.18994766  1
  Zr  Zr94  1  0.29902334  0.70269225  0.88775654  1
  Zr  Zr95  1  0.49936080  0.70219690  0.09267880  1
  Zr  Zr96  1  0.79189760  0.20318205  0.01158121  1
  Zr  Zr97  1  0.60195317  0.59686726  0.79997185  1
  Zr  Zr98  1  0.71122393  0.31673611  0.28832087  1
  Zr  Zr99  1  0.89573356  0.49871707  0.30078108  1
  Ta  Ta100  1  0.40192700  0.20705503  0.00078156  1
  Ta  Ta101  1  0.80225248  0.40334997  0.60105979  1
  Ta  Ta102  1  0.39578693  0.81349096  -0.00654444  1
  Ta  Ta103  1  0.60141790  0.39679947  0.60258278  1
  Ta  Ta104  1  0.90189018  0.09948338  0.90803018  1
  Ta  Ta105  1  0.49164080  0.90514002  0.49628236  1
  Ta  Ta106  1  0.90017966  0.10182494  0.09843929  1
  Ta  Ta107  1  0.89916525  0.69810668  0.49485054  1
  Ta  Ta108  1  0.20311404  0.40440618  0.60215573  1
  Ta  Ta109  1  -0.00003333  0.00552992  0.59989760  1
  Ta  Ta110  1  0.10270719  0.69144885  0.50415067  1
  Ta  Ta111  1  0.49849247  0.09983188  0.30007392  1
  Ta  Ta112  1  0.00365041  0.00748055  0.00861154  1
  Ta  Ta113  1  0.89798701  0.90373322  0.49401674  1
  Ta  Ta114  1  0.89831295  0.30296361  0.10888325  1
  Ta  Ta115  1  0.10348995  0.10990370  0.70761398  1
  Ta  Ta116  1  0.80407201  0.59515302  0.59436864  1
  Ta  Ta117  1  0.70097679  0.30109563  0.69822951  1
  Ta  Ta118  1  0.28966817  0.90382965  0.08902709  1
  Ta  Ta119  1  0.80052681  0.80208545  0.59005043  1
  Ta  Ta120  1  0.50144958  0.09911366  0.90565579  1
  Ta  Ta121  1  0.00330833  0.19944344  0.00333013  1
  Ta  Ta122  1  0.60174148  0.00136383  0.19267008  1
  Ta  Ta123  1  0.80402694  0.00390208  0.58836242  1
  Ta  Ta124  1  0.59704532  0.20516845  0.80163040  1
  Ta  Ta125  1  0.10110504  0.30184876  0.70650408  1
  Ta  Ta126  1  0.30119200  0.90617455  0.30005776  1
  Ta  Ta127  1  0.70737344  0.69386082  0.69443679  1
  Ta  Ta128  1  0.49687956  0.30270564  0.49976676  1
  Ta  Ta129  1  -0.00560779  0.40466951  0.41632994  1
  Ta  Ta130  1  0.30461653  0.49499470  0.29904971  1
  Ta  Ta131  1  0.39440346  0.58678279  -0.00890679  1
  Ta  Ta132  1  0.19935793  0.59576326  0.19709666  1
  Ta  Ta133  1  0.19942859  0.00264131  0.39451335  1
  Ta  Ta134  1  0.38912055  0.39140958  0.19521430  1
  Ta  Ta135  1  0.69966738  0.90139382  0.09874727  1
  Ta  Ta136  1  0.38813255  0.57510946  0.80626090  1
  Ta  Ta137  1  0.79650016  0.40162525  0.79843105  1
  Ta  Ta138  1  0.59747447  0.20377243  0.59859142  1
  Ta  Ta139  1  -0.00723484  0.60200924  0.18759729  1
  Ta  Ta140  1  0.69512647  0.30576943  0.89864077  1
  Ta  Ta141  1  0.19714163  0.80903785  0.20195531  1
  Ta  Ta142  1  0.89464512  0.50593129  0.89813867  1
  Ta  Ta143  1  0.20611734  0.39674391  0.19553305  1
  Ta  Ta144  1  0.80567052  0.79801727  0.00774243  1
  Ta  Ta145  1  0.09974647  0.10441956  0.31095187  1
  Ta  Ta146  1  0.70439407  0.50379778  0.30232934  1
  Ta  Ta147  1  0.09352715  0.30919058  0.09779728  1
  Ta  Ta148  1  0.10065063  0.89972706  0.09198113  1
  Ta  Ta149  1  0.29433984  0.30160530  0.89767217  1
  Ti  Ti150  1  0.59507493  0.80155758  0.19884265  1
  Ti  Ti151  1  0.60507672  0.38818614  0.01044961  1
  Ti  Ti152  1  -0.00553148  0.40263211  0.00152301  1
  Ti  Ti153  1  0.29151049  0.10681294  0.71353445  1
  Ti  Ti154  1  0.00068831  0.40068409  0.80699777  1
  Ti  Ti155  1  0.60444766  0.39501002  0.79573146  1
  Ti  Ti156  1  0.81070668  0.40278932  0.40886288  1
  Ti  Ti157  1  0.50059049  0.09965617  0.09585679  1
  Ti  Ti158  1  0.30056667  0.10383875  0.48625378  1
  Ti  Ti159  1  0.80351400  -0.00047878  0.01091163  1
  Ti  Ti160  1  0.71087184  0.69325733  0.89809352  1
  Ti  Ti161  1  0.79820541  0.19592349  0.19952645  1
  Ti  Ti162  1  0.00578457  0.19962244  0.81042096  1
  Ti  Ti163  1  0.50210515  0.30565567  0.89736464  1
  Ti  Ti164  1  0.80708364  0.80422173  0.19165883  1
  Ti  Ti165  1  0.70705658  0.70007168  0.30203279  1
  Ti  Ti166  1  0.20584062  0.59933073  -0.01032190  1
  Ti  Ti167  1  0.39820273  0.79702991  0.39732442  1
  Ti  Ti168  1  0.70327786  0.70881505  0.10380035  1
  Ti  Ti169  1  0.50360257  0.48749121  0.90027931  1
  Ti  Ti170  1  0.69663521  0.08361858  0.30811342  1
  Ti  Ti171  1  0.10512500  0.30399035  0.89706208  1
  Ti  Ti172  1  0.70493187  0.50043910  0.69986628  1
  Ti  Ti173  1  0.49770318  0.29826724  0.11007770  1
  Ti  Ti174  1  0.70235804  0.90344971  0.48672330  1
  Ti  Ti175  1  0.19955650  0.80347848  0.79101461  1
  Ti  Ti176  1  0.90264722  0.30163367  0.30165653  1
  Ti  Ti177  1  0.29502046  0.49911113  0.09836382  1
  Ti  Ti178  1  -0.00690879  0.40444910  0.19582438  1
  Ti  Ti179  1  0.20360170  0.80278831  -0.00906964  1
  Ti  Ti180  1  0.89084733  0.90249220  0.31370619  1
  Ti  Ti181  1  0.19950149  -0.00981576  0.79448278  1
  Ti  Ti182  1  -0.00239475  0.59108877  0.40846738  1
  Ti  Ti183  1  0.89585356  0.70102278  0.90307571  1
  Ti  Ti184  1  0.29212914  0.31045343  0.71594575  1
  Ti  Ti185  1  0.10294732  0.09897804  0.90052076  1
  Ti  Ti186  1  0.58408244  0.60382026  0.39038565  1
  Ti  Ti187  1  0.49371321  0.49143300  0.29721136  1
  Ti  Ti188  1  0.39034804  0.00144091  0.60563945  1
  Ti  Ti189  1  0.80552142  0.60284701  0.00825601  1
  Ti  Ti190  1  0.59664995  0.00067424  0.79406662  1
  Ti  Ti191  1  0.50323916  0.30297841  0.70146646  1
  Ti  Ti192  1  0.30517996  0.29556933  0.30092148  1
  Ti  Ti193  1  0.48880070  0.89378105  0.69324375  1
  Ti  Ti194  1  0.20630057  0.39379854  0.00360285  1
  Ti  Ti195  1  0.70241996  0.09630082  0.49737759  1
  Ti  Ti196  1  0.40182394  -0.00426950  -0.00074199  1
  Ti  Ti197  1  0.69535538  0.47857520  0.12336923  1
  Ti  Ti198  1  0.39337633  0.39527254  0.61086562  1
  Ti  Ti199  1  0.80571725  0.00528048  0.79876008  1
  Mo  Mo200  1  0.10702222  0.90644103  0.29637350  1
  Mo  Mo201  1  0.19461602  0.20612383  0.80600762  1
  Mo  Mo202  1  0.59755799  0.00122160  0.01116866  1
  Mo  Mo203  1  0.89587328  0.70433665  0.09700445  1
  Mo  Mo204  1  -0.00240070  0.20754546  0.39720792  1
  Mo  Mo205  1  0.80109429  0.80078867  0.40309742  1
  Mo  Mo206  1  0.89945688  0.49713745  0.50182340  1
  Mo  Mo207  1  0.39456436  0.80812541  0.79735969  1
  Mo  Mo208  1  0.40622094  0.20177282  0.19243289  1
  Mo  Mo209  1  0.70448281  0.09288542  0.10488924  1
  Mo  Mo210  1  0.40349213  0.19979541  0.39857389  1
  Mo  Mo211  1  0.50592853  0.90431939  0.09536445  1
  Mo  Mo212  1  -0.00355384  0.80294320  -0.00224037  1
  Mo  Mo213  1  0.09495048  0.10268873  0.09945396  1
  Mo  Mo214  1  0.40154708  0.59784120  0.38312037  1
  Mo  Mo215  1  0.79900412  0.60040020  0.80006582  1
  Mo  Mo216  1  0.39477267  0.00079377  0.39682914  1
  Mo  Mo217  1  0.11331269  0.69007255  0.69815684  1
  Mo  Mo218  1  0.49794676  0.70516078  0.30221858  1
  Mo  Mo219  1  0.19971710  0.59824886  0.59986042  1
  Mo  Mo220  1  0.90760492  0.49894692  0.09454957  1
  Mo  Mo221  1  0.80929248  0.40229992  0.19950534  1
  Mo  Mo222  1  0.39760994  0.58038730  0.61846220  1
  Mo  Mo223  1  0.30178030  0.89392266  0.70265005  1
  Mo  Mo224  1  0.11511350  0.70091511  0.89775107  1
  Mo  Mo225  1  0.78607196  0.19655784  0.59904020  1
  Mo  Mo226  1  0.29693438  0.89839028  0.90023334  1
  Mo  Mo227  1  0.20293097  0.19743103  0.39516117  1
  Mo  Mo228  1  0.09729984  0.49590294  0.50584590  1
  Mo  Mo229  1  0.01338735  0.19805822  0.61081744  1
  Mo  Mo230  1  0.39714168  0.81428153  0.60084008  1
  Mo  Mo231  1  0.89840716  0.90284354  0.09432133  1
  Mo  Mo232  1  0.60012475  0.00107340  0.39878428  1
  Mo  Mo233  1  0.20220504  0.59715690  0.80054850  1
  Mo  Mo234  1  0.80473713  0.59952472  0.39702731  1
  Mo  Mo235  1  0.29335016  0.49266442  0.90170908  1
  Mo  Mo236  1  0.10305866  0.91387752  0.69900629  1
  Mo  Mo237  1  0.90264507  0.09447740  0.50287587  1
  Mo  Mo238  1  0.40097407  0.40067102  0.38891010  1
  Mo  Mo239  1  0.70194259  0.30377972  0.10418007  1
  Mo  Mo240  1  0.29870810  0.48898713  0.70472917  1
  Mo  Mo241  1  0.29784683  0.69997374  0.49863168  1
  Mo  Mo242  1  0.29841155  0.30086692  0.09440339  1
  Mo  Mo243  1  0.79739540  -0.00191340  0.40585750  1
  Mo  Mo244  1  -0.00108406  -0.00029588  0.40251569  1
  Mo  Mo245  1  0.40086865  0.39144691  0.80765954  1
  Mo  Mo246  1  0.20238191  0.39804729  0.80347896  1
  Mo  Mo247  1  0.00522496  0.39759563  0.60124984  1
  Mo  Mo248  1  0.19267127  0.00203216  0.00216197  1
  Mo  Mo249  1  0.59292973  0.39841124  0.20385813  1
