# generated using pymatgen
data_HfZrTaTiMo
_symmetry_space_group_name_H-M   'P 1'
_cell_length_a   16.89025622
_cell_length_b   16.88112013
_cell_length_c   16.88542592
_cell_angle_alpha   90.00588913
_cell_angle_beta   90.03239179
_cell_angle_gamma   90.04603305
_symmetry_Int_Tables_number   1
_chemical_formula_structural   HfZrTaTiMo
_chemical_formula_sum   'Hf50 Zr50 Ta50 Ti50 Mo50'
_cell_volume   4814.47910308
_cell_formula_units_Z   50
loop_
 _symmetry_equiv_pos_site_id
 _symmetry_equiv_pos_as_xyz
  1  'x, y, z'
loop_
 _atom_site_type_symbol
 _atom_site_label
 _atom_site_symmetry_multiplicity
 _atom_site_fract_x
 _atom_site_fract_y
 _atom_site_fract_z
 _atom_site_occupancy
  Hf  Hf0  1  0.80120113  0.21214902  0.00277325  1
  Hf  Hf1  1  0.49893738  0.89923538  0.69800886  1
  Hf  Hf2  1  -0.00484302  0.60336509  0.59769028  1
  Hf  Hf3  1  0.80207540  0.40398758  0.60108556  1
  Hf  Hf4  1  0.90081169  0.28477192  0.69086276  1
  Hf  Hf5  1  0.10456382  0.50464446  0.50067832  1
  Hf  Hf6  1  0.49353846  0.90021777  0.88901422  1
  Hf  Hf7  1  0.60661109  -0.00046661  0.40033039  1
  Hf  Hf8  1  0.90128728  0.30939732  0.30373495  1
  Hf  Hf9  1  0.68415830  0.49579742  0.08053950  1
  Hf  Hf10  1  -0.00106407  -0.01507573  0.58757481  1
  Hf  Hf11  1  0.30287129  0.89984909  0.11042904  1
  Hf  Hf12  1  0.79742276  0.40520496  0.18294806  1
  Hf  Hf13  1  0.10051840  0.30890546  0.89344748  1
  Hf  Hf14  1  0.09460731  0.10024134  0.10545036  1
  Hf  Hf15  1  0.09981058  0.51387898  0.09398541  1
  Hf  Hf16  1  0.10109413  0.50644513  0.29796374  1
  Hf  Hf17  1  0.90111039  0.89980028  0.70026360  1
  Hf  Hf18  1  0.20161783  0.40420389  0.19859083  1
  Hf  Hf19  1  0.80090301  0.00043546  0.79786691  1
  Hf  Hf20  1  0.89696718  0.09980433  0.90706934  1
  Hf  Hf21  1  0.58813787  -0.00302511  -0.00217317  1
  Hf  Hf22  1  0.00301921  0.19515144  0.79977805  1
  Hf  Hf23  1  0.20639613  0.40748158  -0.00442685  1
  Hf  Hf24  1  0.60644351  0.19855449  0.60629260  1
  Hf  Hf25  1  0.39709494  0.19795649  0.40368365  1
  Hf  Hf26  1  0.90154482  0.09329250  0.10086650  1
  Hf  Hf27  1  0.80289639  -0.01391109  0.20622484  1
  Hf  Hf28  1  0.70497405  0.50026671  0.30809753  1
  Hf  Hf29  1  0.00344073  -0.00859527  0.39457607  1
  Hf  Hf30  1  0.50598467  0.70571327  0.30118870  1
  Hf  Hf31  1  0.69986029  0.89581132  0.09444684  1
  Hf  Hf32  1  0.19653056  0.79960139  0.60335120  1
  Hf  Hf33  1  0.19516262  0.19332135  0.78969486  1
  Hf  Hf34  1  0.19013500  -0.00811732  -0.00747010  1
  Hf  Hf35  1  0.90088597  0.69797824  0.10055935  1
  Hf  Hf36  1  0.59015273  0.39965291  0.19568947  1
  Hf  Hf37  1  0.00101688  0.40222862  0.59726580  1
  Hf  Hf38  1  0.91386677  0.30288751  0.09851697  1
  Hf  Hf39  1  0.79801755  0.39609157  0.79543123  1
  Hf  Hf40  1  0.79653689  0.19866731  0.41024224  1
  Hf  Hf41  1  0.30169974  0.30445168  0.88649312  1
  Hf  Hf42  1  0.18302772  -0.01310125  0.20797515  1
  Hf  Hf43  1  0.20563369  0.40277391  0.39857870  1
  Hf  Hf44  1  0.69540239  0.89506588  0.89982352  1
  Hf  Hf45  1  0.00580937  0.80324779  0.20358686  1
  Hf  Hf46  1  0.80691563  -0.00653029  0.41289982  1
  Hf  Hf47  1  0.80749268  0.79825395  0.59496136  1
  Hf  Hf48  1  0.00225331  0.80620472  0.00657072  1
  Hf  Hf49  1  0.49591646  0.30504722  0.31161171  1
  Zr  Zr50  1  0.09540438  0.09726532  0.69067819  1
  Zr  Zr51  1  0.20415944  0.59402498  0.80607957  1
  Zr  Zr52  1  0.39656294  0.79978933  0.60254638  1
  Zr  Zr53  1  0.08223059  0.68224238  0.91387519  1
  Zr  Zr54  1  0.70223499  0.30914947  0.30999170  1
  Zr  Zr55  1  -0.00216025  0.79696565  0.80530413  1
  Zr  Zr56  1  0.29504982  0.69062779  0.69539218  1
  Zr  Zr57  1  0.21488931  0.60677927  -0.00419945  1
  Zr  Zr58  1  0.39601708  0.00655249  0.40309634  1
  Zr  Zr59  1  0.91199310  0.50765341  0.89611096  1
  Zr  Zr60  1  0.59961302  0.59614407  0.20259361  1
  Zr  Zr61  1  0.69412780  0.50372716  0.89449595  1
  Zr  Zr62  1  0.80067571  0.20604491  0.19859988  1
  Zr  Zr63  1  0.50274887  0.89565065  0.49898865  1
  Zr  Zr64  1  0.69092792  0.70384717  0.09148404  1
  Zr  Zr65  1  0.59924487  0.00912475  0.78783291  1
  Zr  Zr66  1  0.69806622  0.10306084  0.90669899  1
  Zr  Zr67  1  0.59223864  0.19989197  0.20284286  1
  Zr  Zr68  1  0.30579413  0.70337146  0.10794015  1
  Zr  Zr69  1  0.38848991  0.79951941  -0.01465269  1
  Zr  Zr70  1  0.68855000  0.30585366  0.90583472  1
  Zr  Zr71  1  0.89880223  0.50090000  0.30116293  1
  Zr  Zr72  1  0.40263849  0.59880398  0.80262580  1
  Zr  Zr73  1  0.61165662  0.00849432  0.59966825  1
  Zr  Zr74  1  0.59871668  0.20203702  0.78983867  1
  Zr  Zr75  1  0.70579533  0.09707179  0.30076750  1
  Zr  Zr76  1  0.29703006  0.50379028  0.51108722  1
  Zr  Zr77  1  0.49680385  0.09923204  0.09933889  1
  Zr  Zr78  1  0.50613566  0.50062048  0.50615133  1
  Zr  Zr79  1  0.38511839  0.79015477  0.40444902  1
  Zr  Zr80  1  0.00343465  0.40030064  0.78546476  1
  Zr  Zr81  1  0.49670126  0.88565750  0.10763762  1
  Zr  Zr82  1  0.79851498  0.60064248  -0.00471204  1
  Zr  Zr83  1  0.30598765  0.30297746  0.10677959  1
  Zr  Zr84  1  0.41310780  0.21388194  -0.00124759  1
  Zr  Zr85  1  0.19995839  0.79019232  0.81381423  1
  Zr  Zr86  1  0.69994764  0.09541620  0.09539670  1
  Zr  Zr87  1  0.49823673  0.30393974  0.50449948  1
  Zr  Zr88  1  0.00436249  0.20025701  0.40075757  1
  Zr  Zr89  1  0.28044742  0.10283228  0.30550274  1
  Zr  Zr90  1  0.30262947  0.09768923  0.89350000  1
  Zr  Zr91  1  0.40217108  0.59480276  0.20471723  1
  Zr  Zr92  1  0.19421796  0.20276315  -0.00035396  1
  Zr  Zr93  1  0.90320414  0.10646320  0.51638844  1
  Zr  Zr94  1  0.29776280  0.09831837  0.10518240  1
  Zr  Zr95  1  0.49923061  0.89005610  0.30517143  1
  Zr  Zr96  1  0.39891922  0.40196495  0.60633827  1
  Zr  Zr97  1  0.10431308  0.89834603  0.70971594  1
  Zr  Zr98  1  0.39434926  0.59885769  0.40109300  1
  Zr  Zr99  1  0.20824644  0.00071586  0.60463325  1
  Ta  Ta100  1  0.89908650  0.30500931  0.49912208  1
  Ta  Ta101  1  -0.00080331  0.60678187  0.39918044  1
  Ta  Ta102  1  0.00070353  0.79652133  0.39941780  1
  Ta  Ta103  1  0.40424691  0.59694527  -0.00456282  1
  Ta  Ta104  1  0.11312327  0.49968805  0.69396039  1
  Ta  Ta105  1  0.60151266  0.19283235  0.41039317  1
  Ta  Ta106  1  0.00828274  0.00106694  0.81453590  1
  Ta  Ta107  1  0.29084053  0.90282188  0.49364086  1
  Ta  Ta108  1  0.60205094  0.60558831  0.79717729  1
  Ta  Ta109  1  0.59825564  -0.00569757  0.21019407  1
  Ta  Ta110  1  0.70995537  0.69839456  0.30773339  1
  Ta  Ta111  1  0.89476145  0.69810519  0.30100819  1
  Ta  Ta112  1  0.40422461  0.00403491  0.21514421  1
  Ta  Ta113  1  0.39386289  0.00496302  0.60247104  1
  Ta  Ta114  1  0.79679814  0.79198065  0.80426225  1
  Ta  Ta115  1  0.50805970  0.70044082  0.90244635  1
  Ta  Ta116  1  0.60175132  0.79114717  0.79292085  1
  Ta  Ta117  1  0.50389681  0.70479111  0.09501235  1
  Ta  Ta118  1  0.40238176  0.19821860  0.21168264  1
  Ta  Ta119  1  0.49649457  0.10395624  0.50788637  1
  Ta  Ta120  1  0.60621211  0.79378856  0.60337975  1
  Ta  Ta121  1  0.00699428  0.20116264  -0.00246584  1
  Ta  Ta122  1  0.70035469  0.50218796  0.50415818  1
  Ta  Ta123  1  0.40227919  0.40353373  0.79693115  1
  Ta  Ta124  1  0.60432350  0.60118558  0.40266549  1
  Ta  Ta125  1  0.59510924  0.39746234  0.79089194  1
  Ta  Ta126  1  0.80366854  0.79860425  -0.00745873  1
  Ta  Ta127  1  0.70163212  0.69710859  0.49882885  1
  Ta  Ta128  1  0.50899980  0.50303975  0.69968577  1
  Ta  Ta129  1  0.29414943  0.29748240  0.50618606  1
  Ta  Ta130  1  0.70603478  0.89433889  0.69796976  1
  Ta  Ta131  1  0.20077852  0.60729770  0.39282480  1
  Ta  Ta132  1  0.50648674  0.49675335  0.90012828  1
  Ta  Ta133  1  0.49676970  0.49219374  0.31473880  1
  Ta  Ta134  1  0.90416429  0.30087747  0.89914680  1
  Ta  Ta135  1  0.80274640  0.60017894  0.59645676  1
  Ta  Ta136  1  0.49477861  0.10474390  0.89272154  1
  Ta  Ta137  1  0.81180694  0.40292509  -0.00081540  1
  Ta  Ta138  1  0.29189911  0.29922768  0.69346385  1
  Ta  Ta139  1  0.19216161  0.80310132  0.00399345  1
  Ta  Ta140  1  0.30758696  0.50214798  0.10171543  1
  Ta  Ta141  1  0.29276151  0.89554438  0.30286717  1
  Ta  Ta142  1  0.51124442  0.70071159  0.50088505  1
  Ta  Ta143  1  0.18828864  0.79476618  0.20095417  1
  Ta  Ta144  1  0.70609067  0.69600510  0.69859295  1
  Ta  Ta145  1  0.00465863  0.61001476  0.20120907  1
  Ta  Ta146  1  0.09689022  0.30686825  0.29942234  1
  Ta  Ta147  1  0.00263489  -0.00704910  0.00145942  1
  Ta  Ta148  1  0.69678398  0.50378854  0.69584881  1
  Ta  Ta149  1  0.10240715  0.69972295  0.49778072  1
  Ti  Ti150  1  0.19060959  0.21015272  0.40707714  1
  Ti  Ti151  1  0.28939964  0.69493114  0.50460939  1
  Ti  Ti152  1  0.19118329  0.21233896  0.20213060  1
  Ti  Ti153  1  0.49681206  0.30161640  0.69468390  1
  Ti  Ti154  1  0.79890990  0.80255251  0.40036421  1
  Ti  Ti155  1  0.90068002  0.09566599  0.69544574  1
  Ti  Ti156  1  -0.00178747  -0.01480302  0.20103987  1
  Ti  Ti157  1  0.80595793  0.59488375  0.41045162  1
  Ti  Ti158  1  0.70308592  0.89436205  0.50375826  1
  Ti  Ti159  1  0.89243521  0.51097986  0.70332517  1
  Ti  Ti160  1  0.39793414  0.79185686  0.79314609  1
  Ti  Ti161  1  0.39876996  0.40353678  0.20756870  1
  Ti  Ti162  1  0.10756342  0.89480162  0.49120317  1
  Ti  Ti163  1  0.89625826  0.90237108  0.90377728  1
  Ti  Ti164  1  0.80083603  0.79995082  0.20063960  1
  Ti  Ti165  1  0.89906472  0.88898321  0.30427748  1
  Ti  Ti166  1  0.00242082  0.40401343  0.00174211  1
  Ti  Ti167  1  0.11039897  0.09726868  0.49569872  1
  Ti  Ti168  1  0.38950596  0.00648530  0.78330230  1
  Ti  Ti169  1  0.40528915  0.40114583  -0.00597046  1
  Ti  Ti170  1  0.70018557  0.30762515  0.50568801  1
  Ti  Ti171  1  0.19196626  0.79658642  0.39160649  1
  Ti  Ti172  1  0.89624502  0.69754277  0.70553766  1
  Ti  Ti173  1  0.60287948  0.60586352  0.60319075  1
  Ti  Ti174  1  0.90527056  0.10088571  0.29565028  1
  Ti  Ti175  1  0.00699996  0.60221165  0.78467334  1
  Ti  Ti176  1  0.09825760  0.49819093  0.89533792  1
  Ti  Ti177  1  0.39745252  -0.00223800  -0.00241225  1
  Ti  Ti178  1  0.09862402  0.10309027  0.30172992  1
  Ti  Ti179  1  0.29281779  0.10848888  0.50658816  1
  Ti  Ti180  1  0.02413705  0.21483516  0.59015768  1
  Ti  Ti181  1  0.00739909  0.20732020  0.20190471  1
  Ti  Ti182  1  0.78756882  0.19671074  0.60050004  1
  Ti  Ti183  1  0.79548902  0.20008277  0.79414995  1
  Ti  Ti184  1  0.89742141  0.69235264  0.89582435  1
  Ti  Ti185  1  0.49681625  0.49916912  0.09151433  1
  Ti  Ti186  1  0.29167452  0.69967948  0.29196352  1
  Ti  Ti187  1  0.00479842  0.40673752  0.19345552  1
  Ti  Ti188  1  0.00253852  0.79416770  0.59510481  1
  Ti  Ti189  1  0.30103983  0.30287209  0.30519250  1
  Ti  Ti190  1  0.29556114  0.90617533  0.88265274  1
  Ti  Ti191  1  0.80036949  0.59534703  0.19392567  1
  Ti  Ti192  1  0.68110466  0.30210142  0.08700421  1
  Ti  Ti193  1  0.90051962  0.70197679  0.49171147  1
  Ti  Ti194  1  0.29294752  0.49541637  0.69849866  1
  Ti  Ti195  1  -0.00056675  0.40489842  0.40811137  1
  Ti  Ti196  1  0.40166278  0.20003360  0.78495569  1
  Ti  Ti197  1  0.61645443  0.80305039  0.21390258  1
  Ti  Ti198  1  0.40927094  0.60575659  0.60417003  1
  Ti  Ti199  1  0.60465837  0.40287276  0.40988735  1
  Mo  Mo200  1  0.10678233  0.30426486  0.69123592  1
  Mo  Mo201  1  0.19475504  0.00061523  0.40470363  1
  Mo  Mo202  1  0.80133264  0.40270290  0.41480362  1
  Mo  Mo203  1  0.57581519  0.39097577  -0.00416397  1
  Mo  Mo204  1  0.09868086  0.69900593  0.30500938  1
  Mo  Mo205  1  0.19309398  0.60296079  0.59714833  1
  Mo  Mo206  1  0.72386709  0.09883050  0.69807294  1
  Mo  Mo207  1  0.09371762  0.69228236  0.69120979  1
  Mo  Mo208  1  0.30364963  0.90163577  0.70539901  1
  Mo  Mo209  1  0.89698545  0.89692572  0.09871867  1
  Mo  Mo210  1  -0.00745884  0.59704236  0.01040471  1
  Mo  Mo211  1  0.70632416  0.89088303  0.30411394  1
  Mo  Mo212  1  0.69831826  0.70250956  0.89316240  1
  Mo  Mo213  1  0.38955502  0.80157116  0.20947663  1
  Mo  Mo214  1  0.30099052  0.10565396  0.69591486  1
  Mo  Mo215  1  0.31496107  0.49467970  0.90349833  1
  Mo  Mo216  1  0.80220096  -0.00453822  0.60206012  1
  Mo  Mo217  1  0.80018288  0.60334902  0.79074917  1
  Mo  Mo218  1  0.90470559  0.88595512  0.49677859  1
  Mo  Mo219  1  0.19942673  0.20233319  0.59272547  1
  Mo  Mo220  1  0.10116177  0.30751918  0.49359691  1
  Mo  Mo221  1  0.09415065  0.09804147  0.90379783  1
  Mo  Mo222  1  0.60797949  0.39819095  0.60821455  1
  Mo  Mo223  1  0.49453737  0.30267337  0.88288390  1
  Mo  Mo224  1  0.09827863  0.89859956  0.10163873  1
  Mo  Mo225  1  0.70466502  0.30296750  0.69859734  1
  Mo  Mo226  1  0.20613955  0.40336078  0.79427946  1
  Mo  Mo227  1  0.58925314  0.60233976  -0.00568118  1
  Mo  Mo228  1  0.48457934  0.10438018  0.69493755  1
  Mo  Mo229  1  0.09895673  0.89431325  0.30713838  1
  Mo  Mo230  1  0.20147965  0.60168278  0.20325350  1
  Mo  Mo231  1  0.39486999  0.19885937  0.60328485  1
  Mo  Mo232  1  0.59808699  0.79819773  -0.01151293  1
  Mo  Mo233  1  0.49276934  0.30776565  0.11149181  1
  Mo  Mo234  1  0.39074223  0.39690105  0.39891845  1
  Mo  Mo235  1  0.80957684  -0.01457628  0.00231226  1
  Mo  Mo236  1  0.50765387  0.69739639  0.69846398  1
  Mo  Mo237  1  0.10246556  0.70042218  0.10556388  1
  Mo  Mo238  1  0.59129056  0.20268977  -0.00370890  1
  Mo  Mo239  1  0.50375492  0.10165169  0.30683256  1
  Mo  Mo240  1  0.30998661  0.69901594  0.89852265  1
  Mo  Mo241  1  0.20152100  0.00004287  0.80188399  1
  Mo  Mo242  1  0.09976522  0.90039883  0.90311082  1
  Mo  Mo243  1  0.61680377  0.79357508  0.40683745  1
  Mo  Mo244  1  0.09436464  0.30420734  0.10455125  1
  Mo  Mo245  1  0.19645586  0.39531074  0.60123837  1
  Mo  Mo246  1  0.90782548  0.50144356  0.10111791  1
  Mo  Mo247  1  0.70066199  0.09974558  0.50344268  1
  Mo  Mo248  1  0.89901351  0.50349653  0.49724594  1
  Mo  Mo249  1  0.30050218  0.50186692  0.29693561  1
