# generated using pymatgen
data_HfZrTaTiMo
_symmetry_space_group_name_H-M   'P 1'
_cell_length_a   16.88030443
_cell_length_b   16.88301917
_cell_length_c   16.88527316
_cell_angle_alpha   90.02721100
_cell_angle_beta   90.05958613
_cell_angle_gamma   89.98509641
_symmetry_Int_Tables_number   1
_chemical_formula_structural   HfZrTaTiMo
_chemical_formula_sum   'Hf50 Zr50 Ta50 Ti50 Mo50'
_cell_volume   4812.13918867
_cell_formula_units_Z   50
loop_
 _symmetry_equiv_pos_site_id
 _symmetry_equiv_pos_as_xyz
  1  'x, y, z'
loop_
 _atom_site_type_symbol
 _atom_site_label
 _atom_site_symmetry_multiplicity
 _atom_site_fract_x
 _atom_site_fract_y
 _atom_site_fract_z
 _atom_site_occupancy
  Hf  Hf0  1  0.19921122  0.40072045  -0.00143477  1
  Hf  Hf1  1  -0.00022643  0.40273338  0.79965059  1
  Hf  Hf2  1  0.80105365  0.79822720  0.00581410  1
  Hf  Hf3  1  0.79631259  0.20188191  0.20852183  1
  Hf  Hf4  1  0.90585279  0.08883937  0.90608347  1
  Hf  Hf5  1  0.90180388  0.29318417  0.69473841  1
  Hf  Hf6  1  0.29663840  0.90823983  0.89893873  1
  Hf  Hf7  1  0.09417977  0.50640038  0.09357711  1
  Hf  Hf8  1  0.30963911  0.48802765  0.69442753  1
  Hf  Hf9  1  0.60306686  0.19584926  0.39479879  1
  Hf  Hf10  1  0.00413926  0.20279056  0.20478914  1
  Hf  Hf11  1  0.50095029  0.50127975  0.89582632  1
  Hf  Hf12  1  -0.00319004  0.80567765  0.60128009  1
  Hf  Hf13  1  0.90364075  0.09429389  0.30311739  1
  Hf  Hf14  1  0.19891394  0.39380486  0.20144711  1
  Hf  Hf15  1  0.59823325  -0.00436748  0.80055789  1
  Hf  Hf16  1  0.79258889  0.20350359  0.39976699  1
  Hf  Hf17  1  0.50427149  0.70297476  0.89706215  1
  Hf  Hf18  1  0.19460832  0.17479219  0.60594662  1
  Hf  Hf19  1  0.20816279  0.80025410  0.40507728  1
  Hf  Hf20  1  0.50035978  0.89926341  0.69050895  1
  Hf  Hf21  1  0.20391706  0.59277251  -0.01124168  1
  Hf  Hf22  1  0.00338321  0.40133274  0.40083417  1
  Hf  Hf23  1  0.60314064  -0.00790120  0.19874664  1
  Hf  Hf24  1  0.30301767  0.70057800  0.29696772  1
  Hf  Hf25  1  0.68842908  0.30776297  0.50397443  1
  Hf  Hf26  1  0.30323178  0.09801159  0.49774526  1
  Hf  Hf27  1  0.10100029  0.09012051  0.09700614  1
  Hf  Hf28  1  0.89110351  0.69970239  0.30731882  1
  Hf  Hf29  1  0.70341865  0.70000754  0.50757694  1
  Hf  Hf30  1  0.80350170  0.40393112  0.60177484  1
  Hf  Hf31  1  0.89514897  0.50656911  0.90507024  1
  Hf  Hf32  1  0.89497614  0.51064418  0.50265925  1
  Hf  Hf33  1  0.19797261  0.40655295  0.80580843  1
  Hf  Hf34  1  0.79737111  0.80471838  0.19365379  1
  Hf  Hf35  1  0.19455839  0.00330099  0.77469059  1
  Hf  Hf36  1  0.90550117  0.09906368  0.49466706  1
  Hf  Hf37  1  0.00328587  0.59914068  0.40599137  1
  Hf  Hf38  1  0.10271370  0.69415207  0.69993383  1
  Hf  Hf39  1  0.30711911  0.29950206  0.89772699  1
  Hf  Hf40  1  -0.00208986  0.81194627  0.79478573  1
  Hf  Hf41  1  0.39912869  0.60195037  0.79137523  1
  Hf  Hf42  1  0.49791329  0.29813451  0.29645170  1
  Hf  Hf43  1  0.89514133  0.29730621  0.90561051  1
  Hf  Hf44  1  0.19254841  0.40147815  0.40411844  1
  Hf  Hf45  1  0.89445450  0.68757746  0.69549211  1
  Hf  Hf46  1  0.09857003  0.09004918  0.90503807  1
  Hf  Hf47  1  0.49901373  0.69449784  0.10208741  1
  Hf  Hf48  1  0.40316263  0.60299396  0.40570706  1
  Hf  Hf49  1  0.89293873  0.30850221  0.09923451  1
  Zr  Zr50  1  0.20294760  0.19259985  0.20667249  1
  Zr  Zr51  1  0.20167232  0.80872177  0.00342131  1
  Zr  Zr52  1  0.30396207  0.50616919  0.29902300  1
  Zr  Zr53  1  0.30182194  0.29707514  0.50925637  1
  Zr  Zr54  1  0.79970082  0.41294974  0.79497221  1
  Zr  Zr55  1  -0.00356193  0.80575555  0.40374981  1
  Zr  Zr56  1  0.60110541  0.19242727  0.79775841  1
  Zr  Zr57  1  0.50393099  0.10634226  0.10858079  1
  Zr  Zr58  1  0.60328647  0.59767991  0.20561677  1
  Zr  Zr59  1  0.09295359  0.68667885  0.89381108  1
  Zr  Zr60  1  0.60602330  0.19744326  -0.00236328  1
  Zr  Zr61  1  0.01299246  0.00191227  0.60134833  1
  Zr  Zr62  1  0.69110974  0.30251321  0.69343588  1
  Zr  Zr63  1  0.10459833  0.70506903  0.10244051  1
  Zr  Zr64  1  -0.00393265  0.79986498  0.00500861  1
  Zr  Zr65  1  0.10977723  0.51803024  0.30128013  1
  Zr  Zr66  1  0.50024576  0.50040861  0.10370729  1
  Zr  Zr67  1  0.69852629  0.89624959  0.89927161  1
  Zr  Zr68  1  -0.01137015  0.60996294  0.19350520  1
  Zr  Zr69  1  0.79913741  0.80416479  0.79141533  1
  Zr  Zr70  1  0.49493943  0.29536604  0.50193672  1
  Zr  Zr71  1  0.39966984  0.19929569  0.00475315  1
  Zr  Zr72  1  0.10179787  0.30044572  0.69258321  1
  Zr  Zr73  1  0.49266135  0.30928096  0.69154214  1
  Zr  Zr74  1  0.19395034  0.81044831  0.79180748  1
  Zr  Zr75  1  0.78930343  0.18673204  0.80435248  1
  Zr  Zr76  1  0.89780416  0.09637371  0.70007179  1
  Zr  Zr77  1  0.69637118  0.90918559  0.51482950  1
  Zr  Zr78  1  0.10606127  0.90290151  0.29610102  1
  Zr  Zr79  1  0.40161083  0.80841776  0.19496861  1
  Zr  Zr80  1  0.69888810  0.90072304  0.30689410  1
  Zr  Zr81  1  0.59841412  0.80660659  0.00646047  1
  Zr  Zr82  1  0.70511543  0.30586725  0.10589603  1
  Zr  Zr83  1  0.69657713  0.50930266  0.50317425  1
  Zr  Zr84  1  0.10355742  0.50670515  0.69429349  1
  Zr  Zr85  1  0.49897299  0.49430585  0.51556474  1
  Zr  Zr86  1  0.00465826  0.39865685  0.20584466  1
  Zr  Zr87  1  0.20464241  0.19304621  0.79396850  1
  Zr  Zr88  1  0.39454640  0.00554142  0.20148441  1
  Zr  Zr89  1  0.49433295  0.09652541  0.89923663  1
  Zr  Zr90  1  0.29796730  0.70147320  0.88894579  1
  Zr  Zr91  1  0.59577209  0.40007422  0.00219728  1
  Zr  Zr92  1  0.70050757  0.69940922  0.30796447  1
  Zr  Zr93  1  0.69966298  0.07519120  0.67746797  1
  Zr  Zr94  1  0.10605760  0.69379035  0.50590260  1
  Zr  Zr95  1  0.30069434  0.29147121  0.31165426  1
  Zr  Zr96  1  0.11001929  0.70703357  0.29474798  1
  Zr  Zr97  1  0.70218788  0.31180007  0.90157360  1
  Zr  Zr98  1  0.69718947  0.69013413  0.89206179  1
  Zr  Zr99  1  0.09732636  0.28741206  0.90544334  1
  Ta  Ta100  1  0.00100155  -0.00160959  0.20223104  1
  Ta  Ta101  1  0.89880471  0.69411170  0.89744241  1
  Ta  Ta102  1  0.60060767  -0.00295209  0.00251947  1
  Ta  Ta103  1  0.79534703  -0.00300860  0.00578731  1
  Ta  Ta104  1  0.30319400  0.29983663  0.10157337  1
  Ta  Ta105  1  0.50060506  0.70499042  0.69310245  1
  Ta  Ta106  1  0.39901792  0.39727241  0.19966626  1
  Ta  Ta107  1  0.11063897  0.90787613  0.49900313  1
  Ta  Ta108  1  0.30787649  0.50002279  0.09926668  1
  Ta  Ta109  1  0.39703744  -0.00089785  0.79497847  1
  Ta  Ta110  1  0.89548787  0.30652643  0.30443783  1
  Ta  Ta111  1  0.49786944  0.70456498  0.30505264  1
  Ta  Ta112  1  0.59380076  0.80264054  0.40856178  1
  Ta  Ta113  1  0.49683388  0.50155151  0.29908463  1
  Ta  Ta114  1  0.90020633  0.90911807  0.10323686  1
  Ta  Ta115  1  0.49482312  0.30594789  0.88705068  1
  Ta  Ta116  1  0.30219455  0.90046039  0.30467658  1
  Ta  Ta117  1  0.59984586  0.40587650  0.39185598  1
  Ta  Ta118  1  0.80036320  -0.00175046  0.40076085  1
  Ta  Ta119  1  0.10321936  0.29617174  0.50348455  1
  Ta  Ta120  1  -0.00504820  0.19681258  0.00871922  1
  Ta  Ta121  1  0.39847552  -0.00371662  0.59589178  1
  Ta  Ta122  1  0.79444508  0.40019175  0.39753035  1
  Ta  Ta123  1  0.39736048  -0.00564575  0.00510415  1
  Ta  Ta124  1  0.00102614  0.40226861  -0.00223101  1
  Ta  Ta125  1  0.29714362  0.09350009  0.90239387  1
  Ta  Ta126  1  0.49921835  0.89744094  0.31057609  1
  Ta  Ta127  1  0.59341837  0.60209906  0.40269508  1
  Ta  Ta128  1  0.88775389  0.50262791  0.30102675  1
  Ta  Ta129  1  0.80047174  0.60571512  0.00580778  1
  Ta  Ta130  1  0.70690046  0.49949506  0.09738386  1
  Ta  Ta131  1  0.80186693  0.80653410  0.41043902  1
  Ta  Ta132  1  0.90321199  0.29959792  0.49905342  1
  Ta  Ta133  1  0.70601714  0.09398052  0.10622997  1
  Ta  Ta134  1  0.21462770  0.60279425  0.60503464  1
  Ta  Ta135  1  0.29893963  0.49918862  0.50514340  1
  Ta  Ta136  1  0.49853463  0.70734444  0.50651840  1
  Ta  Ta137  1  0.39972655  0.60159259  -0.00186616  1
  Ta  Ta138  1  0.30911749  0.70322754  0.50636267  1
  Ta  Ta139  1  0.79763992  0.19707325  0.58948490  1
  Ta  Ta140  1  0.39487055  0.19410532  0.79075232  1
  Ta  Ta141  1  0.49450744  0.09857417  0.68954548  1
  Ta  Ta142  1  0.30496125  0.69924565  0.09928241  1
  Ta  Ta143  1  0.40109509  0.80677315  -0.00226889  1
  Ta  Ta144  1  0.69927348  0.51646937  0.69360586  1
  Ta  Ta145  1  0.00729186  0.20375709  0.40001749  1
  Ta  Ta146  1  0.90250299  0.90686823  0.90470643  1
  Ta  Ta147  1  0.00239779  0.40700478  0.59294752  1
  Ta  Ta148  1  0.10290043  0.09370548  0.30942253  1
  Ta  Ta149  1  0.89373633  0.49945644  0.09877471  1
  Ti  Ti150  1  0.20538118  0.00341400  0.40245148  1
  Ti  Ti151  1  0.89940475  0.90636294  0.30089529  1
  Ti  Ti152  1  0.60850145  0.20037317  0.20796495  1
  Ti  Ti153  1  0.31017950  0.49672566  0.89540881  1
  Ti  Ti154  1  0.59955913  0.80440738  0.79154130  1
  Ti  Ti155  1  -0.00479132  0.58975047  0.79731011  1
  Ti  Ti156  1  0.79859760  0.60290754  0.19462167  1
  Ti  Ti157  1  0.21112363  -0.00007241  0.19675980  1
  Ti  Ti158  1  0.70147359  0.70133496  0.69169378  1
  Ti  Ti159  1  0.20628349  0.80265061  0.60148232  1
  Ti  Ti160  1  0.09407221  0.91489834  0.91254030  1
  Ti  Ti161  1  0.70580832  0.50173591  0.30083317  1
  Ti  Ti162  1  0.00293003  0.19183309  0.79786923  1
  Ti  Ti163  1  0.50076440  0.09071744  0.50055134  1
  Ti  Ti164  1  0.60617744  0.39899871  0.20902244  1
  Ti  Ti165  1  0.30354514  0.30110876  0.69268947  1
  Ti  Ti166  1  0.40073328  0.80573994  0.79522732  1
  Ti  Ti167  1  0.69805729  0.50921568  0.90248137  1
  Ti  Ti168  1  0.59550913  0.60015768  0.78688711  1
  Ti  Ti169  1  0.20561896  0.19398252  0.00648390  1
  Ti  Ti170  1  0.89907372  0.90715491  0.49955460  1
  Ti  Ti171  1  0.10300154  0.90462465  0.10426786  1
  Ti  Ti172  1  0.49795744  0.29922672  0.10866081  1
  Ti  Ti173  1  0.39033511  0.19228635  0.20440531  1
  Ti  Ti174  1  0.00467558  -0.01021722  0.78835846  1
  Ti  Ti175  1  0.69554050  0.08974023  0.49668094  1
  Ti  Ti176  1  0.59967020  0.80280466  0.60058007  1
  Ti  Ti177  1  0.59740234  0.41204755  0.78983411  1
  Ti  Ti178  1  0.40363120  -0.00485158  0.40127956  1
  Ti  Ti179  1  0.20966593  0.60133267  0.18749410  1
  Ti  Ti180  1  0.70121563  0.08850097  0.30020305  1
  Ti  Ti181  1  0.40120090  0.39917793  0.00288362  1
  Ti  Ti182  1  0.40199265  0.40295316  0.40009474  1
  Ti  Ti183  1  0.59735742  0.18902337  0.59485814  1
  Ti  Ti184  1  0.30391480  0.89796098  0.68883175  1
  Ti  Ti185  1  0.79299732  -0.00323396  0.80425182  1
  Ti  Ti186  1  0.10126201  0.29577323  0.09618492  1
  Ti  Ti187  1  0.00536222  0.19668871  0.59383463  1
  Ti  Ti188  1  0.89765466  0.09350976  0.10482055  1
  Ti  Ti189  1  0.69281196  0.69243704  0.09691611  1
  Ti  Ti190  1  0.40148427  0.18516204  0.39361531  1
  Ti  Ti191  1  0.49965212  0.90272773  0.09823395  1
  Ti  Ti192  1  0.89059469  0.69655079  0.50655642  1
  Ti  Ti193  1  0.30821188  0.89608274  0.50000728  1
  Ti  Ti194  1  -0.00905062  0.80484351  0.19730346  1
  Ti  Ti195  1  0.79819105  0.18786307  0.00173959  1
  Ti  Ti196  1  0.40202484  0.60494633  0.60520057  1
  Ti  Ti197  1  0.50475975  0.09102965  0.30444239  1
  Ti  Ti198  1  0.87982328  0.90726748  0.68788411  1
  Ti  Ti199  1  0.60079817  0.80271831  0.20112195  1
  Mo  Mo200  1  -0.00359744  -0.00157618  0.01049244  1
  Mo  Mo201  1  0.39669649  0.80116948  0.59940071  1
  Mo  Mo202  1  0.09185798  0.50043922  0.89933725  1
  Mo  Mo203  1  0.69744435  0.89392577  0.69667463  1
  Mo  Mo204  1  0.30589224  0.70504724  0.69335343  1
  Mo  Mo205  1  0.39970067  0.59898548  0.19841326  1
  Mo  Mo206  1  0.19871505  0.40259183  0.59489088  1
  Mo  Mo207  1  0.10610107  0.89371372  0.68576377  1
  Mo  Mo208  1  0.80388433  0.00211813  0.20189218  1
  Mo  Mo209  1  0.29917015  0.09127325  0.30889315  1
  Mo  Mo210  1  0.70243032  0.08944339  0.91279418  1
  Mo  Mo211  1  0.49700996  0.89858945  0.49796433  1
  Mo  Mo212  1  0.20405406  0.00162660  0.00721784  1
  Mo  Mo213  1  0.19143493  0.19315237  0.40551461  1
  Mo  Mo214  1  0.79617441  0.60109039  0.40037454  1
  Mo  Mo215  1  0.60017416  0.41251332  0.60703665  1
  Mo  Mo216  1  0.80136128  0.41220918  0.00131615  1
  Mo  Mo217  1  0.79921748  0.40824610  0.20631502  1
  Mo  Mo218  1  0.70021893  0.90392417  0.10248275  1
  Mo  Mo219  1  0.40028289  0.39629712  0.79989587  1
  Mo  Mo220  1  0.09085391  0.09687661  0.70054754  1
  Mo  Mo221  1  0.40335767  0.80320863  0.40352403  1
  Mo  Mo222  1  0.10284134  0.09792415  0.49228870  1
  Mo  Mo223  1  0.29706067  0.09931055  0.09528935  1
  Mo  Mo224  1  0.31237571  0.09201841  0.69514555  1
  Mo  Mo225  1  0.50452966  0.50561595  0.69984289  1
  Mo  Mo226  1  0.80406614  0.80291778  0.59679852  1
  Mo  Mo227  1  0.69606379  0.30889060  0.30248851  1
  Mo  Mo228  1  0.29947886  0.90149449  0.10008700  1
  Mo  Mo229  1  0.10642085  0.49951686  0.50850684  1
  Mo  Mo230  1  0.20844359  0.59569676  0.79737587  1
  Mo  Mo231  1  0.59508539  0.00301520  0.39950491  1
  Mo  Mo232  1  0.20829096  -0.00992908  0.59204040  1
  Mo  Mo233  1  -0.00385100  0.59726471  0.59979408  1
  Mo  Mo234  1  0.21246584  0.80999735  0.19710724  1
  Mo  Mo235  1  0.20888103  0.60232666  0.41791268  1
  Mo  Mo236  1  0.81058308  0.00141209  0.58750852  1
  Mo  Mo237  1  0.00375741  -0.00160582  0.39811713  1
  Mo  Mo238  1  0.79325066  0.60221354  0.80103544  1
  Mo  Mo239  1  0.58406399  -0.00059291  0.59239434  1
  Mo  Mo240  1  0.49078468  0.89806661  0.89680406  1
  Mo  Mo241  1  0.60442103  0.59784401  0.00013709  1
  Mo  Mo242  1  0.89441810  0.70026670  0.10034534  1
  Mo  Mo243  1  0.79712315  0.60355292  0.60318796  1
  Mo  Mo244  1  0.39667984  0.39675006  0.59947649  1
  Mo  Mo245  1  -0.00837982  0.59864428  -0.00233156  1
  Mo  Mo246  1  0.90163864  0.50396855  0.69623751  1
  Mo  Mo247  1  0.59480272  0.61128783  0.60483376  1
  Mo  Mo248  1  0.39916629  0.19046926  0.60200717  1
  Mo  Mo249  1  0.09783152  0.29128710  0.30836105  1
