# generated using pymatgen
data_HfZrTaTiMo
_symmetry_space_group_name_H-M   'P 1'
_cell_length_a   16.89105192
_cell_length_b   16.88788618
_cell_length_c   16.89060039
_cell_angle_alpha   90.05530352
_cell_angle_beta   89.95776802
_cell_angle_gamma   90.00972414
_symmetry_Int_Tables_number   1
_chemical_formula_structural   HfZrTaTiMo
_chemical_formula_sum   'Hf50 Zr50 Ta50 Ti50 Mo50'
_cell_volume   4818.11044240
_cell_formula_units_Z   50
loop_
 _symmetry_equiv_pos_site_id
 _symmetry_equiv_pos_as_xyz
  1  'x, y, z'
loop_
 _atom_site_type_symbol
 _atom_site_label
 _atom_site_symmetry_multiplicity
 _atom_site_fract_x
 _atom_site_fract_y
 _atom_site_fract_z
 _atom_site_occupancy
  Hf  Hf0  1  0.90243651  0.89842398  0.30208978  1
  Hf  Hf1  1  0.00045365  0.19651613  -0.01212287  1
  Hf  Hf2  1  0.00985719  0.21063753  0.80541601  1
  Hf  Hf3  1  0.11123159  0.69913477  0.71000985  1
  Hf  Hf4  1  0.20710384  0.40561425  -0.00412674  1
  Hf  Hf5  1  0.01060472  0.01227979  0.40046060  1
  Hf  Hf6  1  0.89544334  0.29645891  0.09486317  1
  Hf  Hf7  1  0.39880033  0.20715461  0.01177562  1
  Hf  Hf8  1  0.20310918  0.79588152  0.20217429  1
  Hf  Hf9  1  0.21368514  0.19871552  0.19957713  1
  Hf  Hf10  1  0.10916001  0.10100955  0.09915888  1
  Hf  Hf11  1  0.39873250  0.80276490  0.40270021  1
  Hf  Hf12  1  0.10188205  0.89266969  0.30567342  1
  Hf  Hf13  1  0.09925384  0.50421035  0.30078709  1
  Hf  Hf14  1  0.29535562  0.88442404  0.70671910  1
  Hf  Hf15  1  0.40326183  -0.01338512  0.80288564  1
  Hf  Hf16  1  0.21230652  0.40234352  0.18930567  1
  Hf  Hf17  1  0.89610978  0.10129297  0.09803621  1
  Hf  Hf18  1  0.50104664  0.08815828  0.09738804  1
  Hf  Hf19  1  0.50854655  0.70129938  0.50472404  1
  Hf  Hf20  1  0.89587990  0.11515597  0.49865298  1
  Hf  Hf21  1  0.89694503  0.50035617  0.08861434  1
  Hf  Hf22  1  0.79520794  0.00678061  0.60106820  1
  Hf  Hf23  1  0.69263709  0.29335178  0.50983602  1
  Hf  Hf24  1  0.89748563  0.30655079  0.69261935  1
  Hf  Hf25  1  0.90164615  0.49256213  0.50426021  1
  Hf  Hf26  1  0.00678823  0.00392344  0.58760927  1
  Hf  Hf27  1  0.49879140  0.10121039  0.90406938  1
  Hf  Hf28  1  0.00647609  0.39489678  -0.01249494  1
  Hf  Hf29  1  0.39939050  0.40816132  -0.00011929  1
  Hf  Hf30  1  0.59076702  0.80502671  0.20129465  1
  Hf  Hf31  1  0.60347461  0.39606284  0.39798545  1
  Hf  Hf32  1  0.31056189  0.69252929  0.09950188  1
  Hf  Hf33  1  0.68805635  0.90132934  0.08619913  1
  Hf  Hf34  1  0.39925456  0.59648156  0.60225788  1
  Hf  Hf35  1  0.09924765  0.50808382  0.09336875  1
  Hf  Hf36  1  0.00231430  0.39596873  0.79954940  1
  Hf  Hf37  1  0.79632916  0.60151167  0.19513058  1
  Hf  Hf38  1  0.40116945  0.20147720  0.19904837  1
  Hf  Hf39  1  0.40240901  0.39765608  0.79881195  1
  Hf  Hf40  1  0.69804068  0.30895658  0.09800569  1
  Hf  Hf41  1  0.30315895  0.30806813  0.51504481  1
  Hf  Hf42  1  0.90337792  0.70248662  0.49095188  1
  Hf  Hf43  1  0.10412554  0.89236221  0.89021783  1
  Hf  Hf44  1  0.40665821  0.19467860  0.78470439  1
  Hf  Hf45  1  0.10382778  0.29811173  0.29814036  1
  Hf  Hf46  1  0.00007769  0.79266999  0.19016821  1
  Hf  Hf47  1  0.49751918  0.70206882  0.08904042  1
  Hf  Hf48  1  0.50308774  0.29481894  0.51509154  1
  Hf  Hf49  1  0.40510575  0.40337635  0.40100567  1
  Zr  Zr50  1  0.10506235  0.09924473  0.69260951  1
  Zr  Zr51  1  0.00026722  0.60389109  0.60560365  1
  Zr  Zr52  1  0.60180505  0.59878238  0.19151334  1
  Zr  Zr53  1  0.39903567  0.80960893  -0.01038530  1
  Zr  Zr54  1  0.90412066  0.29657720  0.30343873  1
  Zr  Zr55  1  0.68694121  0.89900914  0.50104879  1
  Zr  Zr56  1  0.79076759  0.00436224  0.19795100  1
  Zr  Zr57  1  0.20095130  0.60806214  0.20182873  1
  Zr  Zr58  1  -0.00573191  0.78068931  0.80607360  1
  Zr  Zr59  1  0.29533073  0.48698965  0.68853385  1
  Zr  Zr60  1  0.90007454  0.10476813  0.70559921  1
  Zr  Zr61  1  0.90225451  0.69901453  0.29785519  1
  Zr  Zr62  1  0.69287266  0.70288164  0.08656411  1
  Zr  Zr63  1  0.90683305  0.91431066  0.70609266  1
  Zr  Zr64  1  0.80663246  0.79617743  0.60711285  1
  Zr  Zr65  1  0.39569967  -0.00024887  0.60571838  1
  Zr  Zr66  1  0.20634656  0.40054588  0.39775195  1
  Zr  Zr67  1  0.39864603  0.60295673  0.40243743  1
  Zr  Zr68  1  0.68530137  0.10592895  0.50083610  1
  Zr  Zr69  1  0.69000725  0.69773812  0.50389665  1
  Zr  Zr70  1  0.49655398  0.70484800  0.70486492  1
  Zr  Zr71  1  0.20629223  -0.01134876  -0.00228586  1
  Zr  Zr72  1  0.50086254  0.10756860  0.50334928  1
  Zr  Zr73  1  0.00257587  0.79592438  0.59933160  1
  Zr  Zr74  1  0.69252859  0.90540954  0.30467313  1
  Zr  Zr75  1  0.69925657  0.89880779  0.70452569  1
  Zr  Zr76  1  0.10318249  0.49538091  0.50353190  1
  Zr  Zr77  1  0.19318181  0.39039044  0.79912317  1
  Zr  Zr78  1  0.39916068  0.20524166  0.39731234  1
  Zr  Zr79  1  0.59589073  0.00520057  0.79517288  1
  Zr  Zr80  1  0.79256419  0.40281499  0.20220605  1
  Zr  Zr81  1  0.00131145  0.00050296  -0.00510074  1
  Zr  Zr82  1  0.00291181  0.39890451  0.19425523  1
  Zr  Zr83  1  0.59158256  0.58687759  0.80607195  1
  Zr  Zr84  1  0.80277472  0.79742201  -0.01104226  1
  Zr  Zr85  1  0.30672282  0.89872422  0.10321780  1
  Zr  Zr86  1  0.90142194  0.10789990  0.30166166  1
  Zr  Zr87  1  0.50324437  0.50172220  0.29528180  1
  Zr  Zr88  1  0.20523900  0.20003155  0.79092063  1
  Zr  Zr89  1  0.77964564  0.20392721  0.79341213  1
  Zr  Zr90  1  0.79764695  0.78798502  0.79728969  1
  Zr  Zr91  1  0.00874352  0.00085977  0.19965339  1
  Zr  Zr92  1  0.79194789  0.79751028  0.39454097  1
  Zr  Zr93  1  0.20331722  0.00014119  0.41105778  1
  Zr  Zr94  1  0.10268147  0.90066913  0.70307036  1
  Zr  Zr95  1  0.79885130  0.60155320  0.60980630  1
  Zr  Zr96  1  0.29974883  0.28952064  0.90312897  1
  Zr  Zr97  1  0.79491578  0.39744706  0.40116505  1
  Zr  Zr98  1  0.89575140  0.91261964  0.89205436  1
  Zr  Zr99  1  0.60597315  0.20002963  0.00432636  1
  Ta  Ta100  1  0.89356452  0.49837812  0.89431437  1
  Ta  Ta101  1  0.50792469  0.30081868  0.89958101  1
  Ta  Ta102  1  0.59612637  0.00148227  0.19869611  1
  Ta  Ta103  1  0.90202736  0.90228399  0.48973716  1
  Ta  Ta104  1  0.20336679  0.00172575  0.20919804  1
  Ta  Ta105  1  0.20157333  0.60331349  0.59910027  1
  Ta  Ta106  1  0.60086828  0.41255288  -0.00476807  1
  Ta  Ta107  1  -0.00095910  0.60692311  -0.01233960  1
  Ta  Ta108  1  0.19880525  0.79140357  -0.00594621  1
  Ta  Ta109  1  0.50368559  0.09835603  0.30418209  1
  Ta  Ta110  1  0.79052772  0.40251084  0.80022197  1
  Ta  Ta111  1  0.79558869  0.59334866  0.39818752  1
  Ta  Ta112  1  0.30629836  0.51134006  0.29258563  1
  Ta  Ta113  1  0.79596368  0.79796630  0.19393973  1
  Ta  Ta114  1  0.89705395  0.89618733  0.09617971  1
  Ta  Ta115  1  0.20638145  0.59969300  -0.00987899  1
  Ta  Ta116  1  0.30013142  0.70080340  0.50525008  1
  Ta  Ta117  1  0.39962362  -0.00461513  0.40992241  1
  Ta  Ta118  1  0.40418636  0.79824885  0.21221173  1
  Ta  Ta119  1  0.59197569  0.80863625  0.80935691  1
  Ta  Ta120  1  0.30654170  0.09336241  0.30617287  1
  Ta  Ta121  1  0.30161659  0.90026270  0.30513898  1
  Ta  Ta122  1  0.00016457  0.79091403  -0.00402962  1
  Ta  Ta123  1  0.78843740  0.59037248  -0.00998965  1
  Ta  Ta124  1  0.40163493  0.80695898  0.59578534  1
  Ta  Ta125  1  0.39870705  0.40585289  0.19304054  1
  Ta  Ta126  1  0.40288982  -0.00454258  0.20706192  1
  Ta  Ta127  1  0.00353553  0.60166677  0.40242342  1
  Ta  Ta128  1  0.79366529  0.00395431  -0.00423731  1
  Ta  Ta129  1  0.78427038  0.19870357  0.20168257  1
  Ta  Ta130  1  0.09872302  0.49682547  0.69750929  1
  Ta  Ta131  1  0.90389510  0.50481934  0.30367742  1
  Ta  Ta132  1  0.88512453  0.30246893  0.90095560  1
  Ta  Ta133  1  0.30043904  0.10975939  0.50842518  1
  Ta  Ta134  1  0.50685468  0.31151035  0.10346295  1
  Ta  Ta135  1  0.11117985  0.29108637  0.09025723  1
  Ta  Ta136  1  0.30801755  0.09363247  0.90597624  1
  Ta  Ta137  1  0.68876502  0.69707609  0.89578134  1
  Ta  Ta138  1  0.89916505  0.29855440  0.50411529  1
  Ta  Ta139  1  0.69686332  0.49702393  0.70216082  1
  Ta  Ta140  1  0.39604874  0.59233902  0.80410491  1
  Ta  Ta141  1  0.79624126  0.00809830  0.40326404  1
  Ta  Ta142  1  0.69512526  0.09488020  0.90014377  1
  Ta  Ta143  1  0.30215499  0.70260582  0.89057841  1
  Ta  Ta144  1  0.78506598  0.20517167  0.39250996  1
  Ta  Ta145  1  0.58656083  -0.00398015  0.60653670  1
  Ta  Ta146  1  0.21152566  0.00299912  0.80044838  1
  Ta  Ta147  1  0.20549234  0.59618083  0.80122681  1
  Ta  Ta148  1  0.69591919  0.50112563  0.29868328  1
  Ta  Ta149  1  0.50937487  0.30113353  0.28895274  1
  Ti  Ti150  1  0.49968506  0.91088084  0.30780537  1
  Ti  Ti151  1  0.79403106  0.19347110  -0.00284842  1
  Ti  Ti152  1  0.12371603  0.10861434  0.90711237  1
  Ti  Ti153  1  0.20667850  0.79178589  0.40383598  1
  Ti  Ti154  1  0.10084876  0.30523853  0.50940600  1
  Ti  Ti155  1  0.60038756  0.39902438  0.61015537  1
  Ti  Ti156  1  0.60420544  0.19760028  0.19927893  1
  Ti  Ti157  1  0.10087861  0.89471361  0.09700839  1
  Ti  Ti158  1  0.69726315  0.30616077  0.90190694  1
  Ti  Ti159  1  0.49918792  0.49095341  0.69732053  1
  Ti  Ti160  1  0.78796473  0.20039076  0.60785664  1
  Ti  Ti161  1  0.50853126  0.49933737  0.50459446  1
  Ti  Ti162  1  0.68668563  0.10118684  0.30618001  1
  Ti  Ti163  1  0.09944878  0.88545244  0.49404699  1
  Ti  Ti164  1  0.68668139  0.69827638  0.70527549  1
  Ti  Ti165  1  0.20238976  0.79508574  0.59120828  1
  Ti  Ti166  1  0.30744592  0.30590341  0.29800877  1
  Ti  Ti167  1  0.51157389  0.90805735  0.91910951  1
  Ti  Ti168  1  0.89880571  0.50352849  0.70960162  1
  Ti  Ti169  1  0.11311375  0.11539713  0.50397117  1
  Ti  Ti170  1  0.01197360  0.20325114  0.40492925  1
  Ti  Ti171  1  0.59864455  0.59326592  0.60673502  1
  Ti  Ti172  1  0.89072543  0.67738674  0.88879493  1
  Ti  Ti173  1  0.20892246  0.20730723  0.61089996  1
  Ti  Ti174  1  0.69303568  0.50292084  0.50204600  1
  Ti  Ti175  1  0.00040072  0.39731322  0.40325829  1
  Ti  Ti176  1  0.30234545  0.70213021  0.70365865  1
  Ti  Ti177  1  0.00777741  0.19733014  0.19935013  1
  Ti  Ti178  1  0.89678245  0.69687693  0.09018981  1
  Ti  Ti179  1  0.59486510  0.19567336  0.63827242  1
  Ti  Ti180  1  0.20589008  -0.00377748  0.59652965  1
  Ti  Ti181  1  0.79224252  0.40223144  0.60553975  1
  Ti  Ti182  1  0.20347869  0.60885272  0.40336807  1
  Ti  Ti183  1  0.59963681  0.39446492  0.79947840  1
  Ti  Ti184  1  0.30494700  0.09019202  0.09764204  1
  Ti  Ti185  1  0.00801243  0.02353777  0.81483530  1
  Ti  Ti186  1  0.59707933  0.58900977  -0.00772840  1
  Ti  Ti187  1  0.20389554  0.20047158  0.39721181  1
  Ti  Ti188  1  0.39689653  0.59020776  -0.01348977  1
  Ti  Ti189  1  0.50134636  0.69126911  0.30117538  1
  Ti  Ti190  1  0.69007001  0.69346408  0.30528699  1
  Ti  Ti191  1  0.00680814  0.20831050  0.59936708  1
  Ti  Ti192  1  0.49747669  0.70041181  0.89939963  1
  Ti  Ti193  1  -0.00072401  0.60418300  0.19624401  1
  Ti  Ti194  1  0.49691663  0.50475722  0.09988513  1
  Ti  Ti195  1  0.29886630  0.49832773  0.50319101  1
  Ti  Ti196  1  0.58898730  0.80289821  0.39828417  1
  Ti  Ti197  1  0.09703482  0.51091040  0.89217549  1
  Ti  Ti198  1  0.10051364  0.69678680  0.08840387  1
  Ti  Ti199  1  0.09539553  0.70341333  0.31292181  1
  Mo  Mo200  1  0.30583764  0.30781642  0.10239478  1
  Mo  Mo201  1  0.20716620  0.79387412  0.80534908  1
  Mo  Mo202  1  0.29993898  0.09252913  0.69683784  1
  Mo  Mo203  1  0.09688946  0.30566331  0.68150888  1
  Mo  Mo204  1  0.59568796  0.79967304  -0.01137461  1
  Mo  Mo205  1  0.60547073  0.59475666  0.40308527  1
  Mo  Mo206  1  0.69803627  0.10043527  0.10041484  1
  Mo  Mo207  1  0.30740977  0.51000835  0.09716381  1
  Mo  Mo208  1  0.69794434  0.50020787  0.09223382  1
  Mo  Mo209  1  0.50529245  0.30526709  0.70324922  1
  Mo  Mo210  1  0.88109200  0.10682677  0.89902223  1
  Mo  Mo211  1  0.69121872  0.29758558  0.29304495  1
  Mo  Mo212  1  0.49849808  0.89927818  0.49979633  1
  Mo  Mo213  1  0.49961406  0.89989178  0.10636562  1
  Mo  Mo214  1  0.59594324  0.40505565  0.19256898  1
  Mo  Mo215  1  0.39653732  0.20189113  0.61044701  1
  Mo  Mo216  1  0.59976266  0.20436123  0.38418402  1
  Mo  Mo217  1  0.40432981  0.79574667  0.80270714  1
  Mo  Mo218  1  0.79280246  0.01141549  0.80563353  1
  Mo  Mo219  1  0.00259390  0.58990073  0.80128633  1
  Mo  Mo220  1  0.29537209  0.89415464  0.50312816  1
  Mo  Mo221  1  0.30739048  0.29867511  0.69084399  1
  Mo  Mo222  1  0.19154382  0.39964035  0.59917875  1
  Mo  Mo223  1  0.00700098  0.79836314  0.40153136  1
  Mo  Mo224  1  0.49784624  0.89338203  0.69738773  1
  Mo  Mo225  1  0.79631632  0.40015145  -0.00944055  1
  Mo  Mo226  1  0.69391762  0.90046356  0.90000904  1
  Mo  Mo227  1  0.59186314  0.80608831  0.61050721  1
  Mo  Mo228  1  0.59155872  0.00252959  0.39924428  1
  Mo  Mo229  1  -0.00461488  0.39828426  0.60293179  1
  Mo  Mo230  1  0.30086369  0.50626227  0.89485189  1
  Mo  Mo231  1  0.29777538  0.89482065  0.89677003  1
  Mo  Mo232  1  0.90567168  0.68236081  0.71091657  1
  Mo  Mo233  1  0.79083360  0.59388095  0.80089443  1
  Mo  Mo234  1  0.69603716  0.31190077  0.69810029  1
  Mo  Mo235  1  0.20850050  0.19478718  0.00584793  1
  Mo  Mo236  1  0.59706943  0.20719161  0.80685999  1
  Mo  Mo237  1  0.10352589  0.29458236  0.91285969  1
  Mo  Mo238  1  0.30285466  0.70349889  0.30546968  1
  Mo  Mo239  1  0.69407859  0.09594510  0.70145119  1
  Mo  Mo240  1  0.49888836  0.49472789  0.89929926  1
  Mo  Mo241  1  0.41388733  0.40353940  0.59934869  1
  Mo  Mo242  1  0.40156232  -0.00006181  0.00244665  1
  Mo  Mo243  1  0.10748155  0.69387422  0.90237842  1
  Mo  Mo244  1  0.69790245  0.49608003  0.89600528  1
  Mo  Mo245  1  0.60219730  0.00078010  0.00007463  1
  Mo  Mo246  1  0.11384775  0.10969371  0.30364051  1
  Mo  Mo247  1  0.40145652  0.60304967  0.19835454  1
  Mo  Mo248  1  0.49841282  0.09625499  0.70180364  1
  Mo  Mo249  1  0.11052104  0.69814808  0.49535778  1
