# generated using pymatgen
data_HfZrTaTiMo
_symmetry_space_group_name_H-M   'P 1'
_cell_length_a   16.88341587
_cell_length_b   16.88537154
_cell_length_c   16.89497129
_cell_angle_alpha   89.97369278
_cell_angle_beta   89.98876575
_cell_angle_gamma   89.95287907
_symmetry_Int_Tables_number   1
_chemical_formula_structural   HfZrTaTiMo
_chemical_formula_sum   'Hf50 Zr50 Ta50 Ti50 Mo50'
_cell_volume   4816.46264620
_cell_formula_units_Z   50
loop_
 _symmetry_equiv_pos_site_id
 _symmetry_equiv_pos_as_xyz
  1  'x, y, z'
loop_
 _atom_site_type_symbol
 _atom_site_label
 _atom_site_symmetry_multiplicity
 _atom_site_fract_x
 _atom_site_fract_y
 _atom_site_fract_z
 _atom_site_occupancy
  Hf  Hf0  1  0.69776040  0.49728240  0.10542743  1
  Hf  Hf1  1  0.69698191  0.29923620  0.69596889  1
  Hf  Hf2  1  0.09714378  0.90121507  0.70199223  1
  Hf  Hf3  1  0.90088991  0.10697051  0.09482814  1
  Hf  Hf4  1  -0.00101252  0.59840026  0.80160010  1
  Hf  Hf5  1  -0.00258534  0.78647894  0.80369348  1
  Hf  Hf6  1  0.10662167  0.91266715  0.30588247  1
  Hf  Hf7  1  0.20215371  0.80009653  0.59362086  1
  Hf  Hf8  1  0.59908456  -0.00364103  0.40135961  1
  Hf  Hf9  1  0.69539207  0.90850820  0.89824808  1
  Hf  Hf10  1  0.40143183  0.39505132  0.80279729  1
  Hf  Hf11  1  0.30652972  0.49809062  0.09721978  1
  Hf  Hf12  1  0.90929130  0.90692768  0.30456618  1
  Hf  Hf13  1  0.10230783  0.90559763  0.89806042  1
  Hf  Hf14  1  0.20696565  0.39020153  0.00000338  1
  Hf  Hf15  1  0.10356492  0.28590772  0.89983093  1
  Hf  Hf16  1  0.40305381  0.38920647  -0.00420658  1
  Hf  Hf17  1  0.61033749  0.21134679  0.00166753  1
  Hf  Hf18  1  0.29800724  0.68855201  0.49098646  1
  Hf  Hf19  1  0.49136171  0.50272068  0.49367488  1
  Hf  Hf20  1  0.81018405  0.58638957  0.20499773  1
  Hf  Hf21  1  0.59972937  0.80045621  -0.00044412  1
  Hf  Hf22  1  0.39491668  0.79846448  0.60533535  1
  Hf  Hf23  1  0.00535916  0.59828744  0.59559884  1
  Hf  Hf24  1  0.00328802  0.19976681  0.39608535  1
  Hf  Hf25  1  -0.00287298  0.19234930  0.59995234  1
  Hf  Hf26  1  0.00634444  0.01802163  -0.00699410  1
  Hf  Hf27  1  0.10525285  0.49016824  0.31551323  1
  Hf  Hf28  1  0.80211978  0.19877765  0.40273082  1
  Hf  Hf29  1  0.30637407  0.70268430  0.10321092  1
  Hf  Hf30  1  0.69677707  0.69980701  0.69178431  1
  Hf  Hf31  1  0.30101573  0.70046588  0.30691235  1
  Hf  Hf32  1  0.29171191  0.09548712  0.30367631  1
  Hf  Hf33  1  0.70465463  0.69719812  0.30034639  1
  Hf  Hf34  1  0.39654288  0.60002036  0.60588973  1
  Hf  Hf35  1  0.79917173  0.19105939  0.79976087  1
  Hf  Hf36  1  0.60217188  -0.00417462  0.20234019  1
  Hf  Hf37  1  0.10754899  0.09601898  0.48892139  1
  Hf  Hf38  1  0.20388836  -0.00893784  0.59392716  1
  Hf  Hf39  1  0.49733022  0.70402539  0.30697815  1
  Hf  Hf40  1  0.79489075  -0.00813399  0.40311205  1
  Hf  Hf41  1  0.49567008  0.10192886  0.30073007  1
  Hf  Hf42  1  0.39582293  0.00314930  0.00947202  1
  Hf  Hf43  1  0.59832436  0.60049551  -0.01066191  1
  Hf  Hf44  1  0.39076054  -0.00204874  0.19623964  1
  Hf  Hf45  1  0.79525077  0.20719881  0.19665959  1
  Hf  Hf46  1  0.61310868  0.80238264  0.40755779  1
  Hf  Hf47  1  0.50184553  0.50420306  0.70403523  1
  Hf  Hf48  1  0.89862028  0.30451430  0.70029509  1
  Hf  Hf49  1  0.00453062  0.79379622  -0.00463848  1
  Zr  Zr50  1  0.70288135  0.69517435  0.10208414  1
  Zr  Zr51  1  0.00641109  0.80056176  0.20928937  1
  Zr  Zr52  1  -0.00207749  0.79623613  0.58760647  1
  Zr  Zr53  1  0.59627814  0.79801215  0.79518056  1
  Zr  Zr54  1  0.10134747  0.70233612  0.10727344  1
  Zr  Zr55  1  0.89877933  0.89940652  0.69890313  1
  Zr  Zr56  1  0.10670934  0.69441300  0.69669690  1
  Zr  Zr57  1  0.60051587  0.39408186  -0.00939034  1
  Zr  Zr58  1  0.69198069  0.30069437  0.50264455  1
  Zr  Zr59  1  0.40394110  0.59167285  0.20771285  1
  Zr  Zr60  1  0.79567071  0.40968945  0.60289448  1
  Zr  Zr61  1  0.29697053  0.28667032  0.70184287  1
  Zr  Zr62  1  0.78745795  0.80577326  0.58728953  1
  Zr  Zr63  1  0.29610369  0.09853138  0.70529285  1
  Zr  Zr64  1  0.90525905  0.30757747  0.49993181  1
  Zr  Zr65  1  0.10154734  0.49865681  0.10215591  1
  Zr  Zr66  1  0.90484848  0.90354713  0.09951597  1
  Zr  Zr67  1  0.01012834  0.20393462  0.19392669  1
  Zr  Zr68  1  0.68459604  0.10718228  0.50505731  1
  Zr  Zr69  1  0.29182025  0.29778555  0.49632515  1
  Zr  Zr70  1  0.50216120  0.70151681  0.10854399  1
  Zr  Zr71  1  0.79354823  0.20430990  -0.00776135  1
  Zr  Zr72  1  0.20169870  0.59688753  0.20896541  1
  Zr  Zr73  1  0.79132058  0.39770893  -0.00248329  1
  Zr  Zr74  1  -0.00328981  0.59913123  0.21269318  1
  Zr  Zr75  1  0.89940588  0.50175193  0.49507561  1
  Zr  Zr76  1  0.41265381  0.18977243  0.59554319  1
  Zr  Zr77  1  0.49850354  0.90129996  0.50193986  1
  Zr  Zr78  1  0.10211458  0.49917568  0.89722032  1
  Zr  Zr79  1  0.20394437  0.57117897  0.59960810  1
  Zr  Zr80  1  -0.00179050  0.39954323  -0.00035305  1
  Zr  Zr81  1  0.69337006  0.10925027  0.29879772  1
  Zr  Zr82  1  -0.00469959  0.18923705  0.80236577  1
  Zr  Zr83  1  0.89603028  0.90402737  0.89813865  1
  Zr  Zr84  1  0.50113114  0.49491530  0.10146998  1
  Zr  Zr85  1  0.30002670  0.90877434  0.89618970  1
  Zr  Zr86  1  0.19714476  0.60907499  -0.00794643  1
  Zr  Zr87  1  -0.00386908  0.40367654  0.19880640  1
  Zr  Zr88  1  0.28788768  0.10707504  0.90176381  1
  Zr  Zr89  1  0.20296140  0.40497017  0.78915021  1
  Zr  Zr90  1  0.79805350  -0.00221140  0.59659276  1
  Zr  Zr91  1  0.40085605  0.20215584  0.00522036  1
  Zr  Zr92  1  0.38378711  0.40801752  0.60495280  1
  Zr  Zr93  1  0.80177392  0.59824893  0.79578777  1
  Zr  Zr94  1  0.89283513  0.69786395  0.10011727  1
  Zr  Zr95  1  0.51004870  0.09560131  0.90258136  1
  Zr  Zr96  1  0.40335440  0.80450063  -0.00053155  1
  Zr  Zr97  1  0.89914043  0.31039207  0.30431154  1
  Zr  Zr98  1  0.40179947  -0.00080185  0.60173999  1
  Zr  Zr99  1  0.20308185  0.80735045  0.00243102  1
  Ta  Ta100  1  0.50884372  0.29748833  0.69839346  1
  Ta  Ta101  1  0.89854854  0.30219106  0.89504369  1
  Ta  Ta102  1  0.60483108  0.80931148  0.20672497  1
  Ta  Ta103  1  0.79374028  0.80100626  0.79696030  1
  Ta  Ta104  1  0.70449035  0.69871434  0.89933812  1
  Ta  Ta105  1  0.59409697  0.39970322  0.39939951  1
  Ta  Ta106  1  0.30755902  0.69761905  0.89259013  1
  Ta  Ta107  1  0.39772134  0.20079648  0.20132685  1
  Ta  Ta108  1  0.39968923  0.38782673  0.20677815  1
  Ta  Ta109  1  -0.00947866  0.59951143  -0.00368191  1
  Ta  Ta110  1  0.79677723  0.00607837  -0.00067448  1
  Ta  Ta111  1  0.11173999  0.30034739  0.30833018  1
  Ta  Ta112  1  0.21068945  0.81495662  0.20580720  1
  Ta  Ta113  1  0.80561456  0.18914760  0.60222755  1
  Ta  Ta114  1  0.69616655  0.49504055  0.30500942  1
  Ta  Ta115  1  0.29754356  0.29302747  0.30341894  1
  Ta  Ta116  1  0.49905606  0.70152303  0.49918487  1
  Ta  Ta117  1  0.70260731  0.90407452  0.09878305  1
  Ta  Ta118  1  0.69547049  0.50611106  0.49804994  1
  Ta  Ta119  1  0.40551300  0.79749167  0.79688014  1
  Ta  Ta120  1  0.59903348  0.60590531  0.59386706  1
  Ta  Ta121  1  0.01002322  0.60743263  0.40750397  1
  Ta  Ta122  1  0.59923565  0.59958951  0.40105560  1
  Ta  Ta123  1  0.01415628  0.40947315  0.60358904  1
  Ta  Ta124  1  0.69473798  0.09810391  0.09922746  1
  Ta  Ta125  1  0.79943140  0.00160796  0.19988063  1
  Ta  Ta126  1  0.68982790  0.30320019  0.29980414  1
  Ta  Ta127  1  0.60429707  0.40296976  0.79967644  1
  Ta  Ta128  1  -0.00525265  0.01223888  0.79902623  1
  Ta  Ta129  1  0.69308076  0.09970664  0.69771261  1
  Ta  Ta130  1  0.00791611  0.01212590  0.19730637  1
  Ta  Ta131  1  0.50322131  0.90546605  0.89930979  1
  Ta  Ta132  1  0.31050760  0.50889983  0.89752635  1
  Ta  Ta133  1  0.10193867  0.29779765  0.69372436  1
  Ta  Ta134  1  0.39271923  0.80849200  0.40307543  1
  Ta  Ta135  1  0.79676652  0.80983772  0.20771797  1
  Ta  Ta136  1  0.90057972  0.30064493  0.09240171  1
  Ta  Ta137  1  0.20217565  0.79283862  0.80279602  1
  Ta  Ta138  1  0.10510928  0.30483975  0.49897309  1
  Ta  Ta139  1  0.40343151  0.19925565  0.40163563  1
  Ta  Ta140  1  0.19954275  0.19820854  0.19602896  1
  Ta  Ta141  1  0.30388793  0.49084741  0.31396657  1
  Ta  Ta142  1  0.49463048  0.89905293  0.30240088  1
  Ta  Ta143  1  0.79549891  0.80252236  -0.00143809  1
  Ta  Ta144  1  0.80231365  0.80521560  0.40387350  1
  Ta  Ta145  1  -0.00158252  0.40151896  0.79509233  1
  Ta  Ta146  1  0.30062415  0.09443020  0.48786835  1
  Ta  Ta147  1  0.00152588  0.79485581  0.40574963  1
  Ta  Ta148  1  0.41084376  -0.00231885  0.79367497  1
  Ta  Ta149  1  0.20605503  0.38958685  0.20140263  1
  Ti  Ti150  1  0.59817657  -0.00080665  0.78754300  1
  Ti  Ti151  1  0.70391128  0.50244385  0.89147234  1
  Ti  Ti152  1  0.50181703  0.30177624  0.50748123  1
  Ti  Ti153  1  0.59880757  0.59621158  0.20984645  1
  Ti  Ti154  1  0.50622983  0.29451816  0.11248795  1
  Ti  Ti155  1  0.10953664  0.91598680  0.10252330  1
  Ti  Ti156  1  0.59656397  0.40799054  0.59901630  1
  Ti  Ti157  1  0.89064661  0.69682712  0.68944308  1
  Ti  Ti158  1  0.58432742  0.20954953  0.40193615  1
  Ti  Ti159  1  0.10789329  0.09673801  0.30028568  1
  Ti  Ti160  1  0.29632433  0.89860792  0.71058832  1
  Ti  Ti161  1  0.29365340  0.28444626  0.89354988  1
  Ti  Ti162  1  0.19709517  0.19435620  0.59718096  1
  Ti  Ti163  1  0.59858964  -0.00124796  0.60374661  1
  Ti  Ti164  1  0.20293417  0.81171757  0.40704086  1
  Ti  Ti165  1  0.59321915  0.39308010  0.20933608  1
  Ti  Ti166  1  0.80133982  0.40028400  0.19897705  1
  Ti  Ti167  1  0.10193011  0.09852599  0.69838442  1
  Ti  Ti168  1  0.60293576  0.19804914  0.79715486  1
  Ti  Ti169  1  0.40543227  0.38819207  0.39671446  1
  Ti  Ti170  1  0.50520076  0.89653844  0.69699910  1
  Ti  Ti171  1  0.40845878  0.60555497  -0.00828011  1
  Ti  Ti172  1  0.41320994  0.19080367  0.79697043  1
  Ti  Ti173  1  0.89117703  0.69549270  0.49864917  1
  Ti  Ti174  1  0.11360551  0.70294640  0.31532195  1
  Ti  Ti175  1  0.90301219  0.09667148  0.29844541  1
  Ti  Ti176  1  0.90208497  0.49615685  0.31893668  1
  Ti  Ti177  1  0.49649708  0.50494745  0.89302735  1
  Ti  Ti178  1  0.79426268  0.60260010  0.40531405  1
  Ti  Ti179  1  0.29816864  0.29190353  0.10358311  1
  Ti  Ti180  1  0.09073299  0.90873241  0.49076939  1
  Ti  Ti181  1  0.59347970  0.60710907  0.80016597  1
  Ti  Ti182  1  0.89813436  0.50050033  0.69831038  1
  Ti  Ti183  1  0.88626517  0.69619532  0.90587613  1
  Ti  Ti184  1  -0.00459295  0.00151814  0.59900062  1
  Ti  Ti185  1  0.30141151  0.69339597  0.70848053  1
  Ti  Ti186  1  0.51015623  0.10460466  0.10411767  1
  Ti  Ti187  1  0.89720539  0.70175544  0.30980221  1
  Ti  Ti188  1  0.90737561  0.08843077  0.49237687  1
  Ti  Ti189  1  0.89206436  0.49626730  0.89940396  1
  Ti  Ti190  1  0.19129091  0.00655173  0.80145554  1
  Ti  Ti191  1  0.50557572  0.90242951  0.10038905  1
  Ti  Ti192  1  0.50749819  0.29470427  0.88832324  1
  Ti  Ti193  1  0.69641524  0.50602817  0.69780069  1
  Ti  Ti194  1  0.69419015  0.09147660  0.89960270  1
  Ti  Ti195  1  0.78783830  0.40101348  0.39974539  1
  Ti  Ti196  1  0.49853941  0.49573476  0.30561783  1
  Ti  Ti197  1  0.79922369  0.00479334  0.79413672  1
  Ti  Ti198  1  0.39592145  0.81348056  0.20336343  1
  Ti  Ti199  1  0.20169003  0.59851664  0.79881767  1
  Mo  Mo200  1  0.29224875  0.10338134  0.10413391  1
  Mo  Mo201  1  0.19547912  0.20016848  0.01253321  1
  Mo  Mo202  1  0.30064909  0.49388944  0.48015647  1
  Mo  Mo203  1  0.10379454  0.10106526  0.90002905  1
  Mo  Mo204  1  0.20148131  0.59315522  0.40424312  1
  Mo  Mo205  1  0.79947645  0.40549458  0.79969351  1
  Mo  Mo206  1  0.40456715  0.59960623  0.40107329  1
  Mo  Mo207  1  0.20579131  0.39569857  0.40261335  1
  Mo  Mo208  1  0.30579349  0.50697655  0.72029335  1
  Mo  Mo209  1  0.19770913  0.00914633  0.00809895  1
  Mo  Mo210  1  0.69381296  0.90000587  0.50377526  1
  Mo  Mo211  1  0.49681061  0.10054897  0.49597387  1
  Mo  Mo212  1  0.90862460  0.89976065  0.49226445  1
  Mo  Mo213  1  0.10866835  0.69648308  0.49112905  1
  Mo  Mo214  1  0.00981482  0.40184989  0.40816008  1
  Mo  Mo215  1  0.40460705  0.60595280  0.80191702  1
  Mo  Mo216  1  0.51015944  0.09868357  0.70372817  1
  Mo  Mo217  1  0.10629980  0.10400074  0.09497529  1
  Mo  Mo218  1  0.10446046  0.29613451  0.10159520  1
  Mo  Mo219  1  0.69326657  0.90613814  0.70111210  1
  Mo  Mo220  1  0.19789913  0.00463429  0.19575913  1
  Mo  Mo221  1  0.60107787  0.00006378  0.00861820  1
  Mo  Mo222  1  0.89495485  0.09436270  0.69501911  1
  Mo  Mo223  1  0.69740550  0.30343269  0.11990024  1
  Mo  Mo224  1  0.59599080  0.19944967  0.60425596  1
  Mo  Mo225  1  0.59344150  0.79727488  0.59986099  1
  Mo  Mo226  1  0.10687320  0.69865011  0.89571670  1
  Mo  Mo227  1  0.70054954  0.30612182  0.87720265  1
  Mo  Mo228  1  0.89211224  0.10039008  0.89846906  1
  Mo  Mo229  1  0.79964011  0.59579328  -0.00456159  1
  Mo  Mo230  1  0.09702256  0.49615039  0.70278204  1
  Mo  Mo231  1  0.20078254  0.19895859  0.39606591  1
  Mo  Mo232  1  0.59579603  0.20291954  0.19711454  1
  Mo  Mo233  1  0.30084327  0.90118621  0.30314214  1
  Mo  Mo234  1  0.49900830  0.70136058  0.89311215  1
  Mo  Mo235  1  0.79672140  0.60060743  0.59761443  1
  Mo  Mo236  1  0.70480372  0.89893955  0.29799608  1
  Mo  Mo237  1  -0.00106133  0.00596302  0.39501127  1
  Mo  Mo238  1  0.18740038  0.19395039  0.79098032  1
  Mo  Mo239  1  0.50201407  0.70084360  0.69386540  1
  Mo  Mo240  1  0.89250397  0.49882200  0.08762060  1
  Mo  Mo241  1  -0.00151111  0.20520291  -0.00300705  1
  Mo  Mo242  1  0.29386152  0.90584403  0.10546412  1
  Mo  Mo243  1  0.20186123  -0.00413907  0.40069052  1
  Mo  Mo244  1  0.29899130  0.90033227  0.49343993  1
  Mo  Mo245  1  0.49549531  0.29818872  0.30259699  1
  Mo  Mo246  1  0.10410334  0.49508967  0.49836388  1
  Mo  Mo247  1  0.69839212  0.69362738  0.49607218  1
  Mo  Mo248  1  0.19488260  0.39735533  0.59930880  1
  Mo  Mo249  1  0.39790631  -0.00089970  0.39876415  1
