# generated using pymatgen
data_HfZrTaTiMo
_symmetry_space_group_name_H-M   'P 1'
_cell_length_a   16.87836973
_cell_length_b   16.88554661
_cell_length_c   16.88396432
_cell_angle_alpha   90.00435534
_cell_angle_beta   89.98366532
_cell_angle_gamma   89.96693195
_symmetry_Int_Tables_number   1
_chemical_formula_structural   HfZrTaTiMo
_chemical_formula_sum   'Hf50 Zr50 Ta50 Ti50 Mo50'
_cell_volume   4811.93724203
_cell_formula_units_Z   50
loop_
 _symmetry_equiv_pos_site_id
 _symmetry_equiv_pos_as_xyz
  1  'x, y, z'
loop_
 _atom_site_type_symbol
 _atom_site_label
 _atom_site_symmetry_multiplicity
 _atom_site_fract_x
 _atom_site_fract_y
 _atom_site_fract_z
 _atom_site_occupancy
  Hf  Hf0  1  0.79277779  0.79125778  0.19548928  1
  Hf  Hf1  1  0.19748919  0.20327988  0.40049803  1
  Hf  Hf2  1  0.61011794  0.00437794  0.60304208  1
  Hf  Hf3  1  0.10395536  0.70645948  0.68810061  1
  Hf  Hf4  1  0.40236463  0.00462975  0.60384442  1
  Hf  Hf5  1  0.81306442  0.19710127  0.59683819  1
  Hf  Hf6  1  0.39616030  0.60666110  0.40289917  1
  Hf  Hf7  1  0.09906985  0.29997400  0.50834122  1
  Hf  Hf8  1  0.90420474  0.69828128  0.90492691  1
  Hf  Hf9  1  0.80078132  0.20231764  0.19613801  1
  Hf  Hf10  1  -0.00803686  0.39685284  0.40790332  1
  Hf  Hf11  1  0.40641808  0.60618732  0.60445390  1
  Hf  Hf12  1  0.89757244  0.08961765  0.30121692  1
  Hf  Hf13  1  0.39266019  0.20557968  0.39413022  1
  Hf  Hf14  1  0.10804498  0.08688954  0.30155291  1
  Hf  Hf15  1  0.10249557  0.90262681  0.69866897  1
  Hf  Hf16  1  -0.00647028  0.00886310  0.60074787  1
  Hf  Hf17  1  0.19315925  0.80367882  0.38891114  1
  Hf  Hf18  1  0.50608759  0.89906716  0.49273429  1
  Hf  Hf19  1  0.90287975  0.69773522  0.69839951  1
  Hf  Hf20  1  0.20037249  0.21595057  0.21382356  1
  Hf  Hf21  1  0.40174747  0.78750236  0.39275800  1
  Hf  Hf22  1  0.80025440  0.59729707  0.58915050  1
  Hf  Hf23  1  0.70945491  0.09276410  0.48904419  1
  Hf  Hf24  1  0.39634463  0.60683663  0.20689044  1
  Hf  Hf25  1  0.21529314  -0.00354737  0.00233871  1
  Hf  Hf26  1  0.79275120  0.59676799  0.00494221  1
  Hf  Hf27  1  0.40402836  0.00495821  0.81354325  1
  Hf  Hf28  1  0.70575218  0.30676231  0.29676189  1
  Hf  Hf29  1  0.58238311  0.00813136  -0.00459013  1
  Hf  Hf30  1  0.29777315  0.90840813  0.49582124  1
  Hf  Hf31  1  0.50120784  0.49667739  0.50477102  1
  Hf  Hf32  1  0.69761038  0.49856523  0.69654880  1
  Hf  Hf33  1  0.89708455  0.69347769  0.29700040  1
  Hf  Hf34  1  0.50224629  0.49900397  0.90211561  1
  Hf  Hf35  1  0.79796185  0.00456367  0.00321548  1
  Hf  Hf36  1  0.29840088  0.11971293  0.09021849  1
  Hf  Hf37  1  0.40931081  0.79154448  0.60145236  1
  Hf  Hf38  1  0.60651452  0.19960702  0.39447834  1
  Hf  Hf39  1  -0.00043768  0.00642887  0.79901190  1
  Hf  Hf40  1  0.80270555  0.80110817  0.80003683  1
  Hf  Hf41  1  0.40125236  0.78838600  0.80087008  1
  Hf  Hf42  1  0.50943337  0.89610686  0.70055448  1
  Hf  Hf43  1  0.09997441  0.49024907  0.69905829  1
  Hf  Hf44  1  0.41289367  0.39399379  0.00688899  1
  Hf  Hf45  1  0.60100246  0.60524261  0.39661805  1
  Hf  Hf46  1  -0.00242353  0.19631210  0.40786001  1
  Hf  Hf47  1  0.00150551  0.80213561  0.39941666  1
  Hf  Hf48  1  0.30503432  0.49905270  0.90029798  1
  Hf  Hf49  1  0.68911673  0.69974145  0.69138527  1
  Zr  Zr50  1  0.19076291  0.20141370  0.79377804  1
  Zr  Zr51  1  0.01547649  0.59689157  0.00269757  1
  Zr  Zr52  1  0.20124442  0.39648299  0.39539869  1
  Zr  Zr53  1  0.70708624  0.29175138  0.70492868  1
  Zr  Zr54  1  0.29833932  0.29367364  0.90436205  1
  Zr  Zr55  1  0.80581351  0.00021582  0.60893631  1
  Zr  Zr56  1  0.09437789  0.50232199  0.29816727  1
  Zr  Zr57  1  0.19522393  0.40762287  0.00197598  1
  Zr  Zr58  1  0.69788011  0.90120778  0.90272631  1
  Zr  Zr59  1  0.80126963  0.20126164  0.00318167  1
  Zr  Zr60  1  0.20565836  0.60545087  0.80222071  1
  Zr  Zr61  1  0.39264366  0.00342404  0.17695235  1
  Zr  Zr62  1  0.49805744  0.29646393  0.50738057  1
  Zr  Zr63  1  0.30509898  0.48954080  0.70669860  1
  Zr  Zr64  1  0.49938193  0.11723743  0.69824643  1
  Zr  Zr65  1  0.00016758  0.00080598  0.00241236  1
  Zr  Zr66  1  0.90179818  0.49769962  0.09628971  1
  Zr  Zr67  1  0.49401885  0.10135873  0.28978452  1
  Zr  Zr68  1  0.29893137  0.10010227  0.49675555  1
  Zr  Zr69  1  0.10385568  0.90231003  0.90215323  1
  Zr  Zr70  1  0.60749158  0.40462923  0.39983854  1
  Zr  Zr71  1  0.80893731  0.20233732  0.40267609  1
  Zr  Zr72  1  0.59205582  0.79429640  0.80849278  1
  Zr  Zr73  1  -0.00147373  0.19408523  0.60951622  1
  Zr  Zr74  1  0.20526243  0.59165562  0.59874778  1
  Zr  Zr75  1  0.89519161  0.50215018  0.29963498  1
  Zr  Zr76  1  0.50188428  0.30237818  0.29299965  1
  Zr  Zr77  1  0.89062598  0.89421140  0.30143233  1
  Zr  Zr78  1  0.50002878  0.09983507  0.49372786  1
  Zr  Zr79  1  0.80204431  0.80416822  0.60130426  1
  Zr  Zr80  1  0.90155183  0.49816809  0.69921185  1
  Zr  Zr81  1  0.29314587  0.91416279  0.29659313  1
  Zr  Zr82  1  0.49448613  0.50079737  0.30221390  1
  Zr  Zr83  1  0.59587776  0.59827961  0.80208710  1
  Zr  Zr84  1  0.10364133  0.29376313  0.09122901  1
  Zr  Zr85  1  0.10499092  0.10097415  0.10306287  1
  Zr  Zr86  1  0.59785696  0.01169644  0.80707235  1
  Zr  Zr87  1  0.29601122  0.90055092  0.69622291  1
  Zr  Zr88  1  0.70440458  0.89218315  0.48658705  1
  Zr  Zr89  1  0.09274999  0.69575641  0.29497946  1
  Zr  Zr90  1  0.00402686  0.59746785  0.80456245  1
  Zr  Zr91  1  0.00923749  0.39393294  0.19626029  1
  Zr  Zr92  1  0.28206426  0.71354870  0.51282928  1
  Zr  Zr93  1  0.20760494  0.59684528  0.39398039  1
  Zr  Zr94  1  0.49420860  0.90093964  0.29258790  1
  Zr  Zr95  1  0.79914229  0.78848975  0.00778302  1
  Zr  Zr96  1  0.80176782  0.39820530  0.80724700  1
  Zr  Zr97  1  0.68803588  0.89673965  0.10016391  1
  Zr  Zr98  1  0.20832028  0.79548072  0.80468768  1
  Zr  Zr99  1  0.60333157  0.41260042  0.18931600  1
  Ta  Ta100  1  0.89696465  0.30587208  0.29849186  1
  Ta  Ta101  1  0.00471446  0.79635876  0.00856767  1
  Ta  Ta102  1  -0.00330099  0.80565864  0.79975240  1
  Ta  Ta103  1  0.69290999  0.30177243  0.90828185  1
  Ta  Ta104  1  0.10590936  0.10803640  0.90587642  1
  Ta  Ta105  1  0.40884379  0.39187906  0.80029432  1
  Ta  Ta106  1  0.70824813  0.30649543  0.50156143  1
  Ta  Ta107  1  0.09575209  0.49585209  0.50683674  1
  Ta  Ta108  1  0.59693815  0.00313019  0.19312151  1
  Ta  Ta109  1  0.30159011  0.50247863  0.10047092  1
  Ta  Ta110  1  0.90084050  0.29993078  0.90481441  1
  Ta  Ta111  1  0.79317131  0.59673724  0.81062369  1
  Ta  Ta112  1  0.50079356  0.29868640  0.70034761  1
  Ta  Ta113  1  0.78307864  0.59851628  0.19321841  1
  Ta  Ta114  1  0.79286234  -0.00329857  0.19631639  1
  Ta  Ta115  1  0.79596207  0.40453314  0.19327726  1
  Ta  Ta116  1  0.59845462  0.39604107  0.80265768  1
  Ta  Ta117  1  0.10293030  0.90523152  0.49951121  1
  Ta  Ta118  1  0.90249163  0.09688750  0.10772085  1
  Ta  Ta119  1  0.69011800  0.30080245  0.09473714  1
  Ta  Ta120  1  0.49403227  0.89420579  0.09619967  1
  Ta  Ta121  1  -0.00235147  0.20076633  0.20716413  1
  Ta  Ta122  1  0.20272893  0.79659688  0.00603641  1
  Ta  Ta123  1  0.30369580  0.29626620  0.70042008  1
  Ta  Ta124  1  0.30023976  0.10692970  0.70096980  1
  Ta  Ta125  1  0.40252990  0.60154403  0.00694587  1
  Ta  Ta126  1  0.60661950  -0.00394836  0.38214437  1
  Ta  Ta127  1  0.69114021  0.10553910  0.10205331  1
  Ta  Ta128  1  0.88380178  0.10474405  0.72394702  1
  Ta  Ta129  1  0.00246890  0.38608927  0.79952675  1
  Ta  Ta130  1  0.58876430  0.79092825  0.00123152  1
  Ta  Ta131  1  0.90011389  0.90058933  0.90242203  1
  Ta  Ta132  1  0.20245993  0.60075557  0.19421735  1
  Ta  Ta133  1  0.18945152  0.01423329  0.60165995  1
  Ta  Ta134  1  0.39900136  0.40442821  0.19459831  1
  Ta  Ta135  1  0.30229033  0.30259038  0.09917287  1
  Ta  Ta136  1  0.89486259  0.70521730  0.49154791  1
  Ta  Ta137  1  0.89580137  0.90284951  0.48847478  1
  Ta  Ta138  1  -0.00640302  0.81046615  0.59675119  1
  Ta  Ta139  1  0.20149790  0.39152323  0.60364799  1
  Ta  Ta140  1  0.60282409  0.59679364  0.00802220  1
  Ta  Ta141  1  0.30034611  0.69946370  0.09792049  1
  Ta  Ta142  1  -0.00222050  0.20414559  0.80145667  1
  Ta  Ta143  1  0.00154637  -0.00841789  0.20204971  1
  Ta  Ta144  1  0.79221508  0.59688029  0.40028421  1
  Ta  Ta145  1  0.20288038  0.79833732  0.19646730  1
  Ta  Ta146  1  0.90266910  0.89789334  0.10184803  1
  Ta  Ta147  1  0.10669124  0.89928553  0.10657014  1
  Ta  Ta148  1  0.60394193  0.39579269  0.60441903  1
  Ta  Ta149  1  0.70108849  0.90312671  0.70718800  1
  Ti  Ti150  1  0.09565271  0.70287417  0.50459295  1
  Ti  Ti151  1  0.50240282  0.50744330  0.10011673  1
  Ti  Ti152  1  0.00367687  0.79925111  0.19283999  1
  Ti  Ti153  1  -0.00615625  0.59614347  0.41442745  1
  Ti  Ti154  1  0.31043959  0.31602076  0.29724825  1
  Ti  Ti155  1  -0.00490658  0.59819850  0.58965121  1
  Ti  Ti156  1  0.39906594  0.79743686  0.00412416  1
  Ti  Ti157  1  0.40164062  0.39510469  0.60558969  1
  Ti  Ti158  1  0.29833130  0.09259400  0.29802386  1
  Ti  Ti159  1  0.00517500  -0.00308608  0.40293856  1
  Ti  Ti160  1  0.61593022  0.19840092  0.60010717  1
  Ti  Ti161  1  0.00355806  0.60521587  0.18208714  1
  Ti  Ti162  1  0.59363141  0.79214326  0.20244171  1
  Ti  Ti163  1  0.70068643  0.09774860  0.29051853  1
  Ti  Ti164  1  -0.00831830  0.39156593  0.60394713  1
  Ti  Ti165  1  0.58704553  0.20040200  0.00596807  1
  Ti  Ti166  1  -0.00289804  0.19882418  -0.00042224  1
  Ti  Ti167  1  0.30437221  0.69331371  0.90950275  1
  Ti  Ti168  1  0.40345711  0.01024933  -0.00719409  1
  Ti  Ti169  1  0.40020830  0.19951915  0.80768222  1
  Ti  Ti170  1  0.19411158  0.19713179  0.60469461  1
  Ti  Ti171  1  0.89823422  0.10336297  0.90169037  1
  Ti  Ti172  1  0.78906777  0.40431078  0.00142894  1
  Ti  Ti173  1  0.19726176  0.60276966  0.00661233  1
  Ti  Ti174  1  0.40336450  0.60576465  0.79352434  1
  Ti  Ti175  1  0.10118870  0.70512679  0.90198105  1
  Ti  Ti176  1  0.59938276  0.79469759  0.38906965  1
  Ti  Ti177  1  0.90113345  0.49513892  0.90233669  1
  Ti  Ti178  1  0.49530099  0.69256971  0.90911336  1
  Ti  Ti179  1  0.40749781  0.21006499  0.18698817  1
  Ti  Ti180  1  0.90036233  0.30222284  0.09698725  1
  Ti  Ti181  1  0.30641135  0.48565964  0.49792859  1
  Ti  Ti182  1  0.69598869  0.69564729  0.90325792  1
  Ti  Ti183  1  0.00430763  0.40251201  -0.00386862  1
  Ti  Ti184  1  0.60366122  0.20130125  0.80456579  1
  Ti  Ti185  1  0.70460909  0.10995533  0.89599225  1
  Ti  Ti186  1  0.09828215  0.29864035  0.90074365  1
  Ti  Ti187  1  0.50054653  0.69890080  0.10618181  1
  Ti  Ti188  1  0.30415070  0.30040072  0.50902545  1
  Ti  Ti189  1  0.20740150  0.01039128  0.80403350  1
  Ti  Ti190  1  0.10630098  0.49115990  0.89019830  1
  Ti  Ti191  1  0.30883958  0.89653989  0.90618360  1
  Ti  Ti192  1  0.50498571  0.49682855  0.69716470  1
  Ti  Ti193  1  0.69638039  0.69874775  0.29618035  1
  Ti  Ti194  1  0.70367743  0.49377820  0.49925248  1
  Ti  Ti195  1  0.20381373  0.40673052  0.20146790  1
  Ti  Ti196  1  0.50608553  0.29670380  0.90119724  1
  Ti  Ti197  1  0.39266232  0.79473162  0.20017880  1
  Ti  Ti198  1  0.69416171  0.70464378  0.50014282  1
  Ti  Ti199  1  0.81063474  0.39611671  0.59417394  1
  Mo  Mo200  1  0.38850494  0.20649219  0.60481392  1
  Mo  Mo201  1  0.70544591  0.50632202  0.29676352  1
  Mo  Mo202  1  0.09583989  0.90039955  0.29419567  1
  Mo  Mo203  1  0.69192294  0.89606827  0.29176981  1
  Mo  Mo204  1  0.10196007  0.10041869  0.70715050  1
  Mo  Mo205  1  0.69548708  0.49480558  0.90412920  1
  Mo  Mo206  1  0.80007667  0.20206600  0.81479547  1
  Mo  Mo207  1  0.89815961  0.31136012  0.50386083  1
  Mo  Mo208  1  0.51966594  0.70115534  0.50222638  1
  Mo  Mo209  1  0.80209649  0.40603877  0.40166871  1
  Mo  Mo210  1  0.30324707  0.88756521  0.09485642  1
  Mo  Mo211  1  0.69807670  0.49821003  0.09670841  1
  Mo  Mo212  1  0.90124767  0.07882826  0.48659261  1
  Mo  Mo213  1  0.49604360  0.12159509  0.90139511  1
  Mo  Mo214  1  0.50327241  0.69355909  0.69461313  1
  Mo  Mo215  1  0.50135253  0.29729593  0.09960384  1
  Mo  Mo216  1  0.18942708  0.81204823  0.59680013  1
  Mo  Mo217  1  0.40770881  0.20301277  -0.00136921  1
  Mo  Mo218  1  0.29709182  0.70202011  0.29031570  1
  Mo  Mo219  1  0.68289401  0.69532483  0.10332290  1
  Mo  Mo220  1  0.60139096  0.79691258  0.59631733  1
  Mo  Mo221  1  0.30336780  0.69944607  0.70438712  1
  Mo  Mo222  1  0.19418293  0.00287060  0.40338622  1
  Mo  Mo223  1  0.79387912  0.78846123  0.39474025  1
  Mo  Mo224  1  0.70365597  0.10259345  0.71054947  1
  Mo  Mo225  1  0.60328249  0.19844638  0.19325532  1
  Mo  Mo226  1  0.90893827  0.70132652  0.10404460  1
  Mo  Mo227  1  0.48827455  0.88769736  0.91233937  1
  Mo  Mo228  1  0.90048777  0.50554025  0.50125074  1
  Mo  Mo229  1  0.10971186  0.50386745  0.10092241  1
  Mo  Mo230  1  0.10705372  0.70438403  0.10000333  1
  Mo  Mo231  1  0.19995952  -0.00439350  0.19440433  1
  Mo  Mo232  1  0.09124292  0.29512462  0.30260550  1
  Mo  Mo233  1  0.60155286  0.59421154  0.59168177  1
  Mo  Mo234  1  0.59766030  0.60709640  0.19864693  1
  Mo  Mo235  1  0.20042941  0.20127211  -0.00724607  1
  Mo  Mo236  1  0.60087747  0.40004884  -0.00292820  1
  Mo  Mo237  1  0.40420226  0.00559117  0.39863294  1
  Mo  Mo238  1  0.90316425  0.29666922  0.70598121  1
  Mo  Mo239  1  0.29918244  0.49583803  0.29228748  1
  Mo  Mo240  1  0.19632021  0.39305533  0.79762376  1
  Mo  Mo241  1  0.39266953  0.39985413  0.40228140  1
  Mo  Mo242  1  0.50203059  0.70386140  0.29789608  1
  Mo  Mo243  1  0.30214696  0.10138739  0.89745847  1
  Mo  Mo244  1  0.10065659  0.30165609  0.69904670  1
  Mo  Mo245  1  0.90188058  0.90310908  0.70870147  1
  Mo  Mo246  1  0.79358982  -0.00653766  0.38562139  1
  Mo  Mo247  1  0.49860621  0.10608813  0.09475824  1
  Mo  Mo248  1  0.79995835  0.00147527  0.80891466  1
  Mo  Mo249  1  0.10038344  0.09658443  0.50055291  1
