# generated using pymatgen
data_HfZrTaTiMo
_symmetry_space_group_name_H-M   'P 1'
_cell_length_a   16.88203977
_cell_length_b   16.87818514
_cell_length_c   16.89303969
_cell_angle_alpha   89.96818543
_cell_angle_beta   90.00841810
_cell_angle_gamma   89.97077571
_symmetry_Int_Tables_number   1
_chemical_formula_structural   HfZrTaTiMo
_chemical_formula_sum   'Hf50 Zr50 Ta50 Ti50 Mo50'
_cell_volume   4813.47077957
_cell_formula_units_Z   50
loop_
 _symmetry_equiv_pos_site_id
 _symmetry_equiv_pos_as_xyz
  1  'x, y, z'
loop_
 _atom_site_type_symbol
 _atom_site_label
 _atom_site_symmetry_multiplicity
 _atom_site_fract_x
 _atom_site_fract_y
 _atom_site_fract_z
 _atom_site_occupancy
  Hf  Hf0  1  0.79607470  0.79437101  0.40216069  1
  Hf  Hf1  1  0.10870836  0.69136026  0.70326320  1
  Hf  Hf2  1  0.59277140  0.00532751  0.40472987  1
  Hf  Hf3  1  0.09854094  0.69646548  0.10500533  1
  Hf  Hf4  1  -0.00492598  0.19829116  0.20149942  1
  Hf  Hf5  1  0.48775980  0.50947706  0.30137111  1
  Hf  Hf6  1  0.90185001  0.69833242  0.09932229  1
  Hf  Hf7  1  0.40139700  0.40069377  -0.00285728  1
  Hf  Hf8  1  0.50517786  0.30572434  0.10529989  1
  Hf  Hf9  1  0.39880619  0.59091881  0.60952831  1
  Hf  Hf10  1  0.79333492  0.20499815  -0.00155444  1
  Hf  Hf11  1  0.20013459  0.20317172  -0.00245578  1
  Hf  Hf12  1  0.69082505  0.49113080  0.29516431  1
  Hf  Hf13  1  0.59802011  0.60827702  0.39990834  1
  Hf  Hf14  1  0.79211051  0.38672397  0.62419538  1
  Hf  Hf15  1  0.30288264  0.09929812  0.69403344  1
  Hf  Hf16  1  0.31651195  0.68692644  0.29435339  1
  Hf  Hf17  1  0.00570199  0.01102590  0.19787586  1
  Hf  Hf18  1  0.00727875  0.19778234  0.00533748  1
  Hf  Hf19  1  0.10391186  0.10258681  0.70233980  1
  Hf  Hf20  1  0.60802039  0.79565246  -0.02044080  1
  Hf  Hf21  1  0.80520463  0.19965000  0.20192484  1
  Hf  Hf22  1  0.89631466  0.30079297  0.49912264  1
  Hf  Hf23  1  0.18929334  0.19132867  0.19268469  1
  Hf  Hf24  1  0.30536259  0.10220053  0.50393288  1
  Hf  Hf25  1  0.39737949  0.79770840  0.61405334  1
  Hf  Hf26  1  0.89817546  0.10116997  0.89519594  1
  Hf  Hf27  1  0.69130139  0.69682384  0.09914496  1
  Hf  Hf28  1  0.70088355  0.49073444  0.50327905  1
  Hf  Hf29  1  0.89243272  0.90060318  0.70541597  1
  Hf  Hf30  1  0.20976497  0.39699466  0.39512348  1
  Hf  Hf31  1  0.09773516  0.69569804  0.29612046  1
  Hf  Hf32  1  0.30551382  0.90640045  0.50400847  1
  Hf  Hf33  1  0.60455081  -0.00238538  0.80097907  1
  Hf  Hf34  1  0.70307691  0.69140439  0.70209290  1
  Hf  Hf35  1  0.39590018  0.40110710  0.20561761  1
  Hf  Hf36  1  0.90070589  0.11227502  0.48854725  1
  Hf  Hf37  1  0.00549285  0.80348353  -0.00770034  1
  Hf  Hf38  1  0.00074811  0.58455394  0.61055193  1
  Hf  Hf39  1  0.40792324  0.20338595  -0.00578138  1
  Hf  Hf40  1  0.49607900  0.69850477  0.09147781  1
  Hf  Hf41  1  0.00163747  -0.00279793  0.80269627  1
  Hf  Hf42  1  0.90443483  0.69085542  0.29453215  1
  Hf  Hf43  1  0.59884407  0.79912438  0.79877371  1
  Hf  Hf44  1  0.89667563  0.30725581  0.89304627  1
  Hf  Hf45  1  0.50631494  0.51352514  0.90096449  1
  Hf  Hf46  1  0.30427382  0.50740492  0.89315000  1
  Hf  Hf47  1  0.29681381  0.10020729  0.30864415  1
  Hf  Hf48  1  0.69511700  0.29487267  0.50204060  1
  Hf  Hf49  1  0.48875297  0.90237938  0.90257576  1
  Zr  Zr50  1  -0.00197965  0.80143707  0.59956436  1
  Zr  Zr51  1  0.40696048  0.19278209  0.20156144  1
  Zr  Zr52  1  0.80061463  0.39279745  0.20038997  1
  Zr  Zr53  1  0.60155158  0.39885606  -0.00251762  1
  Zr  Zr54  1  0.09613190  0.29909289  0.89344879  1
  Zr  Zr55  1  0.59123296  0.01314552  0.20284022  1
  Zr  Zr56  1  0.49250194  0.48485123  0.49950049  1
  Zr  Zr57  1  0.69591660  0.90326718  0.09876315  1
  Zr  Zr58  1  0.89761740  0.08988825  0.08592380  1
  Zr  Zr59  1  0.51467844  0.29951716  0.69274235  1
  Zr  Zr60  1  0.39746601  0.21488769  0.79790749  1
  Zr  Zr61  1  0.10592986  0.90073887  0.70568610  1
  Zr  Zr62  1  0.59855439  0.19987930  0.20407508  1
  Zr  Zr63  1  0.79491550  0.79898860  0.20132522  1
  Zr  Zr64  1  -0.00558536  0.00346535  0.59478439  1
  Zr  Zr65  1  0.89053762  0.68149656  0.50683594  1
  Zr  Zr66  1  0.89982156  0.91248985  0.30339095  1
  Zr  Zr67  1  0.79835679  0.81023506  0.59313611  1
  Zr  Zr68  1  0.49554664  0.10506399  0.69484597  1
  Zr  Zr69  1  0.09012151  0.49699199  0.28896472  1
  Zr  Zr70  1  0.09924241  0.49938916  0.89569238  1
  Zr  Zr71  1  0.30233851  0.69053030  0.50505280  1
  Zr  Zr72  1  0.70982614  0.10803610  0.31514071  1
  Zr  Zr73  1  0.59850927  0.59050333  0.60725027  1
  Zr  Zr74  1  0.60224887  0.79419053  0.40115857  1
  Zr  Zr75  1  0.89547112  0.90568470  0.90319370  1
  Zr  Zr76  1  0.09893023  0.30110588  0.30038075  1
  Zr  Zr77  1  0.30366400  0.08913025  0.08765048  1
  Zr  Zr78  1  0.89596578  0.49420512  0.90296973  1
  Zr  Zr79  1  0.30863137  0.30211807  0.50023361  1
  Zr  Zr80  1  0.89211102  0.69747468  0.70716442  1
  Zr  Zr81  1  0.40852104  0.00042063  0.20422160  1
  Zr  Zr82  1  0.69505603  0.90256606  0.29965072  1
  Zr  Zr83  1  0.31006702  0.51016251  0.10012851  1
  Zr  Zr84  1  -0.00494412  0.80468047  0.40902756  1
  Zr  Zr85  1  0.60714754  0.00431204  0.60053176  1
  Zr  Zr86  1  0.70018586  0.49927786  0.89664401  1
  Zr  Zr87  1  0.20385628  0.79953089  0.39710956  1
  Zr  Zr88  1  0.20738344  0.58743956  0.39514825  1
  Zr  Zr89  1  0.29900764  0.09038829  0.89078408  1
  Zr  Zr90  1  0.20705308  0.40029728  0.78891934  1
  Zr  Zr91  1  0.88894320  0.48967805  0.50050581  1
  Zr  Zr92  1  0.00642199  0.81459695  0.19940393  1
  Zr  Zr93  1  0.10551018  0.69246101  0.50675362  1
  Zr  Zr94  1  0.50047928  0.89745810  0.09260508  1
  Zr  Zr95  1  0.10096899  0.49211188  0.50124056  1
  Zr  Zr96  1  0.41221381  0.79904453  0.39635604  1
  Zr  Zr97  1  0.40381430  0.60514818  0.79419860  1
  Zr  Zr98  1  0.19455322  -0.00312126  0.19837603  1
  Zr  Zr99  1  0.19723165  0.60436126  -0.00042033  1
  Ta  Ta100  1  0.20638276  0.80585820  0.60647976  1
  Ta  Ta101  1  0.09385499  0.49853102  0.10254663  1
  Ta  Ta102  1  0.00174789  0.39254566  0.61003040  1
  Ta  Ta103  1  0.40861056  0.20088985  0.39872609  1
  Ta  Ta104  1  0.80034075  0.19560287  0.60628810  1
  Ta  Ta105  1  0.20507313  0.59804048  0.19840074  1
  Ta  Ta106  1  -0.00292299  0.60057462  -0.00275805  1
  Ta  Ta107  1  0.00034714  0.59932995  0.80331594  1
  Ta  Ta108  1  0.79653222  0.60194207  0.00138580  1
  Ta  Ta109  1  0.89623713  0.69747905  0.89880494  1
  Ta  Ta110  1  0.20001315  0.00139833  0.60030910  1
  Ta  Ta111  1  0.70228830  0.30383318  0.89184674  1
  Ta  Ta112  1  0.20142036  0.80421544  -0.00016091  1
  Ta  Ta113  1  0.20645445  0.80218663  0.80593941  1
  Ta  Ta114  1  0.19868983  0.39964087  0.60486434  1
  Ta  Ta115  1  0.19667425  0.20508581  0.59874118  1
  Ta  Ta116  1  0.49993917  0.90170012  0.50932582  1
  Ta  Ta117  1  0.79890522  0.20467962  0.78773904  1
  Ta  Ta118  1  0.79541311  0.79796626  -0.00683419  1
  Ta  Ta119  1  0.79584741  0.59573286  0.19921425  1
  Ta  Ta120  1  0.49869789  0.29926378  0.50602260  1
  Ta  Ta121  1  0.79079895  0.59691449  0.38892185  1
  Ta  Ta122  1  0.30634835  0.70499330  0.90538282  1
  Ta  Ta123  1  0.69769061  0.30613786  0.09882227  1
  Ta  Ta124  1  0.69920290  0.10595916  0.89535958  1
  Ta  Ta125  1  0.70094581  0.90731188  0.50178892  1
  Ta  Ta126  1  0.79267149  0.01130745  0.79069410  1
  Ta  Ta127  1  0.89597175  0.49483041  0.29965891  1
  Ta  Ta128  1  0.10527103  0.90573487  0.50126822  1
  Ta  Ta129  1  0.00459150  0.79657323  0.80711551  1
  Ta  Ta130  1  0.89691368  0.90611583  0.09198154  1
  Ta  Ta131  1  0.30104834  0.90019534  0.90133566  1
  Ta  Ta132  1  0.69548206  0.50011305  0.10016742  1
  Ta  Ta133  1  0.89236004  0.49577437  0.70987885  1
  Ta  Ta134  1  0.89825641  0.50146169  0.09982128  1
  Ta  Ta135  1  0.10105814  0.31089049  0.10291838  1
  Ta  Ta136  1  -0.00592698  0.59193629  0.39890239  1
  Ta  Ta137  1  0.29656147  0.30092612  0.10153136  1
  Ta  Ta138  1  0.40341139  0.80329923  0.20168620  1
  Ta  Ta139  1  0.30713970  0.70597642  0.09709419  1
  Ta  Ta140  1  0.10406018  0.09480209  0.89399191  1
  Ta  Ta141  1  0.39100183  0.39864764  0.62345791  1
  Ta  Ta142  1  0.39747189  0.79832412  0.79836081  1
  Ta  Ta143  1  0.20130705  0.40048226  0.00403679  1
  Ta  Ta144  1  0.40948948  0.00093401  0.39969601  1
  Ta  Ta145  1  0.50783364  0.51031229  0.10319729  1
  Ta  Ta146  1  0.59815714  0.20102972  -0.00828627  1
  Ta  Ta147  1  0.80229346  0.00860043  0.19877195  1
  Ta  Ta148  1  0.30245581  0.90258730  0.30144046  1
  Ta  Ta149  1  0.20924506  0.80366409  0.19594868  1
  Ti  Ti150  1  0.00032681  0.20023541  0.60182833  1
  Ti  Ti151  1  0.51224230  0.48758742  0.71416317  1
  Ti  Ti152  1  0.19235821  -0.00631172  -0.00782909  1
  Ti  Ti153  1  0.89759660  0.30835303  0.08855950  1
  Ti  Ti154  1  0.20374423  0.20548452  0.79647351  1
  Ti  Ti155  1  0.09993044  0.90547706  0.09104445  1
  Ti  Ti156  1  0.79718398  0.59520626  0.80257894  1
  Ti  Ti157  1  0.89692285  0.29441711  0.31589779  1
  Ti  Ti158  1  0.50194116  0.30523293  0.30637862  1
  Ti  Ti159  1  0.09466216  0.29528822  0.49951053  1
  Ti  Ti160  1  0.59897059  0.00833909  -0.00610370  1
  Ti  Ti161  1  0.39518521  -0.01058846  0.78916444  1
  Ti  Ti162  1  0.69371968  0.11317514  0.69674689  1
  Ti  Ti163  1  -0.00265254  0.39791252  0.40085781  1
  Ti  Ti164  1  0.60170531  0.79994384  0.59819315  1
  Ti  Ti165  1  0.30721530  0.49445667  0.50063088  1
  Ti  Ti166  1  0.30012495  0.29331327  0.29786583  1
  Ti  Ti167  1  0.79964743  0.01052421  0.59964474  1
  Ti  Ti168  1  0.00284414  0.00400890  0.40544905  1
  Ti  Ti169  1  0.00144957  0.40146048  0.78633897  1
  Ti  Ti170  1  0.20684814  0.40434410  0.19860410  1
  Ti  Ti171  1  0.28811401  0.69225479  0.70552973  1
  Ti  Ti172  1  0.49616664  0.69691231  0.50773156  1
  Ti  Ti173  1  -0.00919274  0.39437970  0.19699969  1
  Ti  Ti174  1  0.09193145  0.10586523  0.32044401  1
  Ti  Ti175  1  0.49638465  0.09511058  0.89639076  1
  Ti  Ti176  1  0.60248688  0.20159511  0.80555659  1
  Ti  Ti177  1  0.70494802  0.68994095  0.51159814  1
  Ti  Ti178  1  0.49393660  0.10627733  0.51101696  1
  Ti  Ti179  1  0.49789878  0.90261725  0.69367176  1
  Ti  Ti180  1  0.10515063  0.69943839  0.89496439  1
  Ti  Ti181  1  0.59829612  0.60853176  0.20674669  1
  Ti  Ti182  1  0.10038616  0.29604523  0.69794475  1
  Ti  Ti183  1  0.70184927  0.89932305  0.69770889  1
  Ti  Ti184  1  0.50562153  0.31642099  0.88366361  1
  Ti  Ti185  1  -0.00708738  0.19869745  0.78974621  1
  Ti  Ti186  1  0.30057336  0.30848704  0.89760499  1
  Ti  Ti187  1  0.80228131  0.00254662  0.40809380  1
  Ti  Ti188  1  0.78329066  -0.00165136  -0.00869769  1
  Ti  Ti189  1  0.19417035  0.19979528  0.40859555  1
  Ti  Ti190  1  0.59434179  0.19628660  0.40714474  1
  Ti  Ti191  1  0.78562633  0.80486784  0.81532832  1
  Ti  Ti192  1  0.69549436  0.10353132  0.09542426  1
  Ti  Ti193  1  0.59452177  0.39486146  0.39893296  1
  Ti  Ti194  1  0.50832389  0.69821073  0.70310369  1
  Ti  Ti195  1  0.00297782  0.40218552  0.00421159  1
  Ti  Ti196  1  0.19556537  0.00355378  0.40661085  1
  Ti  Ti197  1  0.30766189  0.89698862  0.09045480  1
  Ti  Ti198  1  0.69846191  0.30192576  0.30719284  1
  Ti  Ti199  1  0.10588235  0.90331705  0.30749418  1
  Mo  Mo200  1  0.60855352  0.40192987  0.79690542  1
  Mo  Mo201  1  0.40476535  0.59612541  0.41020133  1
  Mo  Mo202  1  0.60485362  0.19668567  0.59049159  1
  Mo  Mo203  1  0.89802584  0.10464100  0.69831139  1
  Mo  Mo204  1  0.90992262  0.29517766  0.70068837  1
  Mo  Mo205  1  0.40571604  0.60815463  -0.00395641  1
  Mo  Mo206  1  0.50057765  0.10689480  0.31885377  1
  Mo  Mo207  1  0.60154864  0.60460288  0.80067149  1
  Mo  Mo208  1  0.79608587  0.58375801  0.61185985  1
  Mo  Mo209  1  0.60401183  0.60218658  0.00056414  1
  Mo  Mo210  1  0.30320198  0.49872194  0.29844068  1
  Mo  Mo211  1  0.40220470  -0.00394812  0.59817623  1
  Mo  Mo212  1  0.39290658  0.80279339  -0.00297220  1
  Mo  Mo213  1  0.50626517  0.10242036  0.07428339  1
  Mo  Mo214  1  0.10416525  0.10434135  0.50072622  1
  Mo  Mo215  1  0.00278692  0.20357257  0.40127548  1
  Mo  Mo216  1  0.59731414  0.40010737  0.20293864  1
  Mo  Mo217  1  0.79939642  0.39338341  0.80053890  1
  Mo  Mo218  1  0.58862293  0.79394061  0.21124583  1
  Mo  Mo219  1  0.69455077  0.29238969  0.70515260  1
  Mo  Mo220  1  0.10030117  0.09653237  0.08395620  1
  Mo  Mo221  1  0.29538281  0.29752382  0.69606584  1
  Mo  Mo222  1  0.79922550  0.40061589  0.00598958  1
  Mo  Mo223  1  0.20293495  -0.00332634  0.79881741  1
  Mo  Mo224  1  0.90321167  0.10134148  0.30527590  1
  Mo  Mo225  1  0.39944938  0.39205390  0.39219315  1
  Mo  Mo226  1  0.10937549  0.89763159  0.89972494  1
  Mo  Mo227  1  0.89584823  0.91680579  0.49932848  1
  Mo  Mo228  1  0.40077778  0.00053259  -0.00579590  1
  Mo  Mo229  1  -0.00473966  0.58947749  0.19651744  1
  Mo  Mo230  1  0.30042455  0.90049545  0.70492311  1
  Mo  Mo231  1  0.69902330  0.49530049  0.70788660  1
  Mo  Mo232  1  0.59905529  0.39722530  0.60296719  1
  Mo  Mo233  1  0.50309073  0.70012126  0.28983868  1
  Mo  Mo234  1  0.40262714  0.60363412  0.19275842  1
  Mo  Mo235  1  0.20476672  0.58519311  0.60681244  1
  Mo  Mo236  1  0.70665556  0.10352623  0.50431007  1
  Mo  Mo237  1  0.70531887  0.69131143  0.89592957  1
  Mo  Mo238  1  0.19885012  0.60775252  0.80192621  1
  Mo  Mo239  1  0.49721800  0.70247171  0.89729996  1
  Mo  Mo240  1  0.69977174  0.91127149  0.89449285  1
  Mo  Mo241  1  0.49769540  0.89787884  0.30358221  1
  Mo  Mo242  1  0.40427142  0.40277476  0.79853635  1
  Mo  Mo243  1  0.09679499  0.49742954  0.70160944  1
  Mo  Mo244  1  0.39994141  0.20484894  0.59513000  1
  Mo  Mo245  1  0.01443230  -0.00088540  -0.00232803  1
  Mo  Mo246  1  0.79572479  0.39681812  0.39090100  1
  Mo  Mo247  1  0.80093375  0.20527708  0.40064639  1
  Mo  Mo248  1  0.69948910  0.69207900  0.29402158  1
  Mo  Mo249  1  0.29208623  0.50304821  0.69937121  1
