# generated using pymatgen
data_HfZrTaTiMo
_symmetry_space_group_name_H-M   'P 1'
_cell_length_a   16.89328410
_cell_length_b   16.88414568
_cell_length_c   16.87795331
_cell_angle_alpha   89.99803475
_cell_angle_beta   89.95748431
_cell_angle_gamma   90.00353632
_symmetry_Int_Tables_number   1
_chemical_formula_structural   HfZrTaTiMo
_chemical_formula_sum   'Hf50 Zr50 Ta50 Ti50 Mo50'
_cell_volume   4814.07483041
_cell_formula_units_Z   50
loop_
 _symmetry_equiv_pos_site_id
 _symmetry_equiv_pos_as_xyz
  1  'x, y, z'
loop_
 _atom_site_type_symbol
 _atom_site_label
 _atom_site_symmetry_multiplicity
 _atom_site_fract_x
 _atom_site_fract_y
 _atom_site_fract_z
 _atom_site_occupancy
  Hf  Hf0  1  0.00883646  -0.00469631  0.39183558  1
  Hf  Hf1  1  0.80307423  0.40672228  0.40789010  1
  Hf  Hf2  1  0.60692592  0.19508379  0.40605659  1
  Hf  Hf3  1  0.79856071  0.19846843  0.00135760  1
  Hf  Hf4  1  0.88537187  0.69918751  0.29773433  1
  Hf  Hf5  1  0.50650605  0.89943998  0.29230701  1
  Hf  Hf6  1  -0.00300561  0.40118638  0.20191796  1
  Hf  Hf7  1  0.51030854  0.09265642  0.09575576  1
  Hf  Hf8  1  0.60947895  0.00793463  0.60245090  1
  Hf  Hf9  1  0.89437101  0.29238361  0.30359500  1
  Hf  Hf10  1  0.70891907  0.29310385  0.50466310  1
  Hf  Hf11  1  0.10659395  0.70848215  0.50296591  1
  Hf  Hf12  1  0.01094289  -0.00765257  0.20319532  1
  Hf  Hf13  1  0.69520953  0.70063634  0.89856239  1
  Hf  Hf14  1  0.20989226  0.21123936  0.00991397  1
  Hf  Hf15  1  0.19736923  0.20771149  0.79598361  1
  Hf  Hf16  1  0.48916376  0.50362428  0.48912879  1
  Hf  Hf17  1  0.87776745  0.70156273  0.11380430  1
  Hf  Hf18  1  0.80038569  0.39993009  0.79749285  1
  Hf  Hf19  1  0.28978777  0.09372930  0.69433047  1
  Hf  Hf20  1  0.70072709  0.70476439  0.28320211  1
  Hf  Hf21  1  0.09184895  0.89457691  0.69959195  1
  Hf  Hf22  1  0.69830539  0.50673639  0.29897668  1
  Hf  Hf23  1  0.80815716  0.59515601  0.59330899  1
  Hf  Hf24  1  0.70484116  0.90077374  0.50278114  1
  Hf  Hf25  1  0.39393380  0.20125418  0.19882946  1
  Hf  Hf26  1  0.40155826  0.40135339  0.80087107  1
  Hf  Hf27  1  0.30168089  0.70800824  0.49734483  1
  Hf  Hf28  1  0.20411776  0.19750908  0.39269126  1
  Hf  Hf29  1  0.89178196  0.70582370  0.89042793  1
  Hf  Hf30  1  -0.00685832  0.39986921  0.00303663  1
  Hf  Hf31  1  0.89789991  0.10239503  0.29409732  1
  Hf  Hf32  1  0.11323797  0.49960580  0.29410386  1
  Hf  Hf33  1  0.79307652  0.80458997  0.00662331  1
  Hf  Hf34  1  0.39701128  0.58971569  0.80478675  1
  Hf  Hf35  1  0.89400790  0.09264020  0.09981207  1
  Hf  Hf36  1  0.19456019  -0.01154650  0.80146215  1
  Hf  Hf37  1  0.50379329  0.29852633  0.30468355  1
  Hf  Hf38  1  0.50371231  0.10677855  0.69519092  1
  Hf  Hf39  1  -0.00376541  0.20239601  0.00306140  1
  Hf  Hf40  1  0.00214729  0.80445826  0.00558610  1
  Hf  Hf41  1  0.20381619  0.59680622  0.79489872  1
  Hf  Hf42  1  0.79407225  0.00365969  0.39660400  1
  Hf  Hf43  1  0.70157325  0.28924770  0.69617485  1
  Hf  Hf44  1  0.50768442  0.29036717  0.90147179  1
  Hf  Hf45  1  0.89109435  0.89315781  0.70648642  1
  Hf  Hf46  1  0.41302735  0.59091165  0.00292786  1
  Hf  Hf47  1  0.59387122  0.58942871  0.80370027  1
  Hf  Hf48  1  0.01297409  0.79770131  0.19503386  1
  Hf  Hf49  1  0.10372277  0.09708328  0.50744208  1
  Zr  Zr50  1  0.10366433  0.09955050  0.90446454  1
  Zr  Zr51  1  0.00940847  0.80411564  0.39062708  1
  Zr  Zr52  1  -0.00043978  0.60570567  0.00708520  1
  Zr  Zr53  1  0.40411165  0.39475865  0.19173406  1
  Zr  Zr54  1  0.49789102  0.70937025  0.90286162  1
  Zr  Zr55  1  0.19410154  0.79644589  0.80035727  1
  Zr  Zr56  1  0.40215037  0.80560910  0.40126602  1
  Zr  Zr57  1  0.49692923  0.09845202  0.49788406  1
  Zr  Zr58  1  0.00362624  0.59952865  0.40138788  1
  Zr  Zr59  1  0.19721871  0.40517761  0.60283173  1
  Zr  Zr60  1  0.59674233  0.39678439  0.79866647  1
  Zr  Zr61  1  0.59484585  0.39687499  0.59696582  1
  Zr  Zr62  1  0.59437919  0.40397326  0.00466427  1
  Zr  Zr63  1  0.40344686  0.20231586  0.00602958  1
  Zr  Zr64  1  0.60017267  0.39839011  0.19295108  1
  Zr  Zr65  1  0.30332954  0.89046798  0.10712796  1
  Zr  Zr66  1  0.40114012  0.20081531  0.80125474  1
  Zr  Zr67  1  0.70637514  0.09242496  0.90292117  1
  Zr  Zr68  1  0.11009288  0.09810348  0.10659916  1
  Zr  Zr69  1  0.00264849  0.40506095  0.40101125  1
  Zr  Zr70  1  0.09930923  0.49981694  0.90277912  1
  Zr  Zr71  1  0.88898253  0.50640692  0.10431241  1
  Zr  Zr72  1  0.10024937  0.30849906  0.90298247  1
  Zr  Zr73  1  0.90092699  0.70227207  0.49857066  1
  Zr  Zr74  1  0.39315033  0.59798100  0.60961252  1
  Zr  Zr75  1  0.30777376  0.51077351  0.29992619  1
  Zr  Zr76  1  0.70065862  0.89989415  0.89899645  1
  Zr  Zr77  1  0.90015481  0.29024865  0.50806667  1
  Zr  Zr78  1  0.09333604  0.69920104  0.89421727  1
  Zr  Zr79  1  0.49921402  0.90525171  0.49884712  1
  Zr  Zr80  1  0.60025411  0.60749621  0.40323208  1
  Zr  Zr81  1  0.49713898  0.70416830  0.29120888  1
  Zr  Zr82  1  0.01093979  0.60608335  0.20150757  1
  Zr  Zr83  1  0.90096431  0.10748137  0.49605130  1
  Zr  Zr84  1  0.70827408  0.70682163  0.70545054  1
  Zr  Zr85  1  -0.00769072  0.00207672  0.60487765  1
  Zr  Zr86  1  0.31205521  0.88493672  0.90256628  1
  Zr  Zr87  1  0.60194293  0.60476775  0.59702682  1
  Zr  Zr88  1  0.29963370  0.09461579  0.90338723  1
  Zr  Zr89  1  0.40905668  -0.00847096  0.79467496  1
  Zr  Zr90  1  0.49797297  0.70937086  0.70163046  1
  Zr  Zr91  1  0.40021523  0.00203543  0.20400769  1
  Zr  Zr92  1  0.29870308  0.50657167  0.49196322  1
  Zr  Zr93  1  0.38785648  0.19793911  0.39526506  1
  Zr  Zr94  1  0.79285314  0.39302213  0.00330314  1
  Zr  Zr95  1  0.09167475  0.29389769  0.50572741  1
  Zr  Zr96  1  0.00221990  -0.00893798  -0.00046385  1
  Zr  Zr97  1  -0.00323582  0.19566196  0.79674091  1
  Zr  Zr98  1  0.19853417  0.60746459  0.61402180  1
  Zr  Zr99  1  0.39435844  0.20574301  0.59634027  1
  Ta  Ta100  1  0.11543073  0.49544931  0.09971840  1
  Ta  Ta101  1  0.60867479  0.00246203  0.39418370  1
  Ta  Ta102  1  -0.00460823  -0.00024446  0.80632689  1
  Ta  Ta103  1  0.89564416  0.29718657  0.89027910  1
  Ta  Ta104  1  0.29848261  0.50030339  0.09981655  1
  Ta  Ta105  1  0.10597758  0.29938946  0.29298921  1
  Ta  Ta106  1  0.29627569  0.89725833  0.30140058  1
  Ta  Ta107  1  0.60069256  0.80520590  0.59879121  1
  Ta  Ta108  1  0.29819084  0.30390011  0.70002666  1
  Ta  Ta109  1  0.49842059  0.50471322  0.30111508  1
  Ta  Ta110  1  0.29580935  0.08933596  0.10148243  1
  Ta  Ta111  1  0.70469818  0.90408464  0.70427148  1
  Ta  Ta112  1  0.40227824  0.39741874  0.00496046  1
  Ta  Ta113  1  0.50617446  0.89889018  0.90723677  1
  Ta  Ta114  1  0.90487151  0.70446782  0.70100252  1
  Ta  Ta115  1  0.89739736  0.89799942  0.49705926  1
  Ta  Ta116  1  0.70162315  0.50496272  0.90170396  1
  Ta  Ta117  1  0.59925009  0.00228292  0.79969112  1
  Ta  Ta118  1  0.89128115  0.90407774  0.89607960  1
  Ta  Ta119  1  0.39947679  0.39679605  0.60382215  1
  Ta  Ta120  1  0.59944725  0.79627113  0.01427896  1
  Ta  Ta121  1  0.19760118  -0.01900923  0.00265904  1
  Ta  Ta122  1  0.60528819  0.80220363  0.40297036  1
  Ta  Ta123  1  0.78946710  0.00017348  0.19878828  1
  Ta  Ta124  1  0.88729708  0.51010057  0.30097123  1
  Ta  Ta125  1  0.79340302  0.39638323  0.19942509  1
  Ta  Ta126  1  0.10627335  0.30731520  0.10624902  1
  Ta  Ta127  1  0.00785449  0.20145696  0.19935723  1
  Ta  Ta128  1  0.70363588  0.29777632  0.30264755  1
  Ta  Ta129  1  0.59217709  0.60327503  0.18189838  1
  Ta  Ta130  1  0.20290663  0.39368633  0.39600441  1
  Ta  Ta131  1  0.50670361  0.09842170  0.29948934  1
  Ta  Ta132  1  0.89495714  0.29577749  0.69278574  1
  Ta  Ta133  1  0.79470454  0.80357313  0.39741862  1
  Ta  Ta134  1  0.60104827  0.39996382  0.40133447  1
  Ta  Ta135  1  0.28811110  0.90599136  0.49948612  1
  Ta  Ta136  1  0.60346656  0.20108668  0.19465341  1
  Ta  Ta137  1  0.30616058  0.70125471  0.90759123  1
  Ta  Ta138  1  0.88944828  0.89581321  0.29342884  1
  Ta  Ta139  1  -0.00574990  0.40365305  0.79309162  1
  Ta  Ta140  1  0.89601427  0.50383898  0.89559375  1
  Ta  Ta141  1  0.19364622  0.79452506  0.00603332  1
  Ta  Ta142  1  0.29949211  0.70887286  0.29261189  1
  Ta  Ta143  1  -0.00406570  0.59815825  0.78937853  1
  Ta  Ta144  1  0.19872609  0.40444671  0.79360960  1
  Ta  Ta145  1  0.40697704  -0.00192146  -0.00000996  1
  Ta  Ta146  1  0.39324238  -0.00809824  0.60355894  1
  Ta  Ta147  1  0.20678873  0.60367868  0.00353519  1
  Ta  Ta148  1  0.70581465  0.49689196  0.69578692  1
  Ta  Ta149  1  0.30961167  0.70256183  0.09921609  1
  Ti  Ti150  1  0.19665726  0.20349494  0.60341945  1
  Ti  Ti151  1  0.59320160  0.81433767  0.79197284  1
  Ti  Ti152  1  0.08781233  0.30296954  0.69273147  1
  Ti  Ti153  1  0.20800242  0.19968958  0.20589598  1
  Ti  Ti154  1  0.20504907  0.80450916  0.60964735  1
  Ti  Ti155  1  0.70497494  0.70345927  0.49547312  1
  Ti  Ti156  1  0.49403442  0.70289366  0.50147815  1
  Ti  Ti157  1  0.70331322  0.49988612  0.50162359  1
  Ti  Ti158  1  0.50088817  0.29846744  0.50156443  1
  Ti  Ti159  1  0.29409847  0.49369770  0.90909849  1
  Ti  Ti160  1  0.40554891  0.60193269  0.19221058  1
  Ti  Ti161  1  0.29808475  0.30933491  0.90170225  1
  Ti  Ti162  1  0.10037632  0.50694779  0.50297607  1
  Ti  Ti163  1  0.40144926  0.81422640  0.60837299  1
  Ti  Ti164  1  0.79011647  0.17839443  0.60378652  1
  Ti  Ti165  1  0.01352684  0.19321714  0.38630367  1
  Ti  Ti166  1  0.20172099  0.61248389  0.19320374  1
  Ti  Ti167  1  0.70107169  0.10688839  0.29679083  1
  Ti  Ti168  1  0.10972571  0.90138831  0.50276264  1
  Ti  Ti169  1  0.78966860  0.20021057  0.19343150  1
  Ti  Ti170  1  0.89722166  0.29677753  0.10741302  1
  Ti  Ti171  1  0.21300694  0.39071107  0.20120865  1
  Ti  Ti172  1  0.39254804  0.00514300  0.39656591  1
  Ti  Ti173  1  0.09923794  0.09726523  0.69545402  1
  Ti  Ti174  1  0.88954028  0.90265395  0.10602094  1
  Ti  Ti175  1  -0.00045068  0.79841544  0.59876377  1
  Ti  Ti176  1  -0.01158093  0.41169754  0.59684012  1
  Ti  Ti177  1  0.28985881  0.08834877  0.50525735  1
  Ti  Ti178  1  0.29549258  0.30397484  0.50183765  1
  Ti  Ti179  1  0.69694232  0.89441159  0.29254499  1
  Ti  Ti180  1  0.60406092  0.19068421  0.79722051  1
  Ti  Ti181  1  0.31117500  0.71639620  0.71148705  1
  Ti  Ti182  1  0.89888074  0.49895014  0.69511790  1
  Ti  Ti183  1  0.12228639  0.89186818  0.29241798  1
  Ti  Ti184  1  0.60854015  0.00467454  0.19992831  1
  Ti  Ti185  1  0.19944147  0.00562162  0.38741667  1
  Ti  Ti186  1  0.79111066  0.60293364  -0.00011173  1
  Ti  Ti187  1  0.88604580  0.10088432  0.71420626  1
  Ti  Ti188  1  0.50217029  0.89442560  0.10119862  1
  Ti  Ti189  1  0.69833805  0.50979260  0.09682970  1
  Ti  Ti190  1  0.60944038  0.19852122  0.00833629  1
  Ti  Ti191  1  0.49956621  0.49580737  0.69455131  1
  Ti  Ti192  1  0.69362168  0.90821809  0.09944213  1
  Ti  Ti193  1  0.19875708  0.61072216  0.39459597  1
  Ti  Ti194  1  0.08988886  0.50251100  0.69630049  1
  Ti  Ti195  1  0.79869824  0.00493296  0.60289851  1
  Ti  Ti196  1  0.70160406  0.29315230  0.89542010  1
  Ti  Ti197  1  0.79929641  0.79963178  0.59716237  1
  Ti  Ti198  1  0.80134235  0.59521700  0.79503103  1
  Ti  Ti199  1  0.39515579  0.39317540  0.39754965  1
  Mo  Mo200  1  0.10376705  0.10374638  0.29591859  1
  Mo  Mo201  1  0.79100761  0.81570447  0.19801850  1
  Mo  Mo202  1  0.59703131  -0.00661728  0.00114688  1
  Mo  Mo203  1  0.09043730  0.89569024  0.90204648  1
  Mo  Mo204  1  0.90299218  0.50249989  0.50246373  1
  Mo  Mo205  1  0.60419431  0.60028584  0.00157681  1
  Mo  Mo206  1  0.80102748  0.00334576  0.80019885  1
  Mo  Mo207  1  0.20873802  0.40413549  0.00478802  1
  Mo  Mo208  1  0.11814952  0.70187282  0.29862334  1
  Mo  Mo209  1  0.89660906  0.09632790  0.89897015  1
  Mo  Mo210  1  0.80403271  0.40708438  0.60257765  1
  Mo  Mo211  1  0.50660777  0.90317933  0.69820777  1
  Mo  Mo212  1  0.49950635  0.29554887  0.69796367  1
  Mo  Mo213  1  0.50315214  0.49406438  0.90618611  1
  Mo  Mo214  1  0.80091461  -0.00297861  0.00640809  1
  Mo  Mo215  1  0.69903013  0.09481431  0.10294220  1
  Mo  Mo216  1  0.20251589  -0.00523692  0.20322930  1
  Mo  Mo217  1  0.70287087  0.09817131  0.70424259  1
  Mo  Mo218  1  -0.00314379  0.19376038  0.61630492  1
  Mo  Mo219  1  0.49640528  0.50286089  0.10234703  1
  Mo  Mo220  1  0.78631390  0.59107868  0.19764345  1
  Mo  Mo221  1  0.20432821  0.79429425  0.19997683  1
  Mo  Mo222  1  0.51454861  0.09253954  0.90413164  1
  Mo  Mo223  1  0.11399254  0.69713599  0.10002278  1
  Mo  Mo224  1  0.70132825  0.29330866  0.10599916  1
  Mo  Mo225  1  0.49762052  0.70371332  0.10004949  1
  Mo  Mo226  1  0.29556104  0.09044170  0.29504594  1
  Mo  Mo227  1  0.79466465  0.19817151  0.39394181  1
  Mo  Mo228  1  0.60053604  0.20032993  0.60007732  1
  Mo  Mo229  1  0.29782227  0.30353274  0.29997607  1
  Mo  Mo230  1  0.60077444  0.80476686  0.19030131  1
  Mo  Mo231  1  0.10943235  0.89472340  0.10322982  1
  Mo  Mo232  1  0.39810233  0.60775302  0.39063616  1
  Mo  Mo233  1  0.40172101  0.79958295  0.19775664  1
  Mo  Mo234  1  0.19659003  -0.00723176  0.60024896  1
  Mo  Mo235  1  0.20341872  0.80542912  0.39901483  1
  Mo  Mo236  1  0.29760937  0.30440194  0.10263812  1
  Mo  Mo237  1  0.40414362  0.80123078  0.80067744  1
  Mo  Mo238  1  0.08559383  0.70195178  0.69436244  1
  Mo  Mo239  1  0.79624492  0.60253751  0.40186050  1
  Mo  Mo240  1  0.50404359  0.29042422  0.09699121  1
  Mo  Mo241  1  -0.00689638  0.80213369  0.80235691  1
  Mo  Mo242  1  0.29974927  0.89439089  0.69446218  1
  Mo  Mo243  1  0.69292152  0.69729330  0.09559586  1
  Mo  Mo244  1  0.30186769  0.49009572  0.70490520  1
  Mo  Mo245  1  0.70366018  0.09773152  0.50069346  1
  Mo  Mo246  1  0.00139155  0.59934305  0.60641529  1
  Mo  Mo247  1  0.79770124  0.80119145  0.79895587  1
  Mo  Mo248  1  0.40738689  0.79804870  0.00556914  1
  Mo  Mo249  1  0.80154962  0.19988671  0.80147972  1
