# generated using pymatgen
data_HfZrTaTiMo
_symmetry_space_group_name_H-M   'P 1'
_cell_length_a   16.88205441
_cell_length_b   16.89565169
_cell_length_c   16.88834680
_cell_angle_alpha   89.98644366
_cell_angle_beta   90.04596106
_cell_angle_gamma   90.03876739
_symmetry_Int_Tables_number   1
_chemical_formula_structural   HfZrTaTiMo
_chemical_formula_sum   'Hf50 Zr50 Ta50 Ti50 Mo50'
_cell_volume   4817.11628968
_cell_formula_units_Z   50
loop_
 _symmetry_equiv_pos_site_id
 _symmetry_equiv_pos_as_xyz
  1  'x, y, z'
loop_
 _atom_site_type_symbol
 _atom_site_label
 _atom_site_symmetry_multiplicity
 _atom_site_fract_x
 _atom_site_fract_y
 _atom_site_fract_z
 _atom_site_occupancy
  Hf  Hf0  1  0.19987360  0.01435065  0.19100700  1
  Hf  Hf1  1  0.69714423  0.70376140  0.30696571  1
  Hf  Hf2  1  0.90228164  0.29923920  0.50112273  1
  Hf  Hf3  1  0.20556765  0.40305161  0.59447526  1
  Hf  Hf4  1  0.69738400  0.11168234  0.91019523  1
  Hf  Hf5  1  0.40502523  0.79531409  -0.00982133  1
  Hf  Hf6  1  0.70536591  0.69673200  0.89554597  1
  Hf  Hf7  1  -0.00995134  0.19184163  0.78650818  1
  Hf  Hf8  1  0.10050411  0.69951181  0.50253177  1
  Hf  Hf9  1  0.60502019  -0.00442064  0.21334221  1
  Hf  Hf10  1  0.50225418  0.29718224  0.70081513  1
  Hf  Hf11  1  0.90062966  0.71023862  0.30069643  1
  Hf  Hf12  1  0.10415255  0.70296414  0.69718548  1
  Hf  Hf13  1  0.20533635  0.39296194  0.00567738  1
  Hf  Hf14  1  0.90157943  0.49379742  0.30238036  1
  Hf  Hf15  1  0.50324787  0.50287058  0.30554767  1
  Hf  Hf16  1  0.39790190  0.00217618  0.79758650  1
  Hf  Hf17  1  0.80245481  0.59742507  0.40679990  1
  Hf  Hf18  1  0.60659246  0.20479014  0.58828945  1
  Hf  Hf19  1  0.19633660  0.79957098  0.39892872  1
  Hf  Hf20  1  0.29908782  0.69928748  0.09515952  1
  Hf  Hf21  1  0.09797282  0.29823900  0.10473558  1
  Hf  Hf22  1  0.49186269  0.10053107  0.49105077  1
  Hf  Hf23  1  0.28433171  0.89901536  0.89169045  1
  Hf  Hf24  1  0.89860963  0.29233686  0.30109538  1
  Hf  Hf25  1  0.50577784  0.29320309  0.89834584  1
  Hf  Hf26  1  0.89804886  0.90257240  0.49284466  1
  Hf  Hf27  1  0.29903154  0.29405670  0.89586063  1
  Hf  Hf28  1  0.29831898  0.89443249  0.09772309  1
  Hf  Hf29  1  0.09411857  0.49807470  0.90115248  1
  Hf  Hf30  1  0.30423954  0.09680557  0.49427284  1
  Hf  Hf31  1  0.79548841  0.41634502  0.79284212  1
  Hf  Hf32  1  0.10037629  0.29715893  0.49951320  1
  Hf  Hf33  1  0.19665733  0.60058666  0.20775505  1
  Hf  Hf34  1  0.91303922  0.89733577  0.11858556  1
  Hf  Hf35  1  0.59988650  0.79726670  0.59276587  1
  Hf  Hf36  1  0.69873874  0.49719705  0.50389999  1
  Hf  Hf37  1  0.00482141  0.80068028  0.80294467  1
  Hf  Hf38  1  0.79688153  0.79436425  0.59946429  1
  Hf  Hf39  1  0.90824008  0.09900510  0.50040470  1
  Hf  Hf40  1  0.80381999  0.60058689  0.19827455  1
  Hf  Hf41  1  0.10838413  0.89989106  0.69309920  1
  Hf  Hf42  1  0.21137051  0.60594663  0.39439006  1
  Hf  Hf43  1  0.49585235  0.50668570  0.10494304  1
  Hf  Hf44  1  0.20785119  0.39911122  0.40011683  1
  Hf  Hf45  1  0.09905945  0.29490273  0.69187316  1
  Hf  Hf46  1  0.00306860  0.00622580  0.80055786  1
  Hf  Hf47  1  0.90375313  0.90334430  0.69574498  1
  Hf  Hf48  1  0.59265076  0.81538986  0.40038659  1
  Hf  Hf49  1  0.81076780  0.01483065  0.01082979  1
  Zr  Zr50  1  0.29530281  0.90166752  0.29628263  1
  Zr  Zr51  1  0.60741398  -0.00350357  0.57630974  1
  Zr  Zr52  1  0.58991636  0.01976941  0.80628715  1
  Zr  Zr53  1  0.40105453  0.80066394  0.80242637  1
  Zr  Zr54  1  0.10214040  0.29753143  0.89789756  1
  Zr  Zr55  1  0.40557898  0.18415902  0.80631508  1
  Zr  Zr56  1  0.76957496  -0.00376038  0.39855502  1
  Zr  Zr57  1  0.90185521  0.09770385  0.30325245  1
  Zr  Zr58  1  0.10511739  0.10252402  0.90023213  1
  Zr  Zr59  1  0.68534783  0.50436462  0.10714706  1
  Zr  Zr60  1  0.49726282  0.10349404  0.30158006  1
  Zr  Zr61  1  0.09818044  0.89388971  0.10251857  1
  Zr  Zr62  1  -0.01018345  0.40230614  0.78986566  1
  Zr  Zr63  1  0.30810204  0.10348081  0.30655601  1
  Zr  Zr64  1  0.30871858  0.49659695  0.70270506  1
  Zr  Zr65  1  0.80205035  0.59959811  0.00177380  1
  Zr  Zr66  1  0.09779469  0.49848746  0.09863641  1
  Zr  Zr67  1  0.60837135  0.20384542  0.40004500  1
  Zr  Zr68  1  0.59850044  0.79979537  -0.00307951  1
  Zr  Zr69  1  0.30405786  0.49924219  0.90928439  1
  Zr  Zr70  1  0.39837698  0.78649617  0.39452817  1
  Zr  Zr71  1  0.79085805  0.40371521  0.00131408  1
  Zr  Zr72  1  0.08462480  0.90187897  0.28697137  1
  Zr  Zr73  1  0.79928984  0.00236140  0.20550023  1
  Zr  Zr74  1  0.79213676  0.00779591  0.59941070  1
  Zr  Zr75  1  0.89858948  0.89765043  0.90236598  1
  Zr  Zr76  1  0.39854398  0.79785808  0.58896058  1
  Zr  Zr77  1  0.81110696  0.02233998  0.79842319  1
  Zr  Zr78  1  0.09543321  0.69474882  0.90318623  1
  Zr  Zr79  1  0.39582865  0.00886263  -0.00218258  1
  Zr  Zr80  1  0.40387326  0.60890115  0.80620975  1
  Zr  Zr81  1  0.59926768  0.39392460  0.00504696  1
  Zr  Zr82  1  0.89140913  0.29355177  0.10715509  1
  Zr  Zr83  1  0.70486673  0.90481098  0.90044569  1
  Zr  Zr84  1  0.50336984  0.50830295  0.91083522  1
  Zr  Zr85  1  -0.00982653  0.18893962  0.00255261  1
  Zr  Zr86  1  0.19922581  0.59784677  0.79486205  1
  Zr  Zr87  1  0.39484716  0.61236745  0.21653599  1
  Zr  Zr88  1  0.40464856  0.40282949  0.58921857  1
  Zr  Zr89  1  0.50386325  0.90325143  0.69945514  1
  Zr  Zr90  1  0.70030630  0.31154236  0.69218278  1
  Zr  Zr91  1  0.80331938  0.20322467  0.79004129  1
  Zr  Zr92  1  0.69757839  0.90003549  0.09953010  1
  Zr  Zr93  1  0.30679638  0.29212445  0.69655556  1
  Zr  Zr94  1  0.70106167  0.89351344  0.71410051  1
  Zr  Zr95  1  0.00342838  0.60195802  0.39957140  1
  Zr  Zr96  1  0.88982434  0.29862253  0.90451748  1
  Zr  Zr97  1  0.68951004  0.49978171  0.30219446  1
  Zr  Zr98  1  -0.01084232  0.59847675  0.60288693  1
  Zr  Zr99  1  0.50949055  0.69477611  0.70415623  1
  Ta  Ta100  1  0.20977781  0.59838099  0.59332094  1
  Ta  Ta101  1  0.40139051  0.39568738  0.19964645  1
  Ta  Ta102  1  0.39862784  -0.00688671  0.59574490  1
  Ta  Ta103  1  0.79646301  0.59664762  0.60853909  1
  Ta  Ta104  1  0.80590632  0.79545341  0.00708146  1
  Ta  Ta105  1  0.10253176  0.29862645  0.29794107  1
  Ta  Ta106  1  0.30589912  0.49994727  0.10261705  1
  Ta  Ta107  1  0.79262541  0.39192672  0.40176472  1
  Ta  Ta108  1  -0.00011312  0.39919082  0.20420622  1
  Ta  Ta109  1  0.40232983  0.38894139  0.01115243  1
  Ta  Ta110  1  0.59905819  0.39066199  0.40507254  1
  Ta  Ta111  1  0.69707219  0.70422609  0.10448298  1
  Ta  Ta112  1  0.59611074  0.19885959  0.01097198  1
  Ta  Ta113  1  -0.01228764  0.59550389  0.79361692  1
  Ta  Ta114  1  0.50090883  0.69771526  0.09644391  1
  Ta  Ta115  1  0.40303930  -0.00234391  0.19662278  1
  Ta  Ta116  1  0.50637555  0.09777369  0.10438078  1
  Ta  Ta117  1  0.10111313  0.49892634  0.49961104  1
  Ta  Ta118  1  0.00213055  0.59925805  0.20136725  1
  Ta  Ta119  1  -0.00318316  0.40214494  0.60062911  1
  Ta  Ta120  1  0.19486277  0.00271537  0.00241213  1
  Ta  Ta121  1  0.00042125  0.80440032  0.39957568  1
  Ta  Ta122  1  0.79269022  0.39595385  0.20700298  1
  Ta  Ta123  1  0.19030733  0.80020939  -0.00707233  1
  Ta  Ta124  1  0.00293197  0.00461208  0.00676235  1
  Ta  Ta125  1  0.50721816  0.49898364  0.69789305  1
  Ta  Ta126  1  0.10009966  0.49288554  0.30236946  1
  Ta  Ta127  1  0.69768148  0.69542841  0.49657356  1
  Ta  Ta128  1  0.00973160  0.19724528  0.40009956  1
  Ta  Ta129  1  0.09390289  0.70009988  0.10028899  1
  Ta  Ta130  1  0.18889796  0.00105086  0.40351720  1
  Ta  Ta131  1  0.49494539  0.10623307  0.68187480  1
  Ta  Ta132  1  0.40184758  0.60413936  0.59396192  1
  Ta  Ta133  1  0.40913367  0.80059112  0.20248011  1
  Ta  Ta134  1  0.30468592  0.29719368  0.29818781  1
  Ta  Ta135  1  0.20949622  0.19020666  0.01528393  1
  Ta  Ta136  1  0.80330194  0.20150066  0.60025338  1
  Ta  Ta137  1  0.40337618  0.39774350  0.39614111  1
  Ta  Ta138  1  0.29785380  0.09292179  0.68774158  1
  Ta  Ta139  1  -0.00364515  0.79984465  0.59475310  1
  Ta  Ta140  1  0.60643505  0.40750575  0.80299468  1
  Ta  Ta141  1  0.10070055  0.10306597  0.29955584  1
  Ta  Ta142  1  0.20326455  0.20057768  0.19957166  1
  Ta  Ta143  1  0.50102095  0.90284558  0.10016862  1
  Ta  Ta144  1  0.40127610  0.19880297  0.00789859  1
  Ta  Ta145  1  0.50176130  0.29975451  0.29392461  1
  Ta  Ta146  1  0.69433356  0.29053768  0.11575427  1
  Ta  Ta147  1  0.60336433  0.59861918  0.60112787  1
  Ta  Ta148  1  0.19924206  0.19009266  0.59228751  1
  Ta  Ta149  1  0.19868707  0.18862917  0.78559849  1
  Ti  Ti150  1  0.30648889  0.49428854  0.30039157  1
  Ti  Ti151  1  0.20625944  0.79813602  0.59190696  1
  Ti  Ti152  1  0.89559866  0.70500141  0.49761528  1
  Ti  Ti153  1  0.19929199  0.39791794  0.79580007  1
  Ti  Ti154  1  0.29041917  0.90125268  0.69621093  1
  Ti  Ti155  1  0.40221090  0.20024237  0.19189770  1
  Ti  Ti156  1  0.20015068  0.59966558  0.00318982  1
  Ti  Ti157  1  0.30669188  0.28781165  0.49477185  1
  Ti  Ti158  1  0.89480371  0.69988131  0.89492936  1
  Ti  Ti159  1  0.19829954  0.19789965  0.39721386  1
  Ti  Ti160  1  0.89194291  0.70179188  0.70901386  1
  Ti  Ti161  1  0.90497552  0.70727588  0.10527097  1
  Ti  Ti162  1  0.00268486  0.39794567  0.40038907  1
  Ti  Ti163  1  0.69716737  0.29421512  0.90042087  1
  Ti  Ti164  1  0.41379410  -0.02384519  0.39746707  1
  Ti  Ti165  1  0.20409408  0.39858245  0.20297384  1
  Ti  Ti166  1  0.19524670  0.00405499  0.79493483  1
  Ti  Ti167  1  0.30346303  0.29824137  0.10813840  1
  Ti  Ti168  1  0.69966845  0.11972375  0.28888491  1
  Ti  Ti169  1  0.29114069  0.70065072  0.90084274  1
  Ti  Ti170  1  0.29214127  0.10106933  0.89828679  1
  Ti  Ti171  1  0.00052261  0.80100156  -0.00159866  1
  Ti  Ti172  1  0.68644254  0.10986960  0.70006383  1
  Ti  Ti173  1  0.09940537  0.50071645  0.69391399  1
  Ti  Ti174  1  0.70470567  0.69577248  0.70886166  1
  Ti  Ti175  1  0.89638689  0.50781821  0.89730712  1
  Ti  Ti176  1  0.50680977  0.91484437  0.90820350  1
  Ti  Ti177  1  0.59382434  0.61615544  0.20506475  1
  Ti  Ti178  1  0.89753574  0.49157276  0.50374584  1
  Ti  Ti179  1  0.59781141  0.40237289  0.59500502  1
  Ti  Ti180  1  0.61196927  0.58933104  0.80137538  1
  Ti  Ti181  1  -0.00715267  0.39969944  0.00272377  1
  Ti  Ti182  1  0.50352877  0.68467937  0.48803206  1
  Ti  Ti183  1  0.50309013  0.50559214  0.49378398  1
  Ti  Ti184  1  0.29597065  0.70566515  0.69775646  1
  Ti  Ti185  1  0.79792369  0.80784781  0.20776862  1
  Ti  Ti186  1  -0.00979120  0.59979597  0.00385762  1
  Ti  Ti187  1  0.09738861  0.09064754  0.67557099  1
  Ti  Ti188  1  0.59144920  0.80139265  0.20632120  1
  Ti  Ti189  1  0.00423950  0.19211898  0.20012498  1
  Ti  Ti190  1  0.31094623  0.50807345  0.49247891  1
  Ti  Ti191  1  0.49069404  0.29470699  0.49566877  1
  Ti  Ti192  1  0.90145862  0.49361661  0.10556129  1
  Ti  Ti193  1  0.40843331  0.40199132  0.80547971  1
  Ti  Ti194  1  0.09803597  0.90748334  0.50788067  1
  Ti  Ti195  1  0.29617001  0.90484567  0.49892418  1
  Ti  Ti196  1  0.19807557  0.78644946  0.20662946  1
  Ti  Ti197  1  0.00605554  -0.00062033  0.39863755  1
  Ti  Ti198  1  0.79129311  0.20370008  0.40561024  1
  Ti  Ti199  1  0.59334143  0.79708050  0.81056046  1
  Mo  Mo200  1  0.80761896  0.40403526  0.59769692  1
  Mo  Mo201  1  0.59601512  0.38888195  0.20706870  1
  Mo  Mo202  1  0.00014672  0.01733906  0.19866536  1
  Mo  Mo203  1  0.39688768  0.19563817  0.59485125  1
  Mo  Mo204  1  0.30623045  0.10297190  0.10261936  1
  Mo  Mo205  1  0.91442278  0.10258324  0.68000790  1
  Mo  Mo206  1  0.60185739  0.20627978  0.79725580  1
  Mo  Mo207  1  0.00059754  0.78411048  0.20295562  1
  Mo  Mo208  1  0.78866485  0.19998378  0.01146614  1
  Mo  Mo209  1  0.69859770  0.50515347  0.89737666  1
  Mo  Mo210  1  0.90075969  0.89715445  0.30597261  1
  Mo  Mo211  1  0.69395881  0.50496397  0.69516514  1
  Mo  Mo212  1  0.50433092  0.70154066  0.29911250  1
  Mo  Mo213  1  0.80689980  0.79157400  0.80287657  1
  Mo  Mo214  1  0.10080719  0.90438009  0.90313648  1
  Mo  Mo215  1  0.70780729  0.30778522  0.50149062  1
  Mo  Mo216  1  0.20507173  -0.00451592  0.59161338  1
  Mo  Mo217  1  0.90056801  0.30406298  0.68662660  1
  Mo  Mo218  1  0.79877610  0.79995712  0.40324868  1
  Mo  Mo219  1  0.69941436  0.30234615  0.30001651  1
  Mo  Mo220  1  0.29881210  0.69662482  0.50343927  1
  Mo  Mo221  1  0.59877489  0.00015320  0.39510242  1
  Mo  Mo222  1  0.49722495  0.29432377  0.10637842  1
  Mo  Mo223  1  0.40216756  0.59421525  0.40417699  1
  Mo  Mo224  1  0.39639825  0.60549367  0.00556773  1
  Mo  Mo225  1  0.69881440  0.10915606  0.10537800  1
  Mo  Mo226  1  0.59777220  0.19822898  0.19972400  1
  Mo  Mo227  1  0.59986738  0.60031080  0.40582746  1
  Mo  Mo228  1  0.50432458  0.10350284  0.91552004  1
  Mo  Mo229  1  0.39922319  0.21562836  0.39813160  1
  Mo  Mo230  1  0.70269330  0.88331327  0.49590808  1
  Mo  Mo231  1  0.10105190  0.10242587  0.10334075  1
  Mo  Mo232  1  0.80243032  0.60088854  0.79579053  1
  Mo  Mo233  1  0.09725888  0.69876217  0.29830063  1
  Mo  Mo234  1  0.70061531  0.88764972  0.29944806  1
  Mo  Mo235  1  0.90266487  0.10019150  0.10875420  1
  Mo  Mo236  1  0.51222024  0.69143511  0.90449134  1
  Mo  Mo237  1  0.89358919  0.50220022  0.69308175  1
  Mo  Mo238  1  0.00612790  -0.00385797  0.59283539  1
  Mo  Mo239  1  0.59689572  0.00726485  0.00895254  1
  Mo  Mo240  1  0.70532579  0.11467057  0.49887052  1
  Mo  Mo241  1  0.00312393  0.19725018  0.59425449  1
  Mo  Mo242  1  0.89948955  0.10050188  0.91030486  1
  Mo  Mo243  1  0.20161568  0.80080859  0.79886482  1
  Mo  Mo244  1  0.49792675  0.90369652  0.49886511  1
  Mo  Mo245  1  0.10387804  0.09871821  0.49289709  1
  Mo  Mo246  1  0.79614291  0.19991054  0.20289891  1
  Mo  Mo247  1  0.49935473  0.90048222  0.29287075  1
  Mo  Mo248  1  0.29753698  0.70597969  0.29782017  1
  Mo  Mo249  1  0.60077223  0.60799311  0.00369605  1
