# generated using pymatgen
data_HfZrTaTiMo
_symmetry_space_group_name_H-M   'P 1'
_cell_length_a   16.88605304
_cell_length_b   16.88292650
_cell_length_c   16.88486117
_cell_angle_alpha   90.07048247
_cell_angle_beta   89.99328538
_cell_angle_gamma   89.96535244
_symmetry_Int_Tables_number   1
_chemical_formula_structural   HfZrTaTiMo
_chemical_formula_sum   'Hf50 Zr50 Ta50 Ti50 Mo50'
_cell_volume   4813.63284439
_cell_formula_units_Z   50
loop_
 _symmetry_equiv_pos_site_id
 _symmetry_equiv_pos_as_xyz
  1  'x, y, z'
loop_
 _atom_site_type_symbol
 _atom_site_label
 _atom_site_symmetry_multiplicity
 _atom_site_fract_x
 _atom_site_fract_y
 _atom_site_fract_z
 _atom_site_occupancy
  Hf  Hf0  1  0.00743228  0.39365257  0.80310114  1
  Hf  Hf1  1  0.39993018  0.60359696  0.19488596  1
  Hf  Hf2  1  0.90258353  0.69967186  0.89889365  1
  Hf  Hf3  1  0.01257198  0.39393461  0.59486869  1
  Hf  Hf4  1  0.50058876  0.09403408  0.10854457  1
  Hf  Hf5  1  0.19304935  0.20870224  0.39505129  1
  Hf  Hf6  1  -0.00138290  0.80717508  0.60529764  1
  Hf  Hf7  1  0.50592027  0.70174669  0.70172634  1
  Hf  Hf8  1  0.39810673  -0.00778619  -0.00158896  1
  Hf  Hf9  1  0.59152840  0.00033878  0.80339986  1
  Hf  Hf10  1  0.90033486  0.09304121  0.29906483  1
  Hf  Hf11  1  0.70485380  0.10337132  0.71017476  1
  Hf  Hf12  1  0.89669788  0.71193400  0.10834125  1
  Hf  Hf13  1  0.29084165  0.29225938  0.10318772  1
  Hf  Hf14  1  0.39590778  0.20570574  0.59417894  1
  Hf  Hf15  1  0.80638629  0.19940468  0.39454513  1
  Hf  Hf16  1  0.19858048  0.60786280  0.19531995  1
  Hf  Hf17  1  0.30012753  0.49910568  0.49604589  1
  Hf  Hf18  1  0.09807231  0.10505958  0.09427862  1
  Hf  Hf19  1  -0.00480758  0.39595105  0.19941826  1
  Hf  Hf20  1  0.81128517  0.80987574  0.80016560  1
  Hf  Hf21  1  0.49884644  0.09331019  0.48554299  1
  Hf  Hf22  1  0.19645441  -0.00217171  0.20151663  1
  Hf  Hf23  1  0.59578201  0.60622454  -0.00222914  1
  Hf  Hf24  1  0.49286244  0.49718064  0.48770977  1
  Hf  Hf25  1  0.69658859  0.89590586  0.49130089  1
  Hf  Hf26  1  0.20123094  -0.00841553  -0.00603435  1
  Hf  Hf27  1  0.50832912  0.90460950  0.29461907  1
  Hf  Hf28  1  0.60082883  0.40181456  0.19819675  1
  Hf  Hf29  1  0.60637452  0.21044944  0.81296347  1
  Hf  Hf30  1  0.41867950  0.59232901  0.80682270  1
  Hf  Hf31  1  0.39776875  0.40179431  -0.00036488  1
  Hf  Hf32  1  0.50136661  0.10178327  0.90685967  1
  Hf  Hf33  1  0.81080082  0.40342757  0.19365861  1
  Hf  Hf34  1  0.39396904  0.20279726  -0.00102783  1
  Hf  Hf35  1  0.80594594  -0.00393067  0.60209200  1
  Hf  Hf36  1  0.49403266  0.30912460  0.70739384  1
  Hf  Hf37  1  0.40427069  0.60249863  0.00291301  1
  Hf  Hf38  1  0.09562375  0.10221030  0.50588521  1
  Hf  Hf39  1  0.29659750  0.49697050  0.89770602  1
  Hf  Hf40  1  -0.00358887  0.20462142  0.20554247  1
  Hf  Hf41  1  0.80164084  0.19817399  0.19603365  1
  Hf  Hf42  1  0.19753964  0.00074755  0.39479317  1
  Hf  Hf43  1  0.41722966  0.79830028  -0.00405467  1
  Hf  Hf44  1  0.38995030  0.20557828  0.40062939  1
  Hf  Hf45  1  0.40496183  0.79499177  0.19468976  1
  Hf  Hf46  1  0.30661650  0.89796542  0.29161151  1
  Hf  Hf47  1  0.70041977  0.89437003  0.70018141  1
  Hf  Hf48  1  0.79184290  0.59677661  0.79613331  1
  Hf  Hf49  1  0.70049990  0.30250860  0.29550136  1
  Zr  Zr50  1  0.20327718  0.20539093  0.81146763  1
  Zr  Zr51  1  0.19661823  0.60424262  0.60534729  1
  Zr  Zr52  1  0.69496202  0.09797307  0.09593702  1
  Zr  Zr53  1  0.68499920  0.08708675  0.29529055  1
  Zr  Zr54  1  0.19242316  0.79986262  0.60705559  1
  Zr  Zr55  1  0.40883501  0.00315971  0.60878299  1
  Zr  Zr56  1  0.80228729  0.59977796  0.01030618  1
  Zr  Zr57  1  0.30960750  0.70235609  0.50082453  1
  Zr  Zr58  1  0.69538120  0.50326824  0.90033525  1
  Zr  Zr59  1  0.09341709  0.10546572  0.70102136  1
  Zr  Zr60  1  0.29889952  0.70358496  0.89877970  1
  Zr  Zr61  1  0.30146641  0.49341397  0.70236724  1
  Zr  Zr62  1  0.11148807  0.92564848  0.70976560  1
  Zr  Zr63  1  0.89558700  0.69968341  0.50330750  1
  Zr  Zr64  1  0.10193633  0.49911767  0.10288743  1
  Zr  Zr65  1  0.09891364  0.50481601  0.89728282  1
  Zr  Zr66  1  0.00405362  0.81488375  0.80377205  1
  Zr  Zr67  1  0.89662475  0.88882936  0.29558531  1
  Zr  Zr68  1  0.39716065  0.19320609  0.79524491  1
  Zr  Zr69  1  0.70583048  0.89966751  0.90750002  1
  Zr  Zr70  1  0.49141763  0.31178524  0.30413682  1
  Zr  Zr71  1  0.90021335  0.28228396  0.89916019  1
  Zr  Zr72  1  0.58996991  0.20226197  0.60335434  1
  Zr  Zr73  1  0.28071077  0.08775404  0.69415513  1
  Zr  Zr74  1  0.90593135  0.28801287  0.70067065  1
  Zr  Zr75  1  0.09620226  0.90002770  0.09833374  1
  Zr  Zr76  1  0.90949212  0.50486106  0.70196669  1
  Zr  Zr77  1  0.60246673  0.40103933  0.59631984  1
  Zr  Zr78  1  0.00379359  0.60813483  0.00973593  1
  Zr  Zr79  1  0.79711918  0.19970328  0.59832387  1
  Zr  Zr80  1  0.90055409  0.69768526  0.69421850  1
  Zr  Zr81  1  0.29709571  0.49702827  0.30569931  1
  Zr  Zr82  1  0.80562619  0.40267415  0.39518243  1
  Zr  Zr83  1  0.79542265  0.40564860  0.59782893  1
  Zr  Zr84  1  0.00686269  0.38117034  0.38632266  1
  Zr  Zr85  1  0.11412990  0.49191354  0.49010608  1
  Zr  Zr86  1  0.60575498  0.59127219  0.60057445  1
  Zr  Zr87  1  0.79228363  0.39527198  0.80379267  1
  Zr  Zr88  1  0.70028132  0.70531981  0.69986924  1
  Zr  Zr89  1  0.08257384  0.08874276  0.89542257  1
  Zr  Zr90  1  0.59319131  -0.00192437  0.60488381  1
  Zr  Zr91  1  0.69739075  0.09390629  0.49251571  1
  Zr  Zr92  1  0.59407417  0.21033502  0.40143576  1
  Zr  Zr93  1  0.90805966  0.50441672  0.49573666  1
  Zr  Zr94  1  0.19304801  0.80345060  0.39615876  1
  Zr  Zr95  1  0.59813330  0.39618283  -0.00545073  1
  Zr  Zr96  1  0.30775560  0.70605860  0.70438108  1
  Zr  Zr97  1  0.30256581  0.90325509  0.50772127  1
  Zr  Zr98  1  -0.00762451  0.39898177  0.00672696  1
  Zr  Zr99  1  0.61199074  0.60574692  0.39981164  1
  Ta  Ta100  1  0.30065127  0.70379569  0.29905409  1
  Ta  Ta101  1  0.90120417  0.91259525  0.91923385  1
  Ta  Ta102  1  0.80180048  0.40181925  0.00527693  1
  Ta  Ta103  1  0.39594411  0.00167650  0.39187381  1
  Ta  Ta104  1  0.00202295  0.80432112  0.00142273  1
  Ta  Ta105  1  0.39547052  0.40222639  0.19489905  1
  Ta  Ta106  1  0.80263617  -0.00781373  0.39619878  1
  Ta  Ta107  1  0.59977883  0.79702651  0.58983584  1
  Ta  Ta108  1  0.49798454  0.29800099  0.10308282  1
  Ta  Ta109  1  0.69719016  0.50574620  0.10595834  1
  Ta  Ta110  1  0.50274297  0.50034998  0.10435922  1
  Ta  Ta111  1  0.90856512  0.09628650  0.49884138  1
  Ta  Ta112  1  0.00030473  -0.00679274  0.39589297  1
  Ta  Ta113  1  0.50890707  0.90036677  0.10569570  1
  Ta  Ta114  1  0.49610486  0.09311000  0.29248602  1
  Ta  Ta115  1  0.79949186  -0.01188420  0.19134289  1
  Ta  Ta116  1  0.19546626  0.60467837  0.80248489  1
  Ta  Ta117  1  0.89755232  0.89594613  0.49685430  1
  Ta  Ta118  1  0.09517904  0.10062152  0.29827970  1
  Ta  Ta119  1  0.40888570  0.80894360  0.80942698  1
  Ta  Ta120  1  0.10043602  0.50324701  0.30053245  1
  Ta  Ta121  1  0.59984468  -0.00795943  -0.00018669  1
  Ta  Ta122  1  0.50948997  0.70213842  0.29950127  1
  Ta  Ta123  1  0.91443669  0.28504085  0.49799225  1
  Ta  Ta124  1  0.40122838  -0.00601227  0.80608389  1
  Ta  Ta125  1  -0.00358503  -0.00455227  0.19832600  1
  Ta  Ta126  1  0.79624677  0.60328883  0.39470203  1
  Ta  Ta127  1  0.10451244  0.29471308  0.69699068  1
  Ta  Ta128  1  0.90048389  0.09034621  0.08624443  1
  Ta  Ta129  1  0.50235675  0.70463569  0.49456815  1
  Ta  Ta130  1  0.70099790  0.29925705  0.09473039  1
  Ta  Ta131  1  0.90353318  0.50416992  0.89891855  1
  Ta  Ta132  1  0.19960318  0.60876857  0.00355336  1
  Ta  Ta133  1  0.09383571  0.90609947  0.50116306  1
  Ta  Ta134  1  0.79142475  0.78905815  0.39578685  1
  Ta  Ta135  1  0.19242679  0.39370683  0.20290281  1
  Ta  Ta136  1  0.90525522  0.10278814  0.71024714  1
  Ta  Ta137  1  0.30267120  0.89515205  0.10046203  1
  Ta  Ta138  1  0.01474657  0.60094270  0.60155347  1
  Ta  Ta139  1  0.90568645  0.51538669  0.29530141  1
  Ta  Ta140  1  0.09541307  0.69972988  0.29751899  1
  Ta  Ta141  1  0.10333363  0.28888906  0.09687938  1
  Ta  Ta142  1  0.70092339  0.70985658  0.90774493  1
  Ta  Ta143  1  0.50007430  0.50465334  0.29647523  1
  Ta  Ta144  1  0.40197390  0.39813056  0.59671512  1
  Ta  Ta145  1  0.00086866  0.80034643  0.39801396  1
  Ta  Ta146  1  0.40374202  0.60720473  0.39178976  1
  Ta  Ta147  1  0.19837436  0.39078946  -0.00233236  1
  Ta  Ta148  1  0.39750357  0.20076007  0.20225102  1
  Ta  Ta149  1  0.30144260  0.89953146  0.70846560  1
  Ti  Ti150  1  0.09655408  0.70332012  0.49709389  1
  Ti  Ti151  1  0.29433791  0.09494335  0.50126787  1
  Ti  Ti152  1  -0.00789722  -0.00335733  0.60364792  1
  Ti  Ti153  1  0.60458139  0.40419066  0.40344093  1
  Ti  Ti154  1  0.59293082  0.79937482  0.81653306  1
  Ti  Ti155  1  0.90102695  0.69845355  0.29847592  1
  Ti  Ti156  1  0.19991828  0.81108798  0.81233626  1
  Ti  Ti157  1  0.70428907  0.30199450  0.49639440  1
  Ti  Ti158  1  0.80971285  0.00227136  0.80430623  1
  Ti  Ti159  1  0.29465506  0.30518929  0.29614464  1
  Ti  Ti160  1  0.70064306  0.50488479  0.29539831  1
  Ti  Ti161  1  0.29353059  0.70933501  0.09666411  1
  Ti  Ti162  1  0.70808737  0.09825805  0.90342426  1
  Ti  Ti163  1  0.50465338  0.89805689  0.48669417  1
  Ti  Ti164  1  0.89979513  0.28593418  0.08971635  1
  Ti  Ti165  1  0.51761900  0.70169293  0.10638549  1
  Ti  Ti166  1  0.19335727  0.79807417  0.19990466  1
  Ti  Ti167  1  0.59014051  0.41798241  0.79774778  1
  Ti  Ti168  1  0.19346679  0.80049482  -0.00318457  1
  Ti  Ti169  1  0.59482958  0.20544795  0.19882308  1
  Ti  Ti170  1  0.78923334  0.79721682  0.20029301  1
  Ti  Ti171  1  0.10815461  0.49492158  0.70247669  1
  Ti  Ti172  1  0.30064071  0.10215975  0.28981387  1
  Ti  Ti173  1  0.29615246  0.09898398  0.90384328  1
  Ti  Ti174  1  0.29034228  0.31996389  0.49354639  1
  Ti  Ti175  1  0.78714396  0.59213748  0.59116106  1
  Ti  Ti176  1  0.49014858  0.30804521  0.89588746  1
  Ti  Ti177  1  0.29387541  0.49710228  0.09866582  1
  Ti  Ti178  1  0.29519588  0.10077046  0.10452186  1
  Ti  Ti179  1  0.09659214  0.28559188  0.91109570  1
  Ti  Ti180  1  0.69454048  0.89722874  0.30038064  1
  Ti  Ti181  1  0.00759279  0.80130018  0.20186002  1
  Ti  Ti182  1  0.79115377  0.60709565  0.20402647  1
  Ti  Ti183  1  0.19897024  0.39149866  0.80613526  1
  Ti  Ti184  1  0.70265506  0.89098948  0.09384727  1
  Ti  Ti185  1  0.60208307  0.20703568  -0.00197258  1
  Ti  Ti186  1  0.20141487  0.21271096  0.59158293  1
  Ti  Ti187  1  0.09881192  0.70160488  0.89793416  1
  Ti  Ti188  1  0.61251761  0.79250209  0.20007538  1
  Ti  Ti189  1  0.40915164  0.59578750  0.60164146  1
  Ti  Ti190  1  0.09557304  0.69749882  0.71335877  1
  Ti  Ti191  1  0.79467965  0.19690118  -0.00535362  1
  Ti  Ti192  1  0.00331703  0.60616018  0.39778287  1
  Ti  Ti193  1  0.41014104  0.80497069  0.60154362  1
  Ti  Ti194  1  0.00122347  0.60459042  0.19741702  1
  Ti  Ti195  1  0.40553811  0.79906667  0.39602830  1
  Ti  Ti196  1  0.19976699  0.61074454  0.39561775  1
  Ti  Ti197  1  0.50247003  0.89295596  0.70453093  1
  Ti  Ti198  1  0.69923083  0.30120539  0.70730049  1
  Ti  Ti199  1  0.29697314  0.30841925  0.70141942  1
  Mo  Mo200  1  0.30091551  0.89352325  0.90227004  1
  Mo  Mo201  1  0.79624275  -0.00015354  0.00530571  1
  Mo  Mo202  1  0.60108417  0.60359230  0.80450506  1
  Mo  Mo203  1  0.09438401  0.89832242  0.29860931  1
  Mo  Mo204  1  0.89051224  0.09644056  0.90075637  1
  Mo  Mo205  1  -0.00396256  0.19481263  0.00305331  1
  Mo  Mo206  1  0.29521660  0.30301400  0.90252245  1
  Mo  Mo207  1  0.19900116  0.19676867  0.00102595  1
  Mo  Mo208  1  0.80450091  0.80128722  0.00523075  1
  Mo  Mo209  1  0.49930772  0.49781525  0.69905312  1
  Mo  Mo210  1  0.89500405  0.89659099  0.10255012  1
  Mo  Mo211  1  0.50428099  0.90056063  0.90525251  1
  Mo  Mo212  1  0.00152869  0.19847446  0.80145259  1
  Mo  Mo213  1  0.10481863  0.29367590  0.50279669  1
  Mo  Mo214  1  0.59535792  -0.00673291  0.39205789  1
  Mo  Mo215  1  0.50110021  0.10729462  0.71097311  1
  Mo  Mo216  1  0.00200946  0.19132030  0.40061915  1
  Mo  Mo217  1  0.09710005  0.89658969  0.90346522  1
  Mo  Mo218  1  0.60177589  0.59848175  0.19983137  1
  Mo  Mo219  1  0.39463193  0.40293690  0.39549999  1
  Mo  Mo220  1  0.70346486  0.29892672  0.90875100  1
  Mo  Mo221  1  0.39597467  0.00348254  0.19538095  1
  Mo  Mo222  1  0.79793749  0.80441163  0.59208481  1
  Mo  Mo223  1  0.20438210  0.39021365  0.60504797  1
  Mo  Mo224  1  0.69990598  0.70440188  0.10427285  1
  Mo  Mo225  1  0.21872990  -0.00399615  0.81737738  1
  Mo  Mo226  1  0.49959972  0.49754372  0.90226251  1
  Mo  Mo227  1  0.10508089  0.29547274  0.29174556  1
  Mo  Mo228  1  0.70192801  0.70279632  0.49959420  1
  Mo  Mo229  1  0.19832844  0.39489334  0.39106483  1
  Mo  Mo230  1  -0.00450247  -0.00273097  0.00343576  1
  Mo  Mo231  1  0.00135154  0.19717703  0.59997949  1
  Mo  Mo232  1  -0.02064612  -0.00039358  0.80380769  1
  Mo  Mo233  1  0.59885136  0.79787734  0.39704931  1
  Mo  Mo234  1  0.60649601  0.79822051  0.00884425  1
  Mo  Mo235  1  0.39957114  0.39855231  0.80057185  1
  Mo  Mo236  1  0.70564042  0.49999638  0.49072565  1
  Mo  Mo237  1  0.10094206  0.70889980  0.10427918  1
  Mo  Mo238  1  0.79549845  0.19280465  0.80580757  1
  Mo  Mo239  1  0.51063174  0.70251395  0.89879261  1
  Mo  Mo240  1  0.90057640  0.29264493  0.30067800  1
  Mo  Mo241  1  0.70267824  0.70319581  0.29539897  1
  Mo  Mo242  1  0.20122938  0.19685773  0.20391784  1
  Mo  Mo243  1  0.00849204  0.59859512  0.79669913  1
  Mo  Mo244  1  0.60669128  -0.01296972  0.19357991  1
  Mo  Mo245  1  0.89340655  0.51022409  0.10888540  1
  Mo  Mo246  1  0.48884036  0.30771795  0.49842701  1
  Mo  Mo247  1  0.89768292  0.90857371  0.69575354  1
  Mo  Mo248  1  0.69401574  0.50024719  0.70081882  1
  Mo  Mo249  1  0.20140154  -0.00170240  0.58762045  1
