# generated using pymatgen
data_HfZrTaTiMo
_symmetry_space_group_name_H-M   'P 1'
_cell_length_a   16.88934551
_cell_length_b   16.87970293
_cell_length_c   16.88625718
_cell_angle_alpha   89.94933777
_cell_angle_beta   89.98306942
_cell_angle_gamma   89.98540355
_symmetry_Int_Tables_number   1
_chemical_formula_structural   HfZrTaTiMo
_chemical_formula_sum   'Hf50 Zr50 Ta50 Ti50 Mo50'
_cell_volume   4814.05242832
_cell_formula_units_Z   50
loop_
 _symmetry_equiv_pos_site_id
 _symmetry_equiv_pos_as_xyz
  1  'x, y, z'
loop_
 _atom_site_type_symbol
 _atom_site_label
 _atom_site_symmetry_multiplicity
 _atom_site_fract_x
 _atom_site_fract_y
 _atom_site_fract_z
 _atom_site_occupancy
  Hf  Hf0  1  0.11477517  0.89162427  0.49499522  1
  Hf  Hf1  1  0.51074339  0.69460333  0.10660176  1
  Hf  Hf2  1  0.71350473  0.11326547  0.09402703  1
  Hf  Hf3  1  0.29595525  0.70438409  0.90624438  1
  Hf  Hf4  1  0.59862996  0.60198569  0.39871028  1
  Hf  Hf5  1  0.40485536  0.80160318  0.40399726  1
  Hf  Hf6  1  0.60064240  0.80564347  -0.01059158  1
  Hf  Hf7  1  0.20801576  0.59254447  0.00499101  1
  Hf  Hf8  1  0.29759915  0.90026459  0.31021928  1
  Hf  Hf9  1  0.58612622  -0.00193200  0.81117381  1
  Hf  Hf10  1  0.08868075  0.50144919  0.10820550  1
  Hf  Hf11  1  0.60179725  0.59142893  -0.00310479  1
  Hf  Hf12  1  0.80277152  0.39387392  0.59982832  1
  Hf  Hf13  1  -0.00101818  0.79520320  0.79950017  1
  Hf  Hf14  1  0.30216376  0.30107005  0.89996449  1
  Hf  Hf15  1  0.00392003  -0.00645993  0.00310735  1
  Hf  Hf16  1  0.50657553  0.90096085  0.29735594  1
  Hf  Hf17  1  0.40846830  0.19375134  0.80010919  1
  Hf  Hf18  1  0.59680081  0.19399829  0.80361781  1
  Hf  Hf19  1  0.10728954  0.90001182  0.30273746  1
  Hf  Hf20  1  0.70107439  0.10859148  0.29643975  1
  Hf  Hf21  1  0.80227188  0.59848950  0.60315226  1
  Hf  Hf22  1  0.89873748  0.10932786  0.09390649  1
  Hf  Hf23  1  0.79476537  0.80058079  0.79968239  1
  Hf  Hf24  1  0.49981627  0.70105499  0.51507497  1
  Hf  Hf25  1  0.80106606  0.39549895  0.80294010  1
  Hf  Hf26  1  0.79798771  0.19323849  0.79837979  1
  Hf  Hf27  1  0.80226489  0.00214203  0.20084512  1
  Hf  Hf28  1  0.10085018  0.90114662  0.69892071  1
  Hf  Hf29  1  0.09888272  0.49469297  0.89589279  1
  Hf  Hf30  1  0.39677026  0.79928200  0.19779909  1
  Hf  Hf31  1  0.89882070  0.10279453  0.50022096  1
  Hf  Hf32  1  -0.00202541  0.39442108  0.79813167  1
  Hf  Hf33  1  0.70055314  0.88878636  0.11036766  1
  Hf  Hf34  1  0.39622165  0.00366721  0.19351147  1
  Hf  Hf35  1  0.20130850  0.80019390  0.19390708  1
  Hf  Hf36  1  0.00436917  0.20377507  0.40132351  1
  Hf  Hf37  1  0.59008718  0.20335707  0.40368981  1
  Hf  Hf38  1  0.40116058  0.59478926  0.79419237  1
  Hf  Hf39  1  0.50065722  0.69876232  0.89459764  1
  Hf  Hf40  1  0.90950088  0.49527651  0.49155810  1
  Hf  Hf41  1  0.59707933  0.19145438  0.60266332  1
  Hf  Hf42  1  -0.01118328  0.39272928  0.20239461  1
  Hf  Hf43  1  0.31077852  0.70469390  0.68832415  1
  Hf  Hf44  1  0.20045944  0.59693673  0.78821369  1
  Hf  Hf45  1  0.69223619  0.49663991  0.49700464  1
  Hf  Hf46  1  0.79882608  0.59298072  0.80181041  1
  Hf  Hf47  1  0.40213146  0.39788122  0.01752702  1
  Hf  Hf48  1  0.49364790  0.10911718  0.30110964  1
  Hf  Hf49  1  0.69230765  0.49669172  0.69850759  1
  Zr  Zr50  1  0.89064253  0.89205395  0.30611073  1
  Zr  Zr51  1  0.89412458  0.70811859  0.49624172  1
  Zr  Zr52  1  0.10400520  0.31172172  0.49798507  1
  Zr  Zr53  1  0.20179660  0.20881884  0.78938211  1
  Zr  Zr54  1  0.10008447  0.11122493  0.09862620  1
  Zr  Zr55  1  0.20349705  0.00225246  0.79488806  1
  Zr  Zr56  1  0.30297306  0.49113208  0.89113783  1
  Zr  Zr57  1  0.40077347  0.80764074  0.80034860  1
  Zr  Zr58  1  0.68786211  0.30996714  0.29313593  1
  Zr  Zr59  1  0.69223509  0.70764790  0.50928392  1
  Zr  Zr60  1  0.70416398  0.29984387  0.10979934  1
  Zr  Zr61  1  0.89375716  0.89562461  0.09857609  1
  Zr  Zr62  1  0.09590068  0.49192197  0.30881370  1
  Zr  Zr63  1  0.79491708  -0.00069520  0.60289197  1
  Zr  Zr64  1  0.79711197  0.19731343  0.60494312  1
  Zr  Zr65  1  0.20753970  0.01851081  0.40884775  1
  Zr  Zr66  1  0.59445328  0.01052799  0.19107696  1
  Zr  Zr67  1  0.59816087  0.39937295  0.00065233  1
  Zr  Zr68  1  0.70058097  0.50040451  0.11449605  1
  Zr  Zr69  1  0.20393691  0.39878051  0.01102904  1
  Zr  Zr70  1  0.88864366  0.09401405  0.90498233  1
  Zr  Zr71  1  -0.00177183  0.00240859  0.59628899  1
  Zr  Zr72  1  0.00275839  0.79670161  0.20391046  1
  Zr  Zr73  1  0.79783265  0.60902290  0.39365410  1
  Zr  Zr74  1  0.41442631  0.00243476  -0.00513169  1
  Zr  Zr75  1  0.09059934  0.10866671  0.69629176  1
  Zr  Zr76  1  0.49430531  0.89649405  0.69207792  1
  Zr  Zr77  1  0.10589245  0.89132134  0.89969729  1
  Zr  Zr78  1  0.11226188  0.30469170  0.30176268  1
  Zr  Zr79  1  0.90053695  0.69535473  0.90353733  1
  Zr  Zr80  1  0.00359232  0.00125761  0.40161757  1
  Zr  Zr81  1  -0.00376922  0.80284672  0.59831292  1
  Zr  Zr82  1  0.50401426  0.69772313  0.29444776  1
  Zr  Zr83  1  0.68398793  0.70443018  0.69916790  1
  Zr  Zr84  1  0.40165478  0.40364770  0.39985485  1
  Zr  Zr85  1  0.60196934  0.00445005  -0.00242309  1
  Zr  Zr86  1  0.79837265  0.20932787  0.40330121  1
  Zr  Zr87  1  0.19753095  -0.00143039  0.00420828  1
  Zr  Zr88  1  0.09760374  0.69518099  0.09517784  1
  Zr  Zr89  1  0.30001670  0.70446011  0.50077909  1
  Zr  Zr90  1  0.59194519  0.39173729  0.60162214  1
  Zr  Zr91  1  0.89137938  0.69095726  0.10893386  1
  Zr  Zr92  1  0.51028033  0.49609113  0.29054515  1
  Zr  Zr93  1  0.89301757  0.50461001  0.10425403  1
  Zr  Zr94  1  0.58615217  0.19775743  0.00026131  1
  Zr  Zr95  1  0.30184218  0.10283123  0.90092135  1
  Zr  Zr96  1  0.09748308  0.29753863  0.10037093  1
  Zr  Zr97  1  0.20784101  0.59432911  0.20654270  1
  Zr  Zr98  1  0.10908020  0.10883849  0.29532051  1
  Zr  Zr99  1  0.00978794  0.60286390  0.59694352  1
  Ta  Ta100  1  0.49727199  0.49411736  0.89742451  1
  Ta  Ta101  1  0.10477308  0.69825657  0.89896484  1
  Ta  Ta102  1  0.10181695  0.49222588  0.69455765  1
  Ta  Ta103  1  0.70216479  0.49536789  0.29527890  1
  Ta  Ta104  1  0.60369475  0.80640569  0.40352781  1
  Ta  Ta105  1  0.00346192  0.79962410  0.00082508  1
  Ta  Ta106  1  0.30738835  0.90076177  0.50972226  1
  Ta  Ta107  1  0.00828208  0.60538993  0.40048826  1
  Ta  Ta108  1  0.39416096  0.59154861  0.40051147  1
  Ta  Ta109  1  0.20594071  0.00626120  0.59734734  1
  Ta  Ta110  1  0.30294091  0.89783883  0.90058964  1
  Ta  Ta111  1  0.30635425  0.30073200  0.50356296  1
  Ta  Ta112  1  0.40246620  0.21150880  0.19614035  1
  Ta  Ta113  1  0.59710032  0.39513819  0.80515508  1
  Ta  Ta114  1  0.49055360  0.29819078  0.49744142  1
  Ta  Ta115  1  0.40311623  0.59067564  0.00799549  1
  Ta  Ta116  1  0.79477550  0.79622885  -0.00393127  1
  Ta  Ta117  1  0.31053035  0.09592350  0.69165720  1
  Ta  Ta118  1  0.20498615  0.00092879  0.19276008  1
  Ta  Ta119  1  0.89742527  0.50383155  0.29837779  1
  Ta  Ta120  1  0.30025945  0.69633279  0.30542263  1
  Ta  Ta121  1  0.89727714  0.10033983  0.30061414  1
  Ta  Ta122  1  0.00453338  0.79105058  0.40060240  1
  Ta  Ta123  1  0.90779255  0.29150133  0.69382279  1
  Ta  Ta124  1  0.79888302  0.40039034  0.39780342  1
  Ta  Ta125  1  0.89355021  0.90204138  0.90103547  1
  Ta  Ta126  1  0.69891633  0.09473819  0.49304869  1
  Ta  Ta127  1  0.09181534  0.11471335  0.90306928  1
  Ta  Ta128  1  0.09564910  0.29524287  0.90197819  1
  Ta  Ta129  1  -0.00932336  0.39572865  -0.00294078  1
  Ta  Ta130  1  0.50480871  0.70081140  0.69265120  1
  Ta  Ta131  1  0.70171996  0.69839006  0.10702940  1
  Ta  Ta132  1  0.00548654  0.00056303  0.19798805  1
  Ta  Ta133  1  0.59810993  -0.00091384  0.40530476  1
  Ta  Ta134  1  0.30476837  0.10917112  0.09821381  1
  Ta  Ta135  1  0.70114075  0.89831105  0.30436572  1
  Ta  Ta136  1  0.59847916  0.00222789  0.59180274  1
  Ta  Ta137  1  0.69704847  0.29788193  0.70439009  1
  Ta  Ta138  1  0.79871692  0.40197903  -0.00917964  1
  Ta  Ta139  1  0.89301940  0.90818252  0.71146567  1
  Ta  Ta140  1  0.30509121  0.29945676  0.30533698  1
  Ta  Ta141  1  0.00347258  0.59831920  0.79261971  1
  Ta  Ta142  1  0.20294088  0.19806811  0.59342909  1
  Ta  Ta143  1  0.59619529  0.59109896  0.80163908  1
  Ta  Ta144  1  0.20105499  0.59478775  0.40876810  1
  Ta  Ta145  1  0.79487910  0.81317152  0.60194454  1
  Ta  Ta146  1  0.40607881  0.00712947  0.40929867  1
  Ta  Ta147  1  0.29870752  0.89592681  0.08928961  1
  Ta  Ta148  1  -0.00964101  0.20274329  0.20460392  1
  Ta  Ta149  1  0.19945719  0.59136365  0.59377647  1
  Ti  Ti150  1  0.40045644  0.39926383  0.19935887  1
  Ti  Ti151  1  0.30607039  0.10886726  0.29943871  1
  Ti  Ti152  1  0.40575068  0.39601720  0.79112084  1
  Ti  Ti153  1  0.90210209  0.49913040  0.90034206  1
  Ti  Ti154  1  0.00455619  0.40082023  0.59792220  1
  Ti  Ti155  1  0.30288989  0.48778147  0.69104844  1
  Ti  Ti156  1  0.21882229  0.40406200  0.19947938  1
  Ti  Ti157  1  0.20480327  0.40401232  0.59498487  1
  Ti  Ti158  1  0.50134819  0.49496680  0.50304104  1
  Ti  Ti159  1  0.31343636  0.10629425  0.50401063  1
  Ti  Ti160  1  0.88816692  0.29573497  0.09573581  1
  Ti  Ti161  1  0.89630510  0.70322227  0.69905501  1
  Ti  Ti162  1  0.49963384  0.49712209  0.69696046  1
  Ti  Ti163  1  0.40418860  0.80083247  0.00053850  1
  Ti  Ti164  1  0.39475958  0.58955826  0.19756253  1
  Ti  Ti165  1  -0.00594750  0.00514328  0.80121374  1
  Ti  Ti166  1  0.69749478  0.08772270  0.70806001  1
  Ti  Ti167  1  0.68925101  0.89985458  0.70309930  1
  Ti  Ti168  1  0.21594396  0.41388052  0.40604670  1
  Ti  Ti169  1  0.19741046  0.39330265  0.78846308  1
  Ti  Ti170  1  0.88632477  0.89974230  0.49001819  1
  Ti  Ti171  1  0.20568514  0.79979528  0.79327033  1
  Ti  Ti172  1  0.50271768  0.89152491  0.10217696  1
  Ti  Ti173  1  0.90731688  0.30329557  0.50157715  1
  Ti  Ti174  1  0.70306005  0.71096816  0.28995262  1
  Ti  Ti175  1  0.30487791  0.70019699  0.09702302  1
  Ti  Ti176  1  0.49172154  0.30155976  0.90287039  1
  Ti  Ti177  1  0.00115680  0.59722472  -0.00871632  1
  Ti  Ti178  1  0.30817657  0.30097165  0.68818278  1
  Ti  Ti179  1  0.40551578  0.19709627  0.59631153  1
  Ti  Ti180  1  0.39761945  0.58340008  0.59475785  1
  Ti  Ti181  1  0.10736100  0.69879533  0.30676318  1
  Ti  Ti182  1  0.70780699  0.90841790  0.89707524  1
  Ti  Ti183  1  0.69206070  0.30341380  0.49798667  1
  Ti  Ti184  1  0.49946199  0.90176405  0.50550498  1
  Ti  Ti185  1  0.49546044  0.29940548  0.69708435  1
  Ti  Ti186  1  0.90047504  0.29136910  0.90545137  1
  Ti  Ti187  1  0.21310802  0.20571926  0.19727690  1
  Ti  Ti188  1  0.20346425  0.80089250  0.60203215  1
  Ti  Ti189  1  0.89234008  0.30289561  0.30174454  1
  Ti  Ti190  1  0.78915858  0.59450765  -0.00928964  1
  Ti  Ti191  1  0.20922567  0.20188605  0.40918074  1
  Ti  Ti192  1  0.20553517  0.20563309  0.00304457  1
  Ti  Ti193  1  0.10560282  0.70031647  0.69696692  1
  Ti  Ti194  1  0.09480401  0.29924519  0.69104237  1
  Ti  Ti195  1  0.69481071  0.69854431  0.89493803  1
  Ti  Ti196  1  -0.00630526  0.19948329  0.79854720  1
  Ti  Ti197  1  0.49085140  0.08615586  0.69420724  1
  Ti  Ti198  1  0.90636283  0.49579521  0.69779454  1
  Ti  Ti199  1  0.70252140  0.29327354  0.90311741  1
  Mo  Mo200  1  0.58618483  0.58832812  0.60506273  1
  Mo  Mo201  1  0.79947575  0.60414216  0.21130797  1
  Mo  Mo202  1  0.79142545  0.00129364  0.39816500  1
  Mo  Mo203  1  0.30057262  0.29818740  0.10869306  1
  Mo  Mo204  1  0.58925367  0.39893929  0.19670883  1
  Mo  Mo205  1  0.79631954  -0.00922109  -0.00246142  1
  Mo  Mo206  1  0.59877015  0.39757244  0.40345243  1
  Mo  Mo207  1  -0.01176217  0.39766092  0.39795949  1
  Mo  Mo208  1  0.79001425  -0.00151753  0.79916077  1
  Mo  Mo209  1  0.60045152  0.81587196  0.59630720  1
  Mo  Mo210  1  0.60994104  0.60205871  0.20196831  1
  Mo  Mo211  1  0.69728676  0.90362697  0.49595366  1
  Mo  Mo212  1  0.49882449  0.50237906  0.10351761  1
  Mo  Mo213  1  0.20388020  0.79666971  0.00038962  1
  Mo  Mo214  1  0.81593857  0.20484735  0.20513358  1
  Mo  Mo215  1  0.30378317  0.49845056  0.30262162  1
  Mo  Mo216  1  0.49651772  0.89521438  0.89878977  1
  Mo  Mo217  1  0.39925467  0.00378565  0.59444271  1
  Mo  Mo218  1  0.60187342  0.80095953  0.80037620  1
  Mo  Mo219  1  0.79353757  0.80405695  0.40021476  1
  Mo  Mo220  1  0.20181644  0.78917560  0.39920987  1
  Mo  Mo221  1  0.58222206  0.20635953  0.19852325  1
  Mo  Mo222  1  0.79797173  0.21164798  -0.00828904  1
  Mo  Mo223  1  0.50030324  0.30450636  0.10929584  1
  Mo  Mo224  1  0.40010606  0.80741195  0.59919888  1
  Mo  Mo225  1  0.30705301  0.49951431  0.10966355  1
  Mo  Mo226  1  0.49592138  0.10315685  0.89822797  1
  Mo  Mo227  1  0.10789654  0.10985924  0.50392184  1
  Mo  Mo228  1  0.80667433  0.40079834  0.20563292  1
  Mo  Mo229  1  0.69920531  0.09668846  0.90113301  1
  Mo  Mo230  1  0.39348449  0.20178847  0.39970872  1
  Mo  Mo231  1  0.60312515  0.79940636  0.20432222  1
  Mo  Mo232  1  0.10762047  0.70031148  0.49769139  1
  Mo  Mo233  1  0.39725207  0.00069509  0.79691265  1
  Mo  Mo234  1  0.39921240  0.39623583  0.60339033  1
  Mo  Mo235  1  0.29577843  0.90417338  0.69502949  1
  Mo  Mo236  1  0.10448531  0.89957657  0.10450756  1
  Mo  Mo237  1  0.90313868  0.69652148  0.30206026  1
  Mo  Mo238  1  0.49923073  0.09993267  0.50112559  1
  Mo  Mo239  1  0.00215060  0.20760870  0.59796568  1
  Mo  Mo240  1  0.39894682  0.20449859  0.00505231  1
  Mo  Mo241  1  0.90025088  0.09842901  0.70457980  1
  Mo  Mo242  1  0.10378766  0.49910224  0.50140312  1
  Mo  Mo243  1  0.30116970  0.49916292  0.50422860  1
  Mo  Mo244  1  0.49149021  0.11368575  0.10129638  1
  Mo  Mo245  1  -0.00488698  0.20831655  -0.00355414  1
  Mo  Mo246  1  0.69906072  0.49538502  0.89574173  1
  Mo  Mo247  1  0.49560825  0.30131979  0.29879468  1
  Mo  Mo248  1  -0.00208291  0.60255337  0.22024430  1
  Mo  Mo249  1  0.79714559  0.79527724  0.20297462  1
