# generated using pymatgen
data_HfZrTaTiMo
_symmetry_space_group_name_H-M   'P 1'
_cell_length_a   16.89249781
_cell_length_b   16.88761783
_cell_length_c   16.89174439
_cell_angle_alpha   90.00014066
_cell_angle_beta   90.02581283
_cell_angle_gamma   90.01921291
_symmetry_Int_Tables_number   1
_chemical_formula_structural   HfZrTaTiMo
_chemical_formula_sum   'Hf50 Zr50 Ta50 Ti50 Mo50'
_cell_volume   4818.77552605
_cell_formula_units_Z   50
loop_
 _symmetry_equiv_pos_site_id
 _symmetry_equiv_pos_as_xyz
  1  'x, y, z'
loop_
 _atom_site_type_symbol
 _atom_site_label
 _atom_site_symmetry_multiplicity
 _atom_site_fract_x
 _atom_site_fract_y
 _atom_site_fract_z
 _atom_site_occupancy
  Hf  Hf0  1  0.50392532  0.49014246  0.69919644  1
  Hf  Hf1  1  0.70278804  0.90586453  0.91419667  1
  Hf  Hf2  1  0.19202773  0.59440555  0.79841908  1
  Hf  Hf3  1  0.19630754  0.19769957  0.80429128  1
  Hf  Hf4  1  0.00089081  0.01071672  0.40407064  1
  Hf  Hf5  1  0.19630442  -0.00433635  0.00489239  1
  Hf  Hf6  1  0.60080784  0.59306064  0.59242567  1
  Hf  Hf7  1  0.28863067  0.29458443  0.10808202  1
  Hf  Hf8  1  0.79838870  0.39302062  0.39942122  1
  Hf  Hf9  1  0.10013961  0.70552153  0.30047842  1
  Hf  Hf10  1  0.79311893  0.60101080  0.39331897  1
  Hf  Hf11  1  0.49265183  0.48662359  0.48974630  1
  Hf  Hf12  1  0.80101752  0.38859188  0.00573814  1
  Hf  Hf13  1  0.50776041  0.50098669  0.10452151  1
  Hf  Hf14  1  0.51064569  0.29579377  0.10419812  1
  Hf  Hf15  1  0.18520588  0.19391654  0.40108252  1
  Hf  Hf16  1  0.09502807  0.29553725  0.69694428  1
  Hf  Hf17  1  0.09476045  0.09349595  0.69429181  1
  Hf  Hf18  1  0.40612454  0.39112648  0.00149357  1
  Hf  Hf19  1  0.69960814  0.29929030  0.71013766  1
  Hf  Hf20  1  0.10331943  0.49293269  0.28976171  1
  Hf  Hf21  1  0.30959108  0.50030944  0.89992433  1
  Hf  Hf22  1  0.89397499  0.29336552  0.70345379  1
  Hf  Hf23  1  0.50527308  0.70405774  0.49371793  1
  Hf  Hf24  1  0.30680201  0.89805046  0.48824892  1
  Hf  Hf25  1  0.30794411  0.29702498  0.70239452  1
  Hf  Hf26  1  0.29769348  0.70357323  0.29739564  1
  Hf  Hf27  1  0.30221918  0.70359783  0.70171362  1
  Hf  Hf28  1  0.39704745  0.80245308  0.00438701  1
  Hf  Hf29  1  0.79784837  -0.00297090  0.39873403  1
  Hf  Hf30  1  0.50338455  0.30157014  0.70883774  1
  Hf  Hf31  1  0.69125319  0.70159626  0.10480346  1
  Hf  Hf32  1  0.00407457  0.59613718  0.40513340  1
  Hf  Hf33  1  0.59077458  0.80729012  0.00174742  1
  Hf  Hf34  1  0.40296266  0.80360429  0.19050211  1
  Hf  Hf35  1  0.19287900  0.40086136  0.80033884  1
  Hf  Hf36  1  0.29748007  0.10417041  0.29412000  1
  Hf  Hf37  1  0.40953437  -0.00414874  0.61378841  1
  Hf  Hf38  1  0.89729099  0.70023529  0.50483737  1
  Hf  Hf39  1  0.19994754  0.39585272  -0.00169336  1
  Hf  Hf40  1  0.89982946  0.48614998  0.28873486  1
  Hf  Hf41  1  0.29166285  0.30203631  0.29990193  1
  Hf  Hf42  1  0.09570194  0.30165151  0.10595012  1
  Hf  Hf43  1  0.79270019  0.39589373  0.59345455  1
  Hf  Hf44  1  0.00472541  0.60410282  0.80598284  1
  Hf  Hf45  1  0.30366383  0.70304082  0.49333546  1
  Hf  Hf46  1  0.30137569  0.49637049  0.30356382  1
  Hf  Hf47  1  0.50834720  0.10028016  0.29834734  1
  Hf  Hf48  1  0.70654743  0.70340074  0.91212726  1
  Hf  Hf49  1  0.59613326  0.00004922  0.80453551  1
  Zr  Zr50  1  0.79166538  0.59655873  0.20274631  1
  Zr  Zr51  1  0.09762385  0.89747563  0.29604513  1
  Zr  Zr52  1  0.69878330  0.29397216  0.10666114  1
  Zr  Zr53  1  0.89303746  0.09941293  0.29189813  1
  Zr  Zr54  1  0.09934990  0.71215984  0.70260090  1
  Zr  Zr55  1  0.90157287  0.70028915  0.69531042  1
  Zr  Zr56  1  0.60373834  0.59709844  0.80059990  1
  Zr  Zr57  1  0.19911355  0.59690723  0.59557523  1
  Zr  Zr58  1  0.39547080  -0.00572723  0.19105512  1
  Zr  Zr59  1  0.01294196  0.81600916  -0.00803516  1
  Zr  Zr60  1  0.20491049  0.00407983  0.59640942  1
  Zr  Zr61  1  0.31348670  0.49257852  0.69530587  1
  Zr  Zr62  1  0.70547930  0.69481485  0.68425252  1
  Zr  Zr63  1  0.89947389  0.91743508  0.09614540  1
  Zr  Zr64  1  0.90598967  0.70949128  0.30395534  1
  Zr  Zr65  1  0.09704326  0.29575044  0.50463599  1
  Zr  Zr66  1  0.40766867  0.19585803  0.60015435  1
  Zr  Zr67  1  0.60600260  0.00423901  0.61297374  1
  Zr  Zr68  1  0.80783347  0.59551743  0.01097471  1
  Zr  Zr69  1  0.39815056  0.19539629  0.19316189  1
  Zr  Zr70  1  0.41326601  0.81911564  0.80055186  1
  Zr  Zr71  1  0.51980935  0.10106152  0.09877990  1
  Zr  Zr72  1  0.19541579  0.00561052  0.39722520  1
  Zr  Zr73  1  0.90267131  0.49277236  0.90846047  1
  Zr  Zr74  1  0.09252601  0.90133224  0.50366820  1
  Zr  Zr75  1  -0.00075365  0.40837168  0.60053383  1
  Zr  Zr76  1  0.50753908  0.90313480  0.49182786  1
  Zr  Zr77  1  0.49501553  0.30201046  0.31127923  1
  Zr  Zr78  1  -0.00145204  -0.00519538  0.80706739  1
  Zr  Zr79  1  0.60261220  0.19717959  0.59978033  1
  Zr  Zr80  1  0.09622088  0.70180053  0.09547358  1
  Zr  Zr81  1  0.20229016  0.60882110  0.00152601  1
  Zr  Zr82  1  0.60778413  0.59628785  0.38453763  1
  Zr  Zr83  1  0.89254882  0.09104304  0.91289163  1
  Zr  Zr84  1  0.89228950  0.50152570  0.69928319  1
  Zr  Zr85  1  0.60157017  0.80812444  0.79474383  1
  Zr  Zr86  1  0.78852069  0.00780483  0.79059420  1
  Zr  Zr87  1  0.30105960  0.70532471  0.89079565  1
  Zr  Zr88  1  0.39922856  -0.00447952  0.00103289  1
  Zr  Zr89  1  -0.00599553  0.19618986  0.80681424  1
  Zr  Zr90  1  0.79790896  0.59661937  0.80559850  1
  Zr  Zr91  1  0.31116615  0.30684678  0.49353098  1
  Zr  Zr92  1  0.31913779  0.10120965  0.48778528  1
  Zr  Zr93  1  0.40388061  0.80631451  0.60575119  1
  Zr  Zr94  1  0.29996551  0.49682030  0.10825388  1
  Zr  Zr95  1  0.79861610  0.80814536  0.79331953  1
  Zr  Zr96  1  0.79144510  0.80910178  0.20221408  1
  Zr  Zr97  1  0.08554504  0.49815441  0.92135010  1
  Zr  Zr98  1  -0.00735660  0.60195097  0.18768735  1
  Zr  Zr99  1  -0.00511067  0.39234212  0.39895680  1
  Ta  Ta100  1  0.69468484  0.49155820  0.10357450  1
  Ta  Ta101  1  0.50481976  0.49831991  0.90382054  1
  Ta  Ta102  1  0.50745364  0.09722317  0.48475331  1
  Ta  Ta103  1  0.60911995  0.20522310  0.40343879  1
  Ta  Ta104  1  0.69929540  0.10705601  0.29600947  1
  Ta  Ta105  1  0.70245306  0.09892919  0.49464096  1
  Ta  Ta106  1  0.40364500  0.60297944  0.39370513  1
  Ta  Ta107  1  0.90617250  0.90386964  0.30013303  1
  Ta  Ta108  1  0.89893618  0.10260914  0.50872144  1
  Ta  Ta109  1  0.90592084  0.71157585  0.90517485  1
  Ta  Ta110  1  -0.00467908  0.19918720  0.39629701  1
  Ta  Ta111  1  0.79854385  0.81153737  0.59327777  1
  Ta  Ta112  1  0.40523998  0.60674115  0.00471716  1
  Ta  Ta113  1  -0.00235902  0.80600475  0.59927619  1
  Ta  Ta114  1  -0.00102517  0.81040734  0.19264262  1
  Ta  Ta115  1  0.30144206  0.09850272  0.89674225  1
  Ta  Ta116  1  0.70992611  0.29424623  0.29523754  1
  Ta  Ta117  1  0.90394749  0.90349654  0.69481885  1
  Ta  Ta118  1  0.39752023  0.19506410  -0.00005438  1
  Ta  Ta119  1  0.40991600  0.39196739  0.81306534  1
  Ta  Ta120  1  0.29565497  0.89620501  0.29539687  1
  Ta  Ta121  1  0.50138543  0.69493310  0.89995709  1
  Ta  Ta122  1  0.69368340  0.49155191  0.90815717  1
  Ta  Ta123  1  0.89713987  0.28566358  0.50601387  1
  Ta  Ta124  1  0.89340636  0.90091728  0.90678706  1
  Ta  Ta125  1  0.69883375  0.90184075  0.49805360  1
  Ta  Ta126  1  0.30351550  0.29064938  0.89995469  1
  Ta  Ta127  1  0.20209756  0.80756512  -0.00353474  1
  Ta  Ta128  1  0.20141856  0.40160883  0.60091265  1
  Ta  Ta129  1  0.40487260  0.59922039  0.59415823  1
  Ta  Ta130  1  0.29290756  0.90735159  0.89105795  1
  Ta  Ta131  1  0.60870389  0.80289947  0.38488132  1
  Ta  Ta132  1  0.09949709  0.09642437  0.90943123  1
  Ta  Ta133  1  0.30364295  0.09802904  0.71366573  1
  Ta  Ta134  1  0.49718869  0.10092301  0.90157646  1
  Ta  Ta135  1  0.20034806  0.80707517  0.60153198  1
  Ta  Ta136  1  0.79509644  0.80542573  0.39862558  1
  Ta  Ta137  1  0.79680889  0.19781222  0.00047797  1
  Ta  Ta138  1  0.20253546  0.19444654  0.59824228  1
  Ta  Ta139  1  0.50083302  0.69644248  0.69780241  1
  Ta  Ta140  1  0.50671270  0.69707979  0.28765692  1
  Ta  Ta141  1  0.20183257  0.60299030  0.19561758  1
  Ta  Ta142  1  0.79749078  0.00106669  0.59963640  1
  Ta  Ta143  1  0.60671569  0.19653899  0.81156227  1
  Ta  Ta144  1  0.19962905  0.00079044  0.18966583  1
  Ta  Ta145  1  0.09895904  0.90044841  0.70480281  1
  Ta  Ta146  1  0.60643877  0.40284532  0.21483667  1
  Ta  Ta147  1  0.60457012  0.39080816  0.58721297  1
  Ta  Ta148  1  -0.00777366  0.19833810  0.00790719  1
  Ta  Ta149  1  -0.00752255  0.20418468  0.20271436  1
  Ti  Ti150  1  0.41399666  0.80342967  0.38171947  1
  Ti  Ti151  1  0.09351974  0.29508825  0.90883505  1
  Ti  Ti152  1  0.10532523  0.49742043  0.50039792  1
  Ti  Ti153  1  0.60783178  -0.00586657  0.38915494  1
  Ti  Ti154  1  0.79135845  0.19339216  0.60237849  1
  Ti  Ti155  1  0.61199039  -0.00980729  0.20371316  1
  Ti  Ti156  1  0.78121677  0.00887014  0.01395868  1
  Ti  Ti157  1  0.40840882  -0.00805984  0.38305079  1
  Ti  Ti158  1  0.90230350  0.90090203  0.49885135  1
  Ti  Ti159  1  0.19584455  0.80165285  0.40363611  1
  Ti  Ti160  1  0.80116402  0.20148471  0.40067472  1
  Ti  Ti161  1  0.30694946  0.49571938  0.49581031  1
  Ti  Ti162  1  0.51294566  0.91022286  0.09956848  1
  Ti  Ti163  1  0.89990562  0.10040043  0.10495188  1
  Ti  Ti164  1  0.70060809  0.49824164  0.49693629  1
  Ti  Ti165  1  0.09634161  0.70796405  0.49888696  1
  Ti  Ti166  1  0.28883659  0.90797318  0.71273615  1
  Ti  Ti167  1  0.40378937  0.39794398  0.20179105  1
  Ti  Ti168  1  0.69662041  0.10601189  0.10938795  1
  Ti  Ti169  1  0.50632824  0.69345443  0.10409531  1
  Ti  Ti170  1  0.59878345  0.59779613  0.00033023  1
  Ti  Ti171  1  0.00305029  0.40021497  0.80180580  1
  Ti  Ti172  1  0.69696089  0.49040916  0.70183343  1
  Ti  Ti173  1  0.79106655  0.39556161  0.81221202  1
  Ti  Ti174  1  0.00911952  0.59720769  0.60045852  1
  Ti  Ti175  1  0.60103368  0.81064642  0.20525388  1
  Ti  Ti176  1  0.49544643  0.30106387  0.49464484  1
  Ti  Ti177  1  0.09198181  0.49258442  0.10204643  1
  Ti  Ti178  1  0.91317583  0.47807090  0.09946210  1
  Ti  Ti179  1  0.89714325  0.71594066  0.08917286  1
  Ti  Ti180  1  0.70072855  0.70648196  0.49676517  1
  Ti  Ti181  1  0.89659749  0.10258161  0.69503649  1
  Ti  Ti182  1  0.19943208  0.19218062  0.00371208  1
  Ti  Ti183  1  0.19918381  0.60013865  0.40107428  1
  Ti  Ti184  1  0.49264623  0.10556933  0.71859125  1
  Ti  Ti185  1  0.20353989  0.80419066  0.18268117  1
  Ti  Ti186  1  0.60704355  0.19800689  -0.01062527  1
  Ti  Ti187  1  0.60269079  0.80710011  0.60291885  1
  Ti  Ti188  1  0.09463159  0.10128958  0.28393703  1
  Ti  Ti189  1  0.78898099  -0.00146542  0.20065213  1
  Ti  Ti190  1  0.61135178  0.39415084  0.39959846  1
  Ti  Ti191  1  0.89241840  0.50726198  0.50415794  1
  Ti  Ti192  1  0.40890955  0.59873753  0.79931336  1
  Ti  Ti193  1  0.09177613  0.09940275  0.10315207  1
  Ti  Ti194  1  0.49788141  0.50090936  0.29730886  1
  Ti  Ti195  1  0.39855187  0.60598327  0.19725654  1
  Ti  Ti196  1  0.09915169  0.30233563  0.29112869  1
  Ti  Ti197  1  0.19701110  0.40044343  0.40404384  1
  Ti  Ti198  1  0.59978553  0.38827342  -0.00971507  1
  Ti  Ti199  1  0.89553219  0.29499799  0.89979026  1
  Mo  Mo200  1  -0.00671249  0.80180129  0.40351392  1
  Mo  Mo201  1  -0.00546274  0.37466954  0.00193581  1
  Mo  Mo202  1  0.28628640  0.10423810  0.09461927  1
  Mo  Mo203  1  0.70183331  0.29704867  0.90169495  1
  Mo  Mo204  1  0.50227459  0.29271117  0.90490086  1
  Mo  Mo205  1  0.70207212  0.90695984  0.30098796  1
  Mo  Mo206  1  0.41158933  0.19724675  0.39800556  1
  Mo  Mo207  1  0.09805889  0.49482134  0.69513376  1
  Mo  Mo208  1  0.70555328  0.10877472  0.70268183  1
  Mo  Mo209  1  0.09988909  0.90380241  0.10327560  1
  Mo  Mo210  1  0.09880373  0.71137110  0.89581840  1
  Mo  Mo211  1  0.69671853  0.10216740  0.90738973  1
  Mo  Mo212  1  0.00450353  0.00561256  0.19704598  1
  Mo  Mo213  1  0.10539781  0.90444980  0.89308860  1
  Mo  Mo214  1  0.79974336  0.39515275  0.19762557  1
  Mo  Mo215  1  -0.01163145  -0.00113073  0.60161555  1
  Mo  Mo216  1  0.60189866  0.39768247  0.81101332  1
  Mo  Mo217  1  0.79577049  0.19738419  0.80600886  1
  Mo  Mo218  1  -0.00484121  0.61746968  0.00014522  1
  Mo  Mo219  1  -0.00287957  0.80670109  0.80054721  1
  Mo  Mo220  1  0.29194971  0.89722487  0.09809912  1
  Mo  Mo221  1  0.18682587  0.19402450  0.20191351  1
  Mo  Mo222  1  0.69575574  0.70775666  0.29711214  1
  Mo  Mo223  1  0.89797800  0.29261563  0.30099352  1
  Mo  Mo224  1  0.39564355  0.40581015  0.39573942  1
  Mo  Mo225  1  0.78728881  0.59413260  0.58764000  1
  Mo  Mo226  1  0.80238377  0.80572858  0.00386233  1
  Mo  Mo227  1  -0.00622082  0.19404392  0.59928620  1
  Mo  Mo228  1  0.00648775  0.00745611  0.00428956  1
  Mo  Mo229  1  -0.00289454  0.39164101  0.19738016  1
  Mo  Mo230  1  0.19324509  0.80927579  0.80207169  1
  Mo  Mo231  1  0.70399302  0.29198691  0.49587155  1
  Mo  Mo232  1  0.89770562  0.29092014  0.10629499  1
  Mo  Mo233  1  0.19490248  0.40366497  0.19996394  1
  Mo  Mo234  1  0.49860278  0.90738344  0.90521071  1
  Mo  Mo235  1  0.50835731  0.90172978  0.70122443  1
  Mo  Mo236  1  0.60215964  0.00607770  0.00241880  1
  Mo  Mo237  1  0.08529462  0.10608980  0.50893780  1
  Mo  Mo238  1  0.59656883  0.59334332  0.19745086  1
  Mo  Mo239  1  0.80218322  0.19656837  0.19511353  1
  Mo  Mo240  1  0.39966913  0.00448386  0.80315504  1
  Mo  Mo241  1  0.70300088  0.48756910  0.29657012  1
  Mo  Mo242  1  0.50497439  0.89803887  0.29351868  1
  Mo  Mo243  1  0.60675175  0.20395481  0.21248664  1
  Mo  Mo244  1  0.30060603  0.70064198  0.10189419  1
  Mo  Mo245  1  0.40436051  0.40032908  0.59771438  1
  Mo  Mo246  1  0.19753565  0.00376718  0.80312391  1
  Mo  Mo247  1  0.40435747  0.19902071  0.80921976  1
  Mo  Mo248  1  0.70350170  0.90187756  0.68878717  1
  Mo  Mo249  1  0.69486425  0.90658001  0.10355147  1
