# generated using pymatgen
data_HfZrTaTiMo
_symmetry_space_group_name_H-M   'P 1'
_cell_length_a   16.88682147
_cell_length_b   16.88616884
_cell_length_c   16.88661223
_cell_angle_alpha   89.98811821
_cell_angle_beta   90.02971261
_cell_angle_gamma   90.06370771
_symmetry_Int_Tables_number   1
_chemical_formula_structural   HfZrTaTiMo
_chemical_formula_sum   'Hf50 Zr50 Ta50 Ti50 Mo50'
_cell_volume   4815.27654354
_cell_formula_units_Z   50
loop_
 _symmetry_equiv_pos_site_id
 _symmetry_equiv_pos_as_xyz
  1  'x, y, z'
loop_
 _atom_site_type_symbol
 _atom_site_label
 _atom_site_symmetry_multiplicity
 _atom_site_fract_x
 _atom_site_fract_y
 _atom_site_fract_z
 _atom_site_occupancy
  Hf  Hf0  1  0.69920397  0.90415907  0.50196296  1
  Hf  Hf1  1  0.08732319  0.30148269  0.69002406  1
  Hf  Hf2  1  0.70717960  0.69693778  0.89675513  1
  Hf  Hf3  1  0.09408434  0.29734150  0.89912761  1
  Hf  Hf4  1  0.69864866  0.09855042  0.50844020  1
  Hf  Hf5  1  0.09189107  0.69598511  0.50254039  1
  Hf  Hf6  1  0.50185631  0.10630593  0.69538557  1
  Hf  Hf7  1  0.21109796  0.79058940  -0.00066887  1
  Hf  Hf8  1  0.80227172  0.39381115  -0.00007932  1
  Hf  Hf9  1  0.59418985  -0.00002917  0.20431031  1
  Hf  Hf10  1  0.90600050  0.10639799  0.31084431  1
  Hf  Hf11  1  0.29937394  0.69331361  0.30265313  1
  Hf  Hf12  1  0.50750980  0.69975829  0.69686919  1
  Hf  Hf13  1  0.19695203  0.59933656  0.00447250  1
  Hf  Hf14  1  0.89417707  0.68621595  0.89945685  1
  Hf  Hf15  1  0.29536612  0.49590385  0.90393900  1
  Hf  Hf16  1  0.80352223  0.20266905  -0.00581972  1
  Hf  Hf17  1  0.41801228  0.80180515  0.40718990  1
  Hf  Hf18  1  0.29991940  0.49430931  0.29662420  1
  Hf  Hf19  1  0.30283571  0.90913929  0.49643739  1
  Hf  Hf20  1  0.40477132  0.60625024  0.19775665  1
  Hf  Hf21  1  0.39716430  0.80141560  0.00517125  1
  Hf  Hf22  1  0.00253697  0.00509350  0.20439100  1
  Hf  Hf23  1  0.90441592  0.49919607  0.50847726  1
  Hf  Hf24  1  0.70111483  0.10507170  0.10446128  1
  Hf  Hf25  1  0.59323078  0.39842103  0.22123429  1
  Hf  Hf26  1  0.29399969  0.49672840  0.11134930  1
  Hf  Hf27  1  0.19007768  0.21106862  0.38962824  1
  Hf  Hf28  1  0.70808163  0.49674749  0.69648409  1
  Hf  Hf29  1  0.00489772  -0.00469854  0.40398731  1
  Hf  Hf30  1  0.50321668  0.49441389  0.09761005  1
  Hf  Hf31  1  0.10644906  0.89960360  0.89152864  1
  Hf  Hf32  1  0.38953357  0.60666393  0.79681548  1
  Hf  Hf33  1  0.89622888  0.89150529  0.30330654  1
  Hf  Hf34  1  0.08867187  0.11225130  0.49988319  1
  Hf  Hf35  1  0.61366935  0.20646661  -0.02233441  1
  Hf  Hf36  1  0.30584757  0.10795229  0.49800947  1
  Hf  Hf37  1  0.09630775  0.10103118  0.69633466  1
  Hf  Hf38  1  0.50516735  0.10667467  0.50129527  1
  Hf  Hf39  1  0.60185427  -0.00394690  -0.00296847  1
  Hf  Hf40  1  0.50205677  0.49256721  0.69103413  1
  Hf  Hf41  1  0.09087874  0.70310335  0.69394768  1
  Hf  Hf42  1  0.69488274  0.31093737  0.10341783  1
  Hf  Hf43  1  0.40822930  0.80463246  0.19351783  1
  Hf  Hf44  1  0.41801515  0.00582896  0.39366332  1
  Hf  Hf45  1  0.60532774  0.60362452  0.20211962  1
  Hf  Hf46  1  0.60427604  0.59125243  0.80123021  1
  Hf  Hf47  1  0.40525993  0.39699123  0.39622223  1
  Hf  Hf48  1  0.29665308  0.09488251  0.69505408  1
  Hf  Hf49  1  0.09341363  0.48999887  0.68310098  1
  Zr  Zr50  1  0.30260726  0.89701888  0.30400487  1
  Zr  Zr51  1  0.10035535  0.88492392  0.29732496  1
  Zr  Zr52  1  -0.00840665  -0.00151265  0.79730524  1
  Zr  Zr53  1  0.40156929  0.20798710  0.79562676  1
  Zr  Zr54  1  -0.00485289  -0.01017493  0.60185435  1
  Zr  Zr55  1  0.30434280  0.69462870  0.48790301  1
  Zr  Zr56  1  0.00060056  0.59273862  0.79832681  1
  Zr  Zr57  1  0.50166134  0.70104637  0.90042809  1
  Zr  Zr58  1  0.80789536  0.21097433  0.19922179  1
  Zr  Zr59  1  0.58952306  0.21384187  0.39128688  1
  Zr  Zr60  1  0.70185958  0.69962165  0.69441434  1
  Zr  Zr61  1  -0.00113543  0.39776043  0.19318052  1
  Zr  Zr62  1  0.20643449  0.80214957  0.60060454  1
  Zr  Zr63  1  0.09230123  0.68948902  0.10317914  1
  Zr  Zr64  1  0.49745839  0.30751470  0.51390260  1
  Zr  Zr65  1  0.90311763  0.69430519  0.50438839  1
  Zr  Zr66  1  0.39542676  0.59897476  0.60076229  1
  Zr  Zr67  1  0.01251911  0.20927400  0.20766107  1
  Zr  Zr68  1  0.20154661  0.00410414  0.20549144  1
  Zr  Zr69  1  0.09904517  0.69782224  0.29815666  1
  Zr  Zr70  1  0.29501634  0.90618446  0.89250532  1
  Zr  Zr71  1  0.10456084  0.10019404  0.90331253  1
  Zr  Zr72  1  0.20352944  0.59530510  0.59770402  1
  Zr  Zr73  1  0.69760030  0.09696672  0.30836340  1
  Zr  Zr74  1  0.40375601  0.80228003  0.60226666  1
  Zr  Zr75  1  0.79704226  0.00430623  -0.00370638  1
  Zr  Zr76  1  0.59999982  0.79618235  0.19787659  1
  Zr  Zr77  1  0.89369904  0.50504208  0.09830750  1
  Zr  Zr78  1  0.50218816  0.49566466  0.90858069  1
  Zr  Zr79  1  0.70161563  0.30874918  0.50718489  1
  Zr  Zr80  1  0.10003837  0.89575850  0.10104604  1
  Zr  Zr81  1  -0.00971470  0.79811002  0.00103513  1
  Zr  Zr82  1  0.28930540  0.30173053  0.90159560  1
  Zr  Zr83  1  0.80150389  0.20473086  0.40910457  1
  Zr  Zr84  1  0.20142115  0.60138130  0.79897507  1
  Zr  Zr85  1  0.50021123  0.10934998  0.09768080  1
  Zr  Zr86  1  0.49620858  0.10348682  0.89596237  1
  Zr  Zr87  1  0.30326436  0.29817070  0.12112124  1
  Zr  Zr88  1  0.40311051  0.39734709  0.79552479  1
  Zr  Zr89  1  0.79466744  0.79694703  0.00820760  1
  Zr  Zr90  1  0.28674336  0.31130730  0.68933095  1
  Zr  Zr91  1  0.50181793  0.30455187  0.09542562  1
  Zr  Zr92  1  -0.01094845  0.80378963  0.79137986  1
  Zr  Zr93  1  0.31148048  0.11849963  0.29698665  1
  Zr  Zr94  1  0.29188319  0.09744397  0.89939540  1
  Zr  Zr95  1  0.60932550  0.01228863  0.79889700  1
  Zr  Zr96  1  0.79502870  0.79051950  0.40565567  1
  Zr  Zr97  1  0.01046562  0.40470640  0.39738908  1
  Zr  Zr98  1  -0.00376068  0.00241958  0.00002276  1
  Zr  Zr99  1  0.79595718  0.79224428  0.19691717  1
  Ta  Ta100  1  0.80298315  0.00022967  0.20497592  1
  Ta  Ta101  1  0.90404653  0.10425301  0.10355890  1
  Ta  Ta102  1  0.18668335  0.39992716  0.01215362  1
  Ta  Ta103  1  0.09635225  0.69874284  0.89994927  1
  Ta  Ta104  1  0.80235593  0.20486597  0.61004529  1
  Ta  Ta105  1  0.90110364  0.68634540  0.29946331  1
  Ta  Ta106  1  0.90817741  0.30209353  0.51130635  1
  Ta  Ta107  1  0.70148376  0.90260854  0.69414516  1
  Ta  Ta108  1  0.19050729  0.00564642  0.40058505  1
  Ta  Ta109  1  0.10954294  0.89939741  0.69919689  1
  Ta  Ta110  1  0.30051559  0.10326185  0.10015049  1
  Ta  Ta111  1  0.79739898  0.00289218  0.79255793  1
  Ta  Ta112  1  0.89763844  0.89585275  0.50792563  1
  Ta  Ta113  1  0.59625379  0.20392251  0.20943323  1
  Ta  Ta114  1  0.60232712  0.80227940  0.00420947  1
  Ta  Ta115  1  0.39235073  0.39709494  0.00353583  1
  Ta  Ta116  1  0.70346002  0.49860788  0.10581040  1
  Ta  Ta117  1  0.29872020  0.30329196  0.49656772  1
  Ta  Ta118  1  0.69932644  0.90320007  0.30810102  1
  Ta  Ta119  1  0.89084080  0.50307308  0.29799034  1
  Ta  Ta120  1  0.89279698  0.68791966  0.69362861  1
  Ta  Ta121  1  0.50125274  0.89742075  0.89484527  1
  Ta  Ta122  1  0.80560200  -0.00131983  0.40713038  1
  Ta  Ta123  1  0.39413664  0.80068547  0.79515483  1
  Ta  Ta124  1  0.21809405  0.79081211  0.18527285  1
  Ta  Ta125  1  0.89297823  0.10332117  0.69547766  1
  Ta  Ta126  1  0.70044822  0.89609169  0.89180142  1
  Ta  Ta127  1  0.40049342  -0.00604981  0.00545696  1
  Ta  Ta128  1  0.19508010  -0.00141284  0.59129516  1
  Ta  Ta129  1  0.19464137  0.58592982  0.40163719  1
  Ta  Ta130  1  0.61067832  0.59823217  0.40669068  1
  Ta  Ta131  1  0.40053721  -0.00833224  0.79182110  1
  Ta  Ta132  1  -0.00096031  0.39688802  0.00289036  1
  Ta  Ta133  1  0.40703413  -0.00330924  0.19471077  1
  Ta  Ta134  1  0.90125903  0.30039655  0.89381056  1
  Ta  Ta135  1  0.60762202  0.38962970  0.80257572  1
  Ta  Ta136  1  0.89529483  0.49847901  0.89799297  1
  Ta  Ta137  1  0.39464975  0.20418614  -0.00125092  1
  Ta  Ta138  1  0.50694360  0.89968905  0.70056551  1
  Ta  Ta139  1  0.50507432  0.50179989  0.50061762  1
  Ta  Ta140  1  0.19660957  0.20313943  0.59438722  1
  Ta  Ta141  1  0.88748909  0.89933735  0.89425753  1
  Ta  Ta142  1  0.19235810  0.20069030  0.79215866  1
  Ta  Ta143  1  -0.01078032  0.20086351  0.79582844  1
  Ta  Ta144  1  0.80171566  0.40711904  0.40696653  1
  Ta  Ta145  1  0.61286993  0.59990996  0.00392206  1
  Ta  Ta146  1  0.89510166  0.49588739  0.69488655  1
  Ta  Ta147  1  0.10685788  0.10907531  0.10219925  1
  Ta  Ta148  1  0.90088940  0.30934957  0.31062155  1
  Ta  Ta149  1  0.70749937  0.50063670  0.30128765  1
  Ti  Ti150  1  0.39119394  0.60580453  0.00119356  1
  Ti  Ti151  1  0.19503341  0.80350696  0.40694010  1
  Ti  Ti152  1  0.21099227  0.79161730  0.79438419  1
  Ti  Ti153  1  0.18346508  0.38433909  0.20436868  1
  Ti  Ti154  1  0.89135196  0.68101798  0.09920915  1
  Ti  Ti155  1  0.60815776  0.20637338  0.61599165  1
  Ti  Ti156  1  0.80168418  0.80114779  0.60267480  1
  Ti  Ti157  1  0.40634798  -0.00719882  0.60119425  1
  Ti  Ti158  1  0.39778483  0.21237039  0.60463380  1
  Ti  Ti159  1  0.08933566  0.50022354  0.90894622  1
  Ti  Ti160  1  0.50350444  0.69250591  0.31326800  1
  Ti  Ti161  1  0.79361923  0.59694282  0.40554759  1
  Ti  Ti162  1  0.80295596  0.39402534  0.79861810  1
  Ti  Ti163  1  0.20662541  -0.00433988  0.01352897  1
  Ti  Ti164  1  0.80050180  0.80365780  0.79123875  1
  Ti  Ti165  1  0.60758124  0.40335125  0.60234550  1
  Ti  Ti166  1  0.60184834  0.80413640  0.79914402  1
  Ti  Ti167  1  0.70574542  0.30188706  0.70294605  1
  Ti  Ti168  1  0.89633707  0.90637059  0.10264759  1
  Ti  Ti169  1  0.30442819  0.49147584  0.49792918  1
  Ti  Ti170  1  0.19656078  0.40019398  0.39984731  1
  Ti  Ti171  1  0.50900688  0.68646703  0.50157705  1
  Ti  Ti172  1  -0.00128557  0.59282358  0.19926934  1
  Ti  Ti173  1  0.60473292  0.40730493  0.40192326  1
  Ti  Ti174  1  0.18800540  0.40325999  0.80456767  1
  Ti  Ti175  1  0.59934986  0.80044842  0.59087531  1
  Ti  Ti176  1  0.60304854  0.79495566  0.40866273  1
  Ti  Ti177  1  0.19829784  0.20761606  0.00965969  1
  Ti  Ti178  1  0.71146031  0.31010352  0.30153698  1
  Ti  Ti179  1  -0.00549565  0.20561747  0.00549524  1
  Ti  Ti180  1  0.49870911  0.50959483  0.30918053  1
  Ti  Ti181  1  0.59965647  -0.00141013  0.60383715  1
  Ti  Ti182  1  0.89812621  0.10307064  0.89535475  1
  Ti  Ti183  1  0.50318468  0.30636194  0.90105165  1
  Ti  Ti184  1  0.69964164  0.90309060  0.10598661  1
  Ti  Ti185  1  0.90119256  0.10451635  0.50831354  1
  Ti  Ti186  1  0.29461289  0.48640324  0.69173923  1
  Ti  Ti187  1  0.78838108  0.59694283  0.58892770  1
  Ti  Ti188  1  0.70378791  0.69483119  0.30393541  1
  Ti  Ti189  1  -0.00035673  0.80122301  0.40765851  1
  Ti  Ti190  1  0.10707908  0.50384343  0.28866125  1
  Ti  Ti191  1  -0.01198558  0.79183080  0.19453499  1
  Ti  Ti192  1  0.09470199  0.30470275  0.50556701  1
  Ti  Ti193  1  0.00549062  0.59106067  0.39631931  1
  Ti  Ti194  1  0.70763918  0.49575777  0.90279047  1
  Ti  Ti195  1  0.51493106  0.89971735  0.30838410  1
  Ti  Ti196  1  0.46818344  0.28717249  0.28793960  1
  Ti  Ti197  1  -0.00796165  0.39849368  0.79913125  1
  Ti  Ti198  1  0.79003517  0.19579638  0.80016050  1
  Ti  Ti199  1  0.50612586  0.69664089  0.09104144  1
  Mo  Mo200  1  0.39759743  0.20637041  0.40415735  1
  Mo  Mo201  1  0.60751294  0.40600694  -0.01041456  1
  Mo  Mo202  1  0.30570997  0.90839651  0.10177523  1
  Mo  Mo203  1  0.60302223  -0.00315578  0.40222853  1
  Mo  Mo204  1  0.20164814  0.00014274  0.78368414  1
  Mo  Mo205  1  0.88443578  0.89647578  0.69703944  1
  Mo  Mo206  1  0.70805809  0.10075243  0.89092003  1
  Mo  Mo207  1  0.19568883  0.39871990  0.57948167  1
  Mo  Mo208  1  0.10107586  0.29650836  0.09463934  1
  Mo  Mo209  1  0.30709389  0.69057739  0.10216502  1
  Mo  Mo210  1  0.29709545  0.70008200  0.89999338  1
  Mo  Mo211  1  0.79550226  0.59181579  -0.00111496  1
  Mo  Mo212  1  -0.00265657  0.20862063  0.40598530  1
  Mo  Mo213  1  0.79926121  0.40207991  0.20833405  1
  Mo  Mo214  1  -0.00691377  0.80098567  0.60225773  1
  Mo  Mo215  1  -0.00604841  0.59765804  0.60166987  1
  Mo  Mo216  1  0.69607172  0.69982253  0.50257752  1
  Mo  Mo217  1  0.39440080  0.40438011  0.59263771  1
  Mo  Mo218  1  0.09992746  0.89676583  0.50152565  1
  Mo  Mo219  1  0.10102236  0.49978997  0.49690697  1
  Mo  Mo220  1  0.89412702  0.30011734  0.70549642  1
  Mo  Mo221  1  0.30181829  0.70598775  0.70412572  1
  Mo  Mo222  1  0.60226175  0.59636046  0.59281899  1
  Mo  Mo223  1  0.90374559  0.29802551  0.09250406  1
  Mo  Mo224  1  -0.00788206  0.20209960  0.60219469  1
  Mo  Mo225  1  0.40173316  0.19343398  0.19248984  1
  Mo  Mo226  1  0.19803606  0.59968112  0.20485962  1
  Mo  Mo227  1  0.80376755  0.39540103  0.60362928  1
  Mo  Mo228  1  0.80058767  0.00336257  0.60100154  1
  Mo  Mo229  1  0.69851450  0.69213044  0.09524238  1
  Mo  Mo230  1  0.10069131  0.10505406  0.30381873  1
  Mo  Mo231  1  -0.00394408  0.39880012  0.59930464  1
  Mo  Mo232  1  0.30149256  0.90506354  0.69661874  1
  Mo  Mo233  1  -0.00145731  0.59080706  -0.00354282  1
  Mo  Mo234  1  0.51392591  0.30162268  0.69817522  1
  Mo  Mo235  1  0.70830326  0.30418232  0.88965750  1
  Mo  Mo236  1  0.70063479  0.49990657  0.49932130  1
  Mo  Mo237  1  0.70369836  0.10325114  0.69557812  1
  Mo  Mo238  1  0.79707273  0.60004758  0.20538232  1
  Mo  Mo239  1  0.19988934  0.20126475  0.20003921  1
  Mo  Mo240  1  0.50124047  0.10437257  0.29762470  1
  Mo  Mo241  1  0.80149184  0.58886754  0.79669451  1
  Mo  Mo242  1  0.40937630  0.59499280  0.40023719  1
  Mo  Mo243  1  0.51140750  0.90695981  0.50543860  1
  Mo  Mo244  1  0.09826276  0.49593865  0.10281441  1
  Mo  Mo245  1  0.09928507  0.30538289  0.30342121  1
  Mo  Mo246  1  0.50314375  0.90066565  0.09349225  1
  Mo  Mo247  1  0.40874846  0.40809498  0.20469982  1
  Mo  Mo248  1  0.29614690  0.30753024  0.30228545  1
  Mo  Mo249  1  0.60615716  0.21164292  0.79187915  1
