# generated using pymatgen
data_HfZrTaTiMo
_symmetry_space_group_name_H-M   'P 1'
_cell_length_a   16.88243888
_cell_length_b   16.88466138
_cell_length_c   16.88176806
_cell_angle_alpha   90.03385136
_cell_angle_beta   89.96806470
_cell_angle_gamma   90.00944114
_symmetry_Int_Tables_number   1
_chemical_formula_structural   HfZrTaTiMo
_chemical_formula_sum   'Hf50 Zr50 Ta50 Ti50 Mo50'
_cell_volume   4812.21831141
_cell_formula_units_Z   50
loop_
 _symmetry_equiv_pos_site_id
 _symmetry_equiv_pos_as_xyz
  1  'x, y, z'
loop_
 _atom_site_type_symbol
 _atom_site_label
 _atom_site_symmetry_multiplicity
 _atom_site_fract_x
 _atom_site_fract_y
 _atom_site_fract_z
 _atom_site_occupancy
  Hf  Hf0  1  0.69535121  0.09353941  0.69747189  1
  Hf  Hf1  1  0.50386068  0.09642534  0.69041789  1
  Hf  Hf2  1  0.80687650  0.79441536  0.79161903  1
  Hf  Hf3  1  0.89876975  0.50542831  0.50020631  1
  Hf  Hf4  1  0.59666969  0.19578321  0.18897199  1
  Hf  Hf5  1  0.59920583  0.59476896  0.61278534  1
  Hf  Hf6  1  0.00988609  0.19304856  0.59270604  1
  Hf  Hf7  1  0.69291914  0.70666809  0.50762815  1
  Hf  Hf8  1  0.80846917  -0.01322601  0.59757307  1
  Hf  Hf9  1  0.28867356  0.09861408  0.49698408  1
  Hf  Hf10  1  0.10456921  0.90279460  0.69464150  1
  Hf  Hf11  1  0.30491495  0.90460321  0.10399960  1
  Hf  Hf12  1  0.69022137  0.09000617  0.50194599  1
  Hf  Hf13  1  0.69336990  0.89526717  0.50178195  1
  Hf  Hf14  1  0.40605958  0.60272775  0.80501274  1
  Hf  Hf15  1  0.49352428  0.29832998  0.70359279  1
  Hf  Hf16  1  0.70142460  0.69939224  0.89302325  1
  Hf  Hf17  1  0.41254644  0.19600713  0.01006814  1
  Hf  Hf18  1  0.00406279  0.20360554  -0.00067378  1
  Hf  Hf19  1  0.69650024  0.50202566  0.89821799  1
  Hf  Hf20  1  0.90097219  0.11753885  0.11182398  1
  Hf  Hf21  1  0.20151491  0.79554095  0.59075004  1
  Hf  Hf22  1  0.39711912  -0.00314989  0.59169412  1
  Hf  Hf23  1  0.90307130  0.09497443  0.49816932  1
  Hf  Hf24  1  0.79224642  0.20535134  0.59573496  1
  Hf  Hf25  1  0.48993730  0.69961940  0.29137406  1
  Hf  Hf26  1  0.50773670  0.31196053  0.89651947  1
  Hf  Hf27  1  0.60294956  0.60050601  0.39808141  1
  Hf  Hf28  1  0.49663485  0.70549495  0.50647177  1
  Hf  Hf29  1  0.39276460  0.40477469  0.00316100  1
  Hf  Hf30  1  0.49258883  0.49780061  0.30023947  1
  Hf  Hf31  1  0.29772074  0.09324974  0.29169956  1
  Hf  Hf32  1  0.09705245  0.49899403  0.29874864  1
  Hf  Hf33  1  0.90338086  0.09534328  0.70085951  1
  Hf  Hf34  1  0.18956591  0.18864987  0.80463760  1
  Hf  Hf35  1  0.89743165  0.30252396  0.49351799  1
  Hf  Hf36  1  0.50517256  0.89093816  0.51036665  1
  Hf  Hf37  1  0.09647308  0.50323403  0.70282258  1
  Hf  Hf38  1  0.30709340  0.70723421  0.69406721  1
  Hf  Hf39  1  0.79769800  0.19937591  0.80850053  1
  Hf  Hf40  1  0.00524233  0.19880284  0.80816345  1
  Hf  Hf41  1  0.40278259  0.60835305  0.00674130  1
  Hf  Hf42  1  0.10034920  0.70302872  0.09481810  1
  Hf  Hf43  1  0.00551183  0.40600859  0.58754868  1
  Hf  Hf44  1  0.09842357  0.30392882  0.70226587  1
  Hf  Hf45  1  0.49593600  0.30596738  0.29918836  1
  Hf  Hf46  1  0.80671934  0.80653662  0.18831321  1
  Hf  Hf47  1  0.29784453  0.09973222  0.69218968  1
  Hf  Hf48  1  0.19254655  0.60600249  0.20727062  1
  Hf  Hf49  1  0.79740158  0.40606603  0.79930078  1
  Zr  Zr50  1  0.89934157  0.49974107  0.10397113  1
  Zr  Zr51  1  0.68792318  0.89289548  0.69947754  1
  Zr  Zr52  1  0.80127908  0.00020987  0.20057722  1
  Zr  Zr53  1  0.09650664  0.89372761  0.09779954  1
  Zr  Zr54  1  0.90329669  0.29218601  0.28601617  1
  Zr  Zr55  1  0.39725153  0.39376985  0.60005925  1
  Zr  Zr56  1  0.90143290  0.89639746  0.30224538  1
  Zr  Zr57  1  0.59716023  0.60227979  0.00712236  1
  Zr  Zr58  1  0.19473146  0.39295606  0.80999336  1
  Zr  Zr59  1  0.50303857  0.90038768  0.90547385  1
  Zr  Zr60  1  0.80995218  -0.01127728  0.00838616  1
  Zr  Zr61  1  0.30079790  0.09771792  0.90911237  1
  Zr  Zr62  1  0.29280959  0.50672618  0.90704056  1
  Zr  Zr63  1  0.90450890  0.30582824  0.70071213  1
  Zr  Zr64  1  0.60947057  0.39826014  0.40243900  1
  Zr  Zr65  1  0.90728483  0.50567603  0.70653248  1
  Zr  Zr66  1  0.10402874  0.10320028  0.29741679  1
  Zr  Zr67  1  0.80106861  0.60132302  0.39431241  1
  Zr  Zr68  1  0.70144999  0.08865222  0.90487147  1
  Zr  Zr69  1  0.49611518  0.09701642  0.29098281  1
  Zr  Zr70  1  0.29804036  0.70330774  0.10520244  1
  Zr  Zr71  1  0.00291961  0.79324136  0.79586639  1
  Zr  Zr72  1  0.00260340  0.00038586  0.40252141  1
  Zr  Zr73  1  0.01077051  0.00468113  0.81266385  1
  Zr  Zr74  1  0.59012165  -0.00034633  0.39596022  1
  Zr  Zr75  1  0.10084826  0.29655328  0.48461016  1
  Zr  Zr76  1  0.19268623  -0.00119046  -0.00475049  1
  Zr  Zr77  1  0.39424096  -0.00922885  0.39701800  1
  Zr  Zr78  1  0.30166375  0.49375597  0.70675355  1
  Zr  Zr79  1  0.40319118  0.59797324  0.60260302  1
  Zr  Zr80  1  0.51101986  0.31689393  0.10231765  1
  Zr  Zr81  1  -0.00050940  -0.00215532  0.20071334  1
  Zr  Zr82  1  0.01067585  0.79561202  0.40286795  1
  Zr  Zr83  1  0.37391674  0.39544394  0.20839007  1
  Zr  Zr84  1  0.71484300  0.69692388  0.09516112  1
  Zr  Zr85  1  0.39042059  0.80564360  0.81137162  1
  Zr  Zr86  1  0.70126295  0.30453090  0.27997984  1
  Zr  Zr87  1  0.69009076  0.30291542  0.70678249  1
  Zr  Zr88  1  0.21179055  0.39444516  0.38450072  1
  Zr  Zr89  1  0.19207114  0.61319800  0.79704414  1
  Zr  Zr90  1  0.49498188  0.50300959  0.11210927  1
  Zr  Zr91  1  0.20367702  0.39914143  0.59425611  1
  Zr  Zr92  1  0.79657869  0.60753075  0.61998293  1
  Zr  Zr93  1  0.79327796  0.19754969  0.39460854  1
  Zr  Zr94  1  0.39844064  0.19669839  0.79929147  1
  Zr  Zr95  1  0.80734730  0.80072070  0.40729914  1
  Zr  Zr96  1  0.60601836  0.60547949  0.19953377  1
  Zr  Zr97  1  0.60102021  0.40057158  0.59741700  1
  Zr  Zr98  1  0.00507362  0.60677830  0.39750259  1
  Zr  Zr99  1  0.30090281  0.29990243  0.90201005  1
  Ta  Ta100  1  0.00557470  0.40063227  -0.00094833  1
  Ta  Ta101  1  0.39728177  0.20171502  0.39697852  1
  Ta  Ta102  1  0.50985986  0.70223908  0.89818531  1
  Ta  Ta103  1  0.59575947  -0.00274516  0.80282031  1
  Ta  Ta104  1  0.38780756  0.80242052  0.40518196  1
  Ta  Ta105  1  0.60468926  0.20028799  -0.00031950  1
  Ta  Ta106  1  0.69962863  0.10139878  0.09924543  1
  Ta  Ta107  1  0.49903089  0.89650701  0.69910261  1
  Ta  Ta108  1  0.59345538  0.20453424  0.58592353  1
  Ta  Ta109  1  0.09982892  0.70213197  0.90926646  1
  Ta  Ta110  1  0.59827545  0.80262530  0.19370813  1
  Ta  Ta111  1  0.39587438  0.60631588  0.40223672  1
  Ta  Ta112  1  0.19525508  0.80581731  0.21686748  1
  Ta  Ta113  1  0.00067287  0.59907149  -0.00177047  1
  Ta  Ta114  1  0.70462862  0.70878877  0.29381170  1
  Ta  Ta115  1  0.81163204  0.79688065  0.60701988  1
  Ta  Ta116  1  0.00137595  0.79721014  0.59705843  1
  Ta  Ta117  1  0.19984777  0.80525410  0.80544185  1
  Ta  Ta118  1  0.50639643  0.49740232  0.89903331  1
  Ta  Ta119  1  0.89229642  0.30715317  0.09967758  1
  Ta  Ta120  1  0.89908185  0.30886254  0.90554864  1
  Ta  Ta121  1  0.69884886  0.09782255  0.29307215  1
  Ta  Ta122  1  0.90252401  0.50049819  0.90053000  1
  Ta  Ta123  1  0.50966811  0.71386568  0.70812619  1
  Ta  Ta124  1  0.39680467  0.19818820  0.19440795  1
  Ta  Ta125  1  0.28970430  0.29367057  0.09853903  1
  Ta  Ta126  1  0.89781552  0.10006868  0.90741970  1
  Ta  Ta127  1  0.70445080  0.50142860  0.50324074  1
  Ta  Ta128  1  0.60076535  0.19524477  0.80845299  1
  Ta  Ta129  1  0.59906202  -0.00501568  0.19272898  1
  Ta  Ta130  1  0.28623024  0.50515727  0.10368114  1
  Ta  Ta131  1  0.79899136  0.40345803  0.39640101  1
  Ta  Ta132  1  0.10289620  0.90776141  0.50578208  1
  Ta  Ta133  1  0.49534720  0.90076276  0.10240734  1
  Ta  Ta134  1  0.29669235  0.70104989  0.30518986  1
  Ta  Ta135  1  0.49337655  0.49726558  0.49021364  1
  Ta  Ta136  1  0.29643560  0.09901395  0.10609262  1
  Ta  Ta137  1  0.80428182  -0.00928168  0.80350570  1
  Ta  Ta138  1  0.89735572  0.69277920  0.90181160  1
  Ta  Ta139  1  0.69426015  0.89796324  0.29720313  1
  Ta  Ta140  1  0.79536778  0.20797548  0.00240400  1
  Ta  Ta141  1  0.59677116  0.20175833  0.40307711  1
  Ta  Ta142  1  0.18873552  0.39863670  0.00813640  1
  Ta  Ta143  1  0.30169196  0.50421634  0.48991476  1
  Ta  Ta144  1  0.59873686  0.79935119  0.00678521  1
  Ta  Ta145  1  0.70680517  0.48548383  0.10175377  1
  Ta  Ta146  1  0.20563986  -0.00840425  0.80370004  1
  Ta  Ta147  1  0.19833684  0.60590151  0.58949868  1
  Ta  Ta148  1  0.10586977  0.10516170  0.10490463  1
  Ta  Ta149  1  0.39725505  -0.00406587  0.80070029  1
  Ti  Ti150  1  0.19999573  0.79714911  0.40126817  1
  Ti  Ti151  1  0.70012139  0.89297469  0.90313440  1
  Ti  Ti152  1  0.49177220  0.30032505  0.49307238  1
  Ti  Ti153  1  0.19162430  0.20250700  -0.00095250  1
  Ti  Ti154  1  0.09487932  0.50386799  0.90250986  1
  Ti  Ti155  1  0.90190059  0.69941665  0.09505416  1
  Ti  Ti156  1  0.10843243  0.50746734  0.48970604  1
  Ti  Ti157  1  0.79240827  0.40256136  0.59844965  1
  Ti  Ti158  1  0.40325779  0.79728091  0.00183182  1
  Ti  Ti159  1  0.49468854  0.89732363  0.29150844  1
  Ti  Ti160  1  0.20180971  0.20543902  0.59792951  1
  Ti  Ti161  1  0.10806091  0.08458417  0.67961950  1
  Ti  Ti162  1  0.59683966  0.00204157  0.00699161  1
  Ti  Ti163  1  0.30031354  0.90021078  0.69406766  1
  Ti  Ti164  1  0.19839143  0.20907041  0.20273303  1
  Ti  Ti165  1  0.89618004  0.69581685  0.28878310  1
  Ti  Ti166  1  0.89646517  0.49736780  0.28999394  1
  Ti  Ti167  1  0.09702768  0.29747518  0.10520204  1
  Ti  Ti168  1  0.50692134  0.48887937  0.71897587  1
  Ti  Ti169  1  0.00192480  0.19436029  0.39074622  1
  Ti  Ti170  1  0.39479419  0.80389950  0.20520683  1
  Ti  Ti171  1  0.40296700  0.00190100  0.00287561  1
  Ti  Ti172  1  0.00008399  0.60720871  0.19940324  1
  Ti  Ti173  1  0.90169422  0.69839559  0.50861369  1
  Ti  Ti174  1  0.00540270  0.39484568  0.19676225  1
  Ti  Ti175  1  0.09809723  0.89290987  0.90333299  1
  Ti  Ti176  1  0.19476874  0.39399077  0.20027725  1
  Ti  Ti177  1  0.80125050  -0.00152589  0.39599920  1
  Ti  Ti178  1  0.19571509  -0.01175805  0.20540693  1
  Ti  Ti179  1  0.20856330  0.80533347  -0.00743910  1
  Ti  Ti180  1  0.69701258  0.89806802  0.09434519  1
  Ti  Ti181  1  0.30151733  0.51359859  0.30260972  1
  Ti  Ti182  1  0.29234518  0.69914713  0.90857700  1
  Ti  Ti183  1  0.09968835  0.50349782  0.09978491  1
  Ti  Ti184  1  0.00050093  0.60872439  0.80224733  1
  Ti  Ti185  1  0.89951141  0.89563689  0.90390931  1
  Ti  Ti186  1  0.20024421  -0.01635917  0.39670573  1
  Ti  Ti187  1  0.59443042  0.79828290  0.38690891  1
  Ti  Ti188  1  0.00604679  0.79634869  0.20676607  1
  Ti  Ti189  1  0.80579188  0.59433971  -0.00227990  1
  Ti  Ti190  1  0.91338067  0.90403648  0.69739815  1
  Ti  Ti191  1  -0.00299604  0.40036058  0.39195343  1
  Ti  Ti192  1  0.30609491  0.29513047  0.49575229  1
  Ti  Ti193  1  -0.00082492  0.00209319  0.00331821  1
  Ti  Ti194  1  -0.01194325  0.79897570  -0.00115936  1
  Ti  Ti195  1  0.20190310  0.20393508  0.39157191  1
  Ti  Ti196  1  0.50304979  0.09564880  0.90066893  1
  Ti  Ti197  1  0.69662012  0.31071917  0.91008276  1
  Ti  Ti198  1  0.01426418  0.61594652  0.60116303  1
  Ti  Ti199  1  0.70982717  0.50196795  0.28826229  1
  Mo  Mo200  1  0.00026530  0.40301926  0.81445394  1
  Mo  Mo201  1  0.10210837  0.70121259  0.30016880  1
  Mo  Mo202  1  0.80358944  0.60121111  0.80473721  1
  Mo  Mo203  1  0.39883257  0.80274302  0.60218637  1
  Mo  Mo204  1  0.10436619  0.70049396  0.49977009  1
  Mo  Mo205  1  0.38652287  0.60384641  0.20557633  1
  Mo  Mo206  1  0.10321499  0.70225217  0.69754965  1
  Mo  Mo207  1  0.80672011  0.60220035  0.20019283  1
  Mo  Mo208  1  0.29838886  0.89385466  0.29982055  1
  Mo  Mo209  1  0.60107744  0.80284590  0.80785762  1
  Mo  Mo210  1  0.40286447  0.40455612  0.80223813  1
  Mo  Mo211  1  0.30199873  0.89976990  0.90498000  1
  Mo  Mo212  1  0.09724925  0.09682210  0.91204721  1
  Mo  Mo213  1  0.60194098  0.79406540  0.60998747  1
  Mo  Mo214  1  0.11034263  0.09911522  0.49571282  1
  Mo  Mo215  1  0.60259498  0.40107709  0.80308581  1
  Mo  Mo216  1  0.90977293  0.88821235  0.09430757  1
  Mo  Mo217  1  0.20326767  -0.00590509  0.59660857  1
  Mo  Mo218  1  0.49423380  0.71499090  0.09999109  1
  Mo  Mo219  1  0.50171313  0.09018900  0.09290661  1
  Mo  Mo220  1  0.89359475  0.10423785  0.30312494  1
  Mo  Mo221  1  0.80545940  0.80063339  -0.00600004  1
  Mo  Mo222  1  0.69638885  0.50262386  0.70495472  1
  Mo  Mo223  1  0.29750158  0.28372446  0.29526274  1
  Mo  Mo224  1  0.70370655  0.30135169  0.09069052  1
  Mo  Mo225  1  0.69641842  0.69895674  0.70746420  1
  Mo  Mo226  1  0.29982025  0.69884002  0.49539883  1
  Mo  Mo227  1  0.09597957  0.30123729  0.90796675  1
  Mo  Mo228  1  0.60015312  0.59997383  0.79706589  1
  Mo  Mo229  1  0.39497458  0.40038506  0.40210136  1
  Mo  Mo230  1  0.79112767  0.19988217  0.19176082  1
  Mo  Mo231  1  0.39974001  0.19993331  0.58675576  1
  Mo  Mo232  1  0.10440993  0.89713427  0.30784737  1
  Mo  Mo233  1  0.90669520  0.89683216  0.50846915  1
  Mo  Mo234  1  0.49368943  0.11082310  0.49893740  1
  Mo  Mo235  1  0.00475087  -0.00251155  0.59724271  1
  Mo  Mo236  1  0.59287455  -0.00100695  0.60288922  1
  Mo  Mo237  1  0.29642543  0.28978276  0.69216502  1
  Mo  Mo238  1  0.80626303  0.40294432  0.19925033  1
  Mo  Mo239  1  0.09836619  0.30049417  0.29174044  1
  Mo  Mo240  1  0.69986757  0.30442019  0.49572302  1
  Mo  Mo241  1  0.61078046  0.40703206  0.19896099  1
  Mo  Mo242  1  0.00952471  0.20504362  0.19504134  1
  Mo  Mo243  1  0.60748030  0.40176058  0.00138057  1
  Mo  Mo244  1  0.18919387  0.59671777  0.00355851  1
  Mo  Mo245  1  0.20328771  0.60303883  0.40163993  1
  Mo  Mo246  1  0.80389753  0.39945340  -0.00139505  1
  Mo  Mo247  1  0.91041631  0.70034941  0.70259331  1
  Mo  Mo248  1  0.40020816  -0.00269395  0.19340343  1
  Mo  Mo249  1  0.29495691  0.89614792  0.49728291  1
