# generated using pymatgen
data_HfZrTaTiMo
_symmetry_space_group_name_H-M   'P 1'
_cell_length_a   16.89523426
_cell_length_b   16.89009939
_cell_length_c   16.88911149
_cell_angle_alpha   89.97887209
_cell_angle_beta   90.01370685
_cell_angle_gamma   89.97364799
_symmetry_Int_Tables_number   1
_chemical_formula_structural   HfZrTaTiMo
_chemical_formula_sum   'Hf50 Zr50 Ta50 Ti50 Mo50'
_cell_volume   4819.51279442
_cell_formula_units_Z   50
loop_
 _symmetry_equiv_pos_site_id
 _symmetry_equiv_pos_as_xyz
  1  'x, y, z'
loop_
 _atom_site_type_symbol
 _atom_site_label
 _atom_site_symmetry_multiplicity
 _atom_site_fract_x
 _atom_site_fract_y
 _atom_site_fract_z
 _atom_site_occupancy
  Hf  Hf0  1  0.18722192  0.78981915  0.79372892  1
  Hf  Hf1  1  -0.00376526  0.79386715  0.79893750  1
  Hf  Hf2  1  0.30128937  0.89215483  0.30182847  1
  Hf  Hf3  1  0.29657368  0.70409369  0.29971895  1
  Hf  Hf4  1  0.80211278  0.79593855  0.39798862  1
  Hf  Hf5  1  0.09628823  0.10202359  0.30123254  1
  Hf  Hf6  1  0.40024860  -0.00225191  0.00085487  1
  Hf  Hf7  1  0.39849571  0.39900037  0.60040533  1
  Hf  Hf8  1  0.80238638  0.19282891  0.60775683  1
  Hf  Hf9  1  0.18773958  0.60106055  0.60783615  1
  Hf  Hf10  1  0.40560460  0.80045728  0.79437795  1
  Hf  Hf11  1  0.69941562  0.70894192  0.09831606  1
  Hf  Hf12  1  0.80159818  0.60768373  0.20183359  1
  Hf  Hf13  1  0.60915881  0.80735154  0.60188718  1
  Hf  Hf14  1  0.40724616  0.59894361  0.00684383  1
  Hf  Hf15  1  0.19439759  0.59254345  -0.00562590  1
  Hf  Hf16  1  0.51151257  0.09776972  0.30441372  1
  Hf  Hf17  1  0.29649714  0.89331537  0.90571519  1
  Hf  Hf18  1  0.89282349  0.89722025  0.69946169  1
  Hf  Hf19  1  0.40137718  0.59369127  0.80017937  1
  Hf  Hf20  1  0.00977319  0.39142296  0.20327812  1
  Hf  Hf21  1  0.91105579  0.68524018  0.50805276  1
  Hf  Hf22  1  0.89851830  0.30108977  0.09609823  1
  Hf  Hf23  1  0.70573057  0.89944368  0.90309327  1
  Hf  Hf24  1  0.50827182  0.29882655  0.30434625  1
  Hf  Hf25  1  0.19319160  0.20340703  -0.00451008  1
  Hf  Hf26  1  0.29035517  0.88767009  0.68804345  1
  Hf  Hf27  1  0.60797388  0.39910772  0.80240478  1
  Hf  Hf28  1  0.09020884  0.70201886  0.29275985  1
  Hf  Hf29  1  0.90802724  0.50806579  0.30197179  1
  Hf  Hf30  1  0.50243707  0.49301782  0.30738000  1
  Hf  Hf31  1  0.50263376  0.10532533  0.89574694  1
  Hf  Hf32  1  -0.01087208  0.79353805  -0.00759656  1
  Hf  Hf33  1  0.50663250  0.70885167  0.29990833  1
  Hf  Hf34  1  0.07385693  0.51752369  0.50255145  1
  Hf  Hf35  1  0.19796321  -0.00337878  0.79827072  1
  Hf  Hf36  1  0.29698037  0.48725538  0.89776501  1
  Hf  Hf37  1  0.50604885  0.09893951  0.69897993  1
  Hf  Hf38  1  0.22534798  0.21891530  0.63651858  1
  Hf  Hf39  1  0.10345721  0.29738945  0.50873516  1
  Hf  Hf40  1  0.29900399  0.10404047  0.09669667  1
  Hf  Hf41  1  -0.00782125  0.19935527  0.79449405  1
  Hf  Hf42  1  0.91156473  0.50966446  0.09718182  1
  Hf  Hf43  1  0.40128266  -0.00075497  0.20298477  1
  Hf  Hf44  1  0.19848222  -0.00272230  0.19418424  1
  Hf  Hf45  1  -0.00350584  0.00839298  0.60362748  1
  Hf  Hf46  1  0.29724852  0.70256427  0.10229153  1
  Hf  Hf47  1  0.50892975  0.49237854  0.90312575  1
  Hf  Hf48  1  0.40390460  0.60098056  0.19982834  1
  Hf  Hf49  1  0.69794502  0.49822166  0.29759118  1
  Zr  Zr50  1  0.51272361  0.48924684  0.10123239  1
  Zr  Zr51  1  0.80159432  0.41470850  0.80650111  1
  Zr  Zr52  1  0.10814379  0.10858999  0.70118373  1
  Zr  Zr53  1  0.90429463  0.90332163  0.29402374  1
  Zr  Zr54  1  0.69186998  0.70479716  0.29942766  1
  Zr  Zr55  1  0.00577768  0.79950335  0.41171534  1
  Zr  Zr56  1  0.50550521  0.69822166  0.49221049  1
  Zr  Zr57  1  0.39688461  0.59357893  0.40327160  1
  Zr  Zr58  1  0.28418548  0.49251566  0.10562771  1
  Zr  Zr59  1  0.88712052  0.09877532  0.48862027  1
  Zr  Zr60  1  0.61331192  0.79384100  0.78921532  1
  Zr  Zr61  1  0.60888465  0.59247316  0.60099998  1
  Zr  Zr62  1  0.30366615  0.10966279  0.51081813  1
  Zr  Zr63  1  0.09362813  0.10042455  0.90520604  1
  Zr  Zr64  1  0.19100570  0.40535821  0.39623358  1
  Zr  Zr65  1  0.80429980  0.60771663  -0.01327305  1
  Zr  Zr66  1  0.89012521  0.29466535  0.30622009  1
  Zr  Zr67  1  0.69689366  0.09107201  0.49148368  1
  Zr  Zr68  1  0.20163375  -0.00290732  0.40281422  1
  Zr  Zr69  1  0.19309004  0.60764144  0.40692062  1
  Zr  Zr70  1  0.50251691  0.68571113  0.69607571  1
  Zr  Zr71  1  0.38330418  0.20153814  0.77937153  1
  Zr  Zr72  1  -0.00020009  0.39978235  0.40211538  1
  Zr  Zr73  1  0.09350147  0.68887870  0.10200451  1
  Zr  Zr74  1  0.51072682  0.90421570  0.89505152  1
  Zr  Zr75  1  0.79627417  0.81853382  0.19285069  1
  Zr  Zr76  1  0.41903041  0.81110702  0.60167708  1
  Zr  Zr77  1  0.29438451  0.30497974  0.09317419  1
  Zr  Zr78  1  -0.00168762  -0.00353489  0.79907828  1
  Zr  Zr79  1  0.19019612  0.21032973  0.20291309  1
  Zr  Zr80  1  0.50546760  0.10376289  0.10019207  1
  Zr  Zr81  1  0.09068048  0.89398488  0.09859420  1
  Zr  Zr82  1  0.29699310  0.69735119  0.89859472  1
  Zr  Zr83  1  0.00633508  -0.00173342  0.40749985  1
  Zr  Zr84  1  0.11279414  0.11478541  0.50547265  1
  Zr  Zr85  1  0.70675690  0.69643055  0.50285737  1
  Zr  Zr86  1  0.39669974  -0.00380483  0.79135851  1
  Zr  Zr87  1  0.39754266  0.39328845  0.20554964  1
  Zr  Zr88  1  0.50848524  0.69865480  0.90132495  1
  Zr  Zr89  1  0.90126430  0.30177204  0.89660684  1
  Zr  Zr90  1  0.38888853  0.20428067  0.38978796  1
  Zr  Zr91  1  0.60273698  0.20312773  0.60321796  1
  Zr  Zr92  1  0.49963560  0.29979259  0.49573801  1
  Zr  Zr93  1  0.70746375  0.29944570  0.49541963  1
  Zr  Zr94  1  0.50338309  0.10153404  0.49378702  1
  Zr  Zr95  1  0.79657937  0.19649152  -0.00224316  1
  Zr  Zr96  1  0.79681276  0.40123094  0.19603313  1
  Zr  Zr97  1  0.19116912  0.39351311  0.79037607  1
  Zr  Zr98  1  0.88935610  0.89844192  0.51185178  1
  Zr  Zr99  1  0.29930645  0.71268565  0.50919298  1
  Ta  Ta100  1  0.40284022  -0.00140616  0.60125757  1
  Ta  Ta101  1  0.60948350  0.20122060  0.20166065  1
  Ta  Ta102  1  0.61465987  -0.00599618  0.20158435  1
  Ta  Ta103  1  -0.00704483  0.00307684  0.19330333  1
  Ta  Ta104  1  0.40117487  0.20261768  0.20031054  1
  Ta  Ta105  1  0.29574958  0.69445166  0.69870244  1
  Ta  Ta106  1  0.41081090  0.79893815  0.00809830  1
  Ta  Ta107  1  0.09991267  0.51448754  0.28674997  1
  Ta  Ta108  1  0.50499938  0.48890377  0.50079179  1
  Ta  Ta109  1  0.49946838  0.29637917  0.89814002  1
  Ta  Ta110  1  -0.00119551  0.20362769  0.40058550  1
  Ta  Ta111  1  0.80327086  0.59548150  0.40231595  1
  Ta  Ta112  1  0.70503098  0.30423120  0.69942394  1
  Ta  Ta113  1  0.89520537  0.30252943  0.50368534  1
  Ta  Ta114  1  0.79531950  0.19760495  0.20220124  1
  Ta  Ta115  1  0.89476982  0.30760486  0.69723555  1
  Ta  Ta116  1  0.29939283  0.50311953  0.70272386  1
  Ta  Ta117  1  0.29636113  0.30421645  0.49978274  1
  Ta  Ta118  1  0.29949865  0.30104183  0.89554906  1
  Ta  Ta119  1  0.60867719  0.60269035  -0.00175633  1
  Ta  Ta120  1  0.19658269  0.80102714  0.19802075  1
  Ta  Ta121  1  0.09319552  0.68682571  0.89611578  1
  Ta  Ta122  1  0.60543645  0.80116323  0.00505759  1
  Ta  Ta123  1  -0.00006510  0.40730773  -0.00926642  1
  Ta  Ta124  1  0.69996114  0.09457273  0.70583178  1
  Ta  Ta125  1  0.70316784  0.09848375  0.10344292  1
  Ta  Ta126  1  0.69729488  0.29946814  0.09577240  1
  Ta  Ta127  1  0.50400910  0.49159586  0.69986236  1
  Ta  Ta128  1  0.89521855  0.09365561  0.90574442  1
  Ta  Ta129  1  0.09413445  0.49967879  0.89071989  1
  Ta  Ta130  1  0.19845471  -0.00160092  0.00012634  1
  Ta  Ta131  1  0.89150825  0.89942749  0.90466812  1
  Ta  Ta132  1  0.61098351  0.20408243  0.80279280  1
  Ta  Ta133  1  0.90344354  0.70673485  0.10386342  1
  Ta  Ta134  1  -0.00428713  0.19773108  0.19886917  1
  Ta  Ta135  1  0.50816725  0.29621637  0.09373531  1
  Ta  Ta136  1  0.50916868  0.89914399  0.10448591  1
  Ta  Ta137  1  0.09689302  0.89600132  0.29312892  1
  Ta  Ta138  1  0.89986072  0.69364984  0.69796752  1
  Ta  Ta139  1  0.29362160  0.10512302  0.89617564  1
  Ta  Ta140  1  0.50266632  0.30457765  0.70285655  1
  Ta  Ta141  1  0.62125734  0.59430430  0.80302332  1
  Ta  Ta142  1  0.40450969  0.39267219  -0.00311001  1
  Ta  Ta143  1  0.60641864  0.58990654  0.40378906  1
  Ta  Ta144  1  0.60747326  0.00012971  0.00476480  1
  Ta  Ta145  1  0.80076338  0.78770118  0.80466461  1
  Ta  Ta146  1  0.29917136  0.89988929  0.50148877  1
  Ta  Ta147  1  -0.01250753  0.20192552  0.60190547  1
  Ta  Ta148  1  0.80255250  0.00384547  0.80209781  1
  Ta  Ta149  1  0.79768369  0.41120019  -0.00385765  1
  Ti  Ti150  1  0.50752957  0.91317328  0.49237651  1
  Ti  Ti151  1  0.39880813  0.20399456  -0.00325563  1
  Ti  Ti152  1  -0.00901858  0.40494296  0.60200134  1
  Ti  Ti153  1  0.40828527  0.80140883  0.19311152  1
  Ti  Ti154  1  0.60424886  -0.00759029  0.59989041  1
  Ti  Ti155  1  0.79927291  0.60104278  0.80116882  1
  Ti  Ti156  1  0.79031459  0.79517381  0.60985309  1
  Ti  Ti157  1  0.51000310  0.89991766  0.29950691  1
  Ti  Ti158  1  0.28778663  0.30828830  0.30281867  1
  Ti  Ti159  1  0.60491137  0.19941742  -0.00231516  1
  Ti  Ti160  1  0.69859410  0.30381414  0.90612153  1
  Ti  Ti161  1  0.59699063  0.60438576  0.19360493  1
  Ti  Ti162  1  0.39890232  0.59222685  0.59766633  1
  Ti  Ti163  1  0.89529071  0.09716760  0.10276681  1
  Ti  Ti164  1  0.40691125  0.80860653  0.40400846  1
  Ti  Ti165  1  0.30109929  0.89361662  0.09779669  1
  Ti  Ti166  1  0.89287286  0.09850318  0.29916094  1
  Ti  Ti167  1  0.09537680  0.30318782  0.89771793  1
  Ti  Ti168  1  0.70352180  0.10178564  0.30233011  1
  Ti  Ti169  1  0.19951097  -0.00466910  0.59886021  1
  Ti  Ti170  1  0.80141137  0.40597171  0.40366688  1
  Ti  Ti171  1  0.70427480  0.49028611  0.50508857  1
  Ti  Ti172  1  0.09565606  0.88881414  0.68488267  1
  Ti  Ti173  1  0.08388263  0.30651242  0.69787302  1
  Ti  Ti174  1  -0.00250455  0.20010018  0.00358004  1
  Ti  Ti175  1  0.70011701  0.09416858  0.89962652  1
  Ti  Ti176  1  0.29912223  0.49467871  0.49975880  1
  Ti  Ti177  1  0.10017541  0.31020710  0.09122845  1
  Ti  Ti178  1  0.39850691  -0.00170224  0.40010784  1
  Ti  Ti179  1  0.61283817  0.81997894  0.40402840  1
  Ti  Ti180  1  0.09859265  0.49953399  0.10019716  1
  Ti  Ti181  1  0.78516149  -0.01426951  0.38889089  1
  Ti  Ti182  1  0.69638634  0.49845266  0.09380752  1
  Ti  Ti183  1  0.70398880  0.49101519  0.69132120  1
  Ti  Ti184  1  0.79917564  -0.00720847  0.01269902  1
  Ti  Ti185  1  0.61019664  0.39761436  0.40216495  1
  Ti  Ti186  1  0.19456104  0.79716102  -0.00038525  1
  Ti  Ti187  1  0.29414159  0.10304078  0.29918541  1
  Ti  Ti188  1  -0.00859748  -0.00240374  0.00450826  1
  Ti  Ti189  1  0.29003372  0.49925721  0.29561830  1
  Ti  Ti190  1  0.90616718  0.49778031  0.70001711  1
  Ti  Ti191  1  0.60793780  0.39039035  0.19946518  1
  Ti  Ti192  1  0.18909484  0.80433287  0.40992879  1
  Ti  Ti193  1  0.70479190  0.91149771  0.70382470  1
  Ti  Ti194  1  0.19557559  0.40889854  0.60413741  1
  Ti  Ti195  1  0.79779561  0.19688999  0.80005933  1
  Ti  Ti196  1  0.09292076  0.09898101  0.09813412  1
  Ti  Ti197  1  0.80737545  0.58498650  0.60072042  1
  Ti  Ti198  1  0.09676990  0.89781368  0.90516709  1
  Ti  Ti199  1  -0.00365294  0.59492787  0.79830215  1
  Mo  Mo200  1  0.50643944  0.70686142  0.10256984  1
  Mo  Mo201  1  0.29991735  0.08052318  0.69872675  1
  Mo  Mo202  1  0.80163325  0.01165235  0.19933785  1
  Mo  Mo203  1  0.10789354  0.89726365  0.51316780  1
  Mo  Mo204  1  0.70470479  0.70170103  0.90031049  1
  Mo  Mo205  1  0.69790738  0.90321846  0.29916586  1
  Mo  Mo206  1  0.80244436  0.19711310  0.39484747  1
  Mo  Mo207  1  0.70266392  0.90114676  0.50288401  1
  Mo  Mo208  1  -0.00078830  0.59705656  -0.00765351  1
  Mo  Mo209  1  0.18400304  0.39751499  -0.00765221  1
  Mo  Mo210  1  0.90063718  0.69785742  0.89175608  1
  Mo  Mo211  1  -0.00118324  0.40086103  0.79486768  1
  Mo  Mo212  1  0.19951795  0.60159837  0.19996108  1
  Mo  Mo213  1  0.60316325  0.40015386  0.60414371  1
  Mo  Mo214  1  0.31031926  0.32869820  0.70659112  1
  Mo  Mo215  1  0.60580472  0.39132027  -0.00112971  1
  Mo  Mo216  1  0.19651859  0.20869927  0.39322568  1
  Mo  Mo217  1  0.18913196  0.79425920  0.59721526  1
  Mo  Mo218  1  0.40932488  0.40039016  0.80248372  1
  Mo  Mo219  1  0.70052729  0.90604020  0.09666530  1
  Mo  Mo220  1  0.69932525  0.29804923  0.29928112  1
  Mo  Mo221  1  0.71639302  0.68571489  0.70094939  1
  Mo  Mo222  1  0.70048430  0.50314221  0.90580654  1
  Mo  Mo223  1  0.09333121  0.69150115  0.70341449  1
  Mo  Mo224  1  0.40012061  0.20546767  0.60119740  1
  Mo  Mo225  1  0.80316646  0.40352011  0.60272509  1
  Mo  Mo226  1  0.09596516  0.29225569  0.30512934  1
  Mo  Mo227  1  0.59703363  0.80878112  0.19747659  1
  Mo  Mo228  1  -0.00664609  0.60717368  0.38905156  1
  Mo  Mo229  1  0.19587833  0.59539984  0.79574846  1
  Mo  Mo230  1  0.79198781  -0.00114654  0.61104287  1
  Mo  Mo231  1  0.60444329  -0.00682459  0.39359294  1
  Mo  Mo232  1  0.90676101  0.50503476  0.89774218  1
  Mo  Mo233  1  0.18991682  0.40394123  0.20196874  1
  Mo  Mo234  1  0.00480812  0.79026042  0.60732096  1
  Mo  Mo235  1  -0.00444850  0.59648761  0.61903432  1
  Mo  Mo236  1  0.61111794  0.00837161  0.80522572  1
  Mo  Mo237  1  -0.00346324  0.60188172  0.19374499  1
  Mo  Mo238  1  0.09069964  0.49786740  0.70003662  1
  Mo  Mo239  1  -0.00507006  0.80312848  0.19530596  1
  Mo  Mo240  1  0.51519893  0.91279328  0.69570746  1
  Mo  Mo241  1  0.38590740  0.40251428  0.40424226  1
  Mo  Mo242  1  0.09349014  0.70483602  0.50980883  1
  Mo  Mo243  1  0.19981455  0.20650368  0.80726778  1
  Mo  Mo244  1  0.90252955  0.69931158  0.29896745  1
  Mo  Mo245  1  0.61315172  0.20190492  0.38820474  1
  Mo  Mo246  1  0.80267953  0.80156249  -0.00331664  1
  Mo  Mo247  1  0.89869751  0.90672237  0.09282499  1
  Mo  Mo248  1  0.89200195  0.10221836  0.70723455  1
  Mo  Mo249  1  0.89202491  0.49830422  0.50242902  1
