# generated using pymatgen
data_HfZrTaTiMo
_symmetry_space_group_name_H-M   'P 1'
_cell_length_a   16.89051557
_cell_length_b   16.88728840
_cell_length_c   16.88991341
_cell_angle_alpha   90.06351243
_cell_angle_beta   89.98854918
_cell_angle_gamma   90.00939345
_symmetry_Int_Tables_number   1
_chemical_formula_structural   HfZrTaTiMo
_chemical_formula_sum   'Hf50 Zr50 Ta50 Ti50 Mo50'
_cell_volume   4817.59145970
_cell_formula_units_Z   50
loop_
 _symmetry_equiv_pos_site_id
 _symmetry_equiv_pos_as_xyz
  1  'x, y, z'
loop_
 _atom_site_type_symbol
 _atom_site_label
 _atom_site_symmetry_multiplicity
 _atom_site_fract_x
 _atom_site_fract_y
 _atom_site_fract_z
 _atom_site_occupancy
  Hf  Hf0  1  0.90605402  0.10135771  0.49561321  1
  Hf  Hf1  1  0.59664118  0.19916235  0.79295225  1
  Hf  Hf2  1  0.30734636  0.70835118  0.10192228  1
  Hf  Hf3  1  0.49670050  0.09465273  0.90448479  1
  Hf  Hf4  1  0.80737013  0.39779482  0.39612966  1
  Hf  Hf5  1  0.09988300  0.50658260  0.90426637  1
  Hf  Hf6  1  0.20729195  0.60217312  0.39880144  1
  Hf  Hf7  1  0.59721225  0.80811617  0.39074867  1
  Hf  Hf8  1  0.30172853  0.50999482  0.10611262  1
  Hf  Hf9  1  0.90127502  0.50080471  0.70351828  1
  Hf  Hf10  1  0.50566393  0.70627348  0.50158974  1
  Hf  Hf11  1  0.70265353  0.50649970  0.50451551  1
  Hf  Hf12  1  0.80702001  0.59481835  0.38865871  1
  Hf  Hf13  1  0.20750476  0.39937642  0.60574050  1
  Hf  Hf14  1  0.39123329  0.20706347  0.18409742  1
  Hf  Hf15  1  0.70862906  0.30554259  0.71118767  1
  Hf  Hf16  1  0.09741737  0.50673321  0.50399704  1
  Hf  Hf17  1  0.39369310  0.39483730  0.00845840  1
  Hf  Hf18  1  0.90003418  0.70051763  0.90185048  1
  Hf  Hf19  1  0.89925607  0.70176021  0.49869662  1
  Hf  Hf20  1  0.70380335  0.49725771  0.69706741  1
  Hf  Hf21  1  0.39973722  0.00116984  0.19970186  1
  Hf  Hf22  1  0.20787556  0.40748991  0.39897054  1
  Hf  Hf23  1  0.39859871  0.19523394  0.59630597  1
  Hf  Hf24  1  0.19845879  0.79239189  0.38987676  1
  Hf  Hf25  1  0.79420073  0.60386402  0.79865304  1
  Hf  Hf26  1  0.39818276  0.59337755  0.60151920  1
  Hf  Hf27  1  0.49125939  0.29948331  0.89574781  1
  Hf  Hf28  1  0.89970040  0.69983556  0.10352544  1
  Hf  Hf29  1  0.70523281  0.89568138  0.49796685  1
  Hf  Hf30  1  0.29770188  0.08275441  0.69745149  1
  Hf  Hf31  1  0.89097774  0.89481045  0.89480220  1
  Hf  Hf32  1  0.89472395  0.70501190  0.70643459  1
  Hf  Hf33  1  0.29496430  0.10309709  0.30403629  1
  Hf  Hf34  1  0.69513804  0.50291462  0.10839649  1
  Hf  Hf35  1  0.10160180  0.50505090  0.70457405  1
  Hf  Hf36  1  0.59783333  -0.00196505  0.39465927  1
  Hf  Hf37  1  0.20088656  0.20739640  0.00085167  1
  Hf  Hf38  1  0.48956854  0.69905130  0.10438245  1
  Hf  Hf39  1  0.00001398  0.19277419  -0.00971387  1
  Hf  Hf40  1  -0.00444708  0.40222662  0.20189479  1
  Hf  Hf41  1  0.20445061  0.61714226  0.21405615  1
  Hf  Hf42  1  0.60079225  0.80595975  0.20526207  1
  Hf  Hf43  1  0.80071540  0.80367005  0.60665496  1
  Hf  Hf44  1  0.39536512  0.60185055  0.39185379  1
  Hf  Hf45  1  0.59139196  0.39828580  -0.00077993  1
  Hf  Hf46  1  0.90442700  0.29241496  0.50087779  1
  Hf  Hf47  1  0.50034552  0.10504421  0.29884367  1
  Hf  Hf48  1  0.09854315  0.09636189  0.49239290  1
  Hf  Hf49  1  0.00234420  0.80741391  0.60554801  1
  Zr  Zr50  1  0.30580775  0.70713278  0.50466510  1
  Zr  Zr51  1  0.78946152  0.80660368  0.00550368  1
  Zr  Zr52  1  0.18972227  0.79519297  0.59973435  1
  Zr  Zr53  1  0.10438865  0.49783453  0.29472817  1
  Zr  Zr54  1  0.09765672  0.29827929  0.49493025  1
  Zr  Zr55  1  0.30415821  0.29748632  0.49720009  1
  Zr  Zr56  1  0.69486594  0.50082340  0.29494680  1
  Zr  Zr57  1  0.70855115  0.09703945  0.89746941  1
  Zr  Zr58  1  0.60522841  0.79879442  0.00657079  1
  Zr  Zr59  1  0.68614637  0.30016847  0.12422016  1
  Zr  Zr60  1  0.19891943  -0.00763513  0.58980245  1
  Zr  Zr61  1  0.79257339  0.59963347  -0.00152914  1
  Zr  Zr62  1  0.69915464  0.48804657  0.89223407  1
  Zr  Zr63  1  0.79673140  0.19145120  0.20272949  1
  Zr  Zr64  1  0.59902537  0.19769434  0.59593654  1
  Zr  Zr65  1  0.39307511  0.20278584  0.79063086  1
  Zr  Zr66  1  0.79721802  0.39048754  0.00287783  1
  Zr  Zr67  1  0.19806765  0.21178348  0.79893422  1
  Zr  Zr68  1  0.09934596  0.29368747  0.11051274  1
  Zr  Zr69  1  0.80391067  0.00563656  0.39085603  1
  Zr  Zr70  1  -0.00259910  -0.00167573  0.20267375  1
  Zr  Zr71  1  0.00752943  0.79813149  -0.00103163  1
  Zr  Zr72  1  0.50968711  0.50266820  0.49893953  1
  Zr  Zr73  1  0.10026315  0.51056038  0.09498684  1
  Zr  Zr74  1  0.70269242  0.69837293  0.49814557  1
  Zr  Zr75  1  0.00908794  0.19845918  0.60868383  1
  Zr  Zr76  1  0.51005508  0.10389091  0.09866580  1
  Zr  Zr77  1  0.50608953  0.29972257  0.28691917  1
  Zr  Zr78  1  0.60694984  0.20582553  -0.00089450  1
  Zr  Zr79  1  0.91326061  0.28476418  0.30202555  1
  Zr  Zr80  1  0.89833689  0.10886004  0.71284880  1
  Zr  Zr81  1  0.40110492  -0.01313620  0.80108852  1
  Zr  Zr82  1  0.59675420  -0.00539834  0.79489291  1
  Zr  Zr83  1  0.29292696  0.09075187  0.90184825  1
  Zr  Zr84  1  0.49871553  0.50179683  0.29461535  1
  Zr  Zr85  1  0.58900561  0.60072342  0.80339948  1
  Zr  Zr86  1  0.40107191  0.59697002  0.80278924  1
  Zr  Zr87  1  0.39786789  0.79563932  0.80720382  1
  Zr  Zr88  1  0.49364421  0.89752157  0.10088271  1
  Zr  Zr89  1  0.89421801  0.70994704  0.29256248  1
  Zr  Zr90  1  -0.00389427  0.39357382  -0.00462365  1
  Zr  Zr91  1  0.49597445  0.50412818  0.10702911  1
  Zr  Zr92  1  0.60707952  0.38946684  0.39803746  1
  Zr  Zr93  1  -0.00264344  -0.00348920  0.80518140  1
  Zr  Zr94  1  0.10551767  0.09081521  0.70777720  1
  Zr  Zr95  1  -0.00258413  -0.00040541  -0.00135682  1
  Zr  Zr96  1  0.87962959  0.28625774  0.88588787  1
  Zr  Zr97  1  0.90533722  0.50838747  0.50945181  1
  Zr  Zr98  1  0.29842570  0.89971175  0.29408673  1
  Zr  Zr99  1  0.59389454  0.00153808  0.58538977  1
  Ta  Ta100  1  0.59794470  0.61506462  0.20918486  1
  Ta  Ta101  1  0.89693961  0.50652434  0.10413718  1
  Ta  Ta102  1  0.09248195  0.90074619  0.48872089  1
  Ta  Ta103  1  0.80463555  0.39534868  0.59939750  1
  Ta  Ta104  1  0.40855699  0.80694768  0.39214379  1
  Ta  Ta105  1  0.20163154  0.79408322  -0.00252980  1
  Ta  Ta106  1  0.50020671  0.89804493  0.91207071  1
  Ta  Ta107  1  0.29489077  0.89501835  0.09976806  1
  Ta  Ta108  1  0.10001284  0.89490065  0.29266866  1
  Ta  Ta109  1  0.79749173  0.19745471  0.60274699  1
  Ta  Ta110  1  0.49299282  0.31073520  0.69184476  1
  Ta  Ta111  1  0.89312903  0.89779906  0.11222226  1
  Ta  Ta112  1  0.39283981  -0.00268878  0.00483142  1
  Ta  Ta113  1  0.80628884  0.40021152  0.20734153  1
  Ta  Ta114  1  0.60446594  0.60803123  0.61235625  1
  Ta  Ta115  1  0.89735137  0.09785632  0.09968227  1
  Ta  Ta116  1  0.10846502  0.89748026  0.10247891  1
  Ta  Ta117  1  0.89947630  0.28951253  0.10472000  1
  Ta  Ta118  1  0.49155125  0.09052102  0.68947509  1
  Ta  Ta119  1  0.89926451  0.30122364  0.70428724  1
  Ta  Ta120  1  0.00030365  0.40488638  0.39468101  1
  Ta  Ta121  1  0.10669781  0.28989921  0.29813049  1
  Ta  Ta122  1  0.29900377  0.29880934  0.29576453  1
  Ta  Ta123  1  0.49470992  0.89282008  0.67957747  1
  Ta  Ta124  1  0.49942747  0.30145719  0.49919877  1
  Ta  Ta125  1  0.00799430  0.61523314  0.61132571  1
  Ta  Ta126  1  0.10377133  0.09815922  0.10393691  1
  Ta  Ta127  1  0.70501235  0.29708419  0.50382768  1
  Ta  Ta128  1  0.20190906  0.40062342  0.80450706  1
  Ta  Ta129  1  0.10219305  0.10380609  0.29710852  1
  Ta  Ta130  1  0.69646567  0.89583451  0.69735458  1
  Ta  Ta131  1  0.80583366  -0.00141686  0.60457872  1
  Ta  Ta132  1  0.29426654  0.50262889  0.90329580  1
  Ta  Ta133  1  0.39451528  0.40466365  0.39771381  1
  Ta  Ta134  1  0.20753231  0.20238877  0.60424540  1
  Ta  Ta135  1  0.00711330  0.60855192  0.80557132  1
  Ta  Ta136  1  0.00074430  0.80205640  0.39394383  1
  Ta  Ta137  1  0.59454579  0.80119994  0.79529010  1
  Ta  Ta138  1  0.01286347  0.79829564  0.79825051  1
  Ta  Ta139  1  0.29889738  0.70169211  0.70140910  1
  Ta  Ta140  1  0.79945597  -0.00639997  0.79257072  1
  Ta  Ta141  1  -0.00198552  0.60383966  0.20392623  1
  Ta  Ta142  1  0.61182582  -0.00210313  0.20089458  1
  Ta  Ta143  1  0.30239448  0.89039173  0.69362296  1
  Ta  Ta144  1  0.49742219  0.70934009  0.69209566  1
  Ta  Ta145  1  0.20208789  0.39682455  -0.00182007  1
  Ta  Ta146  1  0.20108671  0.79202352  0.80663101  1
  Ta  Ta147  1  0.69460637  0.70658561  0.89277366  1
  Ta  Ta148  1  0.00325128  0.39662982  0.80390081  1
  Ta  Ta149  1  0.11312122  0.90039775  0.90203274  1
  Ti  Ti150  1  0.10933742  0.90233696  0.70900376  1
  Ti  Ti151  1  0.29490465  0.50368845  0.70569943  1
  Ti  Ti152  1  0.58921484  0.39839976  0.80274973  1
  Ti  Ti153  1  0.21101249  0.39557285  0.19610958  1
  Ti  Ti154  1  0.40378962  0.20081602  0.40244210  1
  Ti  Ti155  1  0.50181317  0.49384697  0.69816890  1
  Ti  Ti156  1  -0.00638893  -0.01046199  0.60564360  1
  Ti  Ti157  1  0.39970469  0.59987764  -0.01224575  1
  Ti  Ti158  1  0.19875996  -0.00660433  0.39767508  1
  Ti  Ti159  1  0.11441335  0.08501231  0.90127733  1
  Ti  Ti160  1  0.69725391  0.89838596  0.89357041  1
  Ti  Ti161  1  0.20182064  0.19998195  0.40226445  1
  Ti  Ti162  1  0.90065266  0.90042599  0.49227679  1
  Ti  Ti163  1  0.00105052  0.39940652  0.60385307  1
  Ti  Ti164  1  0.00142902  -0.00522919  0.39147023  1
  Ti  Ti165  1  0.70592382  0.69639510  0.11266686  1
  Ti  Ti166  1  0.69406164  0.10533875  0.29518373  1
  Ti  Ti167  1  0.09832684  0.70517394  0.10688697  1
  Ti  Ti168  1  0.70735487  0.70423187  0.30080276  1
  Ti  Ti169  1  0.09345331  0.69900034  0.49448472  1
  Ti  Ti170  1  0.30902424  0.89788726  0.50155256  1
  Ti  Ti171  1  0.49848997  0.70737914  0.90883835  1
  Ti  Ti172  1  0.39414554  0.40655841  0.79798758  1
  Ti  Ti173  1  0.39442538  0.40543988  0.59610862  1
  Ti  Ti174  1  0.19797134  0.00031365  0.19892933  1
  Ti  Ti175  1  0.28807640  0.09462351  0.09694706  1
  Ti  Ti176  1  0.60336176  0.19897219  0.40357902  1
  Ti  Ti177  1  0.71889699  0.89615974  0.29314941  1
  Ti  Ti178  1  0.20151971  0.60241855  0.60098257  1
  Ti  Ti179  1  0.30002149  0.30597820  0.89796284  1
  Ti  Ti180  1  0.61252253  -0.00605022  0.00856260  1
  Ti  Ti181  1  0.79736341  0.00076675  0.00720904  1
  Ti  Ti182  1  0.00226506  0.60199926  0.38949496  1
  Ti  Ti183  1  0.90952412  0.10364196  0.29919113  1
  Ti  Ti184  1  0.09842971  0.30515846  0.70442586  1
  Ti  Ti185  1  0.79479241  0.19504317  0.00364809  1
  Ti  Ti186  1  0.41057795  -0.00344407  0.40890743  1
  Ti  Ti187  1  0.90388971  0.50332538  0.90284025  1
  Ti  Ti188  1  0.39293503  0.20329731  0.00509770  1
  Ti  Ti189  1  0.60177412  0.39695968  0.59963373  1
  Ti  Ti190  1  0.70692668  0.10152699  0.49953079  1
  Ti  Ti191  1  0.19960814  0.61447661  -0.00459400  1
  Ti  Ti192  1  0.30220410  0.09408155  0.49556122  1
  Ti  Ti193  1  0.79164699  0.20157177  0.39753886  1
  Ti  Ti194  1  0.00956260  0.20175033  0.81115007  1
  Ti  Ti195  1  0.89707624  0.89323757  0.29507710  1
  Ti  Ti196  1  0.29785447  0.89628825  0.90982352  1
  Ti  Ti197  1  0.69982869  0.09375422  0.69563111  1
  Ti  Ti198  1  0.59626861  0.59918657  -0.00449257  1
  Ti  Ti199  1  0.20040458  0.61091524  0.80586262  1
  Mo  Mo200  1  0.70499649  0.09153742  0.10051124  1
  Mo  Mo201  1  0.49319480  0.10625023  0.48997837  1
  Mo  Mo202  1  0.70244674  0.29424188  0.30783780  1
  Mo  Mo203  1  0.40083642  0.80298407  0.20713786  1
  Mo  Mo204  1  0.39741539  0.80011694  0.59651176  1
  Mo  Mo205  1  0.00026925  0.59966172  0.00513883  1
  Mo  Mo206  1  0.60057649  0.80050100  0.60182359  1
  Mo  Mo207  1  0.79979651  0.60198923  0.60495260  1
  Mo  Mo208  1  0.29640594  0.69509584  0.90446672  1
  Mo  Mo209  1  0.69455778  0.29766751  0.89087933  1
  Mo  Mo210  1  0.78972345  0.19070851  0.79346071  1
  Mo  Mo211  1  0.10159265  0.30711145  0.89791421  1
  Mo  Mo212  1  0.29505223  0.30452663  0.10056748  1
  Mo  Mo213  1  0.39713147  -0.00458961  0.58671877  1
  Mo  Mo214  1  0.31201525  0.70897199  0.29408858  1
  Mo  Mo215  1  0.70575430  0.90798172  0.10972704  1
  Mo  Mo216  1  0.20096158  -0.00552438  0.00679458  1
  Mo  Mo217  1  0.79718749  0.60110438  0.19824864  1
  Mo  Mo218  1  0.79613911  0.80267862  0.19938591  1
  Mo  Mo219  1  0.48941841  0.49624967  0.90105490  1
  Mo  Mo220  1  0.49739799  0.90735007  0.29805517  1
  Mo  Mo221  1  0.60251957  0.61533441  0.39054143  1
  Mo  Mo222  1  0.90462183  0.50289078  0.29403837  1
  Mo  Mo223  1  0.39878662  0.60869763  0.20934490  1
  Mo  Mo224  1  0.89685989  0.89989286  0.70262517  1
  Mo  Mo225  1  0.01031608  0.19466306  0.39422930  1
  Mo  Mo226  1  0.30354173  0.31309901  0.69901149  1
  Mo  Mo227  1  0.10317215  0.69992104  0.90198634  1
  Mo  Mo228  1  0.69301035  0.70523106  0.70178138  1
  Mo  Mo229  1  0.59448144  0.40262157  0.19880816  1
  Mo  Mo230  1  0.30065904  0.50257675  0.50294964  1
  Mo  Mo231  1  0.08922596  0.70420144  0.29921071  1
  Mo  Mo232  1  0.39502804  0.80471078  -0.00362880  1
  Mo  Mo233  1  0.10475721  0.69823042  0.70573265  1
  Mo  Mo234  1  0.49394600  0.30065860  0.09940376  1
  Mo  Mo235  1  0.81303515  0.40503157  0.79748157  1
  Mo  Mo236  1  0.00190354  0.19007143  0.19496820  1
  Mo  Mo237  1  0.88731374  0.09448723  0.90666397  1
  Mo  Mo238  1  0.20185729  0.19456610  0.20211453  1
  Mo  Mo239  1  0.19541267  0.80083507  0.19472238  1
  Mo  Mo240  1  0.50051989  0.70267653  0.30036904  1
  Mo  Mo241  1  0.59997484  0.19144842  0.20361650  1
  Mo  Mo242  1  0.49499246  0.90011906  0.49596038  1
  Mo  Mo243  1  0.20608588  -0.02043057  0.80300041  1
  Mo  Mo244  1  0.80195901  0.00108162  0.20164730  1
  Mo  Mo245  1  0.78567916  0.80336263  0.79979070  1
  Mo  Mo246  1  0.80580680  0.80613973  0.39732883  1
  Mo  Mo247  1  0.39057372  0.39904848  0.20221567  1
  Mo  Mo248  1  0.00360391  0.80210130  0.19911648  1
  Mo  Mo249  1  0.30412192  0.49351551  0.29349109  1
