# generated using pymatgen
data_HfZrTaTiMo
_symmetry_space_group_name_H-M   'P 1'
_cell_length_a   16.89086199
_cell_length_b   16.88411397
_cell_length_c   16.88797680
_cell_angle_alpha   89.96519690
_cell_angle_beta   89.99732738
_cell_angle_gamma   89.99460708
_symmetry_Int_Tables_number   1
_chemical_formula_structural   HfZrTaTiMo
_chemical_formula_sum   'Hf50 Zr50 Ta50 Ti50 Mo50'
_cell_volume   4816.23455648
_cell_formula_units_Z   50
loop_
 _symmetry_equiv_pos_site_id
 _symmetry_equiv_pos_as_xyz
  1  'x, y, z'
loop_
 _atom_site_type_symbol
 _atom_site_label
 _atom_site_symmetry_multiplicity
 _atom_site_fract_x
 _atom_site_fract_y
 _atom_site_fract_z
 _atom_site_occupancy
  Hf  Hf0  1  0.09917113  0.30402832  0.69967396  1
  Hf  Hf1  1  0.30161650  0.49747856  0.90450014  1
  Hf  Hf2  1  0.69808697  0.90516715  0.09623689  1
  Hf  Hf3  1  0.10165417  0.08379058  0.89040089  1
  Hf  Hf4  1  -0.01264468  0.39876922  0.20550074  1
  Hf  Hf5  1  0.29564548  0.09776380  0.70191793  1
  Hf  Hf6  1  0.39612840  0.19906019  0.39036204  1
  Hf  Hf7  1  0.90277446  0.70825046  0.91156756  1
  Hf  Hf8  1  0.50170760  0.09962165  0.70409186  1
  Hf  Hf9  1  0.29773035  0.90020956  0.69996645  1
  Hf  Hf10  1  0.59530028  0.79002940  0.00641194  1
  Hf  Hf11  1  0.29810944  0.10349742  0.89832273  1
  Hf  Hf12  1  0.29186589  0.30581132  0.10018584  1
  Hf  Hf13  1  -0.01088731  0.59920043  0.20743075  1
  Hf  Hf14  1  -0.00535313  0.20193108  0.39383968  1
  Hf  Hf15  1  0.69946624  0.70046092  0.90143989  1
  Hf  Hf16  1  0.29614855  0.89688245  0.50573735  1
  Hf  Hf17  1  0.39657977  0.40508829  0.40405544  1
  Hf  Hf18  1  0.50712286  0.08341119  0.09959357  1
  Hf  Hf19  1  0.80424273  0.40542352  0.00160974  1
  Hf  Hf20  1  -0.00765482  0.58778468  -0.00062865  1
  Hf  Hf21  1  0.09537111  0.50413693  0.49758822  1
  Hf  Hf22  1  0.39020096  -0.00281415  0.38800475  1
  Hf  Hf23  1  0.39566868  -0.00993380  0.00207108  1
  Hf  Hf24  1  0.70316487  0.29068705  0.30621440  1
  Hf  Hf25  1  0.60368291  0.39956616  0.00407723  1
  Hf  Hf26  1  0.41013895  0.60099238  0.19047221  1
  Hf  Hf27  1  0.29658236  0.50496187  0.30032307  1
  Hf  Hf28  1  0.50961734  0.09683476  0.90037746  1
  Hf  Hf29  1  -0.00110836  0.00328284  0.40690303  1
  Hf  Hf30  1  -0.01383130  0.39865913  0.39813397  1
  Hf  Hf31  1  -0.00303432  0.39450231  0.00278645  1
  Hf  Hf32  1  0.81012573  0.00260027  0.59153087  1
  Hf  Hf33  1  0.11397841  0.49015393  0.89898677  1
  Hf  Hf34  1  0.20103136  -0.01147734  0.00464319  1
  Hf  Hf35  1  0.09798105  0.70920471  0.90793876  1
  Hf  Hf36  1  0.81448211  -0.00020164  0.79595354  1
  Hf  Hf37  1  0.29780277  0.09787791  0.50269462  1
  Hf  Hf38  1  0.79762258  0.39871933  0.58901173  1
  Hf  Hf39  1  0.81099480  0.00801785  0.39666449  1
  Hf  Hf40  1  0.70153740  0.11982122  0.47965125  1
  Hf  Hf41  1  0.19643980  0.19343584  0.39369014  1
  Hf  Hf42  1  -0.00927995  0.40090635  0.81065266  1
  Hf  Hf43  1  0.50656115  0.89648720  0.89793507  1
  Hf  Hf44  1  0.19470766  0.61120075  0.79806315  1
  Hf  Hf45  1  -0.00180394  0.18315021  0.78831424  1
  Hf  Hf46  1  0.60039650  -0.00685392  0.38636061  1
  Hf  Hf47  1  0.70350322  0.28941017  0.90299212  1
  Hf  Hf48  1  0.60460901  0.59868539  0.79129046  1
  Hf  Hf49  1  0.49973680  0.49751136  0.30149771  1
  Zr  Zr50  1  0.41489108  0.40236065  0.01318075  1
  Zr  Zr51  1  0.69992702  0.09074429  0.91124969  1
  Zr  Zr52  1  0.60081777  -0.00428318  0.58700997  1
  Zr  Zr53  1  0.50068400  0.10144722  0.48922946  1
  Zr  Zr54  1  0.89440727  0.28113318  0.90878088  1
  Zr  Zr55  1  0.30745467  0.71482606  0.70203268  1
  Zr  Zr56  1  0.90741486  0.29725931  0.68410777  1
  Zr  Zr57  1  0.80617852  0.59456674  0.79811164  1
  Zr  Zr58  1  0.08844540  0.71630630  0.49574311  1
  Zr  Zr59  1  0.20411367  0.80535938  0.20423935  1
  Zr  Zr60  1  0.09064650  0.90559205  0.29756047  1
  Zr  Zr61  1  0.10840156  0.49304687  0.09970932  1
  Zr  Zr62  1  0.20121593  0.80704728  0.00771125  1
  Zr  Zr63  1  0.40612813  0.20128154  0.00698051  1
  Zr  Zr64  1  0.59436086  0.39922884  0.19361859  1
  Zr  Zr65  1  0.59202109  0.60083927  0.59642604  1
  Zr  Zr66  1  0.51263406  0.30652121  0.49567050  1
  Zr  Zr67  1  0.40059002  0.20237595  0.20057303  1
  Zr  Zr68  1  0.59736891  0.79506020  0.59311399  1
  Zr  Zr69  1  0.29483873  0.49627645  0.70776413  1
  Zr  Zr70  1  0.09947127  0.29981026  0.29246750  1
  Zr  Zr71  1  0.70024002  0.09606309  0.69899685  1
  Zr  Zr72  1  0.89698526  0.09504185  0.91489841  1
  Zr  Zr73  1  0.19345457  0.60991714  0.60545395  1
  Zr  Zr74  1  0.80003819  0.40635605  0.80163601  1
  Zr  Zr75  1  -0.00180936  0.61186153  0.60403967  1
  Zr  Zr76  1  0.29511892  0.29608623  0.50137813  1
  Zr  Zr77  1  -0.00169704  0.60408056  0.79765017  1
  Zr  Zr78  1  0.80583572  0.80215573  0.79802031  1
  Zr  Zr79  1  0.41205364  0.60181763  0.79222696  1
  Zr  Zr80  1  0.40396306  0.41030085  0.59660343  1
  Zr  Zr81  1  0.60383436  0.60342514  0.20322649  1
  Zr  Zr82  1  0.89655985  0.27992798  0.11144234  1
  Zr  Zr83  1  0.69447223  0.30819876  0.69540656  1
  Zr  Zr84  1  0.29555155  0.30358128  0.89881361  1
  Zr  Zr85  1  0.71412206  0.88809230  0.48905559  1
  Zr  Zr86  1  0.40061958  -0.00138704  0.80005038  1
  Zr  Zr87  1  0.59992821  0.79387319  0.20823886  1
  Zr  Zr88  1  0.59827145  0.19675283  0.19748595  1
  Zr  Zr89  1  0.69914550  0.89793837  0.70112848  1
  Zr  Zr90  1  0.60236743  0.20591385  0.59570913  1
  Zr  Zr91  1  0.09719338  0.91850814  0.70924130  1
  Zr  Zr92  1  0.09189624  0.70276459  0.10108809  1
  Zr  Zr93  1  0.10608172  0.50656614  0.30599568  1
  Zr  Zr94  1  0.09389207  0.09368414  0.10901952  1
  Zr  Zr95  1  0.69527662  0.50017517  0.49930142  1
  Zr  Zr96  1  0.29969576  0.70266065  0.50087739  1
  Zr  Zr97  1  0.20208550  0.40140043  0.59643242  1
  Zr  Zr98  1  0.89716547  0.89796070  0.10295579  1
  Zr  Zr99  1  0.30178146  0.69778390  0.30676733  1
  Ta  Ta100  1  -0.01412360  0.60760522  0.39585859  1
  Ta  Ta101  1  0.89675840  0.09362713  0.10209382  1
  Ta  Ta102  1  0.00029560  0.80882010  0.80164841  1
  Ta  Ta103  1  0.30823887  0.70224761  0.09954644  1
  Ta  Ta104  1  0.19292576  0.19611199  0.60547007  1
  Ta  Ta105  1  0.08921831  0.29845389  0.50558403  1
  Ta  Ta106  1  0.50167707  0.89816495  0.70324291  1
  Ta  Ta107  1  0.69724846  0.90405612  0.90216495  1
  Ta  Ta108  1  0.09617052  0.70396355  0.30580345  1
  Ta  Ta109  1  0.20289052  0.19392087  0.20359738  1
  Ta  Ta110  1  0.19419878  0.19741660  0.79577487  1
  Ta  Ta111  1  0.80233760  0.39935810  0.39572439  1
  Ta  Ta112  1  0.50618371  0.49967008  0.89905292  1
  Ta  Ta113  1  0.40763226  0.60318796  0.00102521  1
  Ta  Ta114  1  0.50517473  0.29765356  0.89396495  1
  Ta  Ta115  1  0.30428853  0.29557604  0.70754376  1
  Ta  Ta116  1  0.89770358  0.89597404  0.30334093  1
  Ta  Ta117  1  0.70691917  0.70204513  0.69081496  1
  Ta  Ta118  1  0.49475020  0.89434802  0.49014012  1
  Ta  Ta119  1  0.40822968  0.39965126  0.80273542  1
  Ta  Ta120  1  0.49874172  0.30122039  0.70448023  1
  Ta  Ta121  1  0.29796526  0.09155392  0.10967857  1
  Ta  Ta122  1  0.70941524  0.29312557  0.10367579  1
  Ta  Ta123  1  0.79918140  0.59660240  0.00248778  1
  Ta  Ta124  1  0.29841379  0.88995172  0.88983239  1
  Ta  Ta125  1  0.19663322  0.00061628  0.39696940  1
  Ta  Ta126  1  0.40532189  -0.00427401  0.59703011  1
  Ta  Ta127  1  0.89932032  0.50495530  0.49884611  1
  Ta  Ta128  1  0.79733723  0.79219442  0.20729850  1
  Ta  Ta129  1  0.20253236  0.60736546  0.19662548  1
  Ta  Ta130  1  0.19406435  0.81194454  0.40086090  1
  Ta  Ta131  1  0.00304108  -0.01189153  -0.00047366  1
  Ta  Ta132  1  0.80137677  0.60183316  0.59829034  1
  Ta  Ta133  1  0.60450053  0.60623791  0.39493293  1
  Ta  Ta134  1  0.71002145  0.70148946  0.49431433  1
  Ta  Ta135  1  0.80016211  0.59957475  0.39299899  1
  Ta  Ta136  1  0.39961639  0.20071107  0.60445290  1
  Ta  Ta137  1  0.79544322  0.00162130  0.20405128  1
  Ta  Ta138  1  0.70411393  0.50363140  0.10551468  1
  Ta  Ta139  1  0.09451193  0.48856842  0.70154830  1
  Ta  Ta140  1  -0.01007858  0.79520411  0.20617635  1
  Ta  Ta141  1  0.30718719  0.70643203  0.90215828  1
  Ta  Ta142  1  0.49748947  0.89628681  0.10782875  1
  Ta  Ta143  1  0.30185564  0.49988742  0.10293580  1
  Ta  Ta144  1  0.60236000  0.20052135  0.80017708  1
  Ta  Ta145  1  0.89320100  0.70078408  0.10169079  1
  Ta  Ta146  1  0.21062930  0.60390861  0.00422034  1
  Ta  Ta147  1  0.90368194  0.49568723  0.68703653  1
  Ta  Ta148  1  0.70710913  0.69514485  0.10166428  1
  Ta  Ta149  1  0.80195334  0.19242440  0.78790794  1
  Ti  Ti150  1  0.60404229  0.40408060  0.80020708  1
  Ti  Ti151  1  0.49851008  0.09385495  0.29367836  1
  Ti  Ti152  1  0.48689257  0.89664039  0.28878355  1
  Ti  Ti153  1  0.41106635  0.59628548  0.41114428  1
  Ti  Ti154  1  0.08991231  0.90300741  0.11193100  1
  Ti  Ti155  1  0.90601228  0.89844332  0.68914000  1
  Ti  Ti156  1  0.19048243  0.00336281  0.59552705  1
  Ti  Ti157  1  0.49734388  0.70559648  0.49124049  1
  Ti  Ti158  1  0.49282195  0.70405375  0.30476918  1
  Ti  Ti159  1  0.18133811  0.80678257  0.60428603  1
  Ti  Ti160  1  0.70451969  0.10631315  0.29833693  1
  Ti  Ti161  1  -0.00197711  0.01001765  0.60217734  1
  Ti  Ti162  1  0.20094624  0.40129242  0.20049263  1
  Ti  Ti163  1  0.10792183  0.29740273  0.90193476  1
  Ti  Ti164  1  0.60647980  -0.00386085  0.20548450  1
  Ti  Ti165  1  0.49857826  0.30515627  0.29931986  1
  Ti  Ti166  1  0.90239907  0.10739074  0.28448403  1
  Ti  Ti167  1  0.19819971  0.39672703  0.40163331  1
  Ti  Ti168  1  0.39463251  0.80667040  0.39379321  1
  Ti  Ti169  1  0.49672641  0.70000207  0.89702332  1
  Ti  Ti170  1  0.79678624  0.80060350  0.00384510  1
  Ti  Ti171  1  0.40316151  0.79708260  0.00459383  1
  Ti  Ti172  1  0.89407319  0.71176488  0.49707798  1
  Ti  Ti173  1  0.91049916  0.88600207  0.49985023  1
  Ti  Ti174  1  0.90085653  0.71423561  0.69006757  1
  Ti  Ti175  1  0.59441696  0.59816658  0.00747099  1
  Ti  Ti176  1  0.10257687  0.29489137  0.10292958  1
  Ti  Ti177  1  0.79823900  0.60098083  0.21157014  1
  Ti  Ti178  1  0.69719562  0.50447763  0.90402693  1
  Ti  Ti179  1  0.60218784  0.20139329  0.00876367  1
  Ti  Ti180  1  0.19132862  0.80281882  0.80169690  1
  Ti  Ti181  1  0.59614337  0.79157711  0.79337807  1
  Ti  Ti182  1  0.19616316  0.19596552  0.00458269  1
  Ti  Ti183  1  0.28940954  0.51480336  0.49163270  1
  Ti  Ti184  1  0.90224540  0.89901355  0.90784621  1
  Ti  Ti185  1  0.31393199  0.89928153  0.12046692  1
  Ti  Ti186  1  0.40865235  0.60029744  0.59728622  1
  Ti  Ti187  1  0.90452688  0.11772388  0.50678858  1
  Ti  Ti188  1  0.60204740  0.79572901  0.39301444  1
  Ti  Ti189  1  0.88911084  0.50338464  0.10829354  1
  Ti  Ti190  1  0.09650597  0.10486666  0.50648117  1
  Ti  Ti191  1  0.79722554  0.40508409  0.21154463  1
  Ti  Ti192  1  0.41253229  0.80149873  0.60290327  1
  Ti  Ti193  1  0.71077189  0.89302282  0.30240803  1
  Ti  Ti194  1  0.01015926  0.19407140  0.00228938  1
  Ti  Ti195  1  0.80169661  0.20580992  0.59118008  1
  Ti  Ti196  1  0.09492433  0.09305063  0.28774716  1
  Ti  Ti197  1  0.51174291  0.48839131  0.69550291  1
  Ti  Ti198  1  0.30039568  0.30870758  0.29289121  1
  Ti  Ti199  1  0.60723428  0.40411907  0.39794891  1
  Mo  Mo200  1  -0.00275682  0.80964635  0.60301956  1
  Mo  Mo201  1  0.60086694  0.40351318  0.60178979  1
  Mo  Mo202  1  -0.01459963  -0.00157728  0.20236563  1
  Mo  Mo203  1  0.40617230  0.79979176  0.80206564  1
  Mo  Mo204  1  0.09455424  0.72049378  0.70469376  1
  Mo  Mo205  1  0.29108211  0.09531868  0.29477128  1
  Mo  Mo206  1  0.20424953  -0.00180716  0.80515375  1
  Mo  Mo207  1  -0.00402638  0.80392504  0.39980431  1
  Mo  Mo208  1  0.59158396  0.20099255  0.38407991  1
  Mo  Mo209  1  0.80045796  -0.00730792  0.00393892  1
  Mo  Mo210  1  0.70235742  0.09446314  0.10382092  1
  Mo  Mo211  1  0.78747224  0.18796008  0.01416809  1
  Mo  Mo212  1  0.50931630  0.29702866  0.09695394  1
  Mo  Mo213  1  0.39754531  0.40259768  0.20292105  1
  Mo  Mo214  1  0.49960200  0.70159358  0.09404443  1
  Mo  Mo215  1  0.00449112  0.19805251  0.59359748  1
  Mo  Mo216  1  0.20775858  -0.00030028  0.20398875  1
  Mo  Mo217  1  -0.00242881  0.40352994  0.59205636  1
  Mo  Mo218  1  0.18937959  0.61050554  0.39684370  1
  Mo  Mo219  1  0.70363837  0.50475515  0.69683471  1
  Mo  Mo220  1  0.80785914  0.79491663  0.39575178  1
  Mo  Mo221  1  0.50514147  0.50451439  0.09598709  1
  Mo  Mo222  1  -0.01052619  -0.00678168  0.80150863  1
  Mo  Mo223  1  0.89759773  0.50350433  0.90760568  1
  Mo  Mo224  1  0.40094692  -0.00352534  0.20292621  1
  Mo  Mo225  1  0.89769446  0.70255638  0.30153650  1
  Mo  Mo226  1  0.09878208  0.91094142  0.50312513  1
  Mo  Mo227  1  0.40493699  0.20690374  0.79682438  1
  Mo  Mo228  1  0.70417055  0.30288702  0.49019273  1
  Mo  Mo229  1  0.90084784  0.09841193  0.68534952  1
  Mo  Mo230  1  0.79721320  0.18790185  0.20294690  1
  Mo  Mo231  1  0.19731477  0.39745433  0.00608907  1
  Mo  Mo232  1  0.50355544  0.70691520  0.69739566  1
  Mo  Mo233  1  0.89693108  0.29976117  0.49372178  1
  Mo  Mo234  1  0.60279307  -0.00427820  0.80287728  1
  Mo  Mo235  1  0.00219519  0.19435964  0.19893038  1
  Mo  Mo236  1  0.20147249  0.39052842  0.80251206  1
  Mo  Mo237  1  0.50475879  0.50521980  0.49337481  1
  Mo  Mo238  1  -0.00243409  0.80708174  0.00524883  1
  Mo  Mo239  1  0.81305549  0.20315413  0.39455896  1
  Mo  Mo240  1  0.89062348  0.50307058  0.30230149  1
  Mo  Mo241  1  0.80674008  0.79558721  0.59679482  1
  Mo  Mo242  1  0.40413670  0.79808921  0.20149826  1
  Mo  Mo243  1  0.29611580  0.90026254  0.30369074  1
  Mo  Mo244  1  0.09932782  0.09969490  0.69623021  1
  Mo  Mo245  1  0.70460470  0.69933014  0.30512087  1
  Mo  Mo246  1  0.09758845  0.89966113  0.89920949  1
  Mo  Mo247  1  0.89122339  0.29646650  0.29802267  1
  Mo  Mo248  1  0.70094342  0.49950116  0.30058097  1
  Mo  Mo249  1  0.59843750  -0.01195139  0.00390926  1
