# generated using pymatgen
data_HfZrTaTiMo
_symmetry_space_group_name_H-M   'P 1'
_cell_length_a   16.88196461
_cell_length_b   16.88494708
_cell_length_c   16.89203140
_cell_angle_alpha   89.96382432
_cell_angle_beta   90.01625853
_cell_angle_gamma   89.99076930
_symmetry_Int_Tables_number   1
_chemical_formula_structural   HfZrTaTiMo
_chemical_formula_sum   'Hf50 Zr50 Ta50 Ti50 Mo50'
_cell_volume   4815.09056286
_cell_formula_units_Z   50
loop_
 _symmetry_equiv_pos_site_id
 _symmetry_equiv_pos_as_xyz
  1  'x, y, z'
loop_
 _atom_site_type_symbol
 _atom_site_label
 _atom_site_symmetry_multiplicity
 _atom_site_fract_x
 _atom_site_fract_y
 _atom_site_fract_z
 _atom_site_occupancy
  Hf  Hf0  1  0.59126687  0.19103285  0.60952464  1
  Hf  Hf1  1  0.58952072  0.79860492  0.19934201  1
  Hf  Hf2  1  0.19519726  0.79937108  0.40324119  1
  Hf  Hf3  1  0.10195692  0.09584456  0.50708348  1
  Hf  Hf4  1  0.69653552  0.70098798  0.70752055  1
  Hf  Hf5  1  0.59794314  -0.00521532  0.78516763  1
  Hf  Hf6  1  0.49423360  0.89532673  0.69457367  1
  Hf  Hf7  1  -0.00182687  0.81057439  0.40271275  1
  Hf  Hf8  1  0.49392771  0.30636690  0.10663702  1
  Hf  Hf9  1  0.80614508  0.41163729  0.80183803  1
  Hf  Hf10  1  0.39132310  0.19997072  -0.00385290  1
  Hf  Hf11  1  0.39362535  0.79773107  0.19132296  1
  Hf  Hf12  1  0.29684840  0.90638392  0.89795068  1
  Hf  Hf13  1  0.10225363  0.30021760  0.90131403  1
  Hf  Hf14  1  0.89987267  0.89369803  0.09542453  1
  Hf  Hf15  1  0.80659074  0.80304877  0.60217502  1
  Hf  Hf16  1  -0.00259199  0.19928308  0.40237948  1
  Hf  Hf17  1  0.59011498  -0.00634622  0.39753229  1
  Hf  Hf18  1  0.49869345  0.30904050  0.29352794  1
  Hf  Hf19  1  0.59597340  0.59282397  0.60427913  1
  Hf  Hf20  1  0.60230306  0.20433996  0.00088380  1
  Hf  Hf21  1  0.59191716  -0.00175138  0.20486764  1
  Hf  Hf22  1  0.00146505  0.41060680  0.80642373  1
  Hf  Hf23  1  0.10537740  0.09272237  0.69129115  1
  Hf  Hf24  1  0.10287617  0.69923032  0.10555091  1
  Hf  Hf25  1  0.50211406  0.70171425  0.70552451  1
  Hf  Hf26  1  0.90203662  0.89776891  0.89316532  1
  Hf  Hf27  1  -0.00116931  0.80104357  0.20205991  1
  Hf  Hf28  1  0.89809936  0.50025076  0.50227510  1
  Hf  Hf29  1  0.89452737  0.70598378  0.90708314  1
  Hf  Hf30  1  0.00850705  0.79924032  0.00089935  1
  Hf  Hf31  1  0.69678759  0.30617798  0.49969683  1
  Hf  Hf32  1  0.70545395  0.10356214  0.09916708  1
  Hf  Hf33  1  0.39946020  0.60775828  0.20195031  1
  Hf  Hf34  1  0.09752943  0.68617153  0.49488693  1
  Hf  Hf35  1  0.09571863  0.68637273  0.89188474  1
  Hf  Hf36  1  0.40339907  0.00296345  0.60424646  1
  Hf  Hf37  1  0.80279091  0.00113292  0.00020096  1
  Hf  Hf38  1  0.30729315  0.70473957  0.90065800  1
  Hf  Hf39  1  0.08629183  0.49561518  0.08239961  1
  Hf  Hf40  1  0.30011461  0.90191588  0.51059511  1
  Hf  Hf41  1  0.00885852  0.00388306  0.00133561  1
  Hf  Hf42  1  0.29411669  0.89919553  0.29377444  1
  Hf  Hf43  1  0.39168204  0.40383522  -0.01017162  1
  Hf  Hf44  1  0.90205263  0.69629922  0.49428606  1
  Hf  Hf45  1  0.29570085  0.49643278  0.09781602  1
  Hf  Hf46  1  0.90205252  0.69311809  0.30207165  1
  Hf  Hf47  1  0.29293810  0.29774208  0.10435747  1
  Hf  Hf48  1  0.60186345  0.40540304  0.79984997  1
  Hf  Hf49  1  0.59924699  0.19828730  0.78758885  1
  Zr  Zr50  1  0.69194033  0.49248644  0.29558414  1
  Zr  Zr51  1  0.00407948  0.41383891  0.60718971  1
  Zr  Zr52  1  0.50423830  0.50765395  0.89674589  1
  Zr  Zr53  1  0.39300089  0.19865509  0.39604876  1
  Zr  Zr54  1  0.58920005  0.40003362  0.61232457  1
  Zr  Zr55  1  0.80208319  0.59785358  0.60884575  1
  Zr  Zr56  1  0.09958832  0.90567201  0.29625686  1
  Zr  Zr57  1  0.60238639  0.60971460  0.19767584  1
  Zr  Zr58  1  0.69893467  0.09357459  0.49600545  1
  Zr  Zr59  1  0.60868928  0.60056134  0.00217687  1
  Zr  Zr60  1  0.69954363  0.30036896  0.29641783  1
  Zr  Zr61  1  0.20240209  0.00876511  0.39574674  1
  Zr  Zr62  1  0.69877360  0.70391231  0.49551346  1
  Zr  Zr63  1  0.80579439  0.39724694  0.39584183  1
  Zr  Zr64  1  0.80059162  0.19187206  0.59913993  1
  Zr  Zr65  1  0.69405948  0.89209443  0.09452261  1
  Zr  Zr66  1  0.49973174  0.49550901  0.30051159  1
  Zr  Zr67  1  0.50183716  0.49463580  0.10308176  1
  Zr  Zr68  1  0.48899638  0.09142180  0.88901684  1
  Zr  Zr69  1  0.48847680  0.10409328  0.10676829  1
  Zr  Zr70  1  0.70214251  0.89549830  0.89951019  1
  Zr  Zr71  1  0.81291006  -0.00500139  0.59657436  1
  Zr  Zr72  1  0.80720221  -0.00694316  0.20505962  1
  Zr  Zr73  1  0.71640676  0.29019132  0.89812988  1
  Zr  Zr74  1  0.90148268  0.10286964  0.29819941  1
  Zr  Zr75  1  0.29283002  0.51405808  0.48974542  1
  Zr  Zr76  1  0.20536027  0.59970426  -0.00657214  1
  Zr  Zr77  1  -0.00000476  0.40083950  0.39807988  1
  Zr  Zr78  1  0.89615078  0.30543636  0.69639763  1
  Zr  Zr79  1  0.39167332  -0.00871084  0.01277691  1
  Zr  Zr80  1  0.40296044  0.80060998  0.39956433  1
  Zr  Zr81  1  0.10195871  0.29622877  0.69767679  1
  Zr  Zr82  1  0.10579226  0.30225135  0.09841079  1
  Zr  Zr83  1  0.38918562  0.39815364  0.60230250  1
  Zr  Zr84  1  0.91592247  0.51126849  0.92075208  1
  Zr  Zr85  1  0.59917200  0.19485849  0.20270925  1
  Zr  Zr86  1  -0.00351378  0.60510089  0.61814232  1
  Zr  Zr87  1  0.49562895  0.70910593  0.50718321  1
  Zr  Zr88  1  0.09726339  0.29519947  0.50684364  1
  Zr  Zr89  1  0.49650578  0.30186530  0.89485052  1
  Zr  Zr90  1  0.20226087  0.59607194  0.20012312  1
  Zr  Zr91  1  0.59335670  0.18802523  0.39195954  1
  Zr  Zr92  1  0.89276534  0.10359221  0.89712343  1
  Zr  Zr93  1  0.39532496  0.59951542  0.60614711  1
  Zr  Zr94  1  0.00226062  0.19319213  0.79932590  1
  Zr  Zr95  1  0.70053348  0.09545998  0.89498769  1
  Zr  Zr96  1  0.70378271  0.70374697  0.30410649  1
  Zr  Zr97  1  0.49620746  0.30145643  0.49670235  1
  Zr  Zr98  1  0.11328880  0.51822839  0.72435416  1
  Zr  Zr99  1  0.19631681  0.78986580  0.60485496  1
  Ta  Ta100  1  0.20485007  0.40110018  0.59890180  1
  Ta  Ta101  1  0.00528522  0.19948409  0.19581575  1
  Ta  Ta102  1  0.70194350  0.89534457  0.30492496  1
  Ta  Ta103  1  0.29420678  0.69517771  0.30608819  1
  Ta  Ta104  1  -0.00618145  0.59223743  0.19869146  1
  Ta  Ta105  1  0.20231358  0.20295029  0.40075295  1
  Ta  Ta106  1  0.21803066  0.20443182  0.60121676  1
  Ta  Ta107  1  0.49852517  0.70582251  0.08495403  1
  Ta  Ta108  1  0.40364567  0.60046385  0.79946179  1
  Ta  Ta109  1  0.09984327  0.69309104  0.30226441  1
  Ta  Ta110  1  0.30316090  0.29743323  0.88235170  1
  Ta  Ta111  1  0.30047327  0.10014427  0.50614049  1
  Ta  Ta112  1  0.79845301  0.59027475  0.39490254  1
  Ta  Ta113  1  0.49466477  0.50100906  0.49186873  1
  Ta  Ta114  1  0.80892511  0.40332091  0.19312448  1
  Ta  Ta115  1  0.80469366  0.79642162  0.20063324  1
  Ta  Ta116  1  0.90524123  0.30015367  0.09715115  1
  Ta  Ta117  1  0.80472762  0.40222918  0.00648405  1
  Ta  Ta118  1  0.49917379  0.89395098  0.90226586  1
  Ta  Ta119  1  0.10651561  0.89995978  0.89576323  1
  Ta  Ta120  1  0.29731200  0.09640645  0.89357118  1
  Ta  Ta121  1  0.20050160  0.39795518  0.39984702  1
  Ta  Ta122  1  0.90170363  0.29784595  0.90883931  1
  Ta  Ta123  1  -0.00373676  0.40344516  0.19988500  1
  Ta  Ta124  1  0.00562334  0.00543332  0.19401840  1
  Ta  Ta125  1  0.38688587  0.40244247  0.39656877  1
  Ta  Ta126  1  0.10125598  0.30006058  0.29622065  1
  Ta  Ta127  1  0.59284174  0.60344916  0.39976833  1
  Ta  Ta128  1  0.29661152  0.90131851  0.70407021  1
  Ta  Ta129  1  0.69703268  0.89870181  0.49710318  1
  Ta  Ta130  1  0.61599865  0.39706198  0.00228013  1
  Ta  Ta131  1  0.40043275  0.80251408  0.80135741  1
  Ta  Ta132  1  0.20101036  0.00379987  0.19184253  1
  Ta  Ta133  1  0.09835956  0.90970020  0.51587538  1
  Ta  Ta134  1  0.29208249  0.29992651  0.29649689  1
  Ta  Ta135  1  0.80506768  0.60187046  0.80185732  1
  Ta  Ta136  1  0.49438032  0.09450304  0.50261872  1
  Ta  Ta137  1  0.10155334  0.90017672  0.70318944  1
  Ta  Ta138  1  0.69332690  0.49579715  0.49767526  1
  Ta  Ta139  1  0.70294631  0.70260317  0.90150645  1
  Ta  Ta140  1  0.60099217  0.80306135  0.80179506  1
  Ta  Ta141  1  0.09804073  0.50402820  0.30639991  1
  Ta  Ta142  1  0.20745767  0.19629724  0.79398121  1
  Ta  Ta143  1  0.00380381  0.19591047  0.00275304  1
  Ta  Ta144  1  0.91060464  0.89837571  0.70486432  1
  Ta  Ta145  1  0.81014190  -0.01080279  0.40238597  1
  Ta  Ta146  1  0.90359921  0.29739070  0.29058784  1
  Ta  Ta147  1  0.20685760  0.80363417  0.00727284  1
  Ta  Ta148  1  0.50433872  0.70403627  0.89954284  1
  Ta  Ta149  1  0.00407019  0.00002829  0.79882882  1
  Ti  Ti150  1  0.40181918  -0.00030690  0.40038571  1
  Ti  Ti151  1  0.70501833  0.08226388  0.69500846  1
  Ti  Ti152  1  0.29194662  0.10192684  0.10101404  1
  Ti  Ti153  1  0.39765871  0.80558548  0.00598686  1
  Ti  Ti154  1  0.30766505  0.09741425  0.70714523  1
  Ti  Ti155  1  0.70918222  0.50016350  0.09878399  1
  Ti  Ti156  1  0.79992384  0.80361073  0.79159523  1
  Ti  Ti157  1  0.19466655  0.40709183  0.20975470  1
  Ti  Ti158  1  0.10330352  0.50773384  0.49627790  1
  Ti  Ti159  1  -0.00929529  -0.00287854  0.40626341  1
  Ti  Ti160  1  0.20433099  0.19599952  -0.00935983  1
  Ti  Ti161  1  0.71180620  0.70572510  0.09048533  1
  Ti  Ti162  1  0.80360739  0.20739561  0.19381893  1
  Ti  Ti163  1  0.81033101  0.81133695  0.39796504  1
  Ti  Ti164  1  0.70899732  0.30694300  0.69418801  1
  Ti  Ti165  1  0.89570242  0.30319994  0.50871042  1
  Ti  Ti166  1  0.30338121  0.70566916  0.70499451  1
  Ti  Ti167  1  0.30086786  0.49908728  0.70693288  1
  Ti  Ti168  1  0.39799186  0.60200450  0.00097547  1
  Ti  Ti169  1  0.70135226  0.50211963  0.70297630  1
  Ti  Ti170  1  -0.01820529  0.18137740  0.60043225  1
  Ti  Ti171  1  0.09777806  0.10124202  0.29807700  1
  Ti  Ti172  1  0.20199251  0.60265788  0.60793353  1
  Ti  Ti173  1  0.70810888  0.51011247  0.90373559  1
  Ti  Ti174  1  0.38220587  0.40512881  0.20786190  1
  Ti  Ti175  1  0.20036870  0.00242137  0.79731722  1
  Ti  Ti176  1  0.60651576  0.81302195  0.60224959  1
  Ti  Ti177  1  0.11168776  0.90155997  0.10055610  1
  Ti  Ti178  1  0.59025516  -0.00483732  0.00463866  1
  Ti  Ti179  1  0.09368512  0.70443322  0.71445271  1
  Ti  Ti180  1  0.90220433  0.10735516  0.09953078  1
  Ti  Ti181  1  0.80884756  0.59688391  0.19231126  1
  Ti  Ti182  1  0.49201824  0.89878948  0.29792926  1
  Ti  Ti183  1  0.20135144  0.40385679  -0.01730800  1
  Ti  Ti184  1  0.39648826  -0.00506825  0.19652205  1
  Ti  Ti185  1  0.80323417  0.19033541  0.78398985  1
  Ti  Ti186  1  0.10872101  0.10290565  0.09658092  1
  Ti  Ti187  1  0.47708662  0.29942104  0.71347382  1
  Ti  Ti188  1  -0.00215217  0.80030415  0.60543940  1
  Ti  Ti189  1  0.80833919  0.19684511  0.40501700  1
  Ti  Ti190  1  0.30118730  0.69680251  0.49682940  1
  Ti  Ti191  1  0.71027002  0.09546407  0.30161041  1
  Ti  Ti192  1  0.11070631  0.09544381  0.90044431  1
  Ti  Ti193  1  0.59073105  0.80293147  0.39728450  1
  Ti  Ti194  1  0.20553432  0.39651738  0.79615835  1
  Ti  Ti195  1  0.39675750  0.20020596  0.60526687  1
  Ti  Ti196  1  0.29636791  0.50290268  0.88462992  1
  Ti  Ti197  1  0.19776170  0.19347151  0.20755855  1
  Ti  Ti198  1  0.19999381  0.79814356  0.80250787  1
  Ti  Ti199  1  0.30636413  0.10137730  0.29077769  1
  Mo  Mo200  1  0.30384876  0.70292911  0.09651401  1
  Mo  Mo201  1  0.49410732  0.10000616  0.69518623  1
  Mo  Mo202  1  0.20073770  0.79722455  0.19855162  1
  Mo  Mo203  1  0.19588218  0.00442683  -0.00042093  1
  Mo  Mo204  1  0.61821580  0.39545390  0.17688170  1
  Mo  Mo205  1  0.39976109  0.60383970  0.39354107  1
  Mo  Mo206  1  0.80317927  -0.00527024  0.78859326  1
  Mo  Mo207  1  0.90702820  0.89666210  0.50161951  1
  Mo  Mo208  1  0.49445206  0.69920589  0.30545770  1
  Mo  Mo209  1  0.59750097  0.79687760  -0.00400211  1
  Mo  Mo210  1  0.79950604  0.79591854  0.00348665  1
  Mo  Mo211  1  0.20648767  0.00425825  0.60785722  1
  Mo  Mo212  1  0.47908801  0.08894866  0.30116314  1
  Mo  Mo213  1  0.60746721  0.60343756  0.80344182  1
  Mo  Mo214  1  0.70140400  0.89635719  0.69649299  1
  Mo  Mo215  1  0.29886992  0.30114572  0.70058109  1
  Mo  Mo216  1  0.10775364  0.49820865  0.89995498  1
  Mo  Mo217  1  0.90224508  0.70845403  0.71300823  1
  Mo  Mo218  1  0.59841205  -0.00584269  0.59442133  1
  Mo  Mo219  1  -0.00190741  0.59505600  0.39296231  1
  Mo  Mo220  1  0.39446632  0.19348984  0.79330421  1
  Mo  Mo221  1  0.22019845  0.61161635  0.79651192  1
  Mo  Mo222  1  -0.00044111  0.38826061  0.00124286  1
  Mo  Mo223  1  0.49616960  0.50268953  0.70502718  1
  Mo  Mo224  1  0.89851285  0.49941096  0.10290447  1
  Mo  Mo225  1  0.90102225  0.49975262  0.29462409  1
  Mo  Mo226  1  0.00221928  -0.00709775  0.60434886  1
  Mo  Mo227  1  0.79924894  0.60161888  0.00702007  1
  Mo  Mo228  1  0.00785345  0.80448346  0.79960669  1
  Mo  Mo229  1  0.38702671  0.20144664  0.20195667  1
  Mo  Mo230  1  0.29006753  0.89924863  0.10210916  1
  Mo  Mo231  1  0.89911049  0.89970742  0.29832510  1
  Mo  Mo232  1  0.59103935  0.40668687  0.41009167  1
  Mo  Mo233  1  -0.01545567  0.60775133  0.80286294  1
  Mo  Mo234  1  0.39580560  0.40971558  0.79592962  1
  Mo  Mo235  1  0.50395179  0.90285294  0.50287895  1
  Mo  Mo236  1  0.29502059  0.29802080  0.49640880  1
  Mo  Mo237  1  0.49653871  0.89671957  0.09615426  1
  Mo  Mo238  1  0.79128799  0.40475473  0.60249860  1
  Mo  Mo239  1  0.39744076  -0.00473022  0.79820447  1
  Mo  Mo240  1  0.90368730  0.08812152  0.70231515  1
  Mo  Mo241  1  0.29411562  0.49637457  0.29919810  1
  Mo  Mo242  1  0.80870837  0.20304408  0.01097419  1
  Mo  Mo243  1  -0.00106032  0.61128211  0.01017301  1
  Mo  Mo244  1  0.90585279  0.09366266  0.49629907  1
  Mo  Mo245  1  0.89769232  0.69518778  0.10132414  1
  Mo  Mo246  1  0.71150308  0.30136991  0.09813153  1
  Mo  Mo247  1  0.19721984  0.60030668  0.39630660  1
  Mo  Mo248  1  0.38999195  0.80120084  0.60717973  1
  Mo  Mo249  1  0.89463098  0.50584799  0.70857449  1
