# generated using pymatgen
data_HfZrTaTiMo
_symmetry_space_group_name_H-M   'P 1'
_cell_length_a   16.89454447
_cell_length_b   16.90171671
_cell_length_c   16.90173586
_cell_angle_alpha   89.99877638
_cell_angle_beta   89.97228361
_cell_angle_gamma   90.00968256
_symmetry_Int_Tables_number   1
_chemical_formula_structural   HfZrTaTiMo
_chemical_formula_sum   'Hf50 Zr50 Ta50 Ti50 Mo50'
_cell_volume   4826.23603255
_cell_formula_units_Z   50
loop_
 _symmetry_equiv_pos_site_id
 _symmetry_equiv_pos_as_xyz
  1  'x, y, z'
loop_
 _atom_site_type_symbol
 _atom_site_label
 _atom_site_symmetry_multiplicity
 _atom_site_fract_x
 _atom_site_fract_y
 _atom_site_fract_z
 _atom_site_occupancy
  Hf  Hf0  1  0.69779764  0.30081155  0.49547283  1
  Hf  Hf1  1  0.70590575  0.90417122  0.30155360  1
  Hf  Hf2  1  -0.00861995  0.82063246  0.79136653  1
  Hf  Hf3  1  0.00188093  0.80633189  0.40336590  1
  Hf  Hf4  1  0.50611289  0.70464284  0.70197036  1
  Hf  Hf5  1  0.69472837  0.09930839  0.30423197  1
  Hf  Hf6  1  -0.01272731  0.38562832  0.39679024  1
  Hf  Hf7  1  0.20300054  -0.00185684  0.20436206  1
  Hf  Hf8  1  0.40132512  0.60212267  0.79905776  1
  Hf  Hf9  1  0.89926857  0.69881407  0.70029163  1
  Hf  Hf10  1  0.09800494  0.90666214  0.10116852  1
  Hf  Hf11  1  0.61095947  0.80376163  0.59555949  1
  Hf  Hf12  1  0.09671784  0.10545212  0.09446502  1
  Hf  Hf13  1  0.50051908  0.70541201  0.09946885  1
  Hf  Hf14  1  0.28914627  0.08479808  0.50095391  1
  Hf  Hf15  1  0.49202013  0.48890227  0.88964338  1
  Hf  Hf16  1  0.09940518  0.10574028  0.90469669  1
  Hf  Hf17  1  -0.00142680  0.39599458  0.59769181  1
  Hf  Hf18  1  0.50067437  0.89464056  0.69924386  1
  Hf  Hf19  1  0.30186520  0.71280113  0.69503474  1
  Hf  Hf20  1  0.80048666  -0.00196251  0.00748166  1
  Hf  Hf21  1  0.50984599  0.69875909  0.29807997  1
  Hf  Hf22  1  0.61331608  0.59620621  0.18725559  1
  Hf  Hf23  1  0.80172133  0.19839509  0.20908093  1
  Hf  Hf24  1  0.10886068  0.71339421  0.50355275  1
  Hf  Hf25  1  0.89330979  0.10206502  0.70081803  1
  Hf  Hf26  1  0.20065543  0.39313928  0.80171239  1
  Hf  Hf27  1  -0.00646331  0.39880354  0.00190449  1
  Hf  Hf28  1  0.69809805  0.91623728  0.49414365  1
  Hf  Hf29  1  0.61265395  0.80563410  0.18550657  1
  Hf  Hf30  1  0.59655419  0.39903733  0.00641608  1
  Hf  Hf31  1  0.10555720  0.50160571  0.49476576  1
  Hf  Hf32  1  0.11313806  0.91308165  0.50354565  1
  Hf  Hf33  1  -0.00892828  0.59263335  0.00525786  1
  Hf  Hf34  1  0.60661468  0.59312365  0.59812518  1
  Hf  Hf35  1  0.69719601  0.09992114  0.70583464  1
  Hf  Hf36  1  0.29744557  0.90151112  0.90626280  1
  Hf  Hf37  1  0.09921238  0.50723225  0.30060341  1
  Hf  Hf38  1  0.40421149  0.39349450  0.39297456  1
  Hf  Hf39  1  0.39747757  0.80127500  0.40154065  1
  Hf  Hf40  1  0.31213078  0.48667656  0.69966211  1
  Hf  Hf41  1  0.00089997  0.79873456  0.19676063  1
  Hf  Hf42  1  0.39607117  0.60709724  0.39995749  1
  Hf  Hf43  1  0.80326209  0.40371532  0.58296552  1
  Hf  Hf44  1  0.09122618  0.69958005  0.89257470  1
  Hf  Hf45  1  0.50481838  0.69952018  0.50107495  1
  Hf  Hf46  1  0.89589884  0.50762148  0.29958148  1
  Hf  Hf47  1  0.49643135  0.09509544  0.90661364  1
  Hf  Hf48  1  0.40020723  -0.00800225  0.80101396  1
  Hf  Hf49  1  0.39639274  0.20038532  0.39445312  1
  Zr  Zr50  1  0.70791707  0.49347338  0.70059481  1
  Zr  Zr51  1  0.10166785  0.29612851  0.50046971  1
  Zr  Zr52  1  0.20699272  0.20036099  0.20506877  1
  Zr  Zr53  1  0.89495684  0.70242266  0.89957255  1
  Zr  Zr54  1  0.09986153  0.09949418  0.71087257  1
  Zr  Zr55  1  0.70552971  0.70198926  0.29689137  1
  Zr  Zr56  1  0.19176740  0.60103365  0.00037586  1
  Zr  Zr57  1  0.19378328  0.61579427  0.19376475  1
  Zr  Zr58  1  0.69515824  0.09619990  0.89783504  1
  Zr  Zr59  1  0.58832938  0.19967532  0.60363649  1
  Zr  Zr60  1  -0.01507148  0.80239556  0.00944029  1
  Zr  Zr61  1  0.51197879  0.90393821  0.30290013  1
  Zr  Zr62  1  0.20540945  0.38880876  0.38969959  1
  Zr  Zr63  1  0.89220985  0.30011211  0.69995387  1
  Zr  Zr64  1  0.70066506  0.29425009  0.70050464  1
  Zr  Zr65  1  0.00202526  0.60077689  0.60250650  1
  Zr  Zr66  1  0.30334581  0.10868440  0.89958695  1
  Zr  Zr67  1  0.59704462  0.59917959  -0.00201569  1
  Zr  Zr68  1  0.09911876  0.90747188  0.90163054  1
  Zr  Zr69  1  0.20907242  0.60088648  0.60014093  1
  Zr  Zr70  1  0.89360053  0.70001490  0.30197401  1
  Zr  Zr71  1  -0.01078682  0.39986651  0.81215860  1
  Zr  Zr72  1  -0.00218526  0.39991382  0.19837518  1
  Zr  Zr73  1  0.40592898  0.19309334  0.59554392  1
  Zr  Zr74  1  0.41103116  0.79807303  -0.01171857  1
  Zr  Zr75  1  0.52922621  0.30364907  0.28628951  1
  Zr  Zr76  1  0.59349323  0.19968667  0.40382461  1
  Zr  Zr77  1  0.89429265  0.89820508  0.30094548  1
  Zr  Zr78  1  0.49356217  0.91048823  0.09792997  1
  Zr  Zr79  1  0.70851996  0.10298212  0.50445935  1
  Zr  Zr80  1  0.80904199  0.59045656  0.80494797  1
  Zr  Zr81  1  0.28740908  0.70550686  0.89489027  1
  Zr  Zr82  1  0.90125707  0.51263307  0.49125787  1
  Zr  Zr83  1  -0.00561913  0.19979073  0.20945630  1
  Zr  Zr84  1  0.89504293  0.90946093  0.50132801  1
  Zr  Zr85  1  0.40014121  0.60254639  -0.00345193  1
  Zr  Zr86  1  0.39145068  0.38699454  0.00303338  1
  Zr  Zr87  1  0.10574696  0.28919662  0.90857631  1
  Zr  Zr88  1  0.29700988  0.50752287  0.29604949  1
  Zr  Zr89  1  0.50163750  0.08997708  0.28795099  1
  Zr  Zr90  1  0.10127200  0.70479782  0.70278981  1
  Zr  Zr91  1  0.30629286  0.49196542  0.50450757  1
  Zr  Zr92  1  0.49488337  0.28572350  0.88967667  1
  Zr  Zr93  1  0.19599418  0.19475215  0.60061796  1
  Zr  Zr94  1  0.69770905  0.48973132  0.89446164  1
  Zr  Zr95  1  0.30082119  0.89882846  0.10126794  1
  Zr  Zr96  1  0.29729213  0.50080288  0.09924219  1
  Zr  Zr97  1  0.69266421  0.29639237  0.11133700  1
  Zr  Zr98  1  0.39530885  0.39207365  0.20308316  1
  Zr  Zr99  1  0.69447633  0.70535872  0.89526652  1
  Ta  Ta100  1  0.39001618  0.80130876  0.21245356  1
  Ta  Ta101  1  0.80309949  0.19995473  0.81182280  1
  Ta  Ta102  1  0.79671457  0.39493312  0.39157779  1
  Ta  Ta103  1  0.80610858  0.00526919  0.19432412  1
  Ta  Ta104  1  0.10133113  0.09424779  0.30766293  1
  Ta  Ta105  1  0.80216216  0.40071829  0.00316001  1
  Ta  Ta106  1  0.29759193  0.49141371  0.89533669  1
  Ta  Ta107  1  -0.00650461  0.00454241  0.20561048  1
  Ta  Ta108  1  0.79949978  0.80321661  0.60437965  1
  Ta  Ta109  1  0.60050939  0.19701874  0.00058700  1
  Ta  Ta110  1  0.19838110  0.38707192  0.19430329  1
  Ta  Ta111  1  0.59136458  0.00035703  0.60227281  1
  Ta  Ta112  1  0.49818701  0.09899757  0.09829289  1
  Ta  Ta113  1  0.10465777  0.70873281  0.29885032  1
  Ta  Ta114  1  0.09888561  0.49459078  0.70455218  1
  Ta  Ta115  1  0.79797133  0.40026716  0.20187694  1
  Ta  Ta116  1  0.21192700  0.80327189  0.39401139  1
  Ta  Ta117  1  0.69639143  0.89462959  0.90305264  1
  Ta  Ta118  1  0.39673672  -0.01003573  0.40054183  1
  Ta  Ta119  1  0.09821832  0.29327110  0.70811622  1
  Ta  Ta120  1  0.31527708  0.09422554  0.09899266  1
  Ta  Ta121  1  -0.00489615  0.81438476  0.60340634  1
  Ta  Ta122  1  0.79960493  0.81285182  0.79362626  1
  Ta  Ta123  1  -0.00383173  0.19701823  0.59679670  1
  Ta  Ta124  1  0.79226928  0.79366536  0.41678309  1
  Ta  Ta125  1  0.29604544  0.90175348  0.50582973  1
  Ta  Ta126  1  0.89859060  0.70428516  0.50485136  1
  Ta  Ta127  1  0.69593524  0.49410617  0.29951555  1
  Ta  Ta128  1  0.20359099  0.00707132  0.00344824  1
  Ta  Ta129  1  -0.00333041  0.60743051  0.18962407  1
  Ta  Ta130  1  0.20028027  0.59214194  0.79689952  1
  Ta  Ta131  1  0.00144095  0.00928564  0.40221264  1
  Ta  Ta132  1  -0.00486083  0.19330377  0.40255435  1
  Ta  Ta133  1  0.30070318  0.09843948  0.70396179  1
  Ta  Ta134  1  0.58893413  0.39300704  0.78596030  1
  Ta  Ta135  1  0.80113529  0.59020930  0.00700229  1
  Ta  Ta136  1  0.69584972  0.29829922  0.89687299  1
  Ta  Ta137  1  0.80038006  0.59504797  0.18564736  1
  Ta  Ta138  1  0.20020420  0.19200516  0.39950376  1
  Ta  Ta139  1  0.59372241  0.40380425  0.59911511  1
  Ta  Ta140  1  -0.01260882  0.20075783  0.81300584  1
  Ta  Ta141  1  0.30313183  0.29857012  0.50562311  1
  Ta  Ta142  1  0.39752484  0.19954646  0.20119060  1
  Ta  Ta143  1  0.00140308  0.00641209  0.59996499  1
  Ta  Ta144  1  0.50203206  0.49620686  0.49594512  1
  Ta  Ta145  1  0.89471509  0.29544061  0.09783475  1
  Ta  Ta146  1  0.70265022  0.70288210  0.70398479  1
  Ta  Ta147  1  0.30713259  0.29305376  0.70247047  1
  Ta  Ta148  1  0.50103137  0.28714801  0.10211735  1
  Ta  Ta149  1  0.50995871  0.50357653  0.30059801  1
  Ti  Ti150  1  0.10629987  0.90923793  0.69328645  1
  Ti  Ti151  1  0.80299531  -0.00266978  0.80451874  1
  Ti  Ti152  1  0.09690427  0.29217427  0.09522302  1
  Ti  Ti153  1  0.40506672  0.59848497  0.59890733  1
  Ti  Ti154  1  0.10017503  0.50073389  0.89650239  1
  Ti  Ti155  1  0.80168971  0.19973063  -0.00390963  1
  Ti  Ti156  1  0.61091265  0.59592323  0.40687257  1
  Ti  Ti157  1  0.20255414  0.39345718  0.00455146  1
  Ti  Ti158  1  0.09948920  0.29306807  0.30174817  1
  Ti  Ti159  1  0.40471767  -0.00326032  0.59999834  1
  Ti  Ti160  1  0.80941140  0.80808941  0.17257700  1
  Ti  Ti161  1  0.49930447  0.31033873  0.50100797  1
  Ti  Ti162  1  0.59365145  0.59322895  0.79368054  1
  Ti  Ti163  1  0.89101886  0.90261905  0.90410165  1
  Ti  Ti164  1  0.70990825  0.71139398  0.08235864  1
  Ti  Ti165  1  0.18789109  0.79446509  0.01093953  1
  Ti  Ti166  1  0.90238357  0.49899528  0.70330781  1
  Ti  Ti167  1  0.10561940  0.90283809  0.30358383  1
  Ti  Ti168  1  0.78672170  0.60090632  0.40830796  1
  Ti  Ti169  1  0.30656431  0.29089223  0.89054471  1
  Ti  Ti170  1  0.59533965  -0.00925530  0.80230648  1
  Ti  Ti171  1  0.39902846  0.60780046  0.20282615  1
  Ti  Ti172  1  0.61526713  -0.00202888  0.18588921  1
  Ti  Ti173  1  0.49660977  0.49581599  0.10963169  1
  Ti  Ti174  1  0.40993991  0.80074611  0.80803080  1
  Ti  Ti175  1  0.21934369  0.20630955  0.01148796  1
  Ti  Ti176  1  0.20308185  0.00058129  0.80110874  1
  Ti  Ti177  1  0.29933407  0.70992727  0.10433400  1
  Ti  Ti178  1  0.60207080  -0.00717355  0.00177389  1
  Ti  Ti179  1  0.50076940  0.08162229  0.49156413  1
  Ti  Ti180  1  0.19897699  0.39354747  0.60565627  1
  Ti  Ti181  1  0.80060336  -0.00335408  0.60908286  1
  Ti  Ti182  1  0.29427134  0.90305211  0.69058358  1
  Ti  Ti183  1  0.10160526  0.49636181  0.10257953  1
  Ti  Ti184  1  -0.01230860  0.00303019  0.80324374  1
  Ti  Ti185  1  0.60650921  0.80033739  0.40759276  1
  Ti  Ti186  1  0.81122523  0.01375058  0.39288219  1
  Ti  Ti187  1  0.00648570  0.61346848  0.39797577  1
  Ti  Ti188  1  0.79391479  0.60388250  0.59342798  1
  Ti  Ti189  1  -0.00987766  0.00537383  -0.00105406  1
  Ti  Ti190  1  0.69741490  0.10417554  0.09827175  1
  Ti  Ti191  1  0.21018125  0.61697516  0.40030207  1
  Ti  Ti192  1  0.90348912  0.10675392  0.09508498  1
  Ti  Ti193  1  0.30233917  0.08993146  0.30198503  1
  Ti  Ti194  1  0.69808125  0.90309691  0.70548580  1
  Ti  Ti195  1  0.89571266  0.10580018  0.50517487  1
  Ti  Ti196  1  0.19675457  0.81028507  0.79446766  1
  Ti  Ti197  1  0.81178813  0.21031905  0.39467726  1
  Ti  Ti198  1  0.49980767  0.10327018  0.71363147  1
  Ti  Ti199  1  0.39916322  0.80509021  0.58910373  1
  Mo  Mo200  1  0.59578860  -0.00177879  0.40640290  1
  Mo  Mo201  1  0.89175958  0.69685143  0.10026654  1
  Mo  Mo202  1  0.89601227  0.49361181  0.90625627  1
  Mo  Mo203  1  0.20070701  -0.00176879  0.39511789  1
  Mo  Mo204  1  0.70464699  0.69679023  0.50535430  1
  Mo  Mo205  1  0.51129402  0.89998688  0.89697612  1
  Mo  Mo206  1  0.29603194  0.28950942  0.30206097  1
  Mo  Mo207  1  0.90166295  0.09931143  0.30488168  1
  Mo  Mo208  1  0.09337623  0.70573461  0.10055342  1
  Mo  Mo209  1  0.29767479  0.70584986  0.29747670  1
  Mo  Mo210  1  0.20391919  0.20245364  0.79675296  1
  Mo  Mo211  1  0.89570507  0.28795592  0.49788164  1
  Mo  Mo212  1  0.89421385  0.91065046  0.69846592  1
  Mo  Mo213  1  0.88816549  0.29625008  0.90930716  1
  Mo  Mo214  1  0.60165087  0.41279864  0.19682007  1
  Mo  Mo215  1  0.39695237  0.39199706  0.79464547  1
  Mo  Mo216  1  0.60214384  0.80516757  -0.00649271  1
  Mo  Mo217  1  0.20100967  -0.00054837  0.61101299  1
  Mo  Mo218  1  0.70444830  0.90527149  0.09501909  1
  Mo  Mo219  1  0.40112511  0.19434494  0.79002860  1
  Mo  Mo220  1  0.39444767  0.00054025  0.20622395  1
  Mo  Mo221  1  0.49341961  0.30382147  0.69642433  1
  Mo  Mo222  1  0.19782950  0.80307796  0.20453471  1
  Mo  Mo223  1  0.60598859  0.80472286  0.79556496  1
  Mo  Mo224  1  0.89859067  0.09692605  0.90100953  1
  Mo  Mo225  1  0.70373515  0.49278257  0.10114671  1
  Mo  Mo226  1  0.60271566  0.18432491  0.19088723  1
  Mo  Mo227  1  0.30189801  0.29391010  0.10308072  1
  Mo  Mo228  1  0.89671448  0.49455326  0.10395953  1
  Mo  Mo229  1  0.59963412  0.20048310  0.80251529  1
  Mo  Mo230  1  0.89708064  0.30000229  0.29929504  1
  Mo  Mo231  1  -0.01423296  0.20068471  0.00205684  1
  Mo  Mo232  1  0.60243161  0.40793185  0.40248423  1
  Mo  Mo233  1  0.40791987  0.39182792  0.59818631  1
  Mo  Mo234  1  0.30475533  0.70896882  0.50342286  1
  Mo  Mo235  1  0.40351285  0.19694411  0.00844876  1
  Mo  Mo236  1  0.90105576  0.91357932  0.10210143  1
  Mo  Mo237  1  0.29910884  0.90308526  0.30366615  1
  Mo  Mo238  1  0.40068263  -0.00010026  -0.00169899  1
  Mo  Mo239  1  0.79742218  0.39245845  0.81201672  1
  Mo  Mo240  1  0.09468950  0.09893360  0.49759878  1
  Mo  Mo241  1  0.69770203  0.49900959  0.49107582  1
  Mo  Mo242  1  0.70583231  0.30307560  0.30114444  1
  Mo  Mo243  1  0.49869104  0.49808958  0.69244668  1
  Mo  Mo244  1  0.79686288  0.80667575  -0.00307082  1
  Mo  Mo245  1  0.50920411  0.70294172  0.89014506  1
  Mo  Mo246  1  0.80372270  0.19880954  0.59747852  1
  Mo  Mo247  1  0.49847286  0.90389255  0.50398799  1
  Mo  Mo248  1  0.20497370  0.80913833  0.60208422  1
  Mo  Mo249  1  0.00624595  0.58627776  0.80224342  1
