# generated using pymatgen
data_HfZrTaTiMo
_symmetry_space_group_name_H-M   'P 1'
_cell_length_a   16.88595731
_cell_length_b   16.88402994
_cell_length_c   16.89073502
_cell_angle_alpha   90.01758543
_cell_angle_beta   89.99622895
_cell_angle_gamma   90.02877598
_symmetry_Int_Tables_number   1
_chemical_formula_structural   HfZrTaTiMo
_chemical_formula_sum   'Hf50 Zr50 Ta50 Ti50 Mo50'
_cell_volume   4815.59852829
_cell_formula_units_Z   50
loop_
 _symmetry_equiv_pos_site_id
 _symmetry_equiv_pos_as_xyz
  1  'x, y, z'
loop_
 _atom_site_type_symbol
 _atom_site_label
 _atom_site_symmetry_multiplicity
 _atom_site_fract_x
 _atom_site_fract_y
 _atom_site_fract_z
 _atom_site_occupancy
  Hf  Hf0  1  0.49402017  0.29510628  0.70742968  1
  Hf  Hf1  1  0.59586719  0.60564039  0.39395162  1
  Hf  Hf2  1  0.70407620  0.29859493  0.29786365  1
  Hf  Hf3  1  0.19765944  0.20767380  0.00497643  1
  Hf  Hf4  1  0.59234944  0.40323872  0.39342011  1
  Hf  Hf5  1  0.49273036  0.69733856  0.50584696  1
  Hf  Hf6  1  0.19334108  0.19836552  0.39101620  1
  Hf  Hf7  1  0.80131692  -0.00656645  0.20454624  1
  Hf  Hf8  1  0.39503885  0.79790567  0.40163600  1
  Hf  Hf9  1  0.80575989  0.79689191  0.20490835  1
  Hf  Hf10  1  0.69563016  0.89374619  0.50290289  1
  Hf  Hf11  1  0.69459315  0.89316870  0.89737020  1
  Hf  Hf12  1  0.09015135  0.30546416  0.90185857  1
  Hf  Hf13  1  0.20487242  0.81212946  0.79961505  1
  Hf  Hf14  1  0.29578761  0.09211990  0.50405847  1
  Hf  Hf15  1  0.29648512  0.08721828  0.29157440  1
  Hf  Hf16  1  0.40214660  0.39811714  0.59655179  1
  Hf  Hf17  1  0.59248692  0.40409353  0.20693458  1
  Hf  Hf18  1  0.08651766  0.50451600  0.89941695  1
  Hf  Hf19  1  0.79995568  -0.00478436  0.38939839  1
  Hf  Hf20  1  0.39560089  0.79666155  0.00504603  1
  Hf  Hf21  1  0.91602937  0.09142130  0.10599765  1
  Hf  Hf22  1  0.59554252  0.18937576  0.80497582  1
  Hf  Hf23  1  0.51040918  0.70215025  0.89956198  1
  Hf  Hf24  1  0.80454038  0.20297644  0.60691603  1
  Hf  Hf25  1  0.69497440  0.70826655  0.70794453  1
  Hf  Hf26  1  0.90944629  0.90182623  0.49400413  1
  Hf  Hf27  1  0.80134093  -0.00124363  0.60478491  1
  Hf  Hf28  1  0.40389059  -0.00003001  0.39978862  1
  Hf  Hf29  1  0.31004618  0.50647604  0.69145847  1
  Hf  Hf30  1  0.09585522  0.49775559  0.48838309  1
  Hf  Hf31  1  0.19885779  0.21062035  0.20303646  1
  Hf  Hf32  1  0.70639676  0.50058800  0.49169757  1
  Hf  Hf33  1  0.49760562  0.29779157  0.90284503  1
  Hf  Hf34  1  0.20955661  0.59749724  0.00733738  1
  Hf  Hf35  1  0.08852625  0.49836310  0.28935354  1
  Hf  Hf36  1  0.80329798  0.19488630  0.19645011  1
  Hf  Hf37  1  0.40091378  0.39462553  0.38359434  1
  Hf  Hf38  1  0.29515258  0.09569991  0.69867990  1
  Hf  Hf39  1  0.70467119  0.49786366  0.09695970  1
  Hf  Hf40  1  0.80041131  -0.00327814  0.00655542  1
  Hf  Hf41  1  0.19395595  0.20168773  0.79748860  1
  Hf  Hf42  1  0.70207357  0.30246428  0.71196638  1
  Hf  Hf43  1  0.69283713  0.08982932  0.90451702  1
  Hf  Hf44  1  0.80344629  0.80940014  0.61111852  1
  Hf  Hf45  1  0.29177412  0.30066912  0.48944765  1
  Hf  Hf46  1  0.31159255  0.68668484  0.30200405  1
  Hf  Hf47  1  0.40613654  0.60010839  0.80678306  1
  Hf  Hf48  1  0.40142683  0.20823001  0.20436410  1
  Hf  Hf49  1  0.80322600  -0.00145958  0.79709599  1
  Zr  Zr50  1  0.19638692  0.79991160  0.59549550  1
  Zr  Zr51  1  0.49506145  0.89298641  0.51912784  1
  Zr  Zr52  1  0.80535037  0.19335650  -0.00270593  1
  Zr  Zr53  1  0.60646321  -0.00416288  0.20515164  1
  Zr  Zr54  1  0.70356624  0.10671990  0.49498903  1
  Zr  Zr55  1  0.50382749  0.71358477  0.69484123  1
  Zr  Zr56  1  0.90509002  0.50368424  0.09946159  1
  Zr  Zr57  1  0.37493026  0.59311731  0.17129896  1
  Zr  Zr58  1  0.39658933  0.41369564  0.00669589  1
  Zr  Zr59  1  0.48362123  0.52734619  0.29087241  1
  Zr  Zr60  1  0.60435268  0.79655670  0.00299174  1
  Zr  Zr61  1  0.20710747  0.59377835  0.80108822  1
  Zr  Zr62  1  -0.00672834  0.40202726  0.60251221  1
  Zr  Zr63  1  0.19045242  0.20177535  0.60380008  1
  Zr  Zr64  1  0.20004191  0.78812533  0.20423359  1
  Zr  Zr65  1  0.40467758  -0.00224215  0.80315275  1
  Zr  Zr66  1  0.09563450  0.69072567  0.70554524  1
  Zr  Zr67  1  0.10533213  0.08817298  0.10597821  1
  Zr  Zr68  1  0.40105497  0.41130390  0.80858214  1
  Zr  Zr69  1  0.89687142  0.50720204  0.48527297  1
  Zr  Zr70  1  0.00470144  0.80671650  0.60470149  1
  Zr  Zr71  1  0.90072205  0.69613953  0.49691833  1
  Zr  Zr72  1  0.30575447  0.50789879  0.48831385  1
  Zr  Zr73  1  0.90372908  0.89714919  0.90124702  1
  Zr  Zr74  1  0.80186128  0.40364265  0.60575759  1
  Zr  Zr75  1  0.59705530  -0.00043895  0.40058921  1
  Zr  Zr76  1  0.90906623  0.10401201  0.49664409  1
  Zr  Zr77  1  0.09829417  0.69958883  0.90047706  1
  Zr  Zr78  1  0.70487963  0.30695912  0.90661632  1
  Zr  Zr79  1  0.49943875  0.29425000  0.49885525  1
  Zr  Zr80  1  0.30708056  0.90867702  0.68697012  1
  Zr  Zr81  1  0.19814877  0.40136153  0.79667045  1
  Zr  Zr82  1  0.19477664  0.39921779  0.60367929  1
  Zr  Zr83  1  0.70297572  0.69215974  0.10106599  1
  Zr  Zr84  1  0.30046845  0.09948740  0.89873985  1
  Zr  Zr85  1  0.90090000  0.30568438  0.09601166  1
  Zr  Zr86  1  0.90802797  0.69575617  0.90140548  1
  Zr  Zr87  1  0.19893157  0.60348815  0.59484935  1
  Zr  Zr88  1  0.30188874  0.09371938  0.10207144  1
  Zr  Zr89  1  0.60026099  0.19532678  0.60085813  1
  Zr  Zr90  1  0.60163945  0.40594530  0.60116006  1
  Zr  Zr91  1  0.90131978  0.69202712  0.70746487  1
  Zr  Zr92  1  0.09801705  0.09339922  0.89548126  1
  Zr  Zr93  1  0.70227556  0.70006076  0.50397248  1
  Zr  Zr94  1  0.50540658  0.30055795  0.10223353  1
  Zr  Zr95  1  0.19310596  0.60790677  0.39070849  1
  Zr  Zr96  1  0.89478051  0.49541585  0.90321062  1
  Zr  Zr97  1  0.50814751  0.68821200  0.10864328  1
  Zr  Zr98  1  0.30152716  0.90700256  0.11239990  1
  Zr  Zr99  1  0.89457165  0.29497453  0.48486058  1
  Ta  Ta100  1  0.80810509  0.19476420  0.80394070  1
  Ta  Ta101  1  0.00731912  0.81129408  0.79732907  1
  Ta  Ta102  1  0.79966614  0.80159877  0.38738142  1
  Ta  Ta103  1  0.59636170  0.41385802  0.80510384  1
  Ta  Ta104  1  0.09592464  0.69640718  0.09801999  1
  Ta  Ta105  1  0.59725119  0.79854821  0.39141437  1
  Ta  Ta106  1  0.91108264  0.10036390  0.69921426  1
  Ta  Ta107  1  0.30378818  0.29825963  0.90159634  1
  Ta  Ta108  1  0.00145615  0.79498442  0.19997836  1
  Ta  Ta109  1  0.60408796  0.59697144  0.60520601  1
  Ta  Ta110  1  0.70418468  0.50191197  0.90566900  1
  Ta  Ta111  1  0.59768141  0.19462189  0.00614704  1
  Ta  Ta112  1  0.49509013  0.89755894  0.29519753  1
  Ta  Ta113  1  0.70557558  0.29976193  0.48391313  1
  Ta  Ta114  1  0.19175234  0.59504829  0.19232874  1
  Ta  Ta115  1  0.10023134  0.90667353  0.49703339  1
  Ta  Ta116  1  0.39606591  0.59654058  -0.00720668  1
  Ta  Ta117  1  0.31247940  0.70403766  0.69484172  1
  Ta  Ta118  1  0.70291377  0.09846013  0.70589821  1
  Ta  Ta119  1  0.69966601  0.10826170  0.29920868  1
  Ta  Ta120  1  0.69908041  0.30221842  0.10081142  1
  Ta  Ta121  1  0.90573930  0.89497568  0.10267946  1
  Ta  Ta122  1  0.08265385  0.29809464  0.70194844  1
  Ta  Ta123  1  0.00750656  0.20604389  0.20497936  1
  Ta  Ta124  1  0.00694178  0.80233448  0.00665576  1
  Ta  Ta125  1  -0.00616656  0.40102130  0.38995882  1
  Ta  Ta126  1  0.40049146  0.19918080  0.00292481  1
  Ta  Ta127  1  0.40071728  0.19774713  0.39136927  1
  Ta  Ta128  1  0.40195094  0.80764248  0.80345178  1
  Ta  Ta129  1  0.19935706  0.80395000  0.00034663  1
  Ta  Ta130  1  0.90119709  0.30338956  0.29531113  1
  Ta  Ta131  1  0.40374857  0.79605400  0.20099525  1
  Ta  Ta132  1  0.30195044  0.70523624  0.89854281  1
  Ta  Ta133  1  0.09301900  0.09795067  0.50515529  1
  Ta  Ta134  1  0.29463700  0.90456635  0.50071391  1
  Ta  Ta135  1  0.00677528  -0.01131035  0.00173512  1
  Ta  Ta136  1  0.50406934  0.90198926  0.90535297  1
  Ta  Ta137  1  0.49872437  0.09336731  0.10028979  1
  Ta  Ta138  1  0.59988330  0.79813896  0.20774821  1
  Ta  Ta139  1  0.69995347  0.89579311  0.10182744  1
  Ta  Ta140  1  0.59901235  -0.00286537  0.61423675  1
  Ta  Ta141  1  0.08915317  0.69921543  0.49120240  1
  Ta  Ta142  1  0.59016315  0.19991624  0.38853078  1
  Ta  Ta143  1  0.80929853  0.60256936  0.20526718  1
  Ta  Ta144  1  0.10072467  0.89898697  0.30152208  1
  Ta  Ta145  1  0.08979397  0.29702441  0.49299528  1
  Ta  Ta146  1  0.50181225  0.90473507  0.10251035  1
  Ta  Ta147  1  0.20096822  -0.01664294  -0.00747306  1
  Ta  Ta148  1  0.60493567  0.59708752  0.80455702  1
  Ta  Ta149  1  -0.00611275  0.19836130  0.80212437  1
  Ti  Ti150  1  0.19836748  0.79664819  0.40107749  1
  Ti  Ti151  1  0.00620504  0.79643918  0.39197173  1
  Ti  Ti152  1  0.39920322  -0.00573708  -0.00179761  1
  Ti  Ti153  1  0.51554249  0.51137379  0.09500627  1
  Ti  Ti154  1  0.30820331  0.29393901  0.70775980  1
  Ti  Ti155  1  0.80277097  0.60398670  0.38472950  1
  Ti  Ti156  1  0.59579826  -0.00629150  0.79350376  1
  Ti  Ti157  1  0.50041394  0.09456313  0.91101514  1
  Ti  Ti158  1  0.00285729  0.40448694  0.00706888  1
  Ti  Ti159  1  0.91118865  0.69498379  0.30307426  1
  Ti  Ti160  1  0.70703569  0.50206188  0.29746980  1
  Ti  Ti161  1  0.80446526  0.79347853  0.00321543  1
  Ti  Ti162  1  0.90026993  0.30136955  0.71355145  1
  Ti  Ti163  1  0.09888440  0.90014977  0.10972818  1
  Ti  Ti164  1  -0.00150953  0.60687397  0.19671245  1
  Ti  Ti165  1  0.00621939  0.20076987  0.38679209  1
  Ti  Ti166  1  0.91017649  0.09219435  0.89948434  1
  Ti  Ti167  1  0.79353727  0.60164356  0.80735990  1
  Ti  Ti168  1  0.70442811  0.50003637  0.71065044  1
  Ti  Ti169  1  0.49023864  0.09784677  0.69678474  1
  Ti  Ti170  1  0.10146145  0.31488692  0.29926771  1
  Ti  Ti171  1  0.49646727  0.09850993  0.50589154  1
  Ti  Ti172  1  0.19461632  -0.00363016  0.39956666  1
  Ti  Ti173  1  0.00263870  0.19947594  0.00299981  1
  Ti  Ti174  1  0.09777656  0.31713221  0.10705506  1
  Ti  Ti175  1  0.91476963  0.89954269  0.29729830  1
  Ti  Ti176  1  0.29677969  0.30867438  0.10104567  1
  Ti  Ti177  1  0.79843972  0.59627273  0.60878340  1
  Ti  Ti178  1  0.09686897  0.08609017  0.29125155  1
  Ti  Ti179  1  0.80194155  0.80414834  0.79913788  1
  Ti  Ti180  1  0.59924796  0.40506849  -0.00329016  1
  Ti  Ti181  1  0.00537838  0.00244086  0.39479107  1
  Ti  Ti182  1  0.90640617  0.10257831  0.29813310  1
  Ti  Ti183  1  0.80282218  0.60848471  0.00040595  1
  Ti  Ti184  1  0.29803168  0.90095553  0.29986214  1
  Ti  Ti185  1  0.39439872  0.39843902  0.20072633  1
  Ti  Ti186  1  0.19919525  0.40579369  0.00035883  1
  Ti  Ti187  1  0.69690036  0.69714212  0.29642419  1
  Ti  Ti188  1  0.39624778  0.19817397  0.59723521  1
  Ti  Ti189  1  0.50210968  0.09982329  0.28937864  1
  Ti  Ti190  1  0.00075289  0.59131468  0.60485259  1
  Ti  Ti191  1  0.49442266  0.51032779  0.50075425  1
  Ti  Ti192  1  0.09958450  0.90534016  0.89202041  1
  Ti  Ti193  1  0.80601034  0.40542846  0.20391843  1
  Ti  Ti194  1  0.28479649  0.48787313  0.29443023  1
  Ti  Ti195  1  0.91755324  0.91220433  0.70355675  1
  Ti  Ti196  1  0.69093815  0.09967853  0.10235141  1
  Ti  Ti197  1  0.90326549  0.49891343  0.71914364  1
  Ti  Ti198  1  0.89950666  0.31087330  0.89761718  1
  Ti  Ti199  1  0.50131144  0.50899712  0.69425595  1
  Mo  Mo200  1  0.29726202  0.30142159  0.29807782  1
  Mo  Mo201  1  0.19704230  0.40054676  0.19764708  1
  Mo  Mo202  1  0.59826172  0.80713784  0.80158330  1
  Mo  Mo203  1  0.51058287  0.50653195  0.90784844  1
  Mo  Mo204  1  0.60615921  0.59519458  -0.00630149  1
  Mo  Mo205  1  0.39958335  0.19642182  0.80739752  1
  Mo  Mo206  1  0.29299436  0.70926308  0.09531009  1
  Mo  Mo207  1  0.40547186  0.60347278  0.59973807  1
  Mo  Mo208  1  0.28426012  0.48273607  0.10092419  1
  Mo  Mo209  1  0.60334349  0.19588478  0.19588520  1
  Mo  Mo210  1  0.61681783  0.59821849  0.20493406  1
  Mo  Mo211  1  0.49885449  0.70628126  0.29817449  1
  Mo  Mo212  1  0.30093462  0.89753841  0.90300226  1
  Mo  Mo213  1  -0.00176003  0.59135911  0.79857214  1
  Mo  Mo214  1  0.19468178  -0.00274494  0.79782381  1
  Mo  Mo215  1  0.09220763  0.70199696  0.29680561  1
  Mo  Mo216  1  0.00531829  0.00429983  0.60166224  1
  Mo  Mo217  1  0.09162340  0.10105775  0.69808797  1
  Mo  Mo218  1  0.69414422  0.90176406  0.70520153  1
  Mo  Mo219  1  0.60535779  0.80247912  0.60538029  1
  Mo  Mo220  1  0.79693769  0.39855182  0.00281651  1
  Mo  Mo221  1  -0.00823630  0.39466660  0.80078755  1
  Mo  Mo222  1  0.09594013  0.50214837  0.09900782  1
  Mo  Mo223  1  0.10410099  0.91848273  0.70126727  1
  Mo  Mo224  1  0.00230668  0.00289990  0.79904239  1
  Mo  Mo225  1  0.89754313  0.50213008  0.29177152  1
  Mo  Mo226  1  0.19473361  -0.01091307  0.20796366  1
  Mo  Mo227  1  0.70906380  0.69655358  0.89642289  1
  Mo  Mo228  1  0.79957859  0.40202748  0.38590326  1
  Mo  Mo229  1  0.39647354  0.60059064  0.40468899  1
  Mo  Mo230  1  0.59547761  -0.00170303  0.00692923  1
  Mo  Mo231  1  -0.00117727  0.20149719  0.60660044  1
  Mo  Mo232  1  0.00045891  0.39533305  0.19978781  1
  Mo  Mo233  1  0.29745304  0.50006282  0.90446977  1
  Mo  Mo234  1  0.79713275  0.40136261  0.80372848  1
  Mo  Mo235  1  0.29694401  0.70733876  0.49950849  1
  Mo  Mo236  1  0.90447363  0.70230817  0.10044600  1
  Mo  Mo237  1  0.40784175  0.00651248  0.59792266  1
  Mo  Mo238  1  0.00187671  0.60457666  0.00781897  1
  Mo  Mo239  1  0.69651854  0.89093173  0.30075657  1
  Mo  Mo240  1  0.39017921  0.80155626  0.59906253  1
  Mo  Mo241  1  0.40747287  -0.00449713  0.20474694  1
  Mo  Mo242  1  -0.00356213  0.60193929  0.39108037  1
  Mo  Mo243  1  0.50398326  0.90135738  0.70709762  1
  Mo  Mo244  1  0.80175640  0.19974477  0.38841664  1
  Mo  Mo245  1  0.18936875  0.00034077  0.59623336  1
  Mo  Mo246  1  0.19111782  0.39542350  0.39281716  1
  Mo  Mo247  1  0.00060000  -0.00993474  0.20539817  1
  Mo  Mo248  1  0.08386156  0.49510013  0.70156486  1
  Mo  Mo249  1  0.49928329  0.29243133  0.29692476  1
