# generated using pymatgen
data_HfZrTaTiMo
_symmetry_space_group_name_H-M   'P 1'
_cell_length_a   16.88147471
_cell_length_b   16.88301675
_cell_length_c   16.87993128
_cell_angle_alpha   90.03956020
_cell_angle_beta   90.00240641
_cell_angle_gamma   89.98582215
_symmetry_Int_Tables_number   1
_chemical_formula_structural   HfZrTaTiMo
_chemical_formula_sum   'Hf50 Zr50 Ta50 Ti50 Mo50'
_cell_volume   4810.95163152
_cell_formula_units_Z   50
loop_
 _symmetry_equiv_pos_site_id
 _symmetry_equiv_pos_as_xyz
  1  'x, y, z'
loop_
 _atom_site_type_symbol
 _atom_site_label
 _atom_site_symmetry_multiplicity
 _atom_site_fract_x
 _atom_site_fract_y
 _atom_site_fract_z
 _atom_site_occupancy
  Hf  Hf0  1  0.70276966  0.50532432  0.49376564  1
  Hf  Hf1  1  0.90147168  0.30110959  0.88372371  1
  Hf  Hf2  1  0.08993484  0.30472662  0.70944285  1
  Hf  Hf3  1  0.69829572  0.30776152  0.09626230  1
  Hf  Hf4  1  0.40884074  -0.00497424  0.41048083  1
  Hf  Hf5  1  -0.01146628  0.80587132  0.20660124  1
  Hf  Hf6  1  0.20632620  0.40064269  0.00136247  1
  Hf  Hf7  1  0.50543713  0.08288277  0.88710690  1
  Hf  Hf8  1  0.49437882  0.10188563  0.09391569  1
  Hf  Hf9  1  0.70088528  0.89192539  0.09971155  1
  Hf  Hf10  1  0.80005852  0.79535833  0.59880086  1
  Hf  Hf11  1  0.70139180  0.29278751  0.69401398  1
  Hf  Hf12  1  0.90607377  0.90442005  0.69890647  1
  Hf  Hf13  1  0.60131502  0.81271727  0.60205292  1
  Hf  Hf14  1  0.40829361  0.80863777  0.80808505  1
  Hf  Hf15  1  0.30153986  0.09519535  0.89611868  1
  Hf  Hf16  1  0.20813789  0.59924230  0.79922158  1
  Hf  Hf17  1  0.50373362  0.70461265  0.70053489  1
  Hf  Hf18  1  0.90322327  0.08200632  0.29161604  1
  Hf  Hf19  1  0.19760719  0.79398530  0.40809547  1
  Hf  Hf20  1  0.90245377  0.09844379  0.88630956  1
  Hf  Hf21  1  0.40753753  0.40969333  0.39635746  1
  Hf  Hf22  1  -0.00821809  0.18960204  0.00758919  1
  Hf  Hf23  1  0.19559052  0.20427994  0.39354317  1
  Hf  Hf24  1  0.89541905  0.90669750  0.89415068  1
  Hf  Hf25  1  0.69844005  0.49728581  0.89587725  1
  Hf  Hf26  1  0.90251384  0.70296858  0.89927015  1
  Hf  Hf27  1  0.19864565  0.60083202  0.00613994  1
  Hf  Hf28  1  0.70013217  0.50795175  0.10069584  1
  Hf  Hf29  1  0.79719392  0.19301026  0.20312283  1
  Hf  Hf30  1  0.80789664  0.20324997  0.39601365  1
  Hf  Hf31  1  0.89511464  0.30127965  0.10399603  1
  Hf  Hf32  1  0.19994851  0.60576627  0.59664287  1
  Hf  Hf33  1  0.69433937  0.70547887  0.90543996  1
  Hf  Hf34  1  0.40561463  0.60016464  0.80657565  1
  Hf  Hf35  1  0.09872475  0.09876135  0.89798836  1
  Hf  Hf36  1  0.20135746  0.79044618  0.19905613  1
  Hf  Hf37  1  0.10003809  0.51044351  0.29916668  1
  Hf  Hf38  1  0.70364512  0.29890272  0.88894276  1
  Hf  Hf39  1  0.60689415  0.19027571  0.39115945  1
  Hf  Hf40  1  0.21257665  0.19730043  0.00960309  1
  Hf  Hf41  1  0.50786069  0.28506545  0.68719509  1
  Hf  Hf42  1  0.59305316  0.79223707  0.19863652  1
  Hf  Hf43  1  0.60886382  0.19070762  -0.00246360  1
  Hf  Hf44  1  0.19938331  0.60937365  0.40810379  1
  Hf  Hf45  1  -0.00133983  0.41258144  0.00044759  1
  Hf  Hf46  1  0.09048981  0.10245953  0.70016307  1
  Hf  Hf47  1  -0.00457693  0.59426643  0.59733990  1
  Hf  Hf48  1  0.90121999  0.09624828  0.50798350  1
  Hf  Hf49  1  0.59319354  0.40841922  0.20435418  1
  Zr  Zr50  1  0.09369109  0.70230201  0.70331768  1
  Zr  Zr51  1  0.79737416  -0.00574806  0.59996436  1
  Zr  Zr52  1  0.89199526  0.50867178  0.11080535  1
  Zr  Zr53  1  -0.00220424  0.80863905  0.00383456  1
  Zr  Zr54  1  0.09964033  0.30275022  0.10360265  1
  Zr  Zr55  1  0.30961135  0.71522803  0.68883654  1
  Zr  Zr56  1  0.30687617  0.50713485  0.29410903  1
  Zr  Zr57  1  0.30183894  0.09887452  0.50702080  1
  Zr  Zr58  1  0.70730605  0.90093360  0.29690515  1
  Zr  Zr59  1  0.40558274  0.40062816  0.80221059  1
  Zr  Zr60  1  0.70181669  0.69613972  0.49341820  1
  Zr  Zr61  1  0.48472387  0.49920688  0.09930882  1
  Zr  Zr62  1  0.09474214  0.69532787  0.10532854  1
  Zr  Zr63  1  0.40732463  0.40867142  0.59959730  1
  Zr  Zr64  1  0.60301138  0.20025734  0.19518298  1
  Zr  Zr65  1  0.59642567  0.79610114  0.39036910  1
  Zr  Zr66  1  0.69542009  0.90431746  0.89951680  1
  Zr  Zr67  1  0.30532880  0.30195878  0.50255269  1
  Zr  Zr68  1  0.50416228  0.29058640  0.49954414  1
  Zr  Zr69  1  0.10132389  0.49754182  0.89040064  1
  Zr  Zr70  1  0.80828615  0.00466214  0.00911047  1
  Zr  Zr71  1  0.19453138  0.80685899  0.80187915  1
  Zr  Zr72  1  0.19536747  0.40706598  0.60056631  1
  Zr  Zr73  1  0.40238215  -0.00949402  0.00138776  1
  Zr  Zr74  1  0.09409796  0.09180606  0.50429374  1
  Zr  Zr75  1  -0.00453722  0.39642347  0.40553403  1
  Zr  Zr76  1  0.90716349  0.70530996  0.70175002  1
  Zr  Zr77  1  0.00204714  0.19862491  0.20946611  1
  Zr  Zr78  1  0.50789697  0.29369078  0.89981146  1
  Zr  Zr79  1  0.49206747  0.30333587  0.29169037  1
  Zr  Zr80  1  0.40347337  0.79799620  0.19803203  1
  Zr  Zr81  1  0.79710867  0.59949080  0.79744479  1
  Zr  Zr82  1  0.80705287  0.39798865  0.59163678  1
  Zr  Zr83  1  0.59947075  0.00014544  0.20112886  1
  Zr  Zr84  1  0.29682208  0.90228262  0.30385512  1
  Zr  Zr85  1  0.20319935  0.19870161  0.20562283  1
  Zr  Zr86  1  0.80525606  0.40611605  -0.00952604  1
  Zr  Zr87  1  0.49539276  0.70286354  0.50449511  1
  Zr  Zr88  1  0.09645381  0.29649575  0.89720758  1
  Zr  Zr89  1  0.38547380  0.19938140  0.19465356  1
  Zr  Zr90  1  0.49383627  0.09686366  0.30139799  1
  Zr  Zr91  1  0.59354595  0.60555412  0.20929746  1
  Zr  Zr92  1  0.40137692  0.19663724  0.79796149  1
  Zr  Zr93  1  0.40478054  0.79941238  0.00461526  1
  Zr  Zr94  1  0.30507151  0.89232964  0.51368695  1
  Zr  Zr95  1  0.09884956  0.90415625  0.29988927  1
  Zr  Zr96  1  0.19241793  0.20533363  0.60002127  1
  Zr  Zr97  1  0.69745986  0.29342215  0.50337800  1
  Zr  Zr98  1  0.00199948  0.20507322  0.39766249  1
  Zr  Zr99  1  0.29453914  0.90479389  0.89671148  1
  Ta  Ta100  1  0.39565097  -0.00555895  0.19258040  1
  Ta  Ta101  1  0.70064521  0.90168031  0.49367990  1
  Ta  Ta102  1  0.89207950  0.69793222  0.10453727  1
  Ta  Ta103  1  0.89796735  0.29445896  0.69970582  1
  Ta  Ta104  1  -0.00105568  0.40620696  0.20580963  1
  Ta  Ta105  1  0.40198543  0.59910177  0.59604080  1
  Ta  Ta106  1  0.80841345  0.79647569  0.39649915  1
  Ta  Ta107  1  0.20146738  0.40047480  0.39912750  1
  Ta  Ta108  1  0.19564170  0.80152781  0.00134666  1
  Ta  Ta109  1  -0.00360457  0.59724771  -0.00036396  1
  Ta  Ta110  1  0.30576065  0.29317988  0.69680201  1
  Ta  Ta111  1  0.39042216  0.19973008  0.39517431  1
  Ta  Ta112  1  0.59906185  0.41086229  0.39595967  1
  Ta  Ta113  1  -0.00265843  0.39975948  0.59479202  1
  Ta  Ta114  1  0.59653423  0.59604056  0.80106497  1
  Ta  Ta115  1  0.80429018  0.80014532  0.00486591  1
  Ta  Ta116  1  0.59824304  0.40571242  0.79114581  1
  Ta  Ta117  1  0.69999076  0.30789087  0.30050420  1
  Ta  Ta118  1  0.80288662  0.60036320  0.60083843  1
  Ta  Ta119  1  0.30321817  0.09335194  0.69948086  1
  Ta  Ta120  1  0.58950847  0.59723160  0.39333452  1
  Ta  Ta121  1  0.70245211  0.69729438  0.09740116  1
  Ta  Ta122  1  -0.00267602  -0.00970553  0.39771571  1
  Ta  Ta123  1  0.30408807  0.69356572  0.30053848  1
  Ta  Ta124  1  0.59903465  0.41315425  0.59695899  1
  Ta  Ta125  1  0.09880305  0.90485831  0.10495516  1
  Ta  Ta126  1  0.09695663  0.69963319  0.90144723  1
  Ta  Ta127  1  0.41155122  -0.00128000  0.60594891  1
  Ta  Ta128  1  0.20692282  0.20339225  0.80057147  1
  Ta  Ta129  1  0.19753845  -0.00753709  0.60775251  1
  Ta  Ta130  1  0.31092477  0.50138050  0.90981542  1
  Ta  Ta131  1  0.80229912  -0.00410979  0.39877526  1
  Ta  Ta132  1  0.89527544  0.50844084  0.30307551  1
  Ta  Ta133  1  0.60197009  0.59548671  0.60335906  1
  Ta  Ta134  1  0.40067754  0.79647775  0.40330995  1
  Ta  Ta135  1  0.89746617  0.69293981  0.30197177  1
  Ta  Ta136  1  0.80309024  0.39869670  0.39568489  1
  Ta  Ta137  1  0.21555423  0.39583003  0.80118840  1
  Ta  Ta138  1  0.20091605  0.40744741  0.20004726  1
  Ta  Ta139  1  0.30232542  0.51001409  0.10325795  1
  Ta  Ta140  1  0.29015195  0.89953132  0.10084048  1
  Ta  Ta141  1  0.90354750  0.10262473  0.69770237  1
  Ta  Ta142  1  0.59232822  0.59756252  -0.00382390  1
  Ta  Ta143  1  0.30492802  0.50868849  0.49542481  1
  Ta  Ta144  1  0.70148069  0.09646231  0.50138151  1
  Ta  Ta145  1  0.90712360  0.89038703  0.49795105  1
  Ta  Ta146  1  0.79436586  0.80409365  0.79795952  1
  Ta  Ta147  1  0.79983400  0.19251624  -0.00065396  1
  Ta  Ta148  1  0.19256827  0.00004559  0.00597495  1
  Ta  Ta149  1  0.90072891  0.48925794  0.70735985  1
  Ti  Ti150  1  0.19302072  -0.00363491  0.79500667  1
  Ti  Ti151  1  0.00849625  0.80998362  0.80808868  1
  Ti  Ti152  1  0.50280367  0.91127537  0.70940045  1
  Ti  Ti153  1  -0.00378146  0.59258902  0.80566379  1
  Ti  Ti154  1  0.70009490  0.09702664  0.69429420  1
  Ti  Ti155  1  0.59872317  0.80601479  0.80333796  1
  Ti  Ti156  1  0.60424191  0.18625470  0.79189531  1
  Ti  Ti157  1  0.59069999  0.40237344  -0.00359792  1
  Ti  Ti158  1  0.31106479  0.31897353  0.10754122  1
  Ti  Ti159  1  0.19419432  0.79862451  0.59739010  1
  Ti  Ti160  1  0.09935154  0.50005025  0.49586335  1
  Ti  Ti161  1  0.80287890  0.79679239  0.20296131  1
  Ti  Ti162  1  0.29753023  0.09030790  0.30407133  1
  Ti  Ti163  1  0.49690822  0.69179893  0.09395319  1
  Ti  Ti164  1  0.50604289  0.70117128  0.90609670  1
  Ti  Ti165  1  0.09218994  0.89857474  0.68814810  1
  Ti  Ti166  1  0.70403551  0.08816806  0.88837778  1
  Ti  Ti167  1  0.49772570  0.90070428  0.30089251  1
  Ti  Ti168  1  0.59700422  -0.00005036  0.59837767  1
  Ti  Ti169  1  0.59618346  -0.00894662  0.00298138  1
  Ti  Ti170  1  -0.00108707  0.59952708  0.19979637  1
  Ti  Ti171  1  0.09501344  0.49562549  0.70592165  1
  Ti  Ti172  1  0.20056835  0.00744803  0.19757380  1
  Ti  Ti173  1  0.00899955  -0.00641909  0.79962137  1
  Ti  Ti174  1  0.70470541  0.49647754  0.69954174  1
  Ti  Ti175  1  0.79809222  0.19047742  0.79251490  1
  Ti  Ti176  1  0.30114099  0.69838186  0.90947596  1
  Ti  Ti177  1  0.80357565  0.60210982  -0.00499413  1
  Ti  Ti178  1  0.80027276  0.40216805  0.20973037  1
  Ti  Ti179  1  -0.00203351  -0.00240541  0.01111558  1
  Ti  Ti180  1  0.09384938  0.09184996  0.11083257  1
  Ti  Ti181  1  0.19483490  -0.00008496  0.40624788  1
  Ti  Ti182  1  0.50262642  0.10527728  0.50838521  1
  Ti  Ti183  1  0.09384975  0.69786037  0.30235521  1
  Ti  Ti184  1  0.09059317  0.89764402  0.50498296  1
  Ti  Ti185  1  0.50368137  0.50485010  0.69901352  1
  Ti  Ti186  1  0.10351282  0.31317333  0.29831997  1
  Ti  Ti187  1  0.30440701  0.50062601  0.69882843  1
  Ti  Ti188  1  0.39582504  0.20789431  0.00175955  1
  Ti  Ti189  1  0.89376436  0.50799121  0.49446156  1
  Ti  Ti190  1  -0.00654952  0.60747239  0.40541289  1
  Ti  Ti191  1  0.07884046  0.71251520  0.50225489  1
  Ti  Ti192  1  0.69544192  0.69958513  0.70291485  1
  Ti  Ti193  1  0.60174350  -0.00011702  0.40400534  1
  Ti  Ti194  1  0.69944703  0.90814059  0.70879915  1
  Ti  Ti195  1  -0.00587165  0.21633935  0.59088415  1
  Ti  Ti196  1  0.70844719  0.50956186  0.30310384  1
  Ti  Ti197  1  0.40306659  0.39388987  -0.00431313  1
  Ti  Ti198  1  0.70508555  0.09211959  0.10560419  1
  Ti  Ti199  1  0.30660001  0.90516559  0.70001344  1
  Mo  Mo200  1  -0.00157295  0.19602833  0.79393348  1
  Mo  Mo201  1  0.89353888  0.31339895  0.29586977  1
  Mo  Mo202  1  0.40165004  0.18770285  0.59849964  1
  Mo  Mo203  1  0.30162738  0.30184926  0.89981666  1
  Mo  Mo204  1  0.29540135  0.30962328  0.30040352  1
  Mo  Mo205  1  -0.00294187  0.79621385  0.39961825  1
  Mo  Mo206  1  0.39583825  0.60783147  0.19545591  1
  Mo  Mo207  1  0.29676790  0.08740252  0.09851708  1
  Mo  Mo208  1  0.50442055  0.89896345  0.09843815  1
  Mo  Mo209  1  0.49462934  0.30173102  0.09096535  1
  Mo  Mo210  1  0.89814120  0.89412256  0.30380884  1
  Mo  Mo211  1  0.39614591  0.40410335  0.19739564  1
  Mo  Mo212  1  0.70773969  0.09476976  0.30804102  1
  Mo  Mo213  1  0.00125711  -0.00328376  0.19559616  1
  Mo  Mo214  1  0.60472225  0.18058990  0.59780838  1
  Mo  Mo215  1  0.30610521  0.70095423  0.50035774  1
  Mo  Mo216  1  0.10345959  0.08514129  0.30263618  1
  Mo  Mo217  1  0.51214797  0.89575738  0.89852238  1
  Mo  Mo218  1  0.50702410  0.90417286  0.50132432  1
  Mo  Mo219  1  0.49669384  0.50577648  0.30169661  1
  Mo  Mo220  1  0.60346127  -0.00039820  0.78890149  1
  Mo  Mo221  1  0.89976461  0.50591272  0.89340081  1
  Mo  Mo222  1  0.79621337  0.39796487  0.78959892  1
  Mo  Mo223  1  0.39791798  0.60589390  -0.00271885  1
  Mo  Mo224  1  0.40121289  -0.00327569  0.79183939  1
  Mo  Mo225  1  0.79551394  0.60699275  0.20606732  1
  Mo  Mo226  1  0.80257325  0.59948038  0.39865541  1
  Mo  Mo227  1  0.50501274  0.50721479  0.50004855  1
  Mo  Mo228  1  0.09841940  0.31043919  0.49870246  1
  Mo  Mo229  1  -0.00050438  0.80134307  0.59530423  1
  Mo  Mo230  1  0.89921638  0.09762709  0.10277445  1
  Mo  Mo231  1  0.29951165  0.69812705  0.10173721  1
  Mo  Mo232  1  0.19849509  0.60069404  0.20132435  1
  Mo  Mo233  1  0.59988486  0.79122172  0.00559846  1
  Mo  Mo234  1  -0.00533742  0.40110232  0.79399617  1
  Mo  Mo235  1  0.00278399  -0.00903877  0.59803376  1
  Mo  Mo236  1  0.50368272  0.49874881  0.90117445  1
  Mo  Mo237  1  0.90083137  0.69697212  0.49657954  1
  Mo  Mo238  1  0.79595474  0.00326254  0.79240931  1
  Mo  Mo239  1  0.71255173  0.69807287  0.29758309  1
  Mo  Mo240  1  0.09662970  0.90593999  0.90848536  1
  Mo  Mo241  1  0.89761489  0.90070445  0.11013965  1
  Mo  Mo242  1  0.89856166  0.29911951  0.50311958  1
  Mo  Mo243  1  0.10061541  0.50256226  0.10957665  1
  Mo  Mo244  1  0.39929766  0.60539717  0.40229480  1
  Mo  Mo245  1  0.48416149  0.69568463  0.30457441  1
  Mo  Mo246  1  0.80304932  0.19294091  0.60235879  1
  Mo  Mo247  1  0.41072168  0.81197178  0.60423404  1
  Mo  Mo248  1  0.80365279  -0.00618634  0.19958927  1
  Mo  Mo249  1  0.50408271  0.09334141  0.69447880  1
