# generated using pymatgen
data_HfZrTaTiMo
_symmetry_space_group_name_H-M   'P 1'
_cell_length_a   16.88628020
_cell_length_b   16.88209690
_cell_length_c   16.88893183
_cell_angle_alpha   89.99018318
_cell_angle_beta   89.96934532
_cell_angle_gamma   90.02356561
_symmetry_Int_Tables_number   1
_chemical_formula_structural   HfZrTaTiMo
_chemical_formula_sum   'Hf50 Zr50 Ta50 Ti50 Mo50'
_cell_volume   4814.62489877
_cell_formula_units_Z   50
loop_
 _symmetry_equiv_pos_site_id
 _symmetry_equiv_pos_as_xyz
  1  'x, y, z'
loop_
 _atom_site_type_symbol
 _atom_site_label
 _atom_site_symmetry_multiplicity
 _atom_site_fract_x
 _atom_site_fract_y
 _atom_site_fract_z
 _atom_site_occupancy
  Hf  Hf0  1  0.39257836  0.59416532  0.19516090  1
  Hf  Hf1  1  0.70348594  0.29739125  0.10080908  1
  Hf  Hf2  1  0.71130699  0.49774904  0.50279484  1
  Hf  Hf3  1  0.50098539  0.90499715  0.10125761  1
  Hf  Hf4  1  0.90475198  0.90034598  0.30568202  1
  Hf  Hf5  1  0.50023658  0.89693238  0.50141421  1
  Hf  Hf6  1  0.10994147  0.10906492  0.50496895  1
  Hf  Hf7  1  0.60226871  0.60340482  0.21006034  1
  Hf  Hf8  1  -0.00440027  0.61289233  0.78495339  1
  Hf  Hf9  1  0.89877842  0.89904323  0.10187750  1
  Hf  Hf10  1  0.69822583  0.29918144  0.51046502  1
  Hf  Hf11  1  0.20144948  0.20334518  0.00535725  1
  Hf  Hf12  1  0.19999779  0.60294689  0.39772126  1
  Hf  Hf13  1  0.00557733  0.19943065  0.00208562  1
  Hf  Hf14  1  0.29090554  0.28704395  0.49849611  1
  Hf  Hf15  1  0.60655556  -0.00495690  0.40561572  1
  Hf  Hf16  1  0.00254307  0.00634378  -0.00198864  1
  Hf  Hf17  1  0.39291982  0.00511893  0.79514432  1
  Hf  Hf18  1  0.49772653  0.70271010  0.70809269  1
  Hf  Hf19  1  0.09194672  0.49610732  0.89085186  1
  Hf  Hf20  1  0.59811428  0.80931113  -0.01473378  1
  Hf  Hf21  1  0.60592173  0.79895486  0.58864484  1
  Hf  Hf22  1  0.29445609  0.70417218  0.70112904  1
  Hf  Hf23  1  0.68951223  0.29905443  0.70179034  1
  Hf  Hf24  1  0.20436362  -0.00407725  0.60272396  1
  Hf  Hf25  1  0.39588584  0.40135373  0.79485805  1
  Hf  Hf26  1  0.58776429  0.19592531  0.40704213  1
  Hf  Hf27  1  0.70904026  0.30296342  0.30214857  1
  Hf  Hf28  1  0.00219696  0.79421928  0.60412402  1
  Hf  Hf29  1  0.00105821  0.79108859  0.19609736  1
  Hf  Hf30  1  0.39895272  0.80269968  0.39834792  1
  Hf  Hf31  1  0.50013899  0.09871116  0.10104753  1
  Hf  Hf32  1  0.50421688  0.50183244  0.08751078  1
  Hf  Hf33  1  0.19965421  0.18728743  0.80643536  1
  Hf  Hf34  1  0.30274329  0.49777212  0.49808921  1
  Hf  Hf35  1  0.67878115  0.51253542  0.90000891  1
  Hf  Hf36  1  0.69274345  0.90362705  0.69781888  1
  Hf  Hf37  1  0.20486806  0.59815911  0.19175819  1
  Hf  Hf38  1  0.30157398  0.69356811  0.50965148  1
  Hf  Hf39  1  0.50236374  0.29078282  0.69676571  1
  Hf  Hf40  1  0.40193247  0.60238289  -0.01231655  1
  Hf  Hf41  1  0.81113413  0.59697554  0.80895437  1
  Hf  Hf42  1  0.60235412  0.60748132  0.39638037  1
  Hf  Hf43  1  0.39774471  0.00655044  0.40733392  1
  Hf  Hf44  1  0.10690520  0.89625849  0.71393087  1
  Hf  Hf45  1  0.82592254  0.60104211  0.62259693  1
  Hf  Hf46  1  0.09925287  0.89869206  0.30012455  1
  Hf  Hf47  1  0.80324364  0.19614544  0.40430723  1
  Hf  Hf48  1  0.68907348  0.90892873  0.11367913  1
  Hf  Hf49  1  0.91075234  0.30169410  0.88856627  1
  Zr  Zr50  1  0.50468388  0.70519947  0.09553382  1
  Zr  Zr51  1  0.80793685  0.40970885  -0.00507458  1
  Zr  Zr52  1  0.39067930  -0.00025798  0.20333374  1
  Zr  Zr53  1  0.81110246  0.60277123  0.20036438  1
  Zr  Zr54  1  0.80166207  0.20259802  -0.00595596  1
  Zr  Zr55  1  0.09826606  0.29985090  0.89203270  1
  Zr  Zr56  1  0.29923936  0.50332215  0.89188357  1
  Zr  Zr57  1  0.59366007  0.00626554  0.80341185  1
  Zr  Zr58  1  0.19361654  0.79971850  0.41037857  1
  Zr  Zr59  1  0.59749348  0.40562675  0.20502850  1
  Zr  Zr60  1  0.48694993  0.49919771  0.49536216  1
  Zr  Zr61  1  0.69135934  0.10115071  0.10299548  1
  Zr  Zr62  1  -0.00082538  0.60047621  0.00050011  1
  Zr  Zr63  1  0.69639510  0.69936418  0.70991941  1
  Zr  Zr64  1  0.69520525  0.10553246  0.69268416  1
  Zr  Zr65  1  0.00752933  0.19998224  0.19675330  1
  Zr  Zr66  1  0.91112491  0.09692145  0.50258324  1
  Zr  Zr67  1  0.20560303  0.79321051  0.19356426  1
  Zr  Zr68  1  0.59482387  0.39816081  0.39802386  1
  Zr  Zr69  1  0.59192389  0.59866191  0.59875700  1
  Zr  Zr70  1  0.00360906  0.39163838  0.60345909  1
  Zr  Zr71  1  0.71656087  0.68770376  0.49966688  1
  Zr  Zr72  1  0.90278805  0.71561596  0.90096838  1
  Zr  Zr73  1  0.79519590  0.39760867  0.80536240  1
  Zr  Zr74  1  0.57696248  0.22054472  0.20408940  1
  Zr  Zr75  1  0.10533965  0.50243319  0.50619270  1
  Zr  Zr76  1  0.79699859  0.00268890  -0.00742312  1
  Zr  Zr77  1  0.21247384  0.38943966  0.19333328  1
  Zr  Zr78  1  0.10465104  0.89838616  0.09063476  1
  Zr  Zr79  1  0.49855609  0.29827993  0.88927136  1
  Zr  Zr80  1  0.39918105  0.18156739  0.59670568  1
  Zr  Zr81  1  0.20852958  0.00404158  0.40233917  1
  Zr  Zr82  1  0.90803088  0.09370113  0.30778681  1
  Zr  Zr83  1  0.79215699  0.81380235  -0.00854439  1
  Zr  Zr84  1  0.28426060  0.90270524  0.89686523  1
  Zr  Zr85  1  0.68884014  0.49858593  0.70557344  1
  Zr  Zr86  1  0.69405023  0.09781893  0.29275092  1
  Zr  Zr87  1  0.09970579  0.49467432  0.29524650  1
  Zr  Zr88  1  0.70016902  0.50697716  0.09482302  1
  Zr  Zr89  1  0.40326901  0.38779855  0.19716626  1
  Zr  Zr90  1  0.39489587  0.80015512  0.19752088  1
  Zr  Zr91  1  0.59892492  0.38685945  -0.00806065  1
  Zr  Zr92  1  0.20080496  0.39075774  0.60675372  1
  Zr  Zr93  1  0.19149035  0.60636856  0.79635167  1
  Zr  Zr94  1  0.90367830  0.50068721  0.50127629  1
  Zr  Zr95  1  0.20341999  0.40121376  0.00557398  1
  Zr  Zr96  1  0.70239309  0.70026822  0.09160872  1
  Zr  Zr97  1  0.00253223  0.60754695  0.40132232  1
  Zr  Zr98  1  0.79961403  -0.00374317  0.59134234  1
  Zr  Zr99  1  0.79551707  0.80425986  0.40456097  1
  Ta  Ta100  1  0.80061331  0.19677656  0.79700488  1
  Ta  Ta101  1  0.39781207  0.19990558  0.00039875  1
  Ta  Ta102  1  0.90553956  0.49521934  0.30071780  1
  Ta  Ta103  1  0.09933592  0.49918625  0.10133060  1
  Ta  Ta104  1  0.30191348  0.29697077  0.89498007  1
  Ta  Ta105  1  0.50920553  0.90141436  0.29747717  1
  Ta  Ta106  1  0.49509409  0.09774023  0.29847464  1
  Ta  Ta107  1  0.39697228  -0.00174861  0.60329170  1
  Ta  Ta108  1  0.49798717  0.89850538  0.70013796  1
  Ta  Ta109  1  0.09883001  0.71762081  0.89659313  1
  Ta  Ta110  1  0.49259146  0.90183173  0.89476357  1
  Ta  Ta111  1  0.90610880  0.29632357  0.50004004  1
  Ta  Ta112  1  0.10032287  0.90044800  0.89985177  1
  Ta  Ta113  1  0.90051887  0.70683508  0.09407771  1
  Ta  Ta114  1  0.20195983  0.00317659  0.20093055  1
  Ta  Ta115  1  0.39500286  0.39508991  0.00278737  1
  Ta  Ta116  1  0.90683092  0.09740481  0.70257020  1
  Ta  Ta117  1  0.39556246  0.80488230  0.80027228  1
  Ta  Ta118  1  -0.00106243  0.40217972  0.00778070  1
  Ta  Ta119  1  0.80673525  0.80401562  0.60400718  1
  Ta  Ta120  1  0.29771786  0.70578479  0.89552159  1
  Ta  Ta121  1  0.90758920  0.10403297  0.88835192  1
  Ta  Ta122  1  0.10917693  0.09741008  0.10166826  1
  Ta  Ta123  1  0.80140015  0.00140464  0.80302976  1
  Ta  Ta124  1  0.90238420  0.30307765  0.10395261  1
  Ta  Ta125  1  0.81071730  0.20036953  0.20184355  1
  Ta  Ta126  1  0.29817749  0.50792367  0.69395721  1
  Ta  Ta127  1  0.90498405  0.90621043  0.70677259  1
  Ta  Ta128  1  0.80946047  0.40353619  0.19933755  1
  Ta  Ta129  1  0.48558565  0.50083504  0.30887794  1
  Ta  Ta130  1  0.10598134  0.29435626  0.30007957  1
  Ta  Ta131  1  0.90569043  0.30336227  0.30089813  1
  Ta  Ta132  1  0.20121243  0.39622541  0.78944640  1
  Ta  Ta133  1  0.38878120  0.20440441  0.20108058  1
  Ta  Ta134  1  0.71654467  0.50320027  0.31020601  1
  Ta  Ta135  1  0.29567069  0.10071831  0.09938272  1
  Ta  Ta136  1  0.00520525  0.00364380  0.19880060  1
  Ta  Ta137  1  0.79591249  0.81235943  0.79999201  1
  Ta  Ta138  1  0.09968207  0.69919912  0.29595116  1
  Ta  Ta139  1  0.10340463  0.28956699  0.49553315  1
  Ta  Ta140  1  0.80928782  0.20330893  0.60473148  1
  Ta  Ta141  1  0.00552253  0.39185560  0.39894447  1
  Ta  Ta142  1  0.80869796  0.39257807  0.60740435  1
  Ta  Ta143  1  0.39572746  0.00905967  -0.00823360  1
  Ta  Ta144  1  0.48999080  0.29817757  0.50288369  1
  Ta  Ta145  1  0.80194578  -0.00042866  0.20695817  1
  Ta  Ta146  1  0.68961139  0.69966558  0.89338007  1
  Ta  Ta147  1  0.39659997  0.39594131  0.60492983  1
  Ta  Ta148  1  0.39239426  0.19453627  0.39434528  1
  Ta  Ta149  1  0.19606122  0.60460194  0.00205389  1
  Ti  Ti150  1  0.39708447  0.80632969  0.60708291  1
  Ti  Ti151  1  0.00125952  0.19838185  0.60514347  1
  Ti  Ti152  1  0.00758262  0.00613168  0.80427482  1
  Ti  Ti153  1  0.58893679  0.40305202  0.60103441  1
  Ti  Ti154  1  0.29074800  0.09720639  0.70006741  1
  Ti  Ti155  1  0.59412396  0.19868479  -0.00979499  1
  Ti  Ti156  1  0.49739506  0.50233317  0.71224856  1
  Ti  Ti157  1  0.19720889  0.79124632  0.00069922  1
  Ti  Ti158  1  0.89821727  0.09900754  0.10237086  1
  Ti  Ti159  1  0.69644501  0.10478491  0.50742570  1
  Ti  Ti160  1  0.00184764  0.39798365  0.19548155  1
  Ti  Ti161  1  0.39865554  0.80440725  -0.00788146  1
  Ti  Ti162  1  0.70125258  0.10555744  0.89721242  1
  Ti  Ti163  1  0.29730891  0.89781980  0.30071812  1
  Ti  Ti164  1  0.58426622  0.01272728  0.59606659  1
  Ti  Ti165  1  0.40209191  0.59570352  0.60762376  1
  Ti  Ti166  1  0.81152558  0.39731790  0.40306907  1
  Ti  Ti167  1  0.20182934  0.39087297  0.39449135  1
  Ti  Ti168  1  0.00648273  0.20218859  0.39671825  1
  Ti  Ti169  1  0.11046725  0.10354962  0.29897695  1
  Ti  Ti170  1  0.30262920  0.69976641  0.08704200  1
  Ti  Ti171  1  0.30238427  0.69730756  0.30337199  1
  Ti  Ti172  1  0.49402503  0.70079367  0.30283162  1
  Ti  Ti173  1  0.59522361  0.00425294  -0.01367675  1
  Ti  Ti174  1  0.60898213  0.79820613  0.39598095  1
  Ti  Ti175  1  0.29484528  0.90700912  0.08811577  1
  Ti  Ti176  1  0.00869046  -0.00792805  0.59994379  1
  Ti  Ti177  1  0.10004825  0.50628583  0.69389952  1
  Ti  Ti178  1  0.39841409  0.18534608  0.80420050  1
  Ti  Ti179  1  0.09772597  0.09813332  0.70335551  1
  Ti  Ti180  1  0.90011288  0.69978585  0.30523451  1
  Ti  Ti181  1  0.79516351  0.79934784  0.21000377  1
  Ti  Ti182  1  0.30838884  0.49261291  0.31093013  1
  Ti  Ti183  1  0.48993888  0.69857985  0.49737736  1
  Ti  Ti184  1  0.90741043  0.29247785  0.70539417  1
  Ti  Ti185  1  0.00841264  0.79591251  0.41151629  1
  Ti  Ti186  1  0.09991111  0.28687289  0.70214541  1
  Ti  Ti187  1  0.30076674  0.89504416  0.50818532  1
  Ti  Ti188  1  0.90737711  0.90002719  0.50004475  1
  Ti  Ti189  1  -0.00058614  0.60156758  0.19302835  1
  Ti  Ti190  1  0.61007727  0.79615966  0.21867109  1
  Ti  Ti191  1  0.19208855  0.79948298  0.60065396  1
  Ti  Ti192  1  0.01469721  -0.00415065  0.40828356  1
  Ti  Ti193  1  0.90436676  0.69649866  0.50399810  1
  Ti  Ti194  1  0.29920396  0.28817377  0.70229368  1
  Ti  Ti195  1  0.59614083  0.19156791  0.80318613  1
  Ti  Ti196  1  0.79153027  -0.00651657  0.40331307  1
  Ti  Ti197  1  0.91165885  0.90273971  0.89344069  1
  Ti  Ti198  1  0.91412405  0.48190520  0.71182556  1
  Ti  Ti199  1  0.81230724  0.59561388  -0.00451446  1
  Mo  Mo200  1  0.29830395  0.10535170  0.29488659  1
  Mo  Mo201  1  0.49666119  0.09679739  0.69994024  1
  Mo  Mo202  1  0.81010742  0.59979136  0.39325524  1
  Mo  Mo203  1  0.19702970  0.00430199  0.80162764  1
  Mo  Mo204  1  0.89696188  0.72136105  0.70562379  1
  Mo  Mo205  1  0.30306486  0.29240458  0.09554635  1
  Mo  Mo206  1  0.39548450  0.60359499  0.79727656  1
  Mo  Mo207  1  0.59614575  -0.00188271  0.20940162  1
  Mo  Mo208  1  0.10283829  0.69864901  0.50845241  1
  Mo  Mo209  1  0.70159139  0.89719475  0.30078175  1
  Mo  Mo210  1  0.00186687  0.19319240  0.79202604  1
  Mo  Mo211  1  0.69751447  0.90074012  0.50349406  1
  Mo  Mo212  1  0.70571180  0.70025103  0.30052704  1
  Mo  Mo213  1  0.09985301  0.70589206  0.69960263  1
  Mo  Mo214  1  0.58055935  0.60436535  0.80732922  1
  Mo  Mo215  1  -0.00226729  0.80951459  0.80100800  1
  Mo  Mo216  1  0.49440766  0.29523484  0.08691079  1
  Mo  Mo217  1  0.91155341  0.49596337  0.89790777  1
  Mo  Mo218  1  0.00304492  0.80565397  -0.00129160  1
  Mo  Mo219  1  0.20021620  0.80170827  0.80167520  1
  Mo  Mo220  1  0.20032027  0.19827373  0.38982681  1
  Mo  Mo221  1  0.20235501  0.00857109  -0.00026347  1
  Mo  Mo222  1  0.39709335  0.60856499  0.39294303  1
  Mo  Mo223  1  0.59067566  0.40547611  0.79646209  1
  Mo  Mo224  1  0.10185117  0.09123466  0.90225641  1
  Mo  Mo225  1  0.49722580  0.50206335  0.89092225  1
  Mo  Mo226  1  0.49672897  0.09648204  0.49850864  1
  Mo  Mo227  1  0.48481056  0.30090660  0.31591510  1
  Mo  Mo228  1  0.01072973  0.39726590  0.79238075  1
  Mo  Mo229  1  0.19705707  0.19361893  0.61248375  1
  Mo  Mo230  1  0.49560561  0.10061335  0.90234823  1
  Mo  Mo231  1  0.69197349  0.90538211  0.88907161  1
  Mo  Mo232  1  0.49340647  0.70766147  0.89315213  1
  Mo  Mo233  1  0.39254445  0.38837851  0.40161241  1
  Mo  Mo234  1  0.30050112  0.50358937  0.08839483  1
  Mo  Mo235  1  0.19647422  0.60329315  0.60081181  1
  Mo  Mo236  1  0.90824916  0.49964742  0.10472106  1
  Mo  Mo237  1  0.30192647  0.89593285  0.69558496  1
  Mo  Mo238  1  0.30001268  0.10217845  0.90374733  1
  Mo  Mo239  1  0.20244355  0.19526768  0.20069163  1
  Mo  Mo240  1  0.00655325  0.60772249  0.60630014  1
  Mo  Mo241  1  0.09576933  0.90166712  0.50610004  1
  Mo  Mo242  1  0.29861728  0.09862140  0.50151487  1
  Mo  Mo243  1  0.59500160  0.80523440  0.80038111  1
  Mo  Mo244  1  0.09835923  0.69441743  0.09573620  1
  Mo  Mo245  1  0.69607817  0.28444811  0.89101928  1
  Mo  Mo246  1  0.09556322  0.30210687  0.10608333  1
  Mo  Mo247  1  0.58836383  0.61508498  -0.00708720  1
  Mo  Mo248  1  0.59504175  0.19674801  0.59458232  1
  Mo  Mo249  1  0.29476194  0.29341213  0.30290969  1
