# generated using pymatgen
data_HfZrTaTiMo
_symmetry_space_group_name_H-M   'P 1'
_cell_length_a   16.88535927
_cell_length_b   16.88528389
_cell_length_c   16.88726662
_cell_angle_alpha   90.00889112
_cell_angle_beta   89.96956560
_cell_angle_gamma   90.01473540
_symmetry_Int_Tables_number   1
_chemical_formula_structural   HfZrTaTiMo
_chemical_formula_sum   'Hf50 Zr50 Ta50 Ti50 Mo50'
_cell_volume   4814.79667288
_cell_formula_units_Z   50
loop_
 _symmetry_equiv_pos_site_id
 _symmetry_equiv_pos_as_xyz
  1  'x, y, z'
loop_
 _atom_site_type_symbol
 _atom_site_label
 _atom_site_symmetry_multiplicity
 _atom_site_fract_x
 _atom_site_fract_y
 _atom_site_fract_z
 _atom_site_occupancy
  Hf  Hf0  1  0.88963743  0.89589539  0.70635365  1
  Hf  Hf1  1  0.69876390  0.30450454  0.29369813  1
  Hf  Hf2  1  0.41045637  0.00869253  0.40300097  1
  Hf  Hf3  1  0.39791634  0.59369804  0.00999618  1
  Hf  Hf4  1  0.41092605  0.59905314  0.79677612  1
  Hf  Hf5  1  0.31440231  0.70257701  0.29351315  1
  Hf  Hf6  1  -0.00284927  0.19228051  0.60177906  1
  Hf  Hf7  1  -0.00014926  0.19830606  0.00008397  1
  Hf  Hf8  1  0.50078977  0.48140331  0.89697638  1
  Hf  Hf9  1  0.20350618  0.80230731  0.39906880  1
  Hf  Hf10  1  0.41689552  0.59321229  0.39787392  1
  Hf  Hf11  1  0.79325803  -0.01007655  0.00841747  1
  Hf  Hf12  1  0.60594264  0.80839762  0.59675451  1
  Hf  Hf13  1  0.79752612  0.60486099  0.79459371  1
  Hf  Hf14  1  0.89572096  0.30375986  0.90448374  1
  Hf  Hf15  1  0.08861986  0.30814563  0.69354905  1
  Hf  Hf16  1  0.20259456  0.40243096  0.60098320  1
  Hf  Hf17  1  0.09963700  0.30296148  0.10252248  1
  Hf  Hf18  1  0.10299228  0.09297571  0.49603363  1
  Hf  Hf19  1  0.19934581  -0.00509993  0.19388064  1
  Hf  Hf20  1  0.08995117  0.49881248  0.50746175  1
  Hf  Hf21  1  0.20867767  0.79779506  0.18251567  1
  Hf  Hf22  1  0.61118052  0.80341578  0.00309518  1
  Hf  Hf23  1  0.69346975  0.09670747  0.70361287  1
  Hf  Hf24  1  0.69803876  0.10472706  0.10279288  1
  Hf  Hf25  1  -0.01610262  0.79782714  0.81378164  1
  Hf  Hf26  1  -0.00894613  0.19322046  0.20144191  1
  Hf  Hf27  1  0.69550813  0.10573060  0.90053366  1
  Hf  Hf28  1  0.49872895  0.71324703  0.90046416  1
  Hf  Hf29  1  0.30486059  0.49981630  0.29505703  1
  Hf  Hf30  1  0.31541160  0.49961847  0.50531792  1
  Hf  Hf31  1  0.40745405  0.19290262  0.20130972  1
  Hf  Hf32  1  0.49252040  0.89922499  0.10043202  1
  Hf  Hf33  1  0.89320323  0.09881555  0.70514079  1
  Hf  Hf34  1  0.20740089  0.19727223  0.39174480  1
  Hf  Hf35  1  0.89285759  0.09425339  0.49357751  1
  Hf  Hf36  1  0.79499461  0.40259751  0.79731449  1
  Hf  Hf37  1  0.79172060  0.61055032  -0.00300179  1
  Hf  Hf38  1  0.10805623  0.70719615  0.91292844  1
  Hf  Hf39  1  0.30809588  0.30252309  0.50083581  1
  Hf  Hf40  1  0.20396999  -0.00418172  0.39160807  1
  Hf  Hf41  1  0.59258417  -0.00405482  0.80508953  1
  Hf  Hf42  1  0.10772782  0.51152951  0.90122136  1
  Hf  Hf43  1  -0.01141304  0.40101117  0.39382054  1
  Hf  Hf44  1  0.10774986  0.90749914  0.70513804  1
  Hf  Hf45  1  0.78966841  0.79355707  0.59663895  1
  Hf  Hf46  1  0.19900267  0.60768387  0.40786372  1
  Hf  Hf47  1  0.60282911  0.19774907  0.59502332  1
  Hf  Hf48  1  0.30911749  0.49936495  0.70023835  1
  Hf  Hf49  1  0.60201191  0.00385990  0.20008782  1
  Zr  Zr50  1  0.30891051  0.90208087  0.70052416  1
  Zr  Zr51  1  0.10242229  0.49996163  0.29324019  1
  Zr  Zr52  1  0.00027297  -0.00179686  0.60522140  1
  Zr  Zr53  1  0.49477053  0.70669322  0.11052053  1
  Zr  Zr54  1  0.89267340  0.30834599  0.50613593  1
  Zr  Zr55  1  0.30550761  0.08822871  0.69323170  1
  Zr  Zr56  1  0.60372967  0.60126200  0.59725950  1
  Zr  Zr57  1  0.19739221  0.39314343  0.80526214  1
  Zr  Zr58  1  0.59701163  0.19029076  0.40000751  1
  Zr  Zr59  1  0.40867896  0.19158233  0.59165270  1
  Zr  Zr60  1  0.78671781  -0.00569047  0.59363042  1
  Zr  Zr61  1  0.79492654  0.19516297  0.39853170  1
  Zr  Zr62  1  0.19938714  0.19129991  0.60361603  1
  Zr  Zr63  1  0.30666548  0.49627964  0.90032977  1
  Zr  Zr64  1  0.10199644  0.89809410  0.91344617  1
  Zr  Zr65  1  0.60771956  0.60544547  0.79644747  1
  Zr  Zr66  1  0.89695769  0.70210668  0.49328646  1
  Zr  Zr67  1  0.89038915  0.49953010  0.10505908  1
  Zr  Zr68  1  0.20538147  0.20014452  0.19919756  1
  Zr  Zr69  1  0.29758656  0.69932950  0.89592740  1
  Zr  Zr70  1  0.20617149  0.01046034  0.81542696  1
  Zr  Zr71  1  -0.01521943  0.60660051  0.80152270  1
  Zr  Zr72  1  0.09265895  0.29965945  0.49592210  1
  Zr  Zr73  1  0.89085138  0.30398032  0.10240679  1
  Zr  Zr74  1  0.10022975  0.50006374  0.10707583  1
  Zr  Zr75  1  0.50455125  0.89938052  0.29801724  1
  Zr  Zr76  1  0.00773655  0.19634512  0.80459383  1
  Zr  Zr77  1  -0.00336784  0.40701294  0.80243277  1
  Zr  Zr78  1  0.79703781  0.20486778  0.79854371  1
  Zr  Zr79  1  0.60093411  0.39465218  0.00700829  1
  Zr  Zr80  1  0.12104452  0.69861355  0.72406197  1
  Zr  Zr81  1  -0.00530090  0.61148185  0.00579646  1
  Zr  Zr82  1  -0.00447803  -0.00184771  0.38820391  1
  Zr  Zr83  1  0.32186138  0.30442503  0.90338692  1
  Zr  Zr84  1  0.70000770  0.89447651  0.89515697  1
  Zr  Zr85  1  0.09569869  0.70633759  0.28953642  1
  Zr  Zr86  1  0.68933211  0.70092566  0.30929192  1
  Zr  Zr87  1  -0.00158305  0.60800219  0.60863082  1
  Zr  Zr88  1  0.51745973  0.70082729  0.48391598  1
  Zr  Zr89  1  0.20019984  0.79514638  0.59211476  1
  Zr  Zr90  1  0.19949925  0.19951746  0.80193782  1
  Zr  Zr91  1  0.20563154  0.39626909  0.39296973  1
  Zr  Zr92  1  0.40144418  0.80962475  0.40542450  1
  Zr  Zr93  1  0.40925766  0.80854577  0.59279512  1
  Zr  Zr94  1  -0.00518832  0.60071795  0.39587672  1
  Zr  Zr95  1  0.19970046  0.19934448  -0.01116431  1
  Zr  Zr96  1  0.60078208  0.59847257  0.00367421  1
  Zr  Zr97  1  0.78892792  0.80907914  0.19496748  1
  Zr  Zr98  1  0.00201465  0.79384887  0.60570722  1
  Zr  Zr99  1  0.40186351  0.19475736  0.39439865  1
  Ta  Ta100  1  0.78927269  -0.00772208  0.39080841  1
  Ta  Ta101  1  0.39760691  0.00200275  -0.00425820  1
  Ta  Ta102  1  0.40774937  0.19666024  0.79657300  1
  Ta  Ta103  1  0.31697018  0.30387134  0.69839843  1
  Ta  Ta104  1  0.30096557  0.09876430  0.09067139  1
  Ta  Ta105  1  0.89619484  0.89412968  0.48876659  1
  Ta  Ta106  1  0.31036156  0.30050331  0.09781998  1
  Ta  Ta107  1  0.78833879  0.40022707  0.00201301  1
  Ta  Ta108  1  0.50566724  0.30297664  0.29530979  1
  Ta  Ta109  1  0.09735970  0.09868064  0.29191589  1
  Ta  Ta110  1  0.20331860  0.60382648  0.60065004  1
  Ta  Ta111  1  0.37863169  0.80681593  0.00659191  1
  Ta  Ta112  1  -0.00952713  0.60702655  0.19944506  1
  Ta  Ta113  1  0.31139516  0.90057720  0.28612536  1
  Ta  Ta114  1  0.80058044  0.19333473  0.20465012  1
  Ta  Ta115  1  0.09435332  0.29831482  0.29472137  1
  Ta  Ta116  1  0.49578835  0.48985622  0.10807936  1
  Ta  Ta117  1  0.69729213  0.49432844  0.89732172  1
  Ta  Ta118  1  0.31052639  0.70041376  0.70156327  1
  Ta  Ta119  1  0.20780945  0.60470469  0.01720583  1
  Ta  Ta120  1  0.09293480  0.89270381  0.09497232  1
  Ta  Ta121  1  0.89653293  0.89435721  0.29506521  1
  Ta  Ta122  1  -0.00493856  0.00006912  0.80909582  1
  Ta  Ta123  1  0.59796747  0.59388443  0.20085232  1
  Ta  Ta124  1  0.50069446  0.10354781  0.89936281  1
  Ta  Ta125  1  0.30922042  0.69313945  0.50532447  1
  Ta  Ta126  1  0.79131507  0.60081205  0.40414427  1
  Ta  Ta127  1  0.89343871  0.70725508  0.29805083  1
  Ta  Ta128  1  -0.00970409  0.40126060  0.20629663  1
  Ta  Ta129  1  0.59310583  0.19942728  0.00342647  1
  Ta  Ta130  1  0.88631610  0.49896892  0.50707637  1
  Ta  Ta131  1  0.70054765  0.49965611  0.29843782  1
  Ta  Ta132  1  -0.00736907  0.19652678  0.38751022  1
  Ta  Ta133  1  0.59854616  0.40524893  0.40247375  1
  Ta  Ta134  1  0.89285982  0.30783245  0.68915988  1
  Ta  Ta135  1  0.89436403  0.09522315  0.90766006  1
  Ta  Ta136  1  0.69059078  0.29872951  0.89859925  1
  Ta  Ta137  1  0.50051670  0.29674865  0.10473722  1
  Ta  Ta138  1  0.09830840  0.08773035  0.09456019  1
  Ta  Ta139  1  0.50274782  0.48391271  0.69689397  1
  Ta  Ta140  1  0.50146642  0.30753074  0.49868266  1
  Ta  Ta141  1  0.78942716  0.60590532  0.60393208  1
  Ta  Ta142  1  0.90209095  0.89618854  0.10105396  1
  Ta  Ta143  1  0.50109589  0.71479124  0.70518677  1
  Ta  Ta144  1  0.50389556  0.09579123  0.70188003  1
  Ta  Ta145  1  0.59067906  0.00110956  0.00283901  1
  Ta  Ta146  1  0.09677863  0.89872173  0.49695563  1
  Ta  Ta147  1  0.88969616  0.49973621  0.90868005  1
  Ta  Ta148  1  0.20843804  0.40404567  0.00849661  1
  Ta  Ta149  1  -0.00430900  -0.00244383  0.19601685  1
  Ti  Ti150  1  0.69455838  0.49058210  0.69653166  1
  Ti  Ti151  1  0.59909639  -0.00320515  0.58632448  1
  Ti  Ti152  1  0.69013336  0.30296541  0.70195946  1
  Ti  Ti153  1  0.88984450  0.30353214  0.29571906  1
  Ti  Ti154  1  0.80261142  -0.00437618  0.80940785  1
  Ti  Ti155  1  0.79371939  0.78504645  0.80473519  1
  Ti  Ti156  1  0.80410723  0.79689628  -0.00461202  1
  Ti  Ti157  1  0.50606391  0.70495775  0.29627145  1
  Ti  Ti158  1  0.69669858  0.69945992  0.10546700  1
  Ti  Ti159  1  0.69819463  0.50099659  0.49813770  1
  Ti  Ti160  1  0.89497614  0.09269147  0.10174074  1
  Ti  Ti161  1  0.00249246  0.40333528  -0.00086808  1
  Ti  Ti162  1  0.09451983  0.89553698  0.29080059  1
  Ti  Ti163  1  0.70213621  0.49792898  0.10998889  1
  Ti  Ti164  1  0.60006677  0.40039028  0.19946870  1
  Ti  Ti165  1  0.40087717  0.00138067  0.81223420  1
  Ti  Ti166  1  0.49140113  0.89276985  0.90004438  1
  Ti  Ti167  1  0.20610721  0.60524610  0.19162454  1
  Ti  Ti168  1  0.49880835  0.90120516  0.70515772  1
  Ti  Ti169  1  0.30324424  0.09216583  0.29267320  1
  Ti  Ti170  1  -0.01200302  -0.00662568  -0.00020438  1
  Ti  Ti171  1  0.40980966  0.39878537  0.39498611  1
  Ti  Ti172  1  0.69612459  0.89600483  0.70913801  1
  Ti  Ti173  1  0.79608895  0.60666547  0.20263158  1
  Ti  Ti174  1  0.09429839  0.08780568  0.91109363  1
  Ti  Ti175  1  0.90360575  0.71280062  0.10570857  1
  Ti  Ti176  1  0.70029831  0.09712914  0.29589629  1
  Ti  Ti177  1  0.40444615  0.59588042  0.19762116  1
  Ti  Ti178  1  0.88567473  0.50434299  0.29667616  1
  Ti  Ti179  1  0.39840197  0.39478543  0.20174145  1
  Ti  Ti180  1  0.41437448  0.60167228  0.60079401  1
  Ti  Ti181  1  0.50787657  0.49503892  0.29625782  1
  Ti  Ti182  1  0.20962082  0.39306929  0.20024496  1
  Ti  Ti183  1  0.69742859  0.29527219  0.10766942  1
  Ti  Ti184  1  0.89343851  0.49321195  0.68665323  1
  Ti  Ti185  1  0.78991077  0.19957032  0.59741275  1
  Ti  Ti186  1  0.21753724  0.81404735  0.81096188  1
  Ti  Ti187  1  0.29512287  0.91464023  0.50663484  1
  Ti  Ti188  1  0.41570870  0.00133667  0.58757491  1
  Ti  Ti189  1  0.40850063  0.19412567  0.00124561  1
  Ti  Ti190  1  0.79577173  0.20257759  0.00380109  1
  Ti  Ti191  1  0.70095421  0.30913954  0.50111669  1
  Ti  Ti192  1  0.00415101  0.79933042  0.39897602  1
  Ti  Ti193  1  0.60679773  0.80710499  0.19887243  1
  Ti  Ti194  1  0.59768827  0.39673371  0.59644550  1
  Ti  Ti195  1  0.79433746  0.40681984  0.39927017  1
  Ti  Ti196  1  0.40395223  0.00708509  0.19345616  1
  Ti  Ti197  1  0.10325363  0.50507700  0.70171252  1
  Ti  Ti198  1  0.61737061  0.82213402  0.40453445  1
  Ti  Ti199  1  0.50635920  0.29614115  0.89012653  1
  Mo  Mo200  1  0.59355910  0.20049325  0.79943860  1
  Mo  Mo201  1  0.70149784  0.90417301  0.29791908  1
  Mo  Mo202  1  0.70144486  0.69909340  0.49297660  1
  Mo  Mo203  1  0.20287795  0.80096378  0.00645854  1
  Mo  Mo204  1  0.09947008  0.70143634  0.10065277  1
  Mo  Mo205  1  0.09676620  0.31616598  0.91219844  1
  Mo  Mo206  1  0.31587209  0.10301437  0.90387065  1
  Mo  Mo207  1  0.60699679  0.00378704  0.40124636  1
  Mo  Mo208  1  0.69802307  0.90294112  0.09982195  1
  Mo  Mo209  1  0.51288996  0.90811133  0.49518125  1
  Mo  Mo210  1  0.40952192  0.39715567  0.59856685  1
  Mo  Mo211  1  0.21211013  0.59566978  0.79438164  1
  Mo  Mo212  1  0.89494960  0.89970853  0.90497540  1
  Mo  Mo213  1  0.30303801  0.49377987  0.10922058  1
  Mo  Mo214  1  0.59672115  0.80556867  0.79587548  1
  Mo  Mo215  1  0.60079218  0.20050222  0.19868723  1
  Mo  Mo216  1  0.79396166  0.39960406  0.20100608  1
  Mo  Mo217  1  0.89035956  0.70282553  0.90574291  1
  Mo  Mo218  1  0.40531879  0.39349795  0.01281738  1
  Mo  Mo219  1  0.30342288  0.90382670  0.90645925  1
  Mo  Mo220  1  0.30905272  0.30546579  0.29379482  1
  Mo  Mo221  1  0.60233711  0.58221429  0.39257122  1
  Mo  Mo222  1  0.50592634  0.29594935  0.69871174  1
  Mo  Mo223  1  0.69875411  0.70158911  0.90016706  1
  Mo  Mo224  1  0.89333833  0.09134898  0.29380865  1
  Mo  Mo225  1  0.70452959  0.90168245  0.49209491  1
  Mo  Mo226  1  0.09505946  0.09624357  0.70987934  1
  Mo  Mo227  1  0.20479785  0.00035800  0.00654096  1
  Mo  Mo228  1  0.60429122  0.39245701  0.79480068  1
  Mo  Mo229  1  0.88522227  0.70079659  0.70221802  1
  Mo  Mo230  1  0.41217604  0.38968554  0.78898752  1
  Mo  Mo231  1  0.30025858  0.91150097  0.09832104  1
  Mo  Mo232  1  0.10755307  0.70319676  0.49776979  1
  Mo  Mo233  1  0.69301380  0.70759400  0.70361421  1
  Mo  Mo234  1  0.30290196  0.69320216  0.10323905  1
  Mo  Mo235  1  0.39953278  0.80299635  0.19775676  1
  Mo  Mo236  1  -0.00396040  0.80329845  0.19923478  1
  Mo  Mo237  1  -0.00800210  0.80101545  0.00716321  1
  Mo  Mo238  1  0.69914831  0.09286987  0.49761828  1
  Mo  Mo239  1  -0.00821382  0.40903133  0.60169258  1
  Mo  Mo240  1  0.40226937  0.80671438  0.80211281  1
  Mo  Mo241  1  0.78566199  0.40543718  0.60204093  1
  Mo  Mo242  1  0.80379513  0.00271537  0.20121047  1
  Mo  Mo243  1  0.50589345  0.10070850  0.29253158  1
  Mo  Mo244  1  0.50484591  0.49136695  0.50358081  1
  Mo  Mo245  1  0.49867824  0.10034545  0.09354658  1
  Mo  Mo246  1  0.80063476  0.80167381  0.39597496  1
  Mo  Mo247  1  0.19580973  -0.00174792  0.59065126  1
  Mo  Mo248  1  0.29742121  0.08831340  0.49926180  1
  Mo  Mo249  1  0.50809221  0.09710546  0.50236875  1
