# generated using pymatgen
data_HfZrTaTiMo
_symmetry_space_group_name_H-M   'P 1'
_cell_length_a   16.89083726
_cell_length_b   16.88843814
_cell_length_c   16.89081902
_cell_angle_alpha   90.01941509
_cell_angle_beta   89.99302961
_cell_angle_gamma   89.99948236
_symmetry_Int_Tables_number   1
_chemical_formula_structural   HfZrTaTiMo
_chemical_formula_sum   'Hf50 Zr50 Ta50 Ti50 Mo50'
_cell_volume   4818.27235861
_cell_formula_units_Z   50
loop_
 _symmetry_equiv_pos_site_id
 _symmetry_equiv_pos_as_xyz
  1  'x, y, z'
loop_
 _atom_site_type_symbol
 _atom_site_label
 _atom_site_symmetry_multiplicity
 _atom_site_fract_x
 _atom_site_fract_y
 _atom_site_fract_z
 _atom_site_occupancy
  Hf  Hf0  1  0.19818307  0.40162160  0.80650982  1
  Hf  Hf1  1  0.09568597  0.51443262  0.09652942  1
  Hf  Hf2  1  0.90666215  0.70310396  0.49785728  1
  Hf  Hf3  1  0.00648488  0.39832672  0.19616846  1
  Hf  Hf4  1  0.50301670  0.09676958  0.49549590  1
  Hf  Hf5  1  0.40047765  -0.00717158  0.20725376  1
  Hf  Hf6  1  0.29229025  0.09845688  0.29480026  1
  Hf  Hf7  1  0.19514343  0.19566578  0.59829547  1
  Hf  Hf8  1  0.81162373  0.40474685  0.19305542  1
  Hf  Hf9  1  0.60242961  0.80620913  0.20137864  1
  Hf  Hf10  1  0.10555995  0.29897807  0.30613176  1
  Hf  Hf11  1  0.69766271  0.49211109  0.90684693  1
  Hf  Hf12  1  0.69737790  0.30711922  0.70574979  1
  Hf  Hf13  1  0.60523404  0.79979467  0.59970120  1
  Hf  Hf14  1  0.59185925  0.59768775  0.00277999  1
  Hf  Hf15  1  0.79652761  0.19543672  0.79567055  1
  Hf  Hf16  1  0.38894355  -0.00448643  0.59575391  1
  Hf  Hf17  1  0.90468208  0.69267213  0.70260073  1
  Hf  Hf18  1  0.29949570  0.30225800  0.30127140  1
  Hf  Hf19  1  0.79587880  0.80338592  0.39510520  1
  Hf  Hf20  1  0.39733170  0.60491021  0.19630424  1
  Hf  Hf21  1  0.20337350  -0.00151383  0.60208187  1
  Hf  Hf22  1  0.00200828  0.40264427  0.40654238  1
  Hf  Hf23  1  0.89891603  0.09430709  0.49764996  1
  Hf  Hf24  1  0.00373841  0.80201197  0.20588881  1
  Hf  Hf25  1  0.11263100  0.50995962  0.30578767  1
  Hf  Hf26  1  0.18807718  0.19947954  0.80746589  1
  Hf  Hf27  1  0.39962635  0.20252528  0.00080064  1
  Hf  Hf28  1  0.90528593  0.51206589  0.29158923  1
  Hf  Hf29  1  0.59821922  0.19447472  0.79853394  1
  Hf  Hf30  1  0.49666901  0.70913001  0.30193414  1
  Hf  Hf31  1  0.79187307  0.18964167  0.60685755  1
  Hf  Hf32  1  0.10504805  0.10008923  0.10576877  1
  Hf  Hf33  1  0.00341348  0.19280341  0.60627143  1
  Hf  Hf34  1  0.10337836  0.69522299  0.70461975  1
  Hf  Hf35  1  0.40099876  0.40098788  0.59971809  1
  Hf  Hf36  1  0.00603064  0.58632731  0.59588703  1
  Hf  Hf37  1  0.40294422  0.59420602  0.80689882  1
  Hf  Hf38  1  -0.00746471  -0.00258992  0.20727386  1
  Hf  Hf39  1  0.88973402  0.29144209  0.49474403  1
  Hf  Hf40  1  0.20619751  0.80804581  0.59987629  1
  Hf  Hf41  1  0.10636698  0.09640962  0.30054923  1
  Hf  Hf42  1  0.79419380  -0.00649853  0.39099856  1
  Hf  Hf43  1  0.59723833  -0.00138168  -0.00303321  1
  Hf  Hf44  1  0.80505312  0.19023814  0.00065835  1
  Hf  Hf45  1  0.39163792  0.19549470  0.40656866  1
  Hf  Hf46  1  0.89044048  0.91300616  0.89851932  1
  Hf  Hf47  1  0.00402461  0.39750134  0.59460744  1
  Hf  Hf48  1  0.09149559  0.69043563  0.89647480  1
  Hf  Hf49  1  0.80291188  0.78487655  -0.00646180  1
  Zr  Zr50  1  0.29686169  0.09777634  0.10125102  1
  Zr  Zr51  1  0.59461226  0.39697786  0.19387586  1
  Zr  Zr52  1  0.80132725  0.80264105  0.60473792  1
  Zr  Zr53  1  0.90639651  0.29751644  0.09298676  1
  Zr  Zr54  1  0.39809110  0.19882802  0.59756581  1
  Zr  Zr55  1  0.80621118  0.80382057  0.20149308  1
  Zr  Zr56  1  0.30092106  0.49844307  0.09624563  1
  Zr  Zr57  1  0.49774583  0.89648636  0.69782965  1
  Zr  Zr58  1  0.70561722  0.29930847  0.30840456  1
  Zr  Zr59  1  0.49737095  0.51739758  0.51094542  1
  Zr  Zr60  1  0.70165096  0.90168064  0.08919477  1
  Zr  Zr61  1  0.30284013  0.50371415  0.69533397  1
  Zr  Zr62  1  0.50359514  0.68441907  0.69021462  1
  Zr  Zr63  1  0.40838794  0.39905450  0.19236629  1
  Zr  Zr64  1  0.49678494  0.89251594  0.09537502  1
  Zr  Zr65  1  0.49982771  0.30339513  0.90187324  1
  Zr  Zr66  1  0.70567237  0.50369235  0.10120388  1
  Zr  Zr67  1  0.39490535  0.79749350  0.79970518  1
  Zr  Zr68  1  0.70017828  0.50135054  0.30163484  1
  Zr  Zr69  1  0.70441436  0.30831459  0.08524342  1
  Zr  Zr70  1  0.80323212  0.40540950  0.59911001  1
  Zr  Zr71  1  0.59070205  0.40248832  0.60880993  1
  Zr  Zr72  1  0.90644851  0.90351732  0.50360899  1
  Zr  Zr73  1  0.00628362  0.19837883  0.40548187  1
  Zr  Zr74  1  0.00996619  0.40383684  0.80554612  1
  Zr  Zr75  1  0.70362262  0.68945583  0.29152202  1
  Zr  Zr76  1  0.20116558  0.40214737  0.19793897  1
  Zr  Zr77  1  0.49291932  0.09092373  0.89763310  1
  Zr  Zr78  1  0.20002615  0.79552914  -0.00503440  1
  Zr  Zr79  1  0.09242580  0.90506192  0.90135471  1
  Zr  Zr80  1  -0.00375897  0.01716460  0.00504282  1
  Zr  Zr81  1  0.90137383  0.50004552  0.70638937  1
  Zr  Zr82  1  0.89970968  0.90153470  0.09147588  1
  Zr  Zr83  1  0.38594509  0.78006317  -0.00298544  1
  Zr  Zr84  1  -0.00661754  0.80372725  0.80078405  1
  Zr  Zr85  1  0.10548177  0.70051837  0.49258301  1
  Zr  Zr86  1  0.81319614  0.60027161  0.00383505  1
  Zr  Zr87  1  0.29897202  0.30082992  0.70286583  1
  Zr  Zr88  1  0.79675482  0.79381866  0.80206565  1
  Zr  Zr89  1  0.59857422  0.20101555  0.19131481  1
  Zr  Zr90  1  0.29237030  0.50618713  0.49371287  1
  Zr  Zr91  1  0.50566564  0.50143138  0.31054033  1
  Zr  Zr92  1  0.21479171  0.60591613  -0.01071298  1
  Zr  Zr93  1  0.20469919  0.79781366  0.20720015  1
  Zr  Zr94  1  0.29486205  0.90274128  0.10203450  1
  Zr  Zr95  1  0.90785031  0.10085365  0.88383635  1
  Zr  Zr96  1  0.60408135  0.00661641  0.60226239  1
  Zr  Zr97  1  0.69186481  0.49796235  0.49369543  1
  Zr  Zr98  1  0.19296165  0.39470882  -0.01068272  1
  Zr  Zr99  1  0.69305325  0.29746816  0.49264095  1
  Ta  Ta100  1  0.80004334  0.00418842  0.20073217  1
  Ta  Ta101  1  0.59160577  0.41078344  0.80152565  1
  Ta  Ta102  1  0.50070805  0.09559981  0.10328055  1
  Ta  Ta103  1  0.90257376  0.29485851  0.70790058  1
  Ta  Ta104  1  0.60011917  0.19548305  0.00010779  1
  Ta  Ta105  1  0.29694691  0.09719597  0.89774365  1
  Ta  Ta106  1  0.70070100  0.30430008  0.90351088  1
  Ta  Ta107  1  0.79713796  0.00566949  0.61025640  1
  Ta  Ta108  1  0.59818019  -0.00592961  0.39187446  1
  Ta  Ta109  1  0.50049985  0.09872578  0.29963075  1
  Ta  Ta110  1  0.80470839  0.60168960  0.40564276  1
  Ta  Ta111  1  0.18651842  0.40132231  0.59972119  1
  Ta  Ta112  1  0.80033502  0.40220971  0.80637398  1
  Ta  Ta113  1  0.29698799  0.69541510  0.69742482  1
  Ta  Ta114  1  0.69399107  0.51152520  0.70648117  1
  Ta  Ta115  1  0.49647408  0.89374159  0.49368018  1
  Ta  Ta116  1  0.19674730  0.20516862  -0.00728560  1
  Ta  Ta117  1  0.10179489  0.90184256  0.09999548  1
  Ta  Ta118  1  0.00590810  0.80697047  0.60396980  1
  Ta  Ta119  1  0.09852143  0.69827949  0.10208906  1
  Ta  Ta120  1  0.19499197  0.00306246  0.79882537  1
  Ta  Ta121  1  0.90051460  0.30099458  0.89853447  1
  Ta  Ta122  1  0.30141909  0.29989348  0.09325305  1
  Ta  Ta123  1  0.90662226  0.69647673  0.30025596  1
  Ta  Ta124  1  0.60599584  0.80619381  0.40072885  1
  Ta  Ta125  1  0.89679813  0.29301799  0.30199529  1
  Ta  Ta126  1  0.39275323  0.19988634  0.80317487  1
  Ta  Ta127  1  0.09887116  0.90313445  0.70157082  1
  Ta  Ta128  1  0.39463322  0.60547688  0.39780808  1
  Ta  Ta129  1  0.59993577  -0.00503326  0.80135688  1
  Ta  Ta130  1  0.70405572  0.09130541  0.89929376  1
  Ta  Ta131  1  0.09991563  0.08537591  0.49729116  1
  Ta  Ta132  1  0.49845899  0.29554429  0.30884974  1
  Ta  Ta133  1  0.80168491  0.59843767  0.80865877  1
  Ta  Ta134  1  0.89308045  0.10788945  0.30044320  1
  Ta  Ta135  1  0.50737354  0.69912760  0.89828731  1
  Ta  Ta136  1  0.70265147  0.90329551  0.70806205  1
  Ta  Ta137  1  0.79810291  0.59889670  0.59723548  1
  Ta  Ta138  1  0.69744633  0.10070958  0.29763051  1
  Ta  Ta139  1  0.49311955  0.70743586  0.49903516  1
  Ta  Ta140  1  0.59971031  0.61594634  0.40603518  1
  Ta  Ta141  1  0.29792798  0.90828545  0.89751880  1
  Ta  Ta142  1  0.20118200  0.19719454  0.41357443  1
  Ta  Ta143  1  0.60314351  0.79963180  0.80400343  1
  Ta  Ta144  1  0.39644986  0.40331958  0.40084009  1
  Ta  Ta145  1  0.40292218  0.59386537  -0.00534794  1
  Ta  Ta146  1  0.09927911  0.90291353  0.49714179  1
  Ta  Ta147  1  0.39534357  -0.00566083  0.40058511  1
  Ta  Ta148  1  0.29892736  0.09771592  0.70757541  1
  Ta  Ta149  1  0.20949679  0.80668991  0.40105427  1
  Ti  Ti150  1  0.49955521  0.89016230  0.90340849  1
  Ti  Ti151  1  0.69651994  0.69092927  0.70433422  1
  Ti  Ti152  1  0.28976301  0.30951061  0.49814495  1
  Ti  Ti153  1  0.58919960  0.59894560  0.19283267  1
  Ti  Ti154  1  0.00015012  0.59814676  0.40289027  1
  Ti  Ti155  1  0.59873154  0.19680521  0.60697474  1
  Ti  Ti156  1  0.40129452  0.40602182  0.81018270  1
  Ti  Ti157  1  0.09485032  0.29787190  0.70334774  1
  Ti  Ti158  1  0.49881421  0.70624944  0.09758919  1
  Ti  Ti159  1  0.19772862  0.21121816  0.19050173  1
  Ti  Ti160  1  0.49508782  0.30004443  0.70645280  1
  Ti  Ti161  1  -0.00420239  -0.00604503  0.39129678  1
  Ti  Ti162  1  0.39744869  -0.00256627  -0.00125183  1
  Ti  Ti163  1  0.11394222  0.50228606  0.48841577  1
  Ti  Ti164  1  0.69956051  0.69807558  0.50381320  1
  Ti  Ti165  1  0.19493472  0.00714152  -0.00849482  1
  Ti  Ti166  1  0.00466292  0.40205022  -0.00058962  1
  Ti  Ti167  1  0.30418979  0.70004231  0.49995130  1
  Ti  Ti168  1  0.57513170  0.40427551  0.00763568  1
  Ti  Ti169  1  0.30785299  0.70943560  0.30398195  1
  Ti  Ti170  1  0.69077724  0.69280515  0.89799638  1
  Ti  Ti171  1  0.00217797  0.00301115  0.61026213  1
  Ti  Ti172  1  0.59820879  0.19522754  0.39490036  1
  Ti  Ti173  1  0.39019862  0.80273182  0.59892942  1
  Ti  Ti174  1  0.21245700  -0.00489393  0.40684679  1
  Ti  Ti175  1  0.89998515  0.91470270  0.70703367  1
  Ti  Ti176  1  0.70131753  0.90182647  0.89968011  1
  Ti  Ti177  1  0.90983851  0.50249658  0.90591327  1
  Ti  Ti178  1  0.80088324  0.19598128  0.19553073  1
  Ti  Ti179  1  0.69894129  0.10147402  0.49061290  1
  Ti  Ti180  1  0.70185703  0.09350464  0.09891354  1
  Ti  Ti181  1  -0.00724627  0.78735160  0.00321845  1
  Ti  Ti182  1  -0.00055217  0.20076599  0.19674091  1
  Ti  Ti183  1  0.19924497  0.58689158  0.80340160  1
  Ti  Ti184  1  0.81249892  0.41077507  0.39957287  1
  Ti  Ti185  1  0.49370024  0.89416241  0.30540226  1
  Ti  Ti186  1  0.60201877  -0.00319522  0.20545989  1
  Ti  Ti187  1  0.50348185  0.30055169  0.49313522  1
  Ti  Ti188  1  0.11162289  0.90686532  0.30339889  1
  Ti  Ti189  1  0.39403912  -0.00534837  0.79632288  1
  Ti  Ti190  1  0.19773615  0.59883668  0.60000483  1
  Ti  Ti191  1  0.40510277  0.20216720  0.19625194  1
  Ti  Ti192  1  0.10101970  0.69464150  0.30473206  1
  Ti  Ti193  1  0.69884928  0.69745977  0.10154548  1
  Ti  Ti194  1  0.49343124  0.09777597  0.70267426  1
  Ti  Ti195  1  0.00415473  0.80916057  0.39309647  1
  Ti  Ti196  1  0.01150435  0.20256128  -0.00521396  1
  Ti  Ti197  1  0.21029673  0.60854644  0.20584878  1
  Ti  Ti198  1  0.20599139  0.80606901  0.79842984  1
  Ti  Ti199  1  0.69752833  0.90469803  0.50342808  1
  Mo  Mo200  1  0.90213605  0.09546081  0.69769723  1
  Mo  Mo201  1  0.39566468  0.40048608  -0.00572248  1
  Mo  Mo202  1  0.30535610  0.29812975  0.90027424  1
  Mo  Mo203  1  0.10093206  0.29289994  0.09615060  1
  Mo  Mo204  1  0.49537716  0.29155854  0.09826166  1
  Mo  Mo205  1  0.20764586  0.61507799  0.39147657  1
  Mo  Mo206  1  0.81538533  0.60721072  0.19475764  1
  Mo  Mo207  1  0.29481147  0.09351694  0.49752999  1
  Mo  Mo208  1  0.30174786  0.89594873  0.49659129  1
  Mo  Mo209  1  0.09467793  0.50477095  0.90103025  1
  Mo  Mo210  1  0.40085709  0.79814956  0.20312583  1
  Mo  Mo211  1  0.61108994  0.60744010  0.59944213  1
  Mo  Mo212  1  0.79309483  0.00011700  0.79651067  1
  Mo  Mo213  1  0.79521886  0.18926456  0.39666976  1
  Mo  Mo214  1  0.60416147  0.79188529  -0.00829813  1
  Mo  Mo215  1  0.30169618  0.90027507  0.30585898  1
  Mo  Mo216  1  0.09904818  0.09464936  0.70154762  1
  Mo  Mo217  1  0.29651777  0.69544403  0.87994761  1
  Mo  Mo218  1  0.89778246  0.10605803  0.11266955  1
  Mo  Mo219  1  0.10477948  0.29973451  0.50238729  1
  Mo  Mo220  1  0.10230914  0.10293696  0.89981806  1
  Mo  Mo221  1  0.39896765  0.80114292  0.40323966  1
  Mo  Mo222  1  0.50194674  0.49998872  0.70471405  1
  Mo  Mo223  1  0.69384929  0.09502647  0.70665553  1
  Mo  Mo224  1  0.58452671  0.39120290  0.40268992  1
  Mo  Mo225  1  0.00153407  0.59409598  0.80493538  1
  Mo  Mo226  1  0.00067977  0.20324731  0.79660281  1
  Mo  Mo227  1  0.19368829  -0.00743113  0.20382744  1
  Mo  Mo228  1  0.08680085  0.29738302  0.90294034  1
  Mo  Mo229  1  0.49639558  0.50504610  0.09584976  1
  Mo  Mo230  1  0.39023987  0.61011618  0.59591767  1
  Mo  Mo231  1  0.20242408  0.39606318  0.40439072  1
  Mo  Mo232  1  0.10631919  0.50258639  0.69879105  1
  Mo  Mo233  1  0.29945279  0.69768375  0.11293947  1
  Mo  Mo234  1  -0.00028832  0.60114358  0.00162842  1
  Mo  Mo235  1  0.89732375  0.50653256  0.49323797  1
  Mo  Mo236  1  0.81886156  0.40037724  -0.01067363  1
  Mo  Mo237  1  0.29418632  0.90003540  0.70818049  1
  Mo  Mo238  1  0.50029016  0.49973802  0.90270121  1
  Mo  Mo239  1  0.90031230  0.90094854  0.30233193  1
  Mo  Mo240  1  0.30634059  0.49532495  0.89931447  1
  Mo  Mo241  1  0.69454582  0.90684074  0.29510013  1
  Mo  Mo242  1  0.91271439  0.69488034  0.10609292  1
  Mo  Mo243  1  0.60433098  0.59926594  0.80357496  1
  Mo  Mo244  1  0.79437634  0.00740590  0.00084078  1
  Mo  Mo245  1  0.00720077  0.60923547  0.20056032  1
  Mo  Mo246  1  0.00483111  0.00659187  0.78780839  1
  Mo  Mo247  1  0.91153563  0.50289642  0.09624041  1
  Mo  Mo248  1  0.90480896  0.69035441  0.89816133  1
  Mo  Mo249  1  0.30327607  0.50535908  0.30658246  1
