# generated using pymatgen
data_HfZrTaTiMo
_symmetry_space_group_name_H-M   'P 1'
_cell_length_a   16.86918624
_cell_length_b   16.88174285
_cell_length_c   16.88599149
_cell_angle_alpha   89.99848002
_cell_angle_beta   90.07709226
_cell_angle_gamma   90.00205707
_symmetry_Int_Tables_number   1
_chemical_formula_structural   HfZrTaTiMo
_chemical_formula_sum   'Hf50 Zr50 Ta50 Ti50 Mo50'
_cell_volume   4808.80964571
_cell_formula_units_Z   50
loop_
 _symmetry_equiv_pos_site_id
 _symmetry_equiv_pos_as_xyz
  1  'x, y, z'
loop_
 _atom_site_type_symbol
 _atom_site_label
 _atom_site_symmetry_multiplicity
 _atom_site_fract_x
 _atom_site_fract_y
 _atom_site_fract_z
 _atom_site_occupancy
  Hf  Hf0  1  0.30224320  0.27757531  0.89627016  1
  Hf  Hf1  1  0.18909396  0.60650488  0.59107317  1
  Hf  Hf2  1  0.19553855  0.19334250  0.01222324  1
  Hf  Hf3  1  0.49806752  0.49149720  0.70307466  1
  Hf  Hf4  1  0.80530647  -0.00521028  0.81503866  1
  Hf  Hf5  1  0.90349404  0.90147952  0.50083979  1
  Hf  Hf6  1  0.61030022  0.39893194  0.60505819  1
  Hf  Hf7  1  0.89891797  0.90219643  0.08925005  1
  Hf  Hf8  1  0.80212354  0.59669082  0.19952231  1
  Hf  Hf9  1  0.39251203  0.60160372  0.80675716  1
  Hf  Hf10  1  0.39744859  0.39101787  0.00812877  1
  Hf  Hf11  1  0.49810907  0.50650065  0.29308615  1
  Hf  Hf12  1  0.00258959  0.59892584  0.40380542  1
  Hf  Hf13  1  0.30909634  0.09039407  0.29511097  1
  Hf  Hf14  1  0.39665744  0.60254446  0.00536563  1
  Hf  Hf15  1  -0.00565227  0.40483076  0.80068192  1
  Hf  Hf16  1  0.68882673  0.50075539  0.10298532  1
  Hf  Hf17  1  0.19337583  0.39799586  0.59766157  1
  Hf  Hf18  1  0.69012257  0.09757727  0.71951227  1
  Hf  Hf19  1  0.70716317  0.29847055  0.72076394  1
  Hf  Hf20  1  0.80599484  0.80647530  0.20398293  1
  Hf  Hf21  1  0.69386131  0.89649387  0.29628237  1
  Hf  Hf22  1  0.50496145  0.50008966  0.90940219  1
  Hf  Hf23  1  0.19852747  0.19951809  0.40279552  1
  Hf  Hf24  1  0.60121021  0.40099841  0.39526860  1
  Hf  Hf25  1  0.29878638  0.30523067  0.29754797  1
  Hf  Hf26  1  0.40042019  0.80716307  0.59451828  1
  Hf  Hf27  1  0.61009965  0.60160085  0.60834022  1
  Hf  Hf28  1  0.19368722  -0.00092962  0.19927704  1
  Hf  Hf29  1  0.59944506  0.00575009  0.18621986  1
  Hf  Hf30  1  0.09927011  0.69676325  0.70880706  1
  Hf  Hf31  1  0.79749689  0.59788785  0.40036049  1
  Hf  Hf32  1  0.10423647  0.90050541  0.50451132  1
  Hf  Hf33  1  0.80223911  0.20145005  0.60930220  1
  Hf  Hf34  1  0.30693285  0.49905900  0.49517531  1
  Hf  Hf35  1  0.80248027  0.79734013  0.60100926  1
  Hf  Hf36  1  0.60772474  -0.00336683  0.58744712  1
  Hf  Hf37  1  0.79621474  0.00189071  0.59812530  1
  Hf  Hf38  1  0.50248201  0.90034359  0.70788564  1
  Hf  Hf39  1  0.39902274  0.19711998  0.59991436  1
  Hf  Hf40  1  0.88719927  0.30344752  0.49615839  1
  Hf  Hf41  1  0.09781203  0.31079582  0.29013298  1
  Hf  Hf42  1  0.00517719  -0.00652056  0.61888589  1
  Hf  Hf43  1  0.19588288  0.20118798  0.59645533  1
  Hf  Hf44  1  0.39047397  0.40490484  0.81838771  1
  Hf  Hf45  1  0.29968403  0.29686676  0.70581932  1
  Hf  Hf46  1  0.29840370  0.70564685  0.09985948  1
  Hf  Hf47  1  0.60511537  0.00218207  0.39841620  1
  Hf  Hf48  1  0.48999201  0.71152929  0.90335434  1
  Hf  Hf49  1  0.50067666  0.09411290  0.71154654  1
  Zr  Zr50  1  0.10166199  0.89576861  0.09761110  1
  Zr  Zr51  1  0.29781940  0.50259098  0.69594016  1
  Zr  Zr52  1  0.79279387  0.00265876  0.19146921  1
  Zr  Zr53  1  0.30012541  0.50309033  0.30032433  1
  Zr  Zr54  1  -0.00400771  0.39663794  0.60530877  1
  Zr  Zr55  1  0.69782046  0.90037852  0.70430584  1
  Zr  Zr56  1  0.40982586  0.61130016  0.59996741  1
  Zr  Zr57  1  0.59910480  0.38437127  0.00598099  1
  Zr  Zr58  1  0.60587940  0.20131012  0.60151092  1
  Zr  Zr59  1  0.89344843  0.30030269  0.29020374  1
  Zr  Zr60  1  0.49648643  0.89655836  0.29178161  1
  Zr  Zr61  1  0.49756245  0.49738211  0.50233550  1
  Zr  Zr62  1  0.00261623  0.60070196  0.19955186  1
  Zr  Zr63  1  0.79765105  0.58738742  -0.01357491  1
  Zr  Zr64  1  0.79656203  -0.00244941  0.39432258  1
  Zr  Zr65  1  0.50124673  0.10335266  0.89820493  1
  Zr  Zr66  1  0.00207044  0.19792382  0.00067771  1
  Zr  Zr67  1  0.29992885  0.70635720  0.70365020  1
  Zr  Zr68  1  0.39941828  0.20015449  0.39639227  1
  Zr  Zr69  1  -0.00060207  0.20497624  0.60614532  1
  Zr  Zr70  1  0.61195720  0.79816632  0.81131946  1
  Zr  Zr71  1  0.00254800  0.80555382  0.20713364  1
  Zr  Zr72  1  0.00445320  0.20345352  0.39612945  1
  Zr  Zr73  1  0.49840730  0.29687077  0.71458324  1
  Zr  Zr74  1  0.20521049  0.40205927  -0.00324837  1
  Zr  Zr75  1  0.00669759  0.59813432  -0.00892979  1
  Zr  Zr76  1  0.20173528  0.80397697  0.80470553  1
  Zr  Zr77  1  0.60785414  0.00026631  0.00243708  1
  Zr  Zr78  1  0.70399496  0.70378396  0.09499397  1
  Zr  Zr79  1  0.29878009  0.70272450  0.49107304  1
  Zr  Zr80  1  0.00236460  0.40337116  0.40322588  1
  Zr  Zr81  1  0.89003980  0.29585878  0.89943865  1
  Zr  Zr82  1  -0.00047977  0.80078811  0.39943937  1
  Zr  Zr83  1  0.69287677  0.70011572  0.29907071  1
  Zr  Zr84  1  0.30467184  0.89409039  0.10473904  1
  Zr  Zr85  1  0.89982410  0.70306318  0.09170908  1
  Zr  Zr86  1  0.50295757  0.10466040  0.49475539  1
  Zr  Zr87  1  0.90020201  0.10074733  0.49174779  1
  Zr  Zr88  1  0.09928609  0.08814497  0.49942384  1
  Zr  Zr89  1  0.60529325  0.80685322  0.00295823  1
  Zr  Zr90  1  0.00220202  0.40221100  -0.00395098  1
  Zr  Zr91  1  0.60963815  0.59979006  0.80511407  1
  Zr  Zr92  1  0.19636731  0.19859794  0.19468286  1
  Zr  Zr93  1  0.00171320  0.00803954  -0.00745117  1
  Zr  Zr94  1  0.79697253  0.59703476  0.79497267  1
  Zr  Zr95  1  0.40087488  -0.01262727  0.40709890  1
  Zr  Zr96  1  0.19960961  0.60401716  0.20171628  1
  Zr  Zr97  1  0.89281853  0.71298343  0.89151112  1
  Zr  Zr98  1  0.19845338  -0.00508261  0.79866634  1
  Zr  Zr99  1  0.10592520  0.29307289  0.89150635  1
  Ta  Ta100  1  0.60165029  0.60168922  0.40289873  1
  Ta  Ta101  1  -0.00272968  0.59646547  0.80350564  1
  Ta  Ta102  1  0.40459911  0.39299357  0.19448710  1
  Ta  Ta103  1  0.30216512  0.50262428  0.10448423  1
  Ta  Ta104  1  0.40567904  0.39586668  0.39410353  1
  Ta  Ta105  1  0.89871182  0.49193256  0.29407878  1
  Ta  Ta106  1  0.10399371  0.29949317  0.70935376  1
  Ta  Ta107  1  0.30721670  0.09583619  0.09940719  1
  Ta  Ta108  1  0.39665623  0.00012333  -0.00126573  1
  Ta  Ta109  1  0.69910451  0.29560130  0.29517415  1
  Ta  Ta110  1  0.39702111  -0.00506454  0.59982586  1
  Ta  Ta111  1  0.20020942  0.41194402  0.80689296  1
  Ta  Ta112  1  0.79345308  0.39802207  0.00013638  1
  Ta  Ta113  1  0.89353268  0.10745273  0.09708906  1
  Ta  Ta114  1  -0.00585327  0.19257424  0.79473338  1
  Ta  Ta115  1  0.69719330  0.11791711  0.29358135  1
  Ta  Ta116  1  0.89272057  0.29870676  0.10080589  1
  Ta  Ta117  1  0.90128067  0.48803810  0.10264275  1
  Ta  Ta118  1  0.20239955  0.00251926  -0.00384332  1
  Ta  Ta119  1  0.00108554  0.79282693  0.60589810  1
  Ta  Ta120  1  0.48895794  0.89691519  0.09620219  1
  Ta  Ta121  1  0.49799149  0.50479393  0.10568226  1
  Ta  Ta122  1  0.69991286  0.70314989  0.50197952  1
  Ta  Ta123  1  0.29353129  0.08728052  0.50604340  1
  Ta  Ta124  1  0.89264166  0.50143790  0.50383025  1
  Ta  Ta125  1  0.10403846  0.70178448  0.30683121  1
  Ta  Ta126  1  0.10012074  0.50472920  0.70692508  1
  Ta  Ta127  1  0.30626132  0.30652809  0.50014022  1
  Ta  Ta128  1  0.00321246  0.19831513  0.18932570  1
  Ta  Ta129  1  0.00581874  0.79956998  -0.01100097  1
  Ta  Ta130  1  0.29949915  0.09767170  0.70122238  1
  Ta  Ta131  1  0.49081834  0.90125951  0.89968509  1
  Ta  Ta132  1  0.30437185  0.89102963  0.29510377  1
  Ta  Ta133  1  0.20041566  0.80403848  0.39825926  1
  Ta  Ta134  1  0.09862408  0.90026570  0.89739880  1
  Ta  Ta135  1  0.69352263  0.49927850  0.29303062  1
  Ta  Ta136  1  0.50423370  0.10407448  0.28966419  1
  Ta  Ta137  1  0.89586209  0.10536481  0.29029722  1
  Ta  Ta138  1  0.10446896  0.49872973  0.09956609  1
  Ta  Ta139  1  0.79954336  0.59906896  0.60585894  1
  Ta  Ta140  1  0.80279963  0.80077309  0.40092593  1
  Ta  Ta141  1  0.89843663  0.69492672  0.50460302  1
  Ta  Ta142  1  0.50160814  0.30266703  0.49828718  1
  Ta  Ta143  1  0.79365393  0.40536612  0.39376137  1
  Ta  Ta144  1  0.20214078  -0.01032623  0.39394362  1
  Ta  Ta145  1  0.59539332  0.39169995  0.19822015  1
  Ta  Ta146  1  0.70202078  0.29870764  0.48878692  1
  Ta  Ta147  1  0.40377048  0.20289549  0.19088611  1
  Ta  Ta148  1  0.38862238  -0.00745479  0.80377898  1
  Ta  Ta149  1  0.90039486  0.89034919  0.70976264  1
  Ti  Ti150  1  0.40794963  0.19811757  0.01108001  1
  Ti  Ti151  1  0.69959064  0.28628361  0.90736741  1
  Ti  Ti152  1  0.30216067  0.70085560  0.30070995  1
  Ti  Ti153  1  0.50274593  0.28593409  0.89839735  1
  Ti  Ti154  1  -0.00143331  0.00338750  0.20125822  1
  Ti  Ti155  1  0.09371799  0.50115501  0.50517050  1
  Ti  Ti156  1  0.90130813  0.69648241  0.30411662  1
  Ti  Ti157  1  0.61006131  0.40268055  0.81163895  1
  Ti  Ti158  1  0.20295580  0.39630763  0.18494811  1
  Ti  Ti159  1  0.50096959  0.71278937  0.70608460  1
  Ti  Ti160  1  0.50572080  0.29271509  0.29790646  1
  Ti  Ti161  1  0.19062046  0.60260028  0.40199750  1
  Ti  Ti162  1  0.40187629  0.79875260  0.39936823  1
  Ti  Ti163  1  -0.00524907  0.60409919  0.60398493  1
  Ti  Ti164  1  0.19678493  0.80086560  -0.00872534  1
  Ti  Ti165  1  0.89746939  0.50100923  0.69755676  1
  Ti  Ti166  1  0.09624997  0.09801838  0.29726773  1
  Ti  Ti167  1  0.70550333  0.70805818  0.70161421  1
  Ti  Ti168  1  0.51063198  0.70587321  0.49964777  1
  Ti  Ti169  1  0.00186797  0.80221919  0.80022243  1
  Ti  Ti170  1  0.79706421  0.40179575  0.60922389  1
  Ti  Ti171  1  0.70550696  0.49825358  0.50200268  1
  Ti  Ti172  1  0.29476659  0.70340699  0.90503398  1
  Ti  Ti173  1  0.70545795  0.12059602  0.09258727  1
  Ti  Ti174  1  0.10740367  0.69985075  0.09304788  1
  Ti  Ti175  1  0.41286146  0.61280601  0.39209297  1
  Ti  Ti176  1  -0.00148944  -0.00235243  0.80405076  1
  Ti  Ti177  1  0.79888881  0.41268399  0.81043471  1
  Ti  Ti178  1  0.00143685  -0.00750625  0.38072587  1
  Ti  Ti179  1  0.80833319  0.18903425  0.80795833  1
  Ti  Ti180  1  0.09965196  0.49597795  0.29277898  1
  Ti  Ti181  1  0.89846736  0.09433594  0.70720004  1
  Ti  Ti182  1  0.10742745  0.09976144  0.70387247  1
  Ti  Ti183  1  0.19415842  0.39963211  0.40689758  1
  Ti  Ti184  1  0.70492973  0.12055557  0.48235189  1
  Ti  Ti185  1  0.10443306  0.10191138  0.88976466  1
  Ti  Ti186  1  0.60177653  0.79807177  0.40415711  1
  Ti  Ti187  1  0.30198462  0.10115738  0.89734822  1
  Ti  Ti188  1  0.78932670  0.39719176  0.19521170  1
  Ti  Ti189  1  0.41306959  0.77845419  0.20115352  1
  Ti  Ti190  1  0.59475166  0.79873974  0.18979489  1
  Ti  Ti191  1  0.79814460  0.00265855  -0.00456445  1
  Ti  Ti192  1  0.19450342  0.80308831  0.59835202  1
  Ti  Ti193  1  0.59551115  0.20550836  0.18329581  1
  Ti  Ti194  1  0.29519449  0.90299882  0.69124676  1
  Ti  Ti195  1  0.60223338  0.60838276  -0.00322586  1
  Ti  Ti196  1  0.50987665  0.89095050  0.50223605  1
  Ti  Ti197  1  0.19475536  0.80000756  0.21087087  1
  Ti  Ti198  1  0.69772775  0.10740882  0.90448033  1
  Ti  Ti199  1  0.58387326  0.61588505  0.19784182  1
  Mo  Mo200  1  0.60171356  -0.00414990  0.81580393  1
  Mo  Mo201  1  0.00132891  0.40007277  0.19104382  1
  Mo  Mo202  1  0.60311007  0.20374331  0.81263055  1
  Mo  Mo203  1  0.29262947  0.51282682  0.90961242  1
  Mo  Mo204  1  0.10849113  0.30694828  0.50048638  1
  Mo  Mo205  1  0.09430704  0.30743550  0.10294279  1
  Mo  Mo206  1  0.30432686  0.29627531  0.10083142  1
  Mo  Mo207  1  0.70510898  0.49075492  0.70146520  1
  Mo  Mo208  1  0.10344304  0.90037191  0.30266045  1
  Mo  Mo209  1  0.40383213  0.00582308  0.19342849  1
  Mo  Mo210  1  0.89752105  0.49559502  0.90016037  1
  Mo  Mo211  1  0.70944790  0.90156371  0.90468921  1
  Mo  Mo212  1  0.69811928  0.88454543  0.49414721  1
  Mo  Mo213  1  0.49932410  0.70139351  0.09892192  1
  Mo  Mo214  1  0.29659202  0.89720532  0.49842423  1
  Mo  Mo215  1  0.29992139  0.90033737  0.90883340  1
  Mo  Mo216  1  0.60066787  0.79429336  0.59726511  1
  Mo  Mo217  1  0.80376456  0.80091808  0.79737909  1
  Mo  Mo218  1  0.39336213  0.80699058  0.80104985  1
  Mo  Mo219  1  0.69624224  0.49079558  0.90346047  1
  Mo  Mo220  1  0.50078496  0.29646163  0.10277509  1
  Mo  Mo221  1  0.90026170  0.91083677  0.29979873  1
  Mo  Mo222  1  0.09585216  0.70215369  0.50159541  1
  Mo  Mo223  1  0.90018959  0.10031184  0.90053658  1
  Mo  Mo224  1  0.40137065  0.39143995  0.59191708  1
  Mo  Mo225  1  0.90623645  0.90092326  0.89842794  1
  Mo  Mo226  1  0.19656156  0.18992840  0.79453593  1
  Mo  Mo227  1  0.70327771  0.70468111  0.90134888  1
  Mo  Mo228  1  0.09993296  0.70338506  0.89872549  1
  Mo  Mo229  1  0.39587978  0.80319179  -0.00198862  1
  Mo  Mo230  1  0.40010553  0.60282604  0.19893226  1
  Mo  Mo231  1  0.79742144  0.20456446  0.38940496  1
  Mo  Mo232  1  0.09602228  0.09354527  0.10429304  1
  Mo  Mo233  1  0.09410206  0.89386721  0.70325694  1
  Mo  Mo234  1  0.90620782  0.69724649  0.69747737  1
  Mo  Mo235  1  0.89452911  0.29880165  0.70857401  1
  Mo  Mo236  1  0.20310225  -0.00358491  0.60386841  1
  Mo  Mo237  1  0.60253432  0.19853953  0.00378395  1
  Mo  Mo238  1  0.19415218  0.59957446  0.81431701  1
  Mo  Mo239  1  0.50245179  0.70255463  0.30501661  1
  Mo  Mo240  1  0.10305894  0.50860389  0.89612380  1
  Mo  Mo241  1  0.49444233  0.10027444  0.09730978  1
  Mo  Mo242  1  0.80051364  0.20151582  0.19327516  1
  Mo  Mo243  1  0.79926756  0.81727898  -0.00959784  1
  Mo  Mo244  1  0.79821824  0.19950429  -0.00075423  1
  Mo  Mo245  1  0.39542331  0.19001979  0.80119477  1
  Mo  Mo246  1  0.70367323  0.89930243  0.09861170  1
  Mo  Mo247  1  0.20079997  0.60248536  0.00106253  1
  Mo  Mo248  1  0.70242639  0.29749485  0.10413959  1
  Mo  Mo249  1  0.60013241  0.20599251  0.38989552  1
