# generated using pymatgen
data_HfZrTaTiMo
_symmetry_space_group_name_H-M   'P 1'
_cell_length_a   16.88563829
_cell_length_b   16.89063270
_cell_length_c   16.89058859
_cell_angle_alpha   89.95723489
_cell_angle_beta   89.98877343
_cell_angle_gamma   90.00728608
_symmetry_Int_Tables_number   1
_chemical_formula_structural   HfZrTaTiMo
_chemical_formula_sum   'Hf50 Zr50 Ta50 Ti50 Mo50'
_cell_volume   4817.34833688
_cell_formula_units_Z   50
loop_
 _symmetry_equiv_pos_site_id
 _symmetry_equiv_pos_as_xyz
  1  'x, y, z'
loop_
 _atom_site_type_symbol
 _atom_site_label
 _atom_site_symmetry_multiplicity
 _atom_site_fract_x
 _atom_site_fract_y
 _atom_site_fract_z
 _atom_site_occupancy
  Hf  Hf0  1  0.49508490  0.70102672  0.09925906  1
  Hf  Hf1  1  0.60735886  0.60368378  -0.00360063  1
  Hf  Hf2  1  0.49188770  0.10189551  0.10329457  1
  Hf  Hf3  1  0.57909702  -0.02008367  0.40715551  1
  Hf  Hf4  1  0.39545510  0.60094844  0.59989011  1
  Hf  Hf5  1  0.19098762  0.60165921  -0.00353963  1
  Hf  Hf6  1  0.59455361  0.80775031  0.80434702  1
  Hf  Hf7  1  0.80260686  0.59587019  0.39215741  1
  Hf  Hf8  1  0.51167955  0.71144588  0.29282020  1
  Hf  Hf9  1  0.90323452  0.09187039  0.30450676  1
  Hf  Hf10  1  0.60168801  0.60144567  0.39898200  1
  Hf  Hf11  1  0.30415751  0.10112992  0.51042547  1
  Hf  Hf12  1  0.30749804  0.10601095  0.10089938  1
  Hf  Hf13  1  -0.00464355  0.00745638  0.80545388  1
  Hf  Hf14  1  0.39451103  0.60966328  0.39327375  1
  Hf  Hf15  1  0.61238330  0.80565488  0.18112916  1
  Hf  Hf16  1  0.88927147  0.30110738  0.71488669  1
  Hf  Hf17  1  0.30271624  0.90893315  0.49868104  1
  Hf  Hf18  1  0.29327060  0.70629769  0.10517286  1
  Hf  Hf19  1  0.10855404  0.30429262  0.90197390  1
  Hf  Hf20  1  0.80469710  0.39884349  0.20327083  1
  Hf  Hf21  1  0.40170685  -0.00504620  0.79818027  1
  Hf  Hf22  1  0.70133113  0.29929613  0.89428896  1
  Hf  Hf23  1  0.90332884  0.09515135  0.49613388  1
  Hf  Hf24  1  0.19080496  0.59480805  0.80657646  1
  Hf  Hf25  1  0.11050832  0.30345599  0.70434508  1
  Hf  Hf26  1  0.09797580  0.90401848  0.90899635  1
  Hf  Hf27  1  0.49838634  0.49520897  0.70871307  1
  Hf  Hf28  1  0.30234299  0.29629128  0.29350432  1
  Hf  Hf29  1  0.89115515  0.10379819  0.70047147  1
  Hf  Hf30  1  0.80224288  0.80033463  0.40656146  1
  Hf  Hf31  1  0.59797957  0.39285699  0.60311276  1
  Hf  Hf32  1  0.20202253  -0.00622353  0.20691262  1
  Hf  Hf33  1  0.69732094  0.10089465  0.09541791  1
  Hf  Hf34  1  0.79878698  -0.00581532  0.19259425  1
  Hf  Hf35  1  -0.00569646  0.60341751  0.80620196  1
  Hf  Hf36  1  0.29301272  0.70906235  0.49725005  1
  Hf  Hf37  1  0.41127179  0.82517712  0.38902889  1
  Hf  Hf38  1  0.40012106  0.80267638  -0.00988390  1
  Hf  Hf39  1  0.30323550  0.49679014  0.29428313  1
  Hf  Hf40  1  0.59968403  -0.01071776  -0.00067954  1
  Hf  Hf41  1  0.50053685  0.49886167  0.29189570  1
  Hf  Hf42  1  0.39849072  -0.01196406  0.21501613  1
  Hf  Hf43  1  0.58264960  0.39319177  -0.00216905  1
  Hf  Hf44  1  0.79722718  -0.00145626  0.80301957  1
  Hf  Hf45  1  0.50033019  0.49431647  0.49658392  1
  Hf  Hf46  1  0.10662679  0.10660602  0.70190690  1
  Hf  Hf47  1  0.40953688  0.20069547  0.40346154  1
  Hf  Hf48  1  0.68775824  0.49000935  0.29107545  1
  Hf  Hf49  1  0.51166921  0.30507789  0.29727701  1
  Zr  Zr50  1  0.50798787  0.69709950  0.70296746  1
  Zr  Zr51  1  0.29987750  0.49108785  0.70258993  1
  Zr  Zr52  1  0.29836676  0.29467405  0.69386872  1
  Zr  Zr53  1  0.69993814  0.30769429  0.10012574  1
  Zr  Zr54  1  -0.00739030  0.20012220  -0.00535913  1
  Zr  Zr55  1  0.49935439  0.50590136  0.10150165  1
  Zr  Zr56  1  0.80169601  0.39967029  0.39289690  1
  Zr  Zr57  1  0.90475351  0.89039302  0.09052828  1
  Zr  Zr58  1  -0.01036721  0.01212977  -0.00048420  1
  Zr  Zr59  1  0.00210026  0.00102634  0.19320521  1
  Zr  Zr60  1  0.69363764  0.09344153  0.30373469  1
  Zr  Zr61  1  0.26853237  0.70191298  0.68800720  1
  Zr  Zr62  1  0.69193789  0.10839610  0.70390164  1
  Zr  Zr63  1  0.90308455  0.69246727  0.50708592  1
  Zr  Zr64  1  0.10646740  0.68955652  0.51558792  1
  Zr  Zr65  1  0.61022034  0.59167963  0.60854648  1
  Zr  Zr66  1  0.00411200  -0.00519367  0.59981172  1
  Zr  Zr67  1  0.08831450  0.71558492  0.89748585  1
  Zr  Zr68  1  0.10078839  0.51514527  0.68471247  1
  Zr  Zr69  1  0.09199389  0.50088144  0.09476196  1
  Zr  Zr70  1  0.19847482  0.19568899  0.39721320  1
  Zr  Zr71  1  0.69580290  0.89115152  0.30884731  1
  Zr  Zr72  1  0.12227535  0.09917638  0.08595382  1
  Zr  Zr73  1  0.79396795  0.20308212  0.39283491  1
  Zr  Zr74  1  0.00032755  0.19376986  0.19487623  1
  Zr  Zr75  1  0.70040187  0.70493910  0.50585526  1
  Zr  Zr76  1  0.79354871  0.20840746  0.59020928  1
  Zr  Zr77  1  0.39947022  0.19167769  0.79759341  1
  Zr  Zr78  1  0.40365262  0.38461606  0.18165080  1
  Zr  Zr79  1  0.49937570  0.10352864  0.90478182  1
  Zr  Zr80  1  0.10563223  0.29994488  0.09502172  1
  Zr  Zr81  1  0.10214184  0.88869648  0.71007460  1
  Zr  Zr82  1  0.39619358  0.80695478  0.80084741  1
  Zr  Zr83  1  0.09996634  0.69925709  0.30680956  1
  Zr  Zr84  1  0.80030842  0.59869983  0.80374180  1
  Zr  Zr85  1  -0.00061480  0.40195242  0.59654213  1
  Zr  Zr86  1  0.68843960  0.09519567  0.50404853  1
  Zr  Zr87  1  0.21561617  0.00304963  0.80577599  1
  Zr  Zr88  1  0.50491132  0.71223710  0.50026885  1
  Zr  Zr89  1  0.80575579  0.79296901  0.19823827  1
  Zr  Zr90  1  0.30213691  0.50184479  0.09558823  1
  Zr  Zr91  1  0.00197815  0.41109602  0.80970534  1
  Zr  Zr92  1  0.30189874  0.29683841  0.50521489  1
  Zr  Zr93  1  0.79633365  0.39978468  0.59655205  1
  Zr  Zr94  1  0.10083483  0.29939928  0.49442881  1
  Zr  Zr95  1  0.00037125  0.20161643  0.60041010  1
  Zr  Zr96  1  0.39949873  0.81388883  0.61154838  1
  Zr  Zr97  1  0.00516614  0.79719254  0.20133659  1
  Zr  Zr98  1  0.49391498  0.50386849  0.89540068  1
  Zr  Zr99  1  0.90143380  0.49885961  0.08991162  1
  Ta  Ta100  1  0.90274158  0.88767894  0.89716138  1
  Ta  Ta101  1  0.90790995  0.90145940  0.31082461  1
  Ta  Ta102  1  0.70228359  0.89897724  0.70183707  1
  Ta  Ta103  1  0.69405332  0.29818476  0.71283633  1
  Ta  Ta104  1  0.59626181  0.20382530  -0.00050778  1
  Ta  Ta105  1  0.80101022  0.20191977  0.20029677  1
  Ta  Ta106  1  0.70099546  0.70278223  0.89711159  1
  Ta  Ta107  1  0.09806783  0.90065465  0.30937116  1
  Ta  Ta108  1  0.70521838  0.48823857  0.90222060  1
  Ta  Ta109  1  0.79858834  -0.00199338  -0.00431761  1
  Ta  Ta110  1  0.09737785  0.09143528  0.30978795  1
  Ta  Ta111  1  0.70644373  0.71028866  0.70113533  1
  Ta  Ta112  1  0.91018068  0.50333249  0.49754534  1
  Ta  Ta113  1  0.90705003  0.30485044  0.48451004  1
  Ta  Ta114  1  0.29615696  0.89905186  0.09975326  1
  Ta  Ta115  1  0.80455423  0.59969740  0.20029168  1
  Ta  Ta116  1  0.90912882  0.69100752  0.08748879  1
  Ta  Ta117  1  0.40344419  0.38692917  0.80775437  1
  Ta  Ta118  1  0.49215006  0.89599278  0.10016466  1
  Ta  Ta119  1  0.70040703  0.49570744  0.49507007  1
  Ta  Ta120  1  0.89689746  0.50373146  0.69792544  1
  Ta  Ta121  1  0.20203992  0.80333690  -0.00064318  1
  Ta  Ta122  1  0.59408971  -0.00146140  0.79921050  1
  Ta  Ta123  1  0.90051696  0.30554978  0.09597427  1
  Ta  Ta124  1  -0.00130409  0.20096710  0.80877329  1
  Ta  Ta125  1  0.00344678  0.39984084  0.20376779  1
  Ta  Ta126  1  0.19927302  0.59194843  0.39695446  1
  Ta  Ta127  1  0.19604066  0.60265169  0.20566648  1
  Ta  Ta128  1  0.29543901  0.69840056  0.89964865  1
  Ta  Ta129  1  0.79832439  0.79580820  -0.00441794  1
  Ta  Ta130  1  0.00240041  0.80082932  0.40948206  1
  Ta  Ta131  1  0.49959372  0.09821950  0.29826402  1
  Ta  Ta132  1  0.68339551  0.30547146  0.48556686  1
  Ta  Ta133  1  0.60045447  0.20154040  0.19913935  1
  Ta  Ta134  1  0.30002787  0.49328831  0.89803712  1
  Ta  Ta135  1  0.89746554  0.89435895  0.70221946  1
  Ta  Ta136  1  0.70371136  0.89742739  0.89831594  1
  Ta  Ta137  1  0.20881007  0.19737518  0.80562982  1
  Ta  Ta138  1  0.69783596  0.10562107  0.89821760  1
  Ta  Ta139  1  0.19349523  0.40116097  0.20358257  1
  Ta  Ta140  1  0.59765179  -0.00647222  0.19460520  1
  Ta  Ta141  1  0.20519845  -0.00186380  0.60801324  1
  Ta  Ta142  1  0.91053935  0.29920965  0.29853633  1
  Ta  Ta143  1  0.79940857  -0.01102578  0.41071925  1
  Ta  Ta144  1  0.90034465  0.70309355  0.69912951  1
  Ta  Ta145  1  0.70026989  0.69872899  0.29728677  1
  Ta  Ta146  1  0.40100615  0.39637436  0.40205812  1
  Ta  Ta147  1  0.00296251  0.79750892  0.60518924  1
  Ta  Ta148  1  0.19628527  0.40819227  0.39561135  1
  Ta  Ta149  1  0.19860444  0.40725924  0.58759755  1
  Ti  Ti150  1  0.20298701  0.40457425  -0.00244209  1
  Ti  Ti151  1  0.20997975  0.80566168  0.80519072  1
  Ti  Ti152  1  0.59048811  -0.00625720  0.60743843  1
  Ti  Ti153  1  0.90712590  0.69641577  0.30284593  1
  Ti  Ti154  1  0.61157002  0.60446408  0.19084759  1
  Ti  Ti155  1  0.60169864  0.80155436  -0.00363887  1
  Ti  Ti156  1  0.11287695  0.10516713  0.90462997  1
  Ti  Ti157  1  0.71246115  0.69508107  0.09421871  1
  Ti  Ti158  1  0.60099501  0.81732981  0.59878458  1
  Ti  Ti159  1  0.80450486  0.60023311  -0.00876025  1
  Ti  Ti160  1  0.39212913  0.61250525  0.20599877  1
  Ti  Ti161  1  0.90553213  0.89946504  0.50333447  1
  Ti  Ti162  1  0.09658640  0.30276527  0.30130711  1
  Ti  Ti163  1  0.79395333  -0.01019520  0.59610759  1
  Ti  Ti164  1  0.38981700  0.60704547  0.79887956  1
  Ti  Ti165  1  0.29897057  0.30518435  0.90213921  1
  Ti  Ti166  1  0.20410356  0.80321042  0.39118491  1
  Ti  Ti167  1  0.30258464  0.49769796  0.49736298  1
  Ti  Ti168  1  0.39453567  0.60408015  -0.00679020  1
  Ti  Ti169  1  0.80006767  0.80839576  0.60127124  1
  Ti  Ti170  1  0.30646646  0.09880942  0.30451154  1
  Ti  Ti171  1  0.61109044  0.59940885  0.80283771  1
  Ti  Ti172  1  0.39651511  -0.01302035  -0.00567372  1
  Ti  Ti173  1  0.10416979  0.09416145  0.49965156  1
  Ti  Ti174  1  0.10608689  0.89761510  0.49860693  1
  Ti  Ti175  1  0.20295920  -0.00136959  0.39806600  1
  Ti  Ti176  1  0.70393727  0.49764318  0.09507886  1
  Ti  Ti177  1  0.59538070  0.19889737  0.40021114  1
  Ti  Ti178  1  0.09445504  0.70300644  0.09649707  1
  Ti  Ti179  1  0.79962587  0.20170816  0.00311594  1
  Ti  Ti180  1  0.70229910  0.48526198  0.71390652  1
  Ti  Ti181  1  0.29329351  0.29345954  0.09556794  1
  Ti  Ti182  1  0.88497688  0.11178571  0.89752872  1
  Ti  Ti183  1  0.49370855  0.09518184  0.50597900  1
  Ti  Ti184  1  0.50669591  0.29268400  0.71056983  1
  Ti  Ti185  1  0.91744709  0.50030898  0.30405929  1
  Ti  Ti186  1  0.00201492  0.59852329  0.20314388  1
  Ti  Ti187  1  0.58606574  0.20453390  0.59802494  1
  Ti  Ti188  1  0.40835741  0.38842225  0.59868981  1
  Ti  Ti189  1  0.80255563  0.79710631  0.80258294  1
  Ti  Ti190  1  0.10640982  0.89512139  0.09685525  1
  Ti  Ti191  1  0.40442380  0.00403213  0.61593133  1
  Ti  Ti192  1  0.00369886  0.19704859  0.39859024  1
  Ti  Ti193  1  0.49981653  0.69495327  0.89732480  1
  Ti  Ti194  1  0.89024501  0.31370510  0.90507610  1
  Ti  Ti195  1  0.40732099  0.22426416  0.00168980  1
  Ti  Ti196  1  0.38675544  0.80385967  0.20966702  1
  Ti  Ti197  1  0.79795513  0.59342298  0.60508240  1
  Ti  Ti198  1  0.19843269  0.19677751  0.20689667  1
  Ti  Ti199  1  0.29988321  0.10333829  0.92014978  1
  Mo  Mo200  1  0.29596148  0.90498899  0.69918681  1
  Mo  Mo201  1  0.50153622  0.10226424  0.69449140  1
  Mo  Mo202  1  0.50650124  0.89793935  0.28275815  1
  Mo  Mo203  1  -0.00298235  0.60264752  -0.00701516  1
  Mo  Mo204  1  0.89851108  0.50020162  0.90584533  1
  Mo  Mo205  1  0.20929902  -0.00437790  0.00194803  1
  Mo  Mo206  1  0.29731603  0.89842599  0.90702059  1
  Mo  Mo207  1  0.59803049  0.19832239  0.80239087  1
  Mo  Mo208  1  0.28684102  0.89806244  0.30181165  1
  Mo  Mo209  1  0.20580727  0.58372686  0.58437125  1
  Mo  Mo210  1  0.29334407  0.70346434  0.29887282  1
  Mo  Mo211  1  0.40349518  0.19277997  0.20435848  1
  Mo  Mo212  1  0.39179533  0.39337861  -0.00717425  1
  Mo  Mo213  1  0.09988987  0.49493134  0.90717530  1
  Mo  Mo214  1  0.19438951  0.81883446  0.59558828  1
  Mo  Mo215  1  0.00191829  0.59682945  0.40052117  1
  Mo  Mo216  1  0.69624829  0.29512028  0.29734699  1
  Mo  Mo217  1  0.00467529  -0.00803082  0.40614930  1
  Mo  Mo218  1  0.41610864  0.19594224  0.60347168  1
  Mo  Mo219  1  0.30035192  0.10245125  0.69188948  1
  Mo  Mo220  1  0.20686182  0.40069893  0.80389237  1
  Mo  Mo221  1  0.69778970  0.90070969  0.51195444  1
  Mo  Mo222  1  0.21358385  0.20522574  -0.00759081  1
  Mo  Mo223  1  -0.00423284  0.39976778  -0.00150572  1
  Mo  Mo224  1  0.60158176  0.79912909  0.40791716  1
  Mo  Mo225  1  0.00448173  0.40450326  0.39283989  1
  Mo  Mo226  1  0.89394625  0.70242360  0.90285541  1
  Mo  Mo227  1  0.80092206  0.40393998  0.80202944  1
  Mo  Mo228  1  0.59867622  0.39741672  0.80044057  1
  Mo  Mo229  1  0.50656009  0.90736066  0.70389882  1
  Mo  Mo230  1  0.00093749  0.79824646  0.00211891  1
  Mo  Mo231  1  -0.01274376  0.79995332  0.79707042  1
  Mo  Mo232  1  0.80122635  0.20271058  0.80866585  1
  Mo  Mo233  1  -0.00951156  0.60145561  0.60422690  1
  Mo  Mo234  1  0.19575881  0.80203957  0.19622360  1
  Mo  Mo235  1  0.88150578  0.10928794  0.09644633  1
  Mo  Mo236  1  0.09308061  0.70433081  0.69867206  1
  Mo  Mo237  1  0.70271844  0.89882991  0.08707308  1
  Mo  Mo238  1  0.49492422  0.90847683  0.51708324  1
  Mo  Mo239  1  0.50221776  0.29074257  0.10041531  1
  Mo  Mo240  1  0.19939382  0.19169051  0.60482298  1
  Mo  Mo241  1  0.40075353  0.00687406  0.39866008  1
  Mo  Mo242  1  0.80095558  0.40254651  -0.00292953  1
  Mo  Mo243  1  0.10158784  0.50166652  0.29519540  1
  Mo  Mo244  1  0.50328130  0.90230606  0.90496602  1
  Mo  Mo245  1  0.09675785  0.50185710  0.48780031  1
  Mo  Mo246  1  0.60358499  0.39806574  0.19186281  1
  Mo  Mo247  1  0.49907435  0.29864743  0.89678767  1
  Mo  Mo248  1  0.50190560  0.29755719  0.49974023  1
  Mo  Mo249  1  0.59610444  0.40078560  0.39955818  1
