# generated using pymatgen
data_HfZrTaTiMo
_symmetry_space_group_name_H-M   'P 1'
_cell_length_a   16.88411818
_cell_length_b   16.88842321
_cell_length_c   16.89031512
_cell_angle_alpha   90.00243600
_cell_angle_beta   90.02771810
_cell_angle_gamma   90.07259927
_symmetry_Int_Tables_number   1
_chemical_formula_structural   HfZrTaTiMo
_chemical_formula_sum   'Hf50 Zr50 Ta50 Ti50 Mo50'
_cell_volume   4816.20361001
_cell_formula_units_Z   50
loop_
 _symmetry_equiv_pos_site_id
 _symmetry_equiv_pos_as_xyz
  1  'x, y, z'
loop_
 _atom_site_type_symbol
 _atom_site_label
 _atom_site_symmetry_multiplicity
 _atom_site_fract_x
 _atom_site_fract_y
 _atom_site_fract_z
 _atom_site_occupancy
  Hf  Hf0  1  0.60283095  -0.00124455  0.80159504  1
  Hf  Hf1  1  0.60096159  0.79975571  0.40028654  1
  Hf  Hf2  1  0.10555626  0.70921882  0.29738113  1
  Hf  Hf3  1  0.20142328  0.81083116  0.60733255  1
  Hf  Hf4  1  0.59814826  0.39980126  0.59141203  1
  Hf  Hf5  1  0.79693566  0.39069610  -0.00619548  1
  Hf  Hf6  1  0.90012083  0.69424907  0.89185659  1
  Hf  Hf7  1  0.89899911  0.28683680  0.10408484  1
  Hf  Hf8  1  0.59768309  0.00154408  0.60291512  1
  Hf  Hf9  1  0.40515212  0.40898782  0.19666854  1
  Hf  Hf10  1  0.20135042  0.39430691  0.79615406  1
  Hf  Hf11  1  0.09169209  0.90234789  0.09950447  1
  Hf  Hf12  1  0.78823201  0.39211926  0.20170673  1
  Hf  Hf13  1  0.70144928  0.69377580  0.89334464  1
  Hf  Hf14  1  0.90292618  0.49164973  0.10726458  1
  Hf  Hf15  1  0.59952819  0.40590470  -0.00300089  1
  Hf  Hf16  1  -0.00647564  0.80012442  0.40072676  1
  Hf  Hf17  1  0.30297746  0.10371212  0.90240259  1
  Hf  Hf18  1  0.40569145  0.58646939  0.59291755  1
  Hf  Hf19  1  0.20558934  0.00058595  0.39704027  1
  Hf  Hf20  1  0.30637053  0.70448543  0.10483119  1
  Hf  Hf21  1  0.68655675  0.90569838  0.09967254  1
  Hf  Hf22  1  0.49890615  0.10616818  0.90659431  1
  Hf  Hf23  1  0.09761968  0.49697737  0.11058048  1
  Hf  Hf24  1  0.20339194  0.80492010  0.00103114  1
  Hf  Hf25  1  0.10085338  0.10811680  0.70361262  1
  Hf  Hf26  1  0.89703151  0.10433375  0.49844597  1
  Hf  Hf27  1  0.30450173  0.49539271  0.89920302  1
  Hf  Hf28  1  0.49651483  0.29162239  0.09434747  1
  Hf  Hf29  1  0.69326193  0.31273544  0.71360669  1
  Hf  Hf30  1  0.60039802  0.20257659  0.39230102  1
  Hf  Hf31  1  -0.00194023  0.39652098  0.59767181  1
  Hf  Hf32  1  0.79173085  0.79875070  0.19473526  1
  Hf  Hf33  1  0.28824258  0.31068726  0.49661674  1
  Hf  Hf34  1  0.69880894  0.49418787  0.88131947  1
  Hf  Hf35  1  0.20023801  0.60214732  0.00223526  1
  Hf  Hf36  1  0.31490156  0.71596670  0.30346095  1
  Hf  Hf37  1  0.60466200  0.59473587  0.59519869  1
  Hf  Hf38  1  0.89702475  0.09099604  0.89938718  1
  Hf  Hf39  1  0.41817542  0.60937323  0.20254100  1
  Hf  Hf40  1  0.49946941  0.09469929  0.49615718  1
  Hf  Hf41  1  0.49265471  0.89609798  0.29528194  1
  Hf  Hf42  1  0.80621327  0.20936660  0.61027236  1
  Hf  Hf43  1  0.70972208  0.89940425  0.70107033  1
  Hf  Hf44  1  0.09140086  0.90659911  0.50822767  1
  Hf  Hf45  1  0.70048602  0.49892215  0.30555320  1
  Hf  Hf46  1  0.30054083  0.69490358  0.89596293  1
  Hf  Hf47  1  0.40564960  0.58553706  0.79405790  1
  Hf  Hf48  1  0.59762201  0.60426291  0.40807809  1
  Hf  Hf49  1  0.79473250  0.59936478  0.19854782  1
  Zr  Zr50  1  0.00525031  0.20037555  0.39424914  1
  Zr  Zr51  1  0.50050793  0.70599154  0.69549255  1
  Zr  Zr52  1  -0.00026785  0.38884598  -0.00477745  1
  Zr  Zr53  1  0.40810476  0.39806970  0.59826351  1
  Zr  Zr54  1  0.00165736  0.60003714  0.00240690  1
  Zr  Zr55  1  0.60644174  0.79853932  0.59507685  1
  Zr  Zr56  1  0.59581313  0.39600923  0.40004657  1
  Zr  Zr57  1  0.40926416  0.80561322  0.01441078  1
  Zr  Zr58  1  0.20149158  0.19805501  0.39157365  1
  Zr  Zr59  1  0.09517909  0.10801117  0.50966827  1
  Zr  Zr60  1  -0.00120861  0.60178902  0.40929215  1
  Zr  Zr61  1  0.58263679  0.78484543  0.19431797  1
  Zr  Zr62  1  0.78984974  0.59082398  0.00703193  1
  Zr  Zr63  1  0.70476469  0.10214600  0.49688534  1
  Zr  Zr64  1  0.70517143  0.10707406  0.71231952  1
  Zr  Zr65  1  -0.00102842  0.80177273  0.79631495  1
  Zr  Zr66  1  0.40274987  0.20250901  0.39571715  1
  Zr  Zr67  1  0.50703396  0.69257314  0.90056076  1
  Zr  Zr68  1  0.50933052  0.90572815  0.90630861  1
  Zr  Zr69  1  0.10023913  0.69913574  0.51318905  1
  Zr  Zr70  1  0.40123561  0.80800080  0.80065688  1
  Zr  Zr71  1  0.08921128  0.90900085  0.91297900  1
  Zr  Zr72  1  0.59459561  0.21241778  0.59882498  1
  Zr  Zr73  1  0.20720445  0.59999551  0.20282728  1
  Zr  Zr74  1  0.69639819  0.09628745  0.10086673  1
  Zr  Zr75  1  0.80358788  0.60593734  0.59471221  1
  Zr  Zr76  1  0.70171411  0.10124697  0.90023894  1
  Zr  Zr77  1  0.88298161  0.29185474  0.30801355  1
  Zr  Zr78  1  0.40685343  0.20813057  0.60323806  1
  Zr  Zr79  1  0.10024973  0.29689303  0.89304603  1
  Zr  Zr80  1  0.19551300  0.81052461  0.80125796  1
  Zr  Zr81  1  0.09890691  0.68235104  0.70899404  1
  Zr  Zr82  1  0.90194725  0.70816383  0.09587505  1
  Zr  Zr83  1  0.00141128  0.18921255  0.19977710  1
  Zr  Zr84  1  -0.00220545  0.00364190  0.38718493  1
  Zr  Zr85  1  0.09932379  0.51238824  0.88251470  1
  Zr  Zr86  1  0.21045548  0.60204459  0.40926163  1
  Zr  Zr87  1  0.39831609  0.19552505  0.20384841  1
  Zr  Zr88  1  0.10475244  0.49405849  0.30569630  1
  Zr  Zr89  1  0.30069696  0.69748867  0.69679775  1
  Zr  Zr90  1  0.20813827  0.81259607  0.41021518  1
  Zr  Zr91  1  0.30032956  0.09898052  0.50901257  1
  Zr  Zr92  1  0.89940329  0.49617608  0.30640512  1
  Zr  Zr93  1  0.20374299  0.39746230  0.00614079  1
  Zr  Zr94  1  0.89360100  0.89943656  0.50650446  1
  Zr  Zr95  1  -0.00691070  0.20202772  0.79769200  1
  Zr  Zr96  1  0.89398593  0.50036616  0.88504616  1
  Zr  Zr97  1  0.19410830  0.20009919  0.00229925  1
  Zr  Zr98  1  0.30197175  0.10392336  0.10109424  1
  Zr  Zr99  1  0.69568544  0.28779586  0.10189808  1
  Ta  Ta100  1  -0.00570946  -0.00123043  0.19915306  1
  Ta  Ta101  1  0.71511157  0.30163532  0.48941587  1
  Ta  Ta102  1  0.80315853  0.79917648  0.79948833  1
  Ta  Ta103  1  0.30291375  0.91081491  0.70378101  1
  Ta  Ta104  1  0.10000620  0.49856413  0.69536660  1
  Ta  Ta105  1  0.30471415  0.91349932  0.90386325  1
  Ta  Ta106  1  0.39478699  -0.00268575  0.39661546  1
  Ta  Ta107  1  0.60288809  0.59299213  0.78984040  1
  Ta  Ta108  1  0.00187774  -0.00036061  0.79958571  1
  Ta  Ta109  1  0.40067052  0.20570292  0.79931504  1
  Ta  Ta110  1  -0.00485000  0.80462404  0.20307983  1
  Ta  Ta111  1  -0.00364498  0.00458179  0.61359165  1
  Ta  Ta112  1  0.19837136  -0.00060857  0.60983526  1
  Ta  Ta113  1  0.00021646  0.18902027  -0.00285902  1
  Ta  Ta114  1  0.40957439  0.59137822  0.00348113  1
  Ta  Ta115  1  0.89720763  0.49297166  0.49694803  1
  Ta  Ta116  1  0.79511819  -0.01174978  -0.00483638  1
  Ta  Ta117  1  0.49122045  0.90017232  0.49965279  1
  Ta  Ta118  1  0.70744151  0.70014872  0.70224486  1
  Ta  Ta119  1  0.40144918  0.00671711  0.79797049  1
  Ta  Ta120  1  0.70299445  0.90216274  0.50006740  1
  Ta  Ta121  1  0.69814181  0.69718588  0.30171720  1
  Ta  Ta122  1  0.89668961  0.90175752  0.70216636  1
  Ta  Ta123  1  0.69994714  0.09782808  0.29382702  1
  Ta  Ta124  1  0.80238615  0.40467903  0.60640676  1
  Ta  Ta125  1  0.40650635  0.00269712  0.01245314  1
  Ta  Ta126  1  0.89106408  0.89825050  0.29402928  1
  Ta  Ta127  1  0.79218543  0.80252642  -0.00479366  1
  Ta  Ta128  1  -0.01046694  0.39769059  0.78715623  1
  Ta  Ta129  1  0.40412979  0.59833816  0.40168771  1
  Ta  Ta130  1  0.00729136  0.39092725  0.40742478  1
  Ta  Ta131  1  0.10055465  0.29948975  0.68994245  1
  Ta  Ta132  1  0.60299193  0.79692657  0.00218951  1
  Ta  Ta133  1  0.40392508  0.40712756  0.39809363  1
  Ta  Ta134  1  0.50095437  0.08699276  0.29223755  1
  Ta  Ta135  1  0.29953375  0.10354577  0.70424365  1
  Ta  Ta136  1  0.89761250  0.29856573  0.49907395  1
  Ta  Ta137  1  0.29679341  0.29809644  0.70007151  1
  Ta  Ta138  1  0.30750311  0.90189595  0.28930323  1
  Ta  Ta139  1  0.79477791  0.79696697  0.40337980  1
  Ta  Ta140  1  0.89353214  0.70398635  0.30160490  1
  Ta  Ta141  1  0.79418341  -0.00494192  0.39212799  1
  Ta  Ta142  1  0.09638353  0.71035987  0.10246895  1
  Ta  Ta143  1  0.19654233  0.00356332  0.80232050  1
  Ta  Ta144  1  0.48859667  0.70872603  0.49881652  1
  Ta  Ta145  1  0.20709945  0.39565883  0.19905326  1
  Ta  Ta146  1  0.29772133  0.30817363  0.29740504  1
  Ta  Ta147  1  0.20404966  0.00044122  0.19773510  1
  Ta  Ta148  1  -0.00143340  0.60916266  0.20631369  1
  Ta  Ta149  1  0.60057906  -0.00503143  0.39608950  1
  Ti  Ti150  1  0.10039677  0.90128812  0.29411081  1
  Ti  Ti151  1  0.31249286  0.29713187  0.90613242  1
  Ti  Ti152  1  0.71174206  0.49362350  0.49394159  1
  Ti  Ti153  1  0.49600811  0.89921487  0.69646632  1
  Ti  Ti154  1  0.52179380  0.51523781  0.10021033  1
  Ti  Ti155  1  0.51276874  0.48665966  0.70686506  1
  Ti  Ti156  1  0.30167857  0.49691552  0.30383545  1
  Ti  Ti157  1  0.50154985  0.29899425  0.89655791  1
  Ti  Ti158  1  0.20453562  0.81157305  0.19467494  1
  Ti  Ti159  1  0.59707869  0.19787581  -0.00139414  1
  Ti  Ti160  1  0.80132956  0.00265421  0.60238950  1
  Ti  Ti161  1  0.39853317  -0.00016134  0.60530486  1
  Ti  Ti162  1  0.19844046  0.20667428  0.60024252  1
  Ti  Ti163  1  0.31197655  0.71218101  0.50602245  1
  Ti  Ti164  1  0.80120707  0.61019340  0.40740833  1
  Ti  Ti165  1  0.90164469  0.90161570  0.09239924  1
  Ti  Ti166  1  0.00193337  0.39034897  0.20944106  1
  Ti  Ti167  1  0.69303152  0.29715276  0.89305183  1
  Ti  Ti168  1  0.49886363  0.30318362  0.29336737  1
  Ti  Ti169  1  0.10911950  0.48941751  0.50618803  1
  Ti  Ti170  1  0.60603024  0.80267574  0.80033602  1
  Ti  Ti171  1  0.89466688  0.09569670  0.70674604  1
  Ti  Ti172  1  -0.01192151  0.59563556  0.60283387  1
  Ti  Ti173  1  0.11206828  0.09945177  0.28419216  1
  Ti  Ti174  1  0.20237886  0.00129330  0.00258204  1
  Ti  Ti175  1  0.40575454  0.39371752  0.79815388  1
  Ti  Ti176  1  0.09645677  0.09238966  0.09626368  1
  Ti  Ti177  1  0.68169140  0.68483799  0.09661721  1
  Ti  Ti178  1  0.20732570  0.59329641  0.59831093  1
  Ti  Ti179  1  0.50017851  0.10777269  0.70807087  1
  Ti  Ti180  1  0.29176391  0.49228304  0.69633803  1
  Ti  Ti181  1  0.40938543  0.40603261  0.00067631  1
  Ti  Ti182  1  0.20348047  0.20069259  0.80184060  1
  Ti  Ti183  1  0.80089149  -0.00423383  0.19697776  1
  Ti  Ti184  1  0.81085894  0.21975674  0.80504810  1
  Ti  Ti185  1  0.80386968  0.20089485  -0.00616695  1
  Ti  Ti186  1  0.59703170  0.19517096  0.20428449  1
  Ti  Ti187  1  0.09492016  0.69995820  0.90124281  1
  Ti  Ti188  1  0.88434292  0.09823221  0.29439978  1
  Ti  Ti189  1  -0.00996770  0.79588059  0.60784930  1
  Ti  Ti190  1  0.50745871  0.50510170  0.29936828  1
  Ti  Ti191  1  0.69629602  0.90227014  0.29523389  1
  Ti  Ti192  1  0.30417329  0.50160962  0.10005108  1
  Ti  Ti193  1  0.89378125  0.09272838  0.09522110  1
  Ti  Ti194  1  0.11150115  0.30245608  0.29749696  1
  Ti  Ti195  1  0.29553149  0.49207208  0.49667095  1
  Ti  Ti196  1  0.60201488  0.40036549  0.19900289  1
  Ti  Ti197  1  0.89886115  0.89914893  0.90280279  1
  Ti  Ti198  1  0.30456978  0.29798068  0.10127138  1
  Ti  Ti199  1  0.10229347  0.29336758  0.11068732  1
  Mo  Mo200  1  0.40046086  0.80285381  0.19821107  1
  Mo  Mo201  1  0.50474022  0.69122983  0.09157104  1
  Mo  Mo202  1  0.49871596  0.30333888  0.71655270  1
  Mo  Mo203  1  0.59099925  0.20554021  0.80655065  1
  Mo  Mo204  1  0.30631139  0.90760414  0.51033048  1
  Mo  Mo205  1  -0.00433453  0.20186233  0.60173702  1
  Mo  Mo206  1  0.59826510  -0.00082792  0.00301376  1
  Mo  Mo207  1  0.79830128  0.59966441  0.78239999  1
  Mo  Mo208  1  0.40051886  0.80511659  0.40506383  1
  Mo  Mo209  1  -0.01272480  0.00322861  0.00607344  1
  Mo  Mo210  1  0.09811482  0.30187973  0.50144878  1
  Mo  Mo211  1  0.29913980  0.90624680  0.10141503  1
  Mo  Mo212  1  0.50510628  0.09914790  0.09990338  1
  Mo  Mo213  1  0.79619179  0.18703712  0.20054970  1
  Mo  Mo214  1  0.30336409  0.09140132  0.29414070  1
  Mo  Mo215  1  0.19964041  0.20266566  0.19911309  1
  Mo  Mo216  1  -0.00843163  0.59633323  0.78520403  1
  Mo  Mo217  1  0.80409147  0.79881894  0.60010046  1
  Mo  Mo218  1  0.39532439  0.81291110  0.59853066  1
  Mo  Mo219  1  0.70420141  0.70674706  0.49750378  1
  Mo  Mo220  1  0.69296099  0.29081405  0.29783721  1
  Mo  Mo221  1  0.70307452  0.50124821  0.69741630  1
  Mo  Mo222  1  -0.00755656  0.80085908  0.00220521  1
  Mo  Mo223  1  0.89810804  0.30587616  0.69831675  1
  Mo  Mo224  1  0.50060865  0.91175048  0.10432070  1
  Mo  Mo225  1  0.50001645  0.69946136  0.31106134  1
  Mo  Mo226  1  0.89974038  0.29612923  0.90135950  1
  Mo  Mo227  1  0.09860946  0.09653369  0.90200731  1
  Mo  Mo228  1  0.40189297  0.20695748  -0.00318178  1
  Mo  Mo229  1  0.89867136  0.70007154  0.49951845  1
  Mo  Mo230  1  0.80312868  0.39632892  0.79394217  1
  Mo  Mo231  1  0.80701657  -0.01322618  0.80421460  1
  Mo  Mo232  1  0.69214370  0.49712885  0.10476835  1
  Mo  Mo233  1  0.80151084  0.39907665  0.40516312  1
  Mo  Mo234  1  0.09498092  0.91046503  0.69994504  1
  Mo  Mo235  1  0.59331861  0.40029293  0.80385896  1
  Mo  Mo236  1  0.59861499  0.59758204  -0.00726638  1
  Mo  Mo237  1  0.90089153  0.50237548  0.69371560  1
  Mo  Mo238  1  0.49610898  0.50244584  0.49489557  1
  Mo  Mo239  1  0.39956390  -0.00184808  0.19662858  1
  Mo  Mo240  1  0.59493979  0.00137179  0.20292491  1
  Mo  Mo241  1  0.49567717  0.30270225  0.48537973  1
  Mo  Mo242  1  0.60242788  0.59568077  0.20748830  1
  Mo  Mo243  1  0.70266080  0.89304391  0.90096948  1
  Mo  Mo244  1  0.20635624  0.58978699  0.79487646  1
  Mo  Mo245  1  0.89743024  0.70322870  0.69614281  1
  Mo  Mo246  1  0.79580039  0.19308420  0.39709122  1
  Mo  Mo247  1  0.49995354  0.49505960  0.89698667  1
  Mo  Mo248  1  0.20113704  0.40183561  0.39734780  1
  Mo  Mo249  1  0.19641035  0.40246337  0.60161917  1
