# generated using pymatgen
data_HfZrTaTiMo
_symmetry_space_group_name_H-M   'P 1'
_cell_length_a   16.88267093
_cell_length_b   16.89344133
_cell_length_c   16.88184084
_cell_angle_alpha   90.04342026
_cell_angle_beta   90.01597665
_cell_angle_gamma   90.02238828
_symmetry_Int_Tables_number   1
_chemical_formula_structural   HfZrTaTiMo
_chemical_formula_sum   'Hf50 Zr50 Ta50 Ti50 Mo50'
_cell_volume   4814.80729523
_cell_formula_units_Z   50
loop_
 _symmetry_equiv_pos_site_id
 _symmetry_equiv_pos_as_xyz
  1  'x, y, z'
loop_
 _atom_site_type_symbol
 _atom_site_label
 _atom_site_symmetry_multiplicity
 _atom_site_fract_x
 _atom_site_fract_y
 _atom_site_fract_z
 _atom_site_occupancy
  Hf  Hf0  1  0.29755514  0.90015521  0.09880538  1
  Hf  Hf1  1  0.29990137  0.70499252  0.90712685  1
  Hf  Hf2  1  0.09502900  0.69811516  0.49573995  1
  Hf  Hf3  1  0.09332760  0.10280745  0.09238442  1
  Hf  Hf4  1  0.90434779  0.89542592  0.89775600  1
  Hf  Hf5  1  0.90314762  0.70085841  0.49652112  1
  Hf  Hf6  1  0.89846040  0.70072987  0.89631246  1
  Hf  Hf7  1  0.69846359  0.69508236  0.29891677  1
  Hf  Hf8  1  0.20221835  0.59768264  -0.00027628  1
  Hf  Hf9  1  0.20764987  0.20058608  0.59443134  1
  Hf  Hf10  1  0.70546712  0.90449676  0.11149611  1
  Hf  Hf11  1  0.09993519  0.09870835  0.90854389  1
  Hf  Hf12  1  0.70365344  0.29754794  0.29514971  1
  Hf  Hf13  1  0.50204762  0.49006850  0.90650690  1
  Hf  Hf14  1  0.59795303  0.61963655  0.00405437  1
  Hf  Hf15  1  0.89834225  0.10382469  0.10716314  1
  Hf  Hf16  1  0.20311933  0.39390995  0.59191924  1
  Hf  Hf17  1  0.89792553  0.10663832  0.50076660  1
  Hf  Hf18  1  0.40614530  0.60328637  0.81025044  1
  Hf  Hf19  1  0.19243267  0.60063404  0.80252935  1
  Hf  Hf20  1  0.30485745  0.69822916  0.49508295  1
  Hf  Hf21  1  0.29937343  0.29953261  0.30481304  1
  Hf  Hf22  1  0.19946503  0.80304674  0.39388595  1
  Hf  Hf23  1  0.80915058  0.40103855  0.39821349  1
  Hf  Hf24  1  0.09897559  0.69657708  0.09975910  1
  Hf  Hf25  1  -0.00740959  0.39976326  0.80216299  1
  Hf  Hf26  1  0.09762128  0.90412668  0.49773534  1
  Hf  Hf27  1  0.51063654  0.69145957  0.49401572  1
  Hf  Hf28  1  0.90277765  0.89882685  0.49697036  1
  Hf  Hf29  1  0.68829932  0.90089107  0.29810072  1
  Hf  Hf30  1  -0.00238181  0.59133229  0.80555694  1
  Hf  Hf31  1  0.59081836  0.19966682  -0.00084021  1
  Hf  Hf32  1  -0.00489238  0.00293224  0.60798359  1
  Hf  Hf33  1  0.70457495  0.29798639  0.50278317  1
  Hf  Hf34  1  0.11416442  0.09573694  0.70315737  1
  Hf  Hf35  1  0.80994444  0.40931476  0.59816087  1
  Hf  Hf36  1  0.69886086  0.49091178  0.89283727  1
  Hf  Hf37  1  0.40466050  0.80586580  0.80403054  1
  Hf  Hf38  1  0.90532798  0.10599132  0.91418484  1
  Hf  Hf39  1  0.09682370  0.09713382  0.49319444  1
  Hf  Hf40  1  0.80140617  0.01007499  0.39323243  1
  Hf  Hf41  1  0.40173233  -0.00092237  0.39535009  1
  Hf  Hf42  1  0.39614938  0.59224155  0.20009432  1
  Hf  Hf43  1  0.19636849  0.19920599  0.19451243  1
  Hf  Hf44  1  0.49322101  0.30332933  0.30514931  1
  Hf  Hf45  1  0.80513761  0.59851017  0.00066497  1
  Hf  Hf46  1  0.89068394  0.90567462  0.29001209  1
  Hf  Hf47  1  0.30224296  0.70133524  0.69914969  1
  Hf  Hf48  1  0.70768452  0.10814602  0.90280379  1
  Hf  Hf49  1  0.40051229  0.80653752  0.39066208  1
  Zr  Zr50  1  0.80346430  0.79618975  0.01127568  1
  Zr  Zr51  1  0.80470616  -0.00631426  0.00144620  1
  Zr  Zr52  1  0.50759262  0.90068405  0.49161041  1
  Zr  Zr53  1  0.89203486  0.29602369  0.90505665  1
  Zr  Zr54  1  0.20185305  0.20912521  0.80131796  1
  Zr  Zr55  1  0.80020386  0.40260187  0.00641773  1
  Zr  Zr56  1  0.40823538  0.59292193  0.60081220  1
  Zr  Zr57  1  0.60846761  0.79906692  0.60354468  1
  Zr  Zr58  1  0.50865043  0.09610126  0.29081407  1
  Zr  Zr59  1  0.49183061  0.49571109  0.09150094  1
  Zr  Zr60  1  0.80413200  0.59239935  0.39686524  1
  Zr  Zr61  1  0.50152314  0.90606442  0.10332767  1
  Zr  Zr62  1  0.59692513  0.21185687  0.18658229  1
  Zr  Zr63  1  0.20567276  0.00209208  0.39467536  1
  Zr  Zr64  1  0.50243290  0.69903680  0.30449538  1
  Zr  Zr65  1  0.09232227  0.69072582  0.29534899  1
  Zr  Zr66  1  -0.00963345  0.80065607  0.18978374  1
  Zr  Zr67  1  0.58349387  0.20323298  0.59824913  1
  Zr  Zr68  1  0.68854232  0.50260210  0.49901718  1
  Zr  Zr69  1  0.60624298  0.61670343  0.81316405  1
  Zr  Zr70  1  -0.00251575  0.59361187  0.60815681  1
  Zr  Zr71  1  -0.00564558  0.00243206  0.79712336  1
  Zr  Zr72  1  0.70017630  0.31014469  0.70838443  1
  Zr  Zr73  1  0.59822134  0.00768570  0.79956331  1
  Zr  Zr74  1  0.81374121  0.41353555  0.20427283  1
  Zr  Zr75  1  0.59453554  0.00964871  0.60205308  1
  Zr  Zr76  1  0.59232481  0.79138087  0.18964461  1
  Zr  Zr77  1  0.89247321  0.88784013  0.69925755  1
  Zr  Zr78  1  0.29638911  0.10135905  0.89386432  1
  Zr  Zr79  1  -0.00416656  0.40469315  0.00507726  1
  Zr  Zr80  1  0.10072926  0.49087774  0.10535002  1
  Zr  Zr81  1  0.70542822  0.10263533  0.10785288  1
  Zr  Zr82  1  0.19746506  0.59951262  0.59854660  1
  Zr  Zr83  1  0.89472848  0.70021581  0.70412992  1
  Zr  Zr84  1  0.39347191  0.19724188  0.18727796  1
  Zr  Zr85  1  0.30203647  0.49184480  0.70645884  1
  Zr  Zr86  1  0.71071382  0.11313569  0.69167812  1
  Zr  Zr87  1  0.70404798  0.90287519  0.49639626  1
  Zr  Zr88  1  0.40379416  0.19020073  0.41368030  1
  Zr  Zr89  1  0.59348049  0.39919774  0.19596790  1
  Zr  Zr90  1  0.39994410  0.80848653  0.60210723  1
  Zr  Zr91  1  0.21093238  0.58800360  0.20125455  1
  Zr  Zr92  1  0.00213193  0.20622685  0.79742835  1
  Zr  Zr93  1  -0.00448080  0.20799000  0.60328200  1
  Zr  Zr94  1  0.19847805  0.80194666  0.79965607  1
  Zr  Zr95  1  0.58098119  0.19849907  0.79838466  1
  Zr  Zr96  1  0.20663590  0.59090102  0.39287089  1
  Zr  Zr97  1  0.10010849  0.48585286  0.69807736  1
  Zr  Zr98  1  0.51290383  0.49439299  0.71005734  1
  Zr  Zr99  1  0.69625849  0.50689853  0.10553059  1
  Ta  Ta100  1  0.50982156  0.70712538  0.70516770  1
  Ta  Ta101  1  0.09462398  0.49356271  0.48911396  1
  Ta  Ta102  1  0.40640199  0.38955880  0.60076331  1
  Ta  Ta103  1  0.79785412  0.59631671  0.60485188  1
  Ta  Ta104  1  0.39269815  0.00154982  0.19894265  1
  Ta  Ta105  1  0.28983759  0.30208045  0.08607802  1
  Ta  Ta106  1  0.29868612  0.90375920  0.50448610  1
  Ta  Ta107  1  0.19957286  0.80476015  0.60263616  1
  Ta  Ta108  1  -0.00374622  0.80183669  0.38901046  1
  Ta  Ta109  1  0.40112235  0.19400813  0.60671850  1
  Ta  Ta110  1  0.39849415  0.19507305  -0.00305659  1
  Ta  Ta111  1  0.70480816  0.10789689  0.49854573  1
  Ta  Ta112  1  0.29947738  0.90711777  0.90122825  1
  Ta  Ta113  1  0.90299665  0.29357912  0.10678188  1
  Ta  Ta114  1  0.59764734  0.00279832  -0.00280749  1
  Ta  Ta115  1  0.30770333  0.48872451  0.49446271  1
  Ta  Ta116  1  0.60012198  0.79830023  -0.00588748  1
  Ta  Ta117  1  0.80538111  0.20220889  0.39542423  1
  Ta  Ta118  1  0.10750406  0.90358561  0.70371786  1
  Ta  Ta119  1  0.30453708  0.48971245  0.90592127  1
  Ta  Ta120  1  0.19910649  0.39752285  0.39708473  1
  Ta  Ta121  1  0.09774662  0.90808199  0.09789503  1
  Ta  Ta122  1  0.40591222  0.80310494  0.00056623  1
  Ta  Ta123  1  0.60279282  0.19664496  0.40280920  1
  Ta  Ta124  1  0.80125828  0.00263235  0.79705714  1
  Ta  Ta125  1  0.09137240  0.09781221  0.30191352  1
  Ta  Ta126  1  0.60020025  0.37952269  0.00639491  1
  Ta  Ta127  1  0.59333583  0.39903890  0.60318409  1
  Ta  Ta128  1  0.19934626  0.00498190  0.19750013  1
  Ta  Ta129  1  0.30626668  0.29641746  0.70330244  1
  Ta  Ta130  1  0.10230428  0.90682911  0.90539744  1
  Ta  Ta131  1  0.70153459  0.29841827  0.89756216  1
  Ta  Ta132  1  0.39968238  0.58466502  0.38843889  1
  Ta  Ta133  1  0.49972955  0.49460743  0.49298768  1
  Ta  Ta134  1  0.09544672  0.30174477  0.49050383  1
  Ta  Ta135  1  0.00102331  0.80159863  0.00330264  1
  Ta  Ta136  1  0.89519704  0.69631338  0.29278190  1
  Ta  Ta137  1  0.09342219  0.90858073  0.29450598  1
  Ta  Ta138  1  0.39159180  0.39980460  0.19795086  1
  Ta  Ta139  1  0.00319894  0.20339403  0.20473924  1
  Ta  Ta140  1  0.30182761  0.70919769  0.10214632  1
  Ta  Ta141  1  0.40106026  0.00531210  -0.00231828  1
  Ta  Ta142  1  0.49994278  0.90459999  0.70621367  1
  Ta  Ta143  1  0.40296859  0.38895854  0.80196251  1
  Ta  Ta144  1  0.50086301  0.90572766  0.89979431  1
  Ta  Ta145  1  0.70465121  0.69772345  0.70562347  1
  Ta  Ta146  1  0.69557740  0.89954791  0.89859725  1
  Ta  Ta147  1  0.09109919  0.49028408  0.29972833  1
  Ta  Ta148  1  0.80000350  0.79631746  0.39515254  1
  Ta  Ta149  1  0.19670109  0.80454937  0.00195903  1
  Ti  Ti150  1  0.21398302  -0.00431198  0.60991055  1
  Ti  Ti151  1  0.40293404  0.61031810  0.00268636  1
  Ti  Ti152  1  0.69652010  0.69521156  0.49343966  1
  Ti  Ti153  1  -0.00424383  0.39542101  0.39626232  1
  Ti  Ti154  1  0.60577965  0.59857549  0.60719781  1
  Ti  Ti155  1  0.10396523  0.30331163  0.69519812  1
  Ti  Ti156  1  0.60007988  0.01077977  0.39915916  1
  Ti  Ti157  1  -0.00575855  0.20290338  0.39439807  1
  Ti  Ti158  1  -0.01427517  0.58804647  0.19570957  1
  Ti  Ti159  1  0.30151490  0.30186617  0.90462504  1
  Ti  Ti160  1  0.01127409  0.79820598  0.60705140  1
  Ti  Ti161  1  0.90375471  0.29725546  0.29501736  1
  Ti  Ti162  1  0.01235632  0.79732534  0.79778804  1
  Ti  Ti163  1  0.10588911  0.49152019  0.90531266  1
  Ti  Ti164  1  0.30058176  0.70339195  0.29289180  1
  Ti  Ti165  1  0.09741918  0.30035671  0.30103167  1
  Ti  Ti166  1  0.80916463  0.19802934  0.79478710  1
  Ti  Ti167  1  0.29591289  0.10268564  0.29685321  1
  Ti  Ti168  1  0.68880733  0.50776334  0.29821078  1
  Ti  Ti169  1  0.49852670  0.09343747  0.09863331  1
  Ti  Ti170  1  0.78562099  0.79747510  0.80671337  1
  Ti  Ti171  1  0.58567535  0.59934325  0.19787033  1
  Ti  Ti172  1  -0.00616248  0.39566147  0.59477791  1
  Ti  Ti173  1  0.30087589  0.09354491  0.50489331  1
  Ti  Ti174  1  0.10706969  0.29642197  0.92477708  1
  Ti  Ti175  1  0.89115891  0.30251159  0.69733805  1
  Ti  Ti176  1  0.91278950  0.50404207  0.49320829  1
  Ti  Ti177  1  0.71334876  0.69727809  0.11457239  1
  Ti  Ti178  1  0.30621255  0.30099114  0.49651585  1
  Ti  Ti179  1  0.70430231  0.49861948  0.70988185  1
  Ti  Ti180  1  0.49858072  0.30559902  0.49532477  1
  Ti  Ti181  1  -0.00738903  0.59594692  0.00053058  1
  Ti  Ti182  1  0.40073226  0.00669119  0.60600241  1
  Ti  Ti183  1  0.70339366  0.10328730  0.29161426  1
  Ti  Ti184  1  0.20109483  0.39395279  0.80743535  1
  Ti  Ti185  1  0.19472377  0.80476704  0.19876395  1
  Ti  Ti186  1  0.20594775  0.00310097  0.00435759  1
  Ti  Ti187  1  0.09541492  0.70353440  0.90674644  1
  Ti  Ti188  1  0.79316547  0.79312613  0.59571022  1
  Ti  Ti189  1  0.40244772  0.80348349  0.20062147  1
  Ti  Ti190  1  0.69978595  0.89855845  0.70578012  1
  Ti  Ti191  1  0.49405287  0.29952713  0.89994450  1
  Ti  Ti192  1  0.29687419  0.90181324  0.29097523  1
  Ti  Ti193  1  0.39631564  0.00633683  0.79380850  1
  Ti  Ti194  1  -0.00374928  0.00408011  0.20075334  1
  Ti  Ti195  1  0.19760370  0.20086625  0.40076495  1
  Ti  Ti196  1  0.80311347  0.00418485  0.60623039  1
  Ti  Ti197  1  0.19990608  0.39434176  0.20120068  1
  Ti  Ti198  1  0.30092656  0.48671771  0.08775896  1
  Ti  Ti199  1  0.59659406  0.40228042  0.39625292  1
  Mo  Mo200  1  0.20459630  -0.00627819  0.80051638  1
  Mo  Mo201  1  0.47991852  0.30034469  0.09275084  1
  Mo  Mo202  1  0.59794012  0.00281735  0.19891416  1
  Mo  Mo203  1  0.80916104  0.20409646  0.20815965  1
  Mo  Mo204  1  0.90465843  0.30302784  0.49295450  1
  Mo  Mo205  1  0.48647354  0.70155119  0.09953117  1
  Mo  Mo206  1  0.49050912  0.09572375  0.90294023  1
  Mo  Mo207  1  0.60876691  0.79275095  0.40047654  1
  Mo  Mo208  1  0.00441514  0.39025245  0.20690179  1
  Mo  Mo209  1  -0.00170452  -0.00156006  0.39281222  1
  Mo  Mo210  1  0.59868095  0.39046845  0.80710143  1
  Mo  Mo211  1  0.91592383  0.50191332  0.30212853  1
  Mo  Mo212  1  0.79989529  0.59554249  0.79876693  1
  Mo  Mo213  1  0.20213078  0.20338799  0.00092546  1
  Mo  Mo214  1  0.59727416  0.59144171  0.39489390  1
  Mo  Mo215  1  0.89323918  0.49569468  0.70179912  1
  Mo  Mo216  1  0.50156044  0.09864773  0.50121203  1
  Mo  Mo217  1  0.20087254  0.39970667  -0.00515359  1
  Mo  Mo218  1  0.90296613  0.69230018  0.10014698  1
  Mo  Mo219  1  0.90468326  0.50027259  0.10299581  1
  Mo  Mo220  1  0.09988512  0.71128471  0.70139833  1
  Mo  Mo221  1  0.30266936  0.90774551  0.70035439  1
  Mo  Mo222  1  0.70361492  0.70867237  0.90045055  1
  Mo  Mo223  1  0.30388029  0.09975134  0.69715542  1
  Mo  Mo224  1  0.49870038  0.71327019  0.90428381  1
  Mo  Mo225  1  0.90552030  0.90542274  0.10234267  1
  Mo  Mo226  1  0.09942257  0.29812377  0.10408739  1
  Mo  Mo227  1  0.80306241  0.40211325  0.79807935  1
  Mo  Mo228  1  0.80967149  0.60019461  0.19949409  1
  Mo  Mo229  1  0.48460321  0.09897689  0.70374233  1
  Mo  Mo230  1  0.49926719  0.90530166  0.29559559  1
  Mo  Mo231  1  0.49283846  0.30114046  0.70173122  1
  Mo  Mo232  1  0.39874505  0.39762122  0.40432891  1
  Mo  Mo233  1  0.80503335  0.20942882  0.59423394  1
  Mo  Mo234  1  0.89569885  0.50443755  0.89524010  1
  Mo  Mo235  1  0.29601580  0.09713799  0.09437465  1
  Mo  Mo236  1  0.29877666  0.48437990  0.29957986  1
  Mo  Mo237  1  0.60296514  0.80890231  0.80022761  1
  Mo  Mo238  1  0.39688847  0.38806361  -0.00403189  1
  Mo  Mo239  1  0.00330007  0.20845044  0.01098876  1
  Mo  Mo240  1  0.90508945  0.10596352  0.29979456  1
  Mo  Mo241  1  0.00014001  0.59820076  0.39386491  1
  Mo  Mo242  1  0.89286497  0.10567535  0.69950695  1
  Mo  Mo243  1  0.71582394  0.29650280  0.09618957  1
  Mo  Mo244  1  0.39647109  0.20331994  0.80238849  1
  Mo  Mo245  1  0.79749776  0.20670545  0.00673500  1
  Mo  Mo246  1  0.49751890  0.49579997  0.30081157  1
  Mo  Mo247  1  0.80060519  0.79310571  0.20221759  1
  Mo  Mo248  1  -0.00025565  -0.00990123  0.00568149  1
  Mo  Mo249  1  0.79847943  0.00800593  0.20604486  1
