# generated using pymatgen
data_HfZrTaTiMo
_symmetry_space_group_name_H-M   'P 1'
_cell_length_a   16.87538724
_cell_length_b   16.88318785
_cell_length_c   16.88916639
_cell_angle_alpha   89.99200413
_cell_angle_beta   89.97710002
_cell_angle_gamma   89.99955938
_symmetry_Int_Tables_number   1
_chemical_formula_structural   HfZrTaTiMo
_chemical_formula_sum   'Hf50 Zr50 Ta50 Ti50 Mo50'
_cell_volume   4811.89758489
_cell_formula_units_Z   50
loop_
 _symmetry_equiv_pos_site_id
 _symmetry_equiv_pos_as_xyz
  1  'x, y, z'
loop_
 _atom_site_type_symbol
 _atom_site_label
 _atom_site_symmetry_multiplicity
 _atom_site_fract_x
 _atom_site_fract_y
 _atom_site_fract_z
 _atom_site_occupancy
  Hf  Hf0  1  0.60038714  -0.00577374  -0.01205926  1
  Hf  Hf1  1  0.30293948  0.69378242  0.89635523  1
  Hf  Hf2  1  0.89908485  0.29262684  0.09004885  1
  Hf  Hf3  1  0.71322042  0.10619676  0.09138920  1
  Hf  Hf4  1  0.89780475  0.49803198  0.09831342  1
  Hf  Hf5  1  0.09113750  0.88842651  0.90172239  1
  Hf  Hf6  1  0.79822172  0.19996582  0.41018245  1
  Hf  Hf7  1  0.09818880  0.10724048  0.70306757  1
  Hf  Hf8  1  0.60582659  0.20069289  0.60616407  1
  Hf  Hf9  1  0.59559192  0.80173905  0.40727263  1
  Hf  Hf10  1  0.20322757  -0.01225985  -0.00472679  1
  Hf  Hf11  1  0.71129209  0.68386319  0.89439056  1
  Hf  Hf12  1  0.59744761  0.40853446  -0.01036187  1
  Hf  Hf13  1  0.30384780  0.09810777  0.09587478  1
  Hf  Hf14  1  0.79600726  0.80199004  0.79134954  1
  Hf  Hf15  1  0.00198161  0.80716007  0.59669240  1
  Hf  Hf16  1  0.09440735  0.30285676  0.30714937  1
  Hf  Hf17  1  0.70167149  0.70133859  0.31171699  1
  Hf  Hf18  1  0.71401586  0.50245535  0.70332328  1
  Hf  Hf19  1  0.59763528  0.59814812  0.59693046  1
  Hf  Hf20  1  0.30780267  0.30726056  0.89086085  1
  Hf  Hf21  1  0.39989021  0.19668741  0.41157905  1
  Hf  Hf22  1  0.90745451  0.49785444  0.31684152  1
  Hf  Hf23  1  0.80134295  0.20118195  0.21043466  1
  Hf  Hf24  1  0.49277227  0.90502596  0.30139133  1
  Hf  Hf25  1  0.00469601  0.60320790  0.21198688  1
  Hf  Hf26  1  0.19870929  0.20432401  0.19756983  1
  Hf  Hf27  1  0.80630852  0.19773303  0.78742632  1
  Hf  Hf28  1  0.30905018  0.30358078  0.51462195  1
  Hf  Hf29  1  0.70396612  0.50097753  0.09932998  1
  Hf  Hf30  1  0.79639013  -0.00463852  -0.01133650  1
  Hf  Hf31  1  0.19886489  0.60291203  0.20675049  1
  Hf  Hf32  1  0.09776409  0.10788098  0.90273551  1
  Hf  Hf33  1  0.70319073  0.89503982  0.10168591  1
  Hf  Hf34  1  0.49622637  0.29969754  0.70479085  1
  Hf  Hf35  1  0.60139894  0.20248794  0.20232727  1
  Hf  Hf36  1  0.50149908  0.31031599  0.30238982  1
  Hf  Hf37  1  0.59662405  0.79101272  0.19788334  1
  Hf  Hf38  1  0.60166985  0.40927650  0.59903599  1
  Hf  Hf39  1  0.59019751  0.59694938  -0.00481088  1
  Hf  Hf40  1  0.69794303  0.29251877  0.89015295  1
  Hf  Hf41  1  0.50330356  0.11147405  0.88309150  1
  Hf  Hf42  1  0.20254063  0.79720313  0.79765436  1
  Hf  Hf43  1  0.39736771  0.59595212  0.40786821  1
  Hf  Hf44  1  0.89522667  0.90172270  0.30428202  1
  Hf  Hf45  1  0.80222274  0.20120737  0.60223350  1
  Hf  Hf46  1  0.59158014  0.01173485  0.18691588  1
  Hf  Hf47  1  0.19379256  0.00121322  0.40174735  1
  Hf  Hf48  1  0.51183533  0.09614788  0.31885278  1
  Hf  Hf49  1  0.59709982  0.59687414  0.20435317  1
  Zr  Zr50  1  0.90080200  0.30397872  0.31208875  1
  Zr  Zr51  1  0.40070792  -0.00702914  0.79639483  1
  Zr  Zr52  1  0.60237037  0.79600964  0.60591954  1
  Zr  Zr53  1  0.09379524  0.10458537  0.09573011  1
  Zr  Zr54  1  0.70176007  0.30703079  0.10067117  1
  Zr  Zr55  1  0.31130078  0.08870566  0.29220891  1
  Zr  Zr56  1  0.19957953  0.40585150  0.41090670  1
  Zr  Zr57  1  0.09078150  0.90061464  0.29791052  1
  Zr  Zr58  1  0.59158798  0.59495427  0.79869507  1
  Zr  Zr59  1  0.00150321  0.39395912  -0.02778586  1
  Zr  Zr60  1  0.19254989  0.79342294  0.40264244  1
  Zr  Zr61  1  0.09740937  0.68549662  0.50748511  1
  Zr  Zr62  1  0.80239075  0.40271274  -0.01729441  1
  Zr  Zr63  1  0.30698303  0.30875362  0.70056118  1
  Zr  Zr64  1  0.19763292  -0.00659095  0.19422505  1
  Zr  Zr65  1  0.19825373  0.79552883  0.19649968  1
  Zr  Zr66  1  0.59132870  0.19903604  0.00406643  1
  Zr  Zr67  1  0.31251331  0.30608491  0.29735608  1
  Zr  Zr68  1  0.09586139  0.10137574  0.50517329  1
  Zr  Zr69  1  0.80301768  0.59823214  0.21687447  1
  Zr  Zr70  1  0.90272003  0.89876901  0.10499550  1
  Zr  Zr71  1  -0.00383174  0.00317669  0.79159603  1
  Zr  Zr72  1  0.09843082  0.70170381  0.08225587  1
  Zr  Zr73  1  0.49467977  0.89161795  0.09265323  1
  Zr  Zr74  1  0.70677835  0.69354641  0.09443087  1
  Zr  Zr75  1  0.39923382  0.78558187  0.59840679  1
  Zr  Zr76  1  0.20053164  0.39693603  0.19100770  1
  Zr  Zr77  1  0.19114003  -0.00894954  0.60648386  1
  Zr  Zr78  1  0.19711200  0.39988730  -0.00340416  1
  Zr  Zr79  1  0.00296255  0.59396548  -0.01758951  1
  Zr  Zr80  1  0.10810624  0.69327722  0.69486817  1
  Zr  Zr81  1  0.90111378  0.89655020  0.89541052  1
  Zr  Zr82  1  0.39987023  -0.00606280  -0.00337077  1
  Zr  Zr83  1  0.09895600  0.50218482  0.09499781  1
  Zr  Zr84  1  0.30152018  0.10675753  0.89363278  1
  Zr  Zr85  1  0.90003061  0.11308494  0.90788282  1
  Zr  Zr86  1  0.30348079  0.88879749  0.70009182  1
  Zr  Zr87  1  0.90881886  0.70265572  0.89111964  1
  Zr  Zr88  1  0.60465934  0.41045494  0.40602094  1
  Zr  Zr89  1  0.09929019  0.31123475  0.69952991  1
  Zr  Zr90  1  0.69731171  0.90811743  0.30546425  1
  Zr  Zr91  1  0.29267999  0.88874374  0.50509327  1
  Zr  Zr92  1  0.30866367  0.49587223  0.29617381  1
  Zr  Zr93  1  0.89724298  0.69753852  0.08961404  1
  Zr  Zr94  1  0.41322576  0.19429484  0.19017989  1
  Zr  Zr95  1  0.20240920  0.19519277  0.40338482  1
  Zr  Zr96  1  0.30144994  0.50563725  0.89724367  1
  Zr  Zr97  1  0.39529117  0.79346819  0.19165475  1
  Zr  Zr98  1  0.39566989  -0.00197153  0.41932120  1
  Zr  Zr99  1  0.79670729  0.01322453  0.60823241  1
  Ta  Ta100  1  0.20036038  0.21512750  -0.00074359  1
  Ta  Ta101  1  0.19897211  -0.00554289  0.80031861  1
  Ta  Ta102  1  0.90546218  0.31228166  0.69680908  1
  Ta  Ta103  1  0.30192622  0.10728682  0.69991873  1
  Ta  Ta104  1  0.69832121  0.90215092  0.69914038  1
  Ta  Ta105  1  0.79431936  0.40737051  0.41006422  1
  Ta  Ta106  1  0.60076637  0.79394797  0.80083495  1
  Ta  Ta107  1  0.89530024  0.90284502  0.69486049  1
  Ta  Ta108  1  0.00411656  0.40764468  0.59547466  1
  Ta  Ta109  1  0.20118484  0.20209909  0.60094081  1
  Ta  Ta110  1  0.60017062  0.79219530  -0.01034146  1
  Ta  Ta111  1  -0.00324635  0.19673213  0.40557693  1
  Ta  Ta112  1  0.19939838  0.20592550  0.79968043  1
  Ta  Ta113  1  0.60012263  0.59475139  0.40616630  1
  Ta  Ta114  1  0.79482475  0.40249619  0.21595153  1
  Ta  Ta115  1  0.80541874  0.79506436  0.20784513  1
  Ta  Ta116  1  0.30560426  0.89699668  0.29646304  1
  Ta  Ta117  1  0.30265849  0.69815118  0.30498182  1
  Ta  Ta118  1  0.40404983  0.60204699  0.19521530  1
  Ta  Ta119  1  0.70187827  0.30514013  0.50579003  1
  Ta  Ta120  1  0.49491290  0.69464562  0.30577573  1
  Ta  Ta121  1  0.10286666  0.50820163  0.69142758  1
  Ta  Ta122  1  0.90505554  0.50348863  0.50306339  1
  Ta  Ta123  1  0.40140613  0.20949965  0.00106778  1
  Ta  Ta124  1  0.50351647  0.10258196  0.51119171  1
  Ta  Ta125  1  0.49900312  0.49623706  0.29655344  1
  Ta  Ta126  1  0.79543869  0.80129420  -0.00791893  1
  Ta  Ta127  1  0.89970637  0.09599917  0.30593432  1
  Ta  Ta128  1  0.30280626  0.69062886  0.08649759  1
  Ta  Ta129  1  0.20870397  0.80186235  -0.00398946  1
  Ta  Ta130  1  0.50165372  0.29801425  0.50820967  1
  Ta  Ta131  1  -0.00200478  0.79902411  0.40562110  1
  Ta  Ta132  1  0.70094127  0.90459263  0.50678101  1
  Ta  Ta133  1  0.80825606  0.39911487  0.79740991  1
  Ta  Ta134  1  0.49801231  0.69546529  0.49762009  1
  Ta  Ta135  1  -0.00574650  0.20574355  0.60031840  1
  Ta  Ta136  1  0.80252852  0.60229909  0.59597917  1
  Ta  Ta137  1  0.20251226  0.59641613  0.40635961  1
  Ta  Ta138  1  -0.00212672  0.19821787  0.20685196  1
  Ta  Ta139  1  0.80189947  0.79807337  0.59765001  1
  Ta  Ta140  1  0.69765662  0.09924696  0.31197908  1
  Ta  Ta141  1  0.49318779  0.88093770  0.89303454  1
  Ta  Ta142  1  -0.00122863  -0.00039915  0.00436124  1
  Ta  Ta143  1  -0.00246811  0.78776419  0.20976158  1
  Ta  Ta144  1  0.49979953  0.31552719  0.10311360  1
  Ta  Ta145  1  -0.00277155  0.39798801  0.20175534  1
  Ta  Ta146  1  0.49476813  0.30510364  0.89058904  1
  Ta  Ta147  1  -0.00334839  -0.00118513  0.40715257  1
  Ta  Ta148  1  0.79976802  0.00422798  0.40950472  1
  Ta  Ta149  1  0.29700827  0.49981469  0.69939133  1
  Ti  Ti150  1  0.89600151  0.90538774  0.50335383  1
  Ti  Ti151  1  0.09550275  0.30371789  0.50167455  1
  Ti  Ti152  1  0.90094557  0.69413641  0.69488754  1
  Ti  Ti153  1  0.49587048  0.49623159  0.10517883  1
  Ti  Ti154  1  0.90043161  0.10601497  0.09784524  1
  Ti  Ti155  1  0.90244148  0.69784977  0.31894896  1
  Ti  Ti156  1  0.39839629  0.40003738  0.00631100  1
  Ti  Ti157  1  0.48301791  0.49679669  0.89462052  1
  Ti  Ti158  1  0.30423865  0.50821799  0.09329490  1
  Ti  Ti159  1  0.48822344  0.49427197  0.69849474  1
  Ti  Ti160  1  0.90389474  0.09780738  0.50425020  1
  Ti  Ti161  1  0.60219979  -0.01453621  0.80366315  1
  Ti  Ti162  1  0.08948795  0.89246069  0.09660378  1
  Ti  Ti163  1  0.70398619  0.30927095  0.69983992  1
  Ti  Ti164  1  0.08716982  0.29717568  0.09508457  1
  Ti  Ti165  1  0.70188619  0.70116358  0.50191119  1
  Ti  Ti166  1  0.09333971  0.49784565  0.31481801  1
  Ti  Ti167  1  0.40590273  0.40959985  0.42033691  1
  Ti  Ti168  1  0.39994353  0.00473065  0.60308284  1
  Ti  Ti169  1  0.49335774  0.69891660  0.70411253  1
  Ti  Ti170  1  0.90197836  0.69220613  0.49864719  1
  Ti  Ti171  1  0.00471074  0.59986379  0.79029582  1
  Ti  Ti172  1  0.19832541  0.41180915  0.59435118  1
  Ti  Ti173  1  0.60175902  0.40715973  0.80159660  1
  Ti  Ti174  1  0.89374638  0.50949350  0.87991458  1
  Ti  Ti175  1  0.90046890  0.31299156  0.50485429  1
  Ti  Ti176  1  0.59555081  -0.00029515  0.60692616  1
  Ti  Ti177  1  0.79216836  0.59282597  0.41004512  1
  Ti  Ti178  1  0.69789011  0.10543856  0.89232312  1
  Ti  Ti179  1  0.00427478  0.80034870  0.78521111  1
  Ti  Ti180  1  0.80258904  0.80333111  0.41061382  1
  Ti  Ti181  1  -0.00158319  0.21589218  0.80222843  1
  Ti  Ti182  1  0.39630376  0.60113630  0.78775793  1
  Ti  Ti183  1  0.19192693  0.40408514  0.80030981  1
  Ti  Ti184  1  0.39547823  0.59388083  0.59510582  1
  Ti  Ti185  1  0.10858231  0.51297668  0.88268211  1
  Ti  Ti186  1  0.69351351  0.30241623  0.31009616  1
  Ti  Ti187  1  0.39751923  0.79400578  0.40475945  1
  Ti  Ti188  1  0.48681575  0.69926082  0.90193768  1
  Ti  Ti189  1  0.70571615  0.69457111  0.69968114  1
  Ti  Ti190  1  0.50158282  0.89260501  0.70304547  1
  Ti  Ti191  1  0.90550804  0.50009607  0.69443748  1
  Ti  Ti192  1  -0.00173485  0.00874229  0.20328992  1
  Ti  Ti193  1  0.68477149  0.09841975  0.49429504  1
  Ti  Ti194  1  0.49578234  0.10635456  0.70171804  1
  Ti  Ti195  1  0.79979763  0.00521326  0.20411623  1
  Ti  Ti196  1  0.68336666  0.09840858  0.71535240  1
  Ti  Ti197  1  0.79614480  0.00146758  0.79733351  1
  Ti  Ti198  1  -0.00080456  -0.00316356  0.60230789  1
  Ti  Ti199  1  0.50325592  0.90287252  0.50786174  1
  Mo  Mo200  1  0.40539156  0.59590382  0.00587295  1
  Mo  Mo201  1  0.69286040  0.89262900  0.89127785  1
  Mo  Mo202  1  0.21757930  0.59657417  0.59688083  1
  Mo  Mo203  1  0.20169244  0.59854586  0.79310108  1
  Mo  Mo204  1  0.09657969  0.89926133  0.70089208  1
  Mo  Mo205  1  0.00155101  0.39956080  0.41268151  1
  Mo  Mo206  1  0.29926702  0.89155545  0.09774381  1
  Mo  Mo207  1  0.00253151  0.20285283  0.00277496  1
  Mo  Mo208  1  0.70775081  0.49922032  0.89157477  1
  Mo  Mo209  1  0.40624983  0.78837144  0.79696571  1
  Mo  Mo210  1  0.00343994  0.60044805  0.40681019  1
  Mo  Mo211  1  0.60157112  -0.00296324  0.41747570  1
  Mo  Mo212  1  0.80255632  0.59385776  -0.01478255  1
  Mo  Mo213  1  -0.01364746  0.59781300  0.60285193  1
  Mo  Mo214  1  0.60126210  0.40394455  0.20426226  1
  Mo  Mo215  1  0.30248757  0.88999882  0.89859063  1
  Mo  Mo216  1  0.70874594  0.50513450  0.50567902  1
  Mo  Mo217  1  0.80772819  0.40079021  0.60056176  1
  Mo  Mo218  1  0.00055105  0.80385486  0.00516386  1
  Mo  Mo219  1  0.40722224  0.40944964  0.59998390  1
  Mo  Mo220  1  0.10475366  0.69850497  0.89150364  1
  Mo  Mo221  1  0.40263461  0.40809369  0.18811550  1
  Mo  Mo222  1  0.30099204  0.49903649  0.50846165  1
  Mo  Mo223  1  0.08956601  0.89923463  0.50121899  1
  Mo  Mo224  1  0.30267214  0.10205346  0.52048419  1
  Mo  Mo225  1  0.39906016  0.79274017  -0.00542834  1
  Mo  Mo226  1  0.49932822  0.10077083  0.08757875  1
  Mo  Mo227  1  0.19746818  0.79200003  0.60170312  1
  Mo  Mo228  1  0.40049525  -0.00522155  0.19651072  1
  Mo  Mo229  1  0.90940399  0.10582439  0.69584219  1
  Mo  Mo230  1  0.39903824  0.20198471  0.79942568  1
  Mo  Mo231  1  0.90338830  0.30112570  0.88659215  1
  Mo  Mo232  1  0.10217584  0.29822069  0.89192588  1
  Mo  Mo233  1  0.40463083  0.40999930  0.79692433  1
  Mo  Mo234  1  0.20205535  0.60389846  -0.00894215  1
  Mo  Mo235  1  0.60278142  0.20592935  0.79359517  1
  Mo  Mo236  1  0.29850262  0.69324817  0.50054791  1
  Mo  Mo237  1  0.00090326  0.41348490  0.79138436  1
  Mo  Mo238  1  0.60251975  0.20454495  0.41045182  1
  Mo  Mo239  1  0.70001561  0.50056414  0.30657536  1
  Mo  Mo240  1  0.40338993  0.19199074  0.60378528  1
  Mo  Mo241  1  0.09701513  0.69507742  0.31055418  1
  Mo  Mo242  1  0.30775149  0.30016309  0.09232352  1
  Mo  Mo243  1  0.08323153  0.10238413  0.30133884  1
  Mo  Mo244  1  0.80101046  0.19944892  -0.00788135  1
  Mo  Mo245  1  0.49791553  0.50214402  0.50337219  1
  Mo  Mo246  1  0.09899122  0.50133439  0.50548460  1
  Mo  Mo247  1  0.49587576  0.69297222  0.09335357  1
  Mo  Mo248  1  0.81076611  0.59903325  0.78659563  1
  Mo  Mo249  1  0.30227927  0.68802168  0.69768538  1
