# generated using pymatgen
data_HfZrTaTiMo
_symmetry_space_group_name_H-M   'P 1'
_cell_length_a   16.88850169
_cell_length_b   16.89146856
_cell_length_c   16.87970569
_cell_angle_alpha   89.93537694
_cell_angle_beta   89.98417478
_cell_angle_gamma   89.97897123
_symmetry_Int_Tables_number   1
_chemical_formula_structural   HfZrTaTiMo
_chemical_formula_sum   'Hf50 Zr50 Ta50 Ti50 Mo50'
_cell_volume   4815.29700160
_cell_formula_units_Z   50
loop_
 _symmetry_equiv_pos_site_id
 _symmetry_equiv_pos_as_xyz
  1  'x, y, z'
loop_
 _atom_site_type_symbol
 _atom_site_label
 _atom_site_symmetry_multiplicity
 _atom_site_fract_x
 _atom_site_fract_y
 _atom_site_fract_z
 _atom_site_occupancy
  Hf  Hf0  1  0.10623359  0.90620247  0.68893387  1
  Hf  Hf1  1  0.19635856  0.40147670  0.59652198  1
  Hf  Hf2  1  0.80086190  0.20632996  0.00017015  1
  Hf  Hf3  1  0.70068716  0.29115140  0.50218485  1
  Hf  Hf4  1  0.61010637  0.39813614  0.39362007  1
  Hf  Hf5  1  0.00878061  0.59732589  0.39747735  1
  Hf  Hf6  1  0.80638410  0.80000598  0.79282090  1
  Hf  Hf7  1  0.19649717  0.60220281  0.60284956  1
  Hf  Hf8  1  0.70137397  0.29376629  0.70078232  1
  Hf  Hf9  1  0.39269498  0.60146446  0.00010668  1
  Hf  Hf10  1  0.59768790  0.19914450  0.20801045  1
  Hf  Hf11  1  0.10215863  0.30139582  0.29307078  1
  Hf  Hf12  1  0.39857039  0.41162380  0.19110049  1
  Hf  Hf13  1  0.00154412  0.79169529  0.79069551  1
  Hf  Hf14  1  0.79575706  0.41019225  0.59322539  1
  Hf  Hf15  1  0.60060156  0.80062675  0.00022299  1
  Hf  Hf16  1  0.11640611  0.67355669  0.10744509  1
  Hf  Hf17  1  0.50213398  0.10180130  0.49933710  1
  Hf  Hf18  1  0.00233257  0.59287820  -0.00368523  1
  Hf  Hf19  1  0.39519212  0.20295186  0.59866630  1
  Hf  Hf20  1  0.80225549  0.60001015  -0.00011778  1
  Hf  Hf21  1  0.59456606  -0.00797456  0.00344724  1
  Hf  Hf22  1  0.60037556  0.19517185  0.38972083  1
  Hf  Hf23  1  0.20809578  -0.00115916  0.00387565  1
  Hf  Hf24  1  0.89875156  0.09726726  0.10452922  1
  Hf  Hf25  1  0.00052049  0.40160290  0.40275585  1
  Hf  Hf26  1  0.31621482  0.89176265  0.89367012  1
  Hf  Hf27  1  0.58864254  0.41825067  0.01076933  1
  Hf  Hf28  1  0.70043293  0.51089214  0.70403699  1
  Hf  Hf29  1  0.00319835  0.78848168  0.00503840  1
  Hf  Hf30  1  0.30883529  0.70907675  0.50104032  1
  Hf  Hf31  1  0.29556477  0.08798904  0.69475055  1
  Hf  Hf32  1  0.00914475  0.00784542  0.79970024  1
  Hf  Hf33  1  0.61325831  0.60259073  0.40461189  1
  Hf  Hf34  1  0.90349176  0.50406702  0.69596564  1
  Hf  Hf35  1  0.10296532  0.09394223  0.30481872  1
  Hf  Hf36  1  0.60766675  0.60835526  0.59317681  1
  Hf  Hf37  1  -0.00280885  0.79462831  0.60104306  1
  Hf  Hf38  1  0.59320572  -0.00160036  0.20284464  1
  Hf  Hf39  1  0.40792009  0.00458666  0.39393024  1
  Hf  Hf40  1  0.49663405  0.88935744  0.50206799  1
  Hf  Hf41  1  0.29549779  0.89542863  0.49954339  1
  Hf  Hf42  1  0.09193037  0.49854887  0.70596344  1
  Hf  Hf43  1  0.60111593  0.80520143  0.80023925  1
  Hf  Hf44  1  0.48934665  0.09163295  0.89848625  1
  Hf  Hf45  1  0.00969983  0.19365568  0.59221461  1
  Hf  Hf46  1  0.89899233  0.29430593  0.50770022  1
  Hf  Hf47  1  0.30050662  0.30523532  0.29941121  1
  Hf  Hf48  1  0.71080600  0.09016177  0.10229803  1
  Hf  Hf49  1  0.79513210  0.79473162  0.41114389  1
  Zr  Zr50  1  0.20682245  0.79563009  0.20303920  1
  Zr  Zr51  1  0.29159803  0.29896371  0.10061632  1
  Zr  Zr52  1  0.50097529  0.30075940  0.70366404  1
  Zr  Zr53  1  0.71895672  0.90533943  0.90524069  1
  Zr  Zr54  1  0.60621050  -0.00757635  0.79924517  1
  Zr  Zr55  1  0.49344894  0.50224795  0.49999255  1
  Zr  Zr56  1  0.08934646  0.30190358  0.89811131  1
  Zr  Zr57  1  0.09800594  0.10319133  0.10170541  1
  Zr  Zr58  1  0.19055804  0.40980508  0.40547554  1
  Zr  Zr59  1  0.90213066  0.09649784  0.90775929  1
  Zr  Zr60  1  0.80278888  0.19666434  0.39156335  1
  Zr  Zr61  1  0.69365383  0.30333722  0.90114722  1
  Zr  Zr62  1  0.19132991  0.20422499  0.40896555  1
  Zr  Zr63  1  0.30445373  0.89294310  0.69642603  1
  Zr  Zr64  1  0.50008298  0.70859498  0.30080121  1
  Zr  Zr65  1  0.30111174  0.89492648  0.30922697  1
  Zr  Zr66  1  0.69753807  0.30977865  0.10895415  1
  Zr  Zr67  1  0.89579056  0.89573694  0.30071612  1
  Zr  Zr68  1  0.38479957  0.41321288  0.79720345  1
  Zr  Zr69  1  0.49628914  0.29828932  0.90019606  1
  Zr  Zr70  1  0.19782048  0.00393420  0.80917977  1
  Zr  Zr71  1  0.50321133  0.49859747  0.29728660  1
  Zr  Zr72  1  0.19333470  0.41228058  -0.01126344  1
  Zr  Zr73  1  0.10116137  0.88986200  0.90220832  1
  Zr  Zr74  1  0.89873335  0.69507501  0.30036344  1
  Zr  Zr75  1  0.49757430  0.51231212  0.70469724  1
  Zr  Zr76  1  0.80469258  0.40090209  0.39201931  1
  Zr  Zr77  1  0.21191490  0.79075669  0.00361182  1
  Zr  Zr78  1  0.38862002  0.60849855  0.19968991  1
  Zr  Zr79  1  0.59809445  0.59849685  0.18771583  1
  Zr  Zr80  1  0.19795886  0.60299819  0.40122755  1
  Zr  Zr81  1  0.59574330  0.19543934  0.00363048  1
  Zr  Zr82  1  0.60503840  -0.00692670  0.60556897  1
  Zr  Zr83  1  0.90528354  0.30221628  0.70279143  1
  Zr  Zr84  1  0.89741316  0.10076163  0.69421489  1
  Zr  Zr85  1  0.89659304  0.90400862  0.09593445  1
  Zr  Zr86  1  0.39459768  0.41402181  0.00017399  1
  Zr  Zr87  1  0.00682717  -0.00824569  0.21053720  1
  Zr  Zr88  1  -0.01126956  0.40100236  0.20671504  1
  Zr  Zr89  1  0.19349241  0.19968099  0.59632107  1
  Zr  Zr90  1  0.39424670  0.00297428  0.19912050  1
  Zr  Zr91  1  0.79969312  -0.00415784  0.40616349  1
  Zr  Zr92  1  0.18872563  0.19116680  0.79650008  1
  Zr  Zr93  1  0.49557470  0.09565504  0.70472243  1
  Zr  Zr94  1  0.29508611  0.29442424  0.89968510  1
  Zr  Zr95  1  0.69599977  0.50854420  0.89953620  1
  Zr  Zr96  1  0.80181119  0.40261775  0.80691568  1
  Zr  Zr97  1  0.80161067  -0.00998493  0.60001688  1
  Zr  Zr98  1  0.59993491  0.40514435  0.59519207  1
  Zr  Zr99  1  0.01207954  0.79152819  0.20341147  1
  Ta  Ta100  1  0.70316958  0.10118321  0.50546327  1
  Ta  Ta101  1  0.49587949  0.29928240  0.49523249  1
  Ta  Ta102  1  0.90311278  0.90200241  0.90118038  1
  Ta  Ta103  1  0.90684313  0.29927473  0.90287352  1
  Ta  Ta104  1  0.30442166  0.50158986  0.50132601  1
  Ta  Ta105  1  0.29545425  0.09344185  0.49505707  1
  Ta  Ta106  1  0.19388773  0.79137044  0.60113716  1
  Ta  Ta107  1  0.20230385  0.78501312  0.78921867  1
  Ta  Ta108  1  0.49331799  0.70811336  0.69736125  1
  Ta  Ta109  1  -0.00494292  0.20077759  0.20792394  1
  Ta  Ta110  1  0.09904124  0.49608352  0.10524448  1
  Ta  Ta111  1  0.00228677  0.60754807  0.59708780  1
  Ta  Ta112  1  0.69795395  0.89243119  0.29518090  1
  Ta  Ta113  1  0.80156621  0.19627461  0.80306668  1
  Ta  Ta114  1  0.30742401  0.30362606  0.49446707  1
  Ta  Ta115  1  0.49131887  0.70749517  0.89634189  1
  Ta  Ta116  1  0.59362719  0.60850175  0.00026461  1
  Ta  Ta117  1  0.49122965  0.70888425  0.09647840  1
  Ta  Ta118  1  0.39178243  0.40099820  0.60204998  1
  Ta  Ta119  1  0.81134136  0.40681522  0.00451345  1
  Ta  Ta120  1  0.60340504  -0.00462372  0.39625475  1
  Ta  Ta121  1  0.70897686  0.09375675  0.89908341  1
  Ta  Ta122  1  0.80312675  0.79820466  0.60165921  1
  Ta  Ta123  1  0.10741255  0.90008371  0.10256198  1
  Ta  Ta124  1  0.39834539  -0.00254962  0.59548315  1
  Ta  Ta125  1  0.60056161  0.19594037  0.60152500  1
  Ta  Ta126  1  0.90078479  0.51026470  0.49955976  1
  Ta  Ta127  1  0.50171212  0.89105571  0.29884107  1
  Ta  Ta128  1  0.20302460  0.19643094  0.20070183  1
  Ta  Ta129  1  0.70924183  0.50516932  0.29067742  1
  Ta  Ta130  1  0.48757804  0.88858037  0.10304433  1
  Ta  Ta131  1  -0.00166109  0.19258116  0.40315236  1
  Ta  Ta132  1  0.49683347  0.70499704  0.50482845  1
  Ta  Ta133  1  0.40118162  0.19473330  0.20799499  1
  Ta  Ta134  1  0.39729356  0.60120761  0.39986045  1
  Ta  Ta135  1  0.60643581  0.79682708  0.40316811  1
  Ta  Ta136  1  0.69848618  0.70584368  0.69682975  1
  Ta  Ta137  1  0.38971542  0.19669593  0.79746694  1
  Ta  Ta138  1  0.08898595  0.30953127  0.69973768  1
  Ta  Ta139  1  0.70667342  0.69850390  0.29454741  1
  Ta  Ta140  1  0.09670953  0.30130926  0.10097351  1
  Ta  Ta141  1  0.30461873  0.69631331  0.89051829  1
  Ta  Ta142  1  0.49060157  0.89360919  0.70278673  1
  Ta  Ta143  1  0.10784166  0.68853870  0.89314380  1
  Ta  Ta144  1  -0.00485986  0.40586941  0.00145955  1
  Ta  Ta145  1  0.90383236  0.29915043  0.10042085  1
  Ta  Ta146  1  0.80674322  0.61240860  0.79734047  1
  Ta  Ta147  1  0.49594566  0.30260432  0.10810635  1
  Ta  Ta148  1  0.80570713  0.79205851  0.00286062  1
  Ta  Ta149  1  0.27299327  0.51724014  0.10452854  1
  Ti  Ti150  1  0.49769621  0.30609205  0.29670940  1
  Ti  Ti151  1  0.80318609  0.20659863  0.20997029  1
  Ti  Ti152  1  0.30771920  0.09788212  0.90239175  1
  Ti  Ti153  1  0.70362911  0.69992600  0.10038307  1
  Ti  Ti154  1  0.20894284  0.59572860  0.79307640  1
  Ti  Ti155  1  0.70897203  0.90123104  0.10509752  1
  Ti  Ti156  1  0.30197088  0.70933650  0.31089353  1
  Ti  Ti157  1  0.29218421  0.30166316  0.70028142  1
  Ti  Ti158  1  0.01601841  0.80997214  0.39746984  1
  Ti  Ti159  1  0.79822648  0.79501580  0.19492435  1
  Ti  Ti160  1  0.40249868  0.19824554  0.39315728  1
  Ti  Ti161  1  0.89917079  0.50520272  0.10999030  1
  Ti  Ti162  1  0.00995094  -0.00059552  -0.00171089  1
  Ti  Ti163  1  0.91192147  0.90116784  0.49712061  1
  Ti  Ti164  1  0.89167140  0.51608581  0.29496065  1
  Ti  Ti165  1  0.39825375  -0.00979473  0.00575235  1
  Ti  Ti166  1  0.39059679  0.60112435  0.60922464  1
  Ti  Ti167  1  0.60255293  0.19252083  0.80135492  1
  Ti  Ti168  1  0.70619550  0.49992903  0.10706309  1
  Ti  Ti169  1  0.00932733  0.00441272  0.58518314  1
  Ti  Ti170  1  0.89928696  0.09171457  0.30001147  1
  Ti  Ti171  1  0.19897584  0.40819733  0.79886865  1
  Ti  Ti172  1  0.19251202  0.19160863  -0.00356269  1
  Ti  Ti173  1  0.29421762  0.49839373  0.29942563  1
  Ti  Ti174  1  -0.00123881  0.60790341  0.79624053  1
  Ti  Ti175  1  0.49248991  0.10127907  0.10131608  1
  Ti  Ti176  1  0.20487303  -0.00468017  0.19902079  1
  Ti  Ti177  1  0.59845217  0.61434938  0.80242002  1
  Ti  Ti178  1  0.39845316  0.19985823  0.00497198  1
  Ti  Ti179  1  0.39935131  0.40381696  0.40027719  1
  Ti  Ti180  1  0.70203950  0.70149149  0.89952346  1
  Ti  Ti181  1  0.90243473  0.70158961  0.89932917  1
  Ti  Ti182  1  0.70853420  0.09939069  0.70281283  1
  Ti  Ti183  1  0.18249512  -0.01193023  0.40889602  1
  Ti  Ti184  1  0.10408690  0.50784026  0.28002275  1
  Ti  Ti185  1  0.60418060  0.80010514  0.19543039  1
  Ti  Ti186  1  0.79927880  0.61075840  0.59225943  1
  Ti  Ti187  1  0.90068988  0.68869313  0.11003540  1
  Ti  Ti188  1  0.10064656  0.70735758  0.49502763  1
  Ti  Ti189  1  0.80241370  0.39499655  0.20586877  1
  Ti  Ti190  1  0.90773768  0.49930652  0.89132362  1
  Ti  Ti191  1  0.00506535  0.19206374  0.79888081  1
  Ti  Ti192  1  0.59527864  0.40657799  0.80337418  1
  Ti  Ti193  1  0.90169072  0.69656330  0.49545069  1
  Ti  Ti194  1  0.70750322  0.08730805  0.29498373  1
  Ti  Ti195  1  0.30099401  0.10382584  0.10095404  1
  Ti  Ti196  1  0.29265626  0.10033980  0.30641364  1
  Ti  Ti197  1  0.69236284  0.89204546  0.50669196  1
  Ti  Ti198  1  0.49434641  0.51680280  0.89365109  1
  Ti  Ti199  1  0.90274874  0.90719402  0.70269762  1
  Mo  Mo200  1  -0.00047160  0.59389427  0.20043325  1
  Mo  Mo201  1  0.80676688  0.00039373  0.79906052  1
  Mo  Mo202  1  0.71325841  0.51027357  0.49170770  1
  Mo  Mo203  1  0.70223505  0.70623615  0.50404806  1
  Mo  Mo204  1  0.90151509  0.28856690  0.29787699  1
  Mo  Mo205  1  -0.00131462  0.20826354  0.01031683  1
  Mo  Mo206  1  0.39618952  0.80070734  0.19773269  1
  Mo  Mo207  1  0.79757208  0.60027292  0.19385675  1
  Mo  Mo208  1  0.30178105  0.69660975  0.69881311  1
  Mo  Mo209  1  0.39967761  0.79786677  0.60252968  1
  Mo  Mo210  1  0.79467631  0.19255468  0.60352332  1
  Mo  Mo211  1  0.30393712  0.89889340  0.10052742  1
  Mo  Mo212  1  0.79553087  -0.00553036  0.20410631  1
  Mo  Mo213  1  0.19926734  -0.00152033  0.58767312  1
  Mo  Mo214  1  0.09098090  0.30899881  0.50014277  1
  Mo  Mo215  1  0.90284032  0.09543677  0.49542583  1
  Mo  Mo216  1  0.49366708  0.89749915  0.90459560  1
  Mo  Mo217  1  0.00057123  0.40551728  0.59354065  1
  Mo  Mo218  1  0.40089428  -0.00075415  0.79915535  1
  Mo  Mo219  1  0.19883389  0.59675955  -0.02004234  1
  Mo  Mo220  1  0.10709535  0.89891385  0.30382696  1
  Mo  Mo221  1  -0.00114224  0.40477304  0.80604546  1
  Mo  Mo222  1  0.80431057  -0.00394965  0.00206188  1
  Mo  Mo223  1  0.39734062  0.60717812  0.79723298  1
  Mo  Mo224  1  0.09141046  0.50351590  0.51046199  1
  Mo  Mo225  1  0.40173455  0.79656094  -0.00072471  1
  Mo  Mo226  1  0.50064900  0.09673582  0.30187887  1
  Mo  Mo227  1  0.18853745  0.79885249  0.40223219  1
  Mo  Mo228  1  0.09863923  0.09741115  0.68985625  1
  Mo  Mo229  1  0.30195004  0.69883547  0.09514861  1
  Mo  Mo230  1  0.29142058  0.51071976  0.89249728  1
  Mo  Mo231  1  0.70273535  0.30666121  0.29553551  1
  Mo  Mo232  1  0.09984751  0.08818317  0.49505889  1
  Mo  Mo233  1  0.80128935  0.60135476  0.40034320  1
  Mo  Mo234  1  0.60178579  0.79817480  0.60345829  1
  Mo  Mo235  1  0.29499967  0.50158381  0.69632301  1
  Mo  Mo236  1  0.70664189  0.89249350  0.69739442  1
  Mo  Mo237  1  0.09525904  0.50439110  0.89158171  1
  Mo  Mo238  1  0.41038518  0.79727295  0.40036435  1
  Mo  Mo239  1  0.49797527  0.50966086  0.09816800  1
  Mo  Mo240  1  -0.00272527  0.00128840  0.40740469  1
  Mo  Mo241  1  0.89610114  0.69486694  0.69342268  1
  Mo  Mo242  1  0.59933340  0.40134833  0.20008245  1
  Mo  Mo243  1  0.40198023  0.79641225  0.79864379  1
  Mo  Mo244  1  0.10075860  0.70118253  0.30317377  1
  Mo  Mo245  1  0.09937799  0.69566197  0.70204243  1
  Mo  Mo246  1  0.19870172  0.40223236  0.19722866  1
  Mo  Mo247  1  0.09598763  0.10443145  0.91186435  1
  Mo  Mo248  1  0.09843043  0.89439256  0.50045316  1
  Mo  Mo249  1  0.20446087  0.60234122  0.21924874  1
