# generated using pymatgen
data_HfZrTaTiMo
_symmetry_space_group_name_H-M   'P 1'
_cell_length_a   16.88618433
_cell_length_b   16.89339483
_cell_length_c   16.88257362
_cell_angle_alpha   89.98510784
_cell_angle_beta   90.01714007
_cell_angle_gamma   89.99853795
_symmetry_Int_Tables_number   1
_chemical_formula_structural   HfZrTaTiMo
_chemical_formula_sum   'Hf50 Zr50 Ta50 Ti50 Mo50'
_cell_volume   4816.00662817
_cell_formula_units_Z   50
loop_
 _symmetry_equiv_pos_site_id
 _symmetry_equiv_pos_as_xyz
  1  'x, y, z'
loop_
 _atom_site_type_symbol
 _atom_site_label
 _atom_site_symmetry_multiplicity
 _atom_site_fract_x
 _atom_site_fract_y
 _atom_site_fract_z
 _atom_site_occupancy
  Hf  Hf0  1  0.89041633  0.09771086  0.88997007  1
  Hf  Hf1  1  0.60131668  0.20471647  0.80047848  1
  Hf  Hf2  1  0.50304730  0.70512480  0.89286668  1
  Hf  Hf3  1  0.39860442  -0.00150047  0.00116966  1
  Hf  Hf4  1  0.69963261  0.69911724  0.10382636  1
  Hf  Hf5  1  0.50213132  0.69872403  0.10194439  1
  Hf  Hf6  1  0.80415147  0.60657541  0.79695319  1
  Hf  Hf7  1  0.20246955  0.80670027  0.39969750  1
  Hf  Hf8  1  0.21011747  0.79739556  0.59168501  1
  Hf  Hf9  1  0.69383051  0.69832783  0.29451709  1
  Hf  Hf10  1  0.87710806  0.89278848  0.89468386  1
  Hf  Hf11  1  0.49508212  0.10518269  0.90704443  1
  Hf  Hf12  1  0.89429176  0.49747768  0.69695402  1
  Hf  Hf13  1  0.60807764  0.20697312  0.00047855  1
  Hf  Hf14  1  0.20134216  0.80227203  0.79623343  1
  Hf  Hf15  1  0.70989583  0.71618436  0.90281639  1
  Hf  Hf16  1  0.29254978  0.71118841  0.10065377  1
  Hf  Hf17  1  0.40451334  0.39980019  0.20772778  1
  Hf  Hf18  1  0.11135132  0.09721245  0.70248089  1
  Hf  Hf19  1  0.39981816  0.40527180  0.60234548  1
  Hf  Hf20  1  0.50503810  0.90905222  0.10337068  1
  Hf  Hf21  1  0.89606286  0.27495283  0.48592123  1
  Hf  Hf22  1  0.00280555  0.00411426  0.40604794  1
  Hf  Hf23  1  0.28739486  0.50271986  0.69664758  1
  Hf  Hf24  1  0.60351681  0.59887874  -0.00509319  1
  Hf  Hf25  1  0.78818729  -0.01456170  0.60309276  1
  Hf  Hf26  1  0.10699778  0.10107030  0.29965428  1
  Hf  Hf27  1  -0.01089273  0.01042396  0.20298184  1
  Hf  Hf28  1  -0.00133045  0.19863765  -0.00055547  1
  Hf  Hf29  1  0.10522234  0.50554047  0.51315244  1
  Hf  Hf30  1  0.10907146  0.68829218  0.69632367  1
  Hf  Hf31  1  0.60847932  0.80801566  0.59091682  1
  Hf  Hf32  1  0.30971544  0.70046520  0.69705658  1
  Hf  Hf33  1  0.29614422  0.10347483  0.89797938  1
  Hf  Hf34  1  -0.00541405  0.79668477  -0.00724214  1
  Hf  Hf35  1  0.11008841  0.09568711  0.89449416  1
  Hf  Hf36  1  0.30000760  0.10240419  0.69524120  1
  Hf  Hf37  1  0.49624603  0.90024025  0.69114819  1
  Hf  Hf38  1  0.50097854  0.09310338  0.68721046  1
  Hf  Hf39  1  0.79167689  0.79956376  0.40697644  1
  Hf  Hf40  1  0.39952034  0.80935265  -0.00075525  1
  Hf  Hf41  1  0.20211339  0.60081803  0.20161489  1
  Hf  Hf42  1  0.10031075  0.90052817  0.69524740  1
  Hf  Hf43  1  0.69388235  0.69643092  0.70679916  1
  Hf  Hf44  1  0.29758543  0.29915870  0.50925752  1
  Hf  Hf45  1  0.40253049  0.81098952  0.20316223  1
  Hf  Hf46  1  0.79267563  0.00407874  0.40318841  1
  Hf  Hf47  1  0.09478099  0.50126547  0.09166848  1
  Hf  Hf48  1  0.08401619  0.51536928  0.31900023  1
  Hf  Hf49  1  0.50853982  0.49880164  0.10549941  1
  Zr  Zr50  1  0.91290301  0.50204607  0.49445852  1
  Zr  Zr51  1  0.78079891  0.39007592  0.00247447  1
  Zr  Zr52  1  0.19331347  0.40028675  0.21250365  1
  Zr  Zr53  1  0.31529321  0.91001096  0.49996323  1
  Zr  Zr54  1  0.90357770  0.89611909  0.29791238  1
  Zr  Zr55  1  0.79998217  0.40546567  0.39141045  1
  Zr  Zr56  1  0.80376750  0.59831831  0.40215639  1
  Zr  Zr57  1  0.00594731  0.19975405  0.79464707  1
  Zr  Zr58  1  0.60289205  -0.00349791  0.80471268  1
  Zr  Zr59  1  0.21035760  0.60852505  0.40778210  1
  Zr  Zr60  1  0.10981201  0.09354116  0.09791415  1
  Zr  Zr61  1  0.69773926  0.50420509  0.88920107  1
  Zr  Zr62  1  -0.00306878  -0.00214482  -0.00507399  1
  Zr  Zr63  1  0.40338376  0.58719835  0.80353737  1
  Zr  Zr64  1  0.00328330  0.38015915  0.59859873  1
  Zr  Zr65  1  0.79867528  0.18918305  0.19421439  1
  Zr  Zr66  1  0.40241860  0.60372699  0.40553464  1
  Zr  Zr67  1  0.29930484  0.70120566  0.89679961  1
  Zr  Zr68  1  0.59206598  0.39896037  0.39890978  1
  Zr  Zr69  1  0.89324445  0.89975524  0.10099597  1
  Zr  Zr70  1  0.10247908  0.50286628  0.89289708  1
  Zr  Zr71  1  0.30855660  0.50194963  0.09934252  1
  Zr  Zr72  1  0.49708072  0.70494859  0.69868193  1
  Zr  Zr73  1  0.20155856  0.20393584  0.40036887  1
  Zr  Zr74  1  0.69633427  0.29207251  0.49843211  1
  Zr  Zr75  1  0.90095844  0.89910457  0.50252708  1
  Zr  Zr76  1  0.20174130  0.39848939  -0.00269569  1
  Zr  Zr77  1  0.70145130  0.89857037  0.10197757  1
  Zr  Zr78  1  0.89371384  0.29117888  0.30314574  1
  Zr  Zr79  1  0.60034894  0.39456029  0.79779675  1
  Zr  Zr80  1  0.30803910  0.29868911  0.30635327  1
  Zr  Zr81  1  0.10273543  0.88859176  0.11587542  1
  Zr  Zr82  1  0.59273526  0.60764663  0.40724889  1
  Zr  Zr83  1  0.89831969  0.49208024  0.08892205  1
  Zr  Zr84  1  0.80397146  0.79178939  0.60708797  1
  Zr  Zr85  1  -0.00092187  0.19870836  0.19950656  1
  Zr  Zr86  1  -0.00624910  0.39986587  0.20862795  1
  Zr  Zr87  1  0.10001256  0.71740037  0.28797019  1
  Zr  Zr88  1  -0.00701197  0.60153457  0.19148528  1
  Zr  Zr89  1  0.40471551  0.20640239  0.79531196  1
  Zr  Zr90  1  0.79829044  0.39275786  0.60044410  1
  Zr  Zr91  1  0.90544063  0.69729485  0.30262161  1
  Zr  Zr92  1  0.30250364  0.10016074  0.10176581  1
  Zr  Zr93  1  0.10462907  0.50162038  0.69547026  1
  Zr  Zr94  1  0.00579984  0.38472953  0.79426497  1
  Zr  Zr95  1  0.88698627  0.29834445  0.89265178  1
  Zr  Zr96  1  0.68683941  0.50328031  0.28434794  1
  Zr  Zr97  1  -0.00711753  0.60849965  0.80253577  1
  Zr  Zr98  1  0.11228231  0.09925647  0.50762479  1
  Zr  Zr99  1  -0.00153066  0.19199817  0.59892003  1
  Ta  Ta100  1  0.40051405  -0.00635407  0.80274496  1
  Ta  Ta101  1  0.20554378  0.20462310  0.19915356  1
  Ta  Ta102  1  0.19891327  0.40319729  0.40846993  1
  Ta  Ta103  1  0.10067953  0.90130886  0.50554781  1
  Ta  Ta104  1  0.59639775  0.80683217  0.20845207  1
  Ta  Ta105  1  -0.00938058  -0.00049287  0.60538458  1
  Ta  Ta106  1  0.79160951  0.19670589  0.00206061  1
  Ta  Ta107  1  0.01466646  0.38011394  0.40135103  1
  Ta  Ta108  1  0.69173355  0.29197489  0.29555290  1
  Ta  Ta109  1  0.40076434  0.40672735  0.40594243  1
  Ta  Ta110  1  -0.00966469  0.79775233  0.79415924  1
  Ta  Ta111  1  -0.00613556  -0.01024752  0.79470917  1
  Ta  Ta112  1  0.50842295  0.50198751  0.69940143  1
  Ta  Ta113  1  0.40133992  0.39773992  0.79834128  1
  Ta  Ta114  1  0.30534020  0.90442754  0.30275409  1
  Ta  Ta115  1  0.41151753  0.80028176  0.40455620  1
  Ta  Ta116  1  0.29873383  0.89766094  0.89857589  1
  Ta  Ta117  1  0.10389611  0.70341650  0.90068110  1
  Ta  Ta118  1  0.19970824  0.60419074  -0.00226460  1
  Ta  Ta119  1  0.78885105  0.00693482  -0.00224430  1
  Ta  Ta120  1  0.59894538  0.00687960  0.20419329  1
  Ta  Ta121  1  0.89707240  0.49452826  0.89871559  1
  Ta  Ta122  1  0.88676216  0.09135444  0.70373705  1
  Ta  Ta123  1  0.49506403  0.10016114  0.30248436  1
  Ta  Ta124  1  0.30618638  0.71054219  0.29918644  1
  Ta  Ta125  1  0.69822706  0.50281714  0.51091640  1
  Ta  Ta126  1  0.68392655  0.09188340  0.50238293  1
  Ta  Ta127  1  0.49742628  0.29887407  0.10095313  1
  Ta  Ta128  1  0.80783100  0.60468766  -0.00291089  1
  Ta  Ta129  1  0.69798691  0.09667437  0.69610711  1
  Ta  Ta130  1  0.50360265  0.91853773  0.49854026  1
  Ta  Ta131  1  0.30460278  0.29842210  0.90095116  1
  Ta  Ta132  1  0.30716050  0.29792334  0.09750585  1
  Ta  Ta133  1  0.60334609  0.00332555  -0.00333313  1
  Ta  Ta134  1  0.09707770  0.69812414  0.50543948  1
  Ta  Ta135  1  0.58953173  0.19478459  0.40156500  1
  Ta  Ta136  1  0.79215873  0.39525111  0.19686251  1
  Ta  Ta137  1  0.20106139  0.20691591  -0.00085791  1
  Ta  Ta138  1  0.00720109  0.80181793  0.40731179  1
  Ta  Ta139  1  0.40238881  0.19922456  0.20247237  1
  Ta  Ta140  1  0.10241465  0.70632239  0.09366798  1
  Ta  Ta141  1  0.79805936  0.79883882  0.20476584  1
  Ta  Ta142  1  0.50084603  0.30205836  0.68859842  1
  Ta  Ta143  1  0.60219387  0.81277763  0.80307164  1
  Ta  Ta144  1  0.69372133  0.90429445  0.30050525  1
  Ta  Ta145  1  -0.00272411  0.79784042  0.60428755  1
  Ta  Ta146  1  0.50071906  0.10530306  0.10325638  1
  Ta  Ta147  1  0.50262378  0.49996980  0.50825088  1
  Ta  Ta148  1  0.10259632  0.29850767  0.10091424  1
  Ta  Ta149  1  0.59908825  0.60074155  0.60167221  1
  Ti  Ti150  1  0.50178686  0.91187285  0.30910919  1
  Ti  Ti151  1  -0.00743538  0.60757495  -0.00731572  1
  Ti  Ti152  1  0.20658783  -0.01000931  0.79785361  1
  Ti  Ti153  1  0.60390814  0.40164518  0.60485862  1
  Ti  Ti154  1  0.89473230  0.70712360  0.09884555  1
  Ti  Ti155  1  0.30891423  0.09739515  0.30704018  1
  Ti  Ti156  1  0.30183136  0.50214050  0.30751954  1
  Ti  Ti157  1  0.29641698  0.49764132  0.89546315  1
  Ti  Ti158  1  0.40132030  0.60210312  0.59002370  1
  Ti  Ti159  1  0.20328256  -0.00370435  0.39809642  1
  Ti  Ti160  1  0.68971306  0.10090052  0.30518693  1
  Ti  Ti161  1  0.69398335  0.50161802  0.10567580  1
  Ti  Ti162  1  0.40476578  0.19771750  0.59271048  1
  Ti  Ti163  1  0.59572948  0.19904816  0.19987473  1
  Ti  Ti164  1  0.20689091  -0.00797517  0.20783357  1
  Ti  Ti165  1  0.80763764  0.59123030  0.19772375  1
  Ti  Ti166  1  0.50099301  0.29430316  0.30079813  1
  Ti  Ti167  1  0.40197785  0.40182598  -0.00414872  1
  Ti  Ti168  1  0.39980851  0.60303374  0.20621439  1
  Ti  Ti169  1  0.20286371  0.38578986  0.80169940  1
  Ti  Ti170  1  0.50432470  0.49641888  0.89855677  1
  Ti  Ti171  1  0.59667919  0.80448359  0.40340656  1
  Ti  Ti172  1  0.89700624  0.29759834  0.09732882  1
  Ti  Ti173  1  0.20615797  -0.01587464  0.00375044  1
  Ti  Ti174  1  -0.02108300  0.61572451  0.60208595  1
  Ti  Ti175  1  0.78770400  0.39524979  0.79299046  1
  Ti  Ti176  1  0.12601927  0.28970685  0.68636131  1
  Ti  Ti177  1  0.20973857  -0.00408508  0.59917016  1
  Ti  Ti178  1  0.70664462  0.10284949  0.89027200  1
  Ti  Ti179  1  0.00300506  0.38745556  -0.00947991  1
  Ti  Ti180  1  0.70206509  0.69163885  0.50596079  1
  Ti  Ti181  1  0.79802193  0.00771324  0.20323333  1
  Ti  Ti182  1  0.88388330  0.28395606  0.70180781  1
  Ti  Ti183  1  0.40041178  0.59767323  -0.00407578  1
  Ti  Ti184  1  0.31475113  0.89814194  0.69688203  1
  Ti  Ti185  1  0.59929274  0.81299094  -0.00624183  1
  Ti  Ti186  1  0.40027394  0.00234580  0.20341366  1
  Ti  Ti187  1  0.79702625  0.18293606  0.59394506  1
  Ti  Ti188  1  0.70088284  0.28802542  0.69528455  1
  Ti  Ti189  1  0.89868128  0.11668346  0.33107186  1
  Ti  Ti190  1  0.60264600  0.39396944  0.00283208  1
  Ti  Ti191  1  0.69383288  0.09728682  0.10290361  1
  Ti  Ti192  1  0.50378478  0.50442405  0.29588954  1
  Ti  Ti193  1  0.29871630  0.29635472  0.69809164  1
  Ti  Ti194  1  0.49590078  0.29874073  0.49976878  1
  Ti  Ti195  1  0.49477744  0.30311514  0.90753336  1
  Ti  Ti196  1  0.50190063  0.70227692  0.29706630  1
  Ti  Ti197  1  0.31518243  0.09888212  0.49697435  1
  Ti  Ti198  1  0.59460383  0.19739905  0.59465409  1
  Ti  Ti199  1  0.10395621  0.89622973  0.89851465  1
  Mo  Mo200  1  0.77566373  0.18900044  0.39914419  1
  Mo  Mo201  1  0.40089588  0.20685730  0.00658846  1
  Mo  Mo202  1  0.50192699  0.70512249  0.50412504  1
  Mo  Mo203  1  0.40204160  0.00588985  0.39360930  1
  Mo  Mo204  1  0.79883154  0.79674681  0.00933312  1
  Mo  Mo205  1  0.69729016  0.90244004  0.90447672  1
  Mo  Mo206  1  0.60089685  -0.00130233  0.59595519  1
  Mo  Mo207  1  0.20230353  0.60286826  0.80996747  1
  Mo  Mo208  1  0.69018960  0.90003599  0.48936924  1
  Mo  Mo209  1  0.79458200  0.59741859  0.60076514  1
  Mo  Mo210  1  0.89981195  0.70171012  0.90317654  1
  Mo  Mo211  1  0.10513220  0.29793275  0.29975416  1
  Mo  Mo212  1  0.70090599  0.89843604  0.70868097  1
  Mo  Mo213  1  0.31035203  0.70692397  0.49879536  1
  Mo  Mo214  1  0.49854016  0.90241432  0.90222021  1
  Mo  Mo215  1  0.30335554  0.49764826  0.50260214  1
  Mo  Mo216  1  0.40827036  0.80184676  0.58898488  1
  Mo  Mo217  1  0.78913741  0.19683548  0.79057426  1
  Mo  Mo218  1  0.59759096  0.38807824  0.19804835  1
  Mo  Mo219  1  0.69872646  0.50216358  0.69252479  1
  Mo  Mo220  1  0.88612581  0.09679051  0.08699942  1
  Mo  Mo221  1  0.21212019  0.19584905  0.60060669  1
  Mo  Mo222  1  0.40175522  0.00469455  0.59774789  1
  Mo  Mo223  1  0.90527497  0.70210858  0.50101810  1
  Mo  Mo224  1  0.01221418  0.19812297  0.40225428  1
  Mo  Mo225  1  0.10730079  0.90797285  0.30800900  1
  Mo  Mo226  1  0.10975763  0.29481402  0.90365102  1
  Mo  Mo227  1  0.19543527  0.80329009  -0.00386435  1
  Mo  Mo228  1  0.40695840  0.20053381  0.40116967  1
  Mo  Mo229  1  0.10709648  0.29985060  0.50303542  1
  Mo  Mo230  1  0.00174789  0.61316872  0.41195647  1
  Mo  Mo231  1  0.89708392  0.70274988  0.70132747  1
  Mo  Mo232  1  0.20893050  0.80806062  0.20353563  1
  Mo  Mo233  1  0.21932222  0.60529423  0.58868083  1
  Mo  Mo234  1  0.90001276  0.49373253  0.29985968  1
  Mo  Mo235  1  0.90019359  0.89888875  0.70458472  1
  Mo  Mo236  1  0.79298210  -0.00143386  0.79707835  1
  Mo  Mo237  1  0.20531222  0.20994486  0.80235566  1
  Mo  Mo238  1  0.89012340  0.09581367  0.50617963  1
  Mo  Mo239  1  -0.00416047  0.79980521  0.19748457  1
  Mo  Mo240  1  0.58987868  0.60837044  0.19680107  1
  Mo  Mo241  1  0.59582086  0.00298305  0.39497404  1
  Mo  Mo242  1  0.29750071  0.90453719  0.10472928  1
  Mo  Mo243  1  0.59875744  0.60099057  0.79796688  1
  Mo  Mo244  1  0.49732727  0.10496936  0.49705867  1
  Mo  Mo245  1  0.20332474  0.39435400  0.59982719  1
  Mo  Mo246  1  0.69695188  0.29577865  0.89834511  1
  Mo  Mo247  1  0.40181156  0.81445093  0.80102569  1
  Mo  Mo248  1  0.79661534  0.80425375  0.79336835  1
  Mo  Mo249  1  0.69084987  0.29642492  0.10928278  1
