# generated using pymatgen
data_HfZrTaTiMo
_symmetry_space_group_name_H-M   'P 1'
_cell_length_a   16.88940547
_cell_length_b   16.88635299
_cell_length_c   16.87992504
_cell_angle_alpha   90.07775408
_cell_angle_beta   89.97046425
_cell_angle_gamma   90.00766927
_symmetry_Int_Tables_number   1
_chemical_formula_structural   HfZrTaTiMo
_chemical_formula_sum   'Hf50 Zr50 Ta50 Ti50 Mo50'
_cell_volume   4814.15731176
_cell_formula_units_Z   50
loop_
 _symmetry_equiv_pos_site_id
 _symmetry_equiv_pos_as_xyz
  1  'x, y, z'
loop_
 _atom_site_type_symbol
 _atom_site_label
 _atom_site_symmetry_multiplicity
 _atom_site_fract_x
 _atom_site_fract_y
 _atom_site_fract_z
 _atom_site_occupancy
  Hf  Hf0  1  0.59851404  -0.00769842  0.60231266  1
  Hf  Hf1  1  0.60321865  0.59387752  0.80339570  1
  Hf  Hf2  1  0.10160155  0.11073869  0.49219900  1
  Hf  Hf3  1  0.18280117  0.58625599  0.00142673  1
  Hf  Hf4  1  0.08950155  0.10469771  0.90808453  1
  Hf  Hf5  1  0.39845046  0.20534002  0.19342850  1
  Hf  Hf6  1  0.80389713  -0.00043659  -0.00575743  1
  Hf  Hf7  1  0.19546467  0.40554580  0.60245478  1
  Hf  Hf8  1  0.20250045  0.59110933  0.79751056  1
  Hf  Hf9  1  0.90443116  0.50622899  0.30724554  1
  Hf  Hf10  1  0.70597127  0.10319820  0.28905992  1
  Hf  Hf11  1  0.19083058  0.40192617  0.80609826  1
  Hf  Hf12  1  0.90440076  0.50088910  0.50133960  1
  Hf  Hf13  1  0.90158077  0.30023637  0.49891115  1
  Hf  Hf14  1  0.18904044  0.40753508  0.19402675  1
  Hf  Hf15  1  0.50224807  0.69041904  0.69202193  1
  Hf  Hf16  1  0.70249465  0.10774618  0.50923787  1
  Hf  Hf17  1  0.29984920  0.50058937  0.30892003  1
  Hf  Hf18  1  0.60263410  0.40256383  0.19881324  1
  Hf  Hf19  1  0.49700391  0.69959728  0.09858682  1
  Hf  Hf20  1  0.70142818  0.88708324  0.70176533  1
  Hf  Hf21  1  0.89987489  0.29396826  0.09249206  1
  Hf  Hf22  1  -0.00440977  0.00544797  0.39073829  1
  Hf  Hf23  1  0.09416287  0.29518564  0.09245043  1
  Hf  Hf24  1  0.69949749  0.70267438  0.69801139  1
  Hf  Hf25  1  0.39916237  0.00336015  0.59534748  1
  Hf  Hf26  1  0.60610630  0.62285013  0.42423207  1
  Hf  Hf27  1  0.50575087  0.48783850  0.68878374  1
  Hf  Hf28  1  0.81279261  0.79549381  0.39708029  1
  Hf  Hf29  1  0.48980851  0.71252728  0.31521357  1
  Hf  Hf30  1  0.20310581  0.00533469  0.40037242  1
  Hf  Hf31  1  0.40667398  0.39697366  0.79765179  1
  Hf  Hf32  1  0.70604924  0.70341844  0.29963140  1
  Hf  Hf33  1  0.30205515  0.49079586  0.90726563  1
  Hf  Hf34  1  0.80128620  0.59816349  0.80068767  1
  Hf  Hf35  1  0.70896360  0.88621114  0.89678686  1
  Hf  Hf36  1  0.69728143  0.30405945  0.51226141  1
  Hf  Hf37  1  0.59820944  0.00334273  0.80466534  1
  Hf  Hf38  1  0.49333209  0.89944600  0.29934394  1
  Hf  Hf39  1  0.80896724  0.60913965  -0.00829728  1
  Hf  Hf40  1  0.70436843  0.88987857  0.49723545  1
  Hf  Hf41  1  0.30041660  0.69792294  0.30051279  1
  Hf  Hf42  1  0.49643162  0.50544677  0.31328974  1
  Hf  Hf43  1  0.60588542  0.01275823  -0.00853143  1
  Hf  Hf44  1  0.59958878  0.79886159  0.19623252  1
  Hf  Hf45  1  0.49281526  0.88642922  0.48410469  1
  Hf  Hf46  1  0.70569643  0.89931339  0.29281920  1
  Hf  Hf47  1  0.49689858  0.31351707  0.51790636  1
  Hf  Hf48  1  0.60123053  0.00191687  0.39728038  1
  Hf  Hf49  1  0.70773049  0.89641973  0.09869823  1
  Zr  Zr50  1  0.08309964  0.89980228  0.10474056  1
  Zr  Zr51  1  0.79394441  0.19417115  -0.00674978  1
  Zr  Zr52  1  0.80899489  -0.00421900  0.60832536  1
  Zr  Zr53  1  0.40449823  0.59509539  -0.00186959  1
  Zr  Zr54  1  -0.00204675  0.39970491  0.20124396  1
  Zr  Zr55  1  0.29950408  0.30319313  0.91000943  1
  Zr  Zr56  1  -0.01141456  -0.00689005  0.80120914  1
  Zr  Zr57  1  0.40597688  0.79919545  0.79811901  1
  Zr  Zr58  1  0.09793134  0.70170921  0.69528217  1
  Zr  Zr59  1  0.00371134  -0.00882222  0.60916475  1
  Zr  Zr60  1  0.09284293  0.90035625  0.29565533  1
  Zr  Zr61  1  0.50168367  0.10444616  0.50454684  1
  Zr  Zr62  1  0.10522351  0.29022329  0.31038288  1
  Zr  Zr63  1  0.90317165  0.10755739  0.50117969  1
  Zr  Zr64  1  0.29919050  0.89844550  0.90568341  1
  Zr  Zr65  1  0.09928205  0.10299713  0.70159798  1
  Zr  Zr66  1  0.80080848  0.40166832  0.19563288  1
  Zr  Zr67  1  0.29927216  0.70644860  0.10384292  1
  Zr  Zr68  1  0.30301854  0.09461979  0.90285541  1
  Zr  Zr69  1  0.20766286  0.20137228  0.59311507  1
  Zr  Zr70  1  0.29727855  0.70362714  0.90202037  1
  Zr  Zr71  1  0.38993306  0.19331359  0.40978252  1
  Zr  Zr72  1  0.09533671  0.70293708  0.89656630  1
  Zr  Zr73  1  0.00484561  0.59614192  0.19627429  1
  Zr  Zr74  1  -0.01548207  -0.00192321  0.00150112  1
  Zr  Zr75  1  0.40824375  0.19968284  0.80023407  1
  Zr  Zr76  1  0.80112141  0.39891074  0.39776145  1
  Zr  Zr77  1  0.29736888  0.50292532  0.49623069  1
  Zr  Zr78  1  0.29443384  0.30681561  0.30383008  1
  Zr  Zr79  1  0.60121757  0.60156621  0.20000719  1
  Zr  Zr80  1  0.29432341  0.69930110  0.69491278  1
  Zr  Zr81  1  0.29823838  0.49493825  0.09960513  1
  Zr  Zr82  1  0.70441333  0.29611541  0.29346176  1
  Zr  Zr83  1  0.59928304  0.20225722  0.39974575  1
  Zr  Zr84  1  0.29257757  0.89917939  0.68932106  1
  Zr  Zr85  1  0.49810775  0.50203543  0.50346834  1
  Zr  Zr86  1  0.49371677  0.30833609  0.30943110  1
  Zr  Zr87  1  0.80386009  0.60226616  0.60208943  1
  Zr  Zr88  1  0.41240167  -0.00027105  0.79594459  1
  Zr  Zr89  1  0.80929287  0.00035730  0.39544623  1
  Zr  Zr90  1  0.19840948  0.20563559  0.79986316  1
  Zr  Zr91  1  -0.02782844  0.79057106  -0.00720955  1
  Zr  Zr92  1  0.19197256  -0.00572808  0.79633874  1
  Zr  Zr93  1  0.49670424  0.90115526  0.09549653  1
  Zr  Zr94  1  0.09249712  0.70525769  0.10140964  1
  Zr  Zr95  1  0.19917616  0.19624067  0.00477181  1
  Zr  Zr96  1  0.70053564  0.10943654  0.70857302  1
  Zr  Zr97  1  0.29578840  0.70057225  0.50064242  1
  Zr  Zr98  1  0.30543856  0.89679764  0.29900171  1
  Zr  Zr99  1  0.00121768  0.21310636  0.60654914  1
  Ta  Ta100  1  0.19662595  0.80274382  0.20195522  1
  Ta  Ta101  1  0.00134905  0.40327419  -0.01106986  1
  Ta  Ta102  1  0.71183381  0.70344628  0.09671847  1
  Ta  Ta103  1  0.51474933  0.29499891  0.90272877  1
  Ta  Ta104  1  0.41045601  0.19905314  0.00193841  1
  Ta  Ta105  1  0.19109722  0.79818347  0.39907563  1
  Ta  Ta106  1  0.50733900  0.49923959  0.09719278  1
  Ta  Ta107  1  0.60976610  0.59955686  -0.00462116  1
  Ta  Ta108  1  -0.00280813  0.40009114  0.80114404  1
  Ta  Ta109  1  0.69690249  0.29917635  0.89740387  1
  Ta  Ta110  1  0.89758306  0.11188271  0.71028445  1
  Ta  Ta111  1  0.09502381  0.50522639  0.69905981  1
  Ta  Ta112  1  0.81482813  0.00502295  0.19572407  1
  Ta  Ta113  1  0.00771650  0.39646686  0.40645272  1
  Ta  Ta114  1  0.09910187  0.89779495  0.50010303  1
  Ta  Ta115  1  -0.00267808  0.19312411  0.20263989  1
  Ta  Ta116  1  0.40514954  0.40268182  0.19349746  1
  Ta  Ta117  1  0.50886649  0.11460013  0.69643787  1
  Ta  Ta118  1  0.29702785  0.31057522  0.49517088  1
  Ta  Ta119  1  0.10109856  0.50339416  0.31407036  1
  Ta  Ta120  1  0.30617487  0.30698949  0.69378312  1
  Ta  Ta121  1  0.40128374  0.58898810  0.79788883  1
  Ta  Ta122  1  0.29638479  0.90226594  0.49656877  1
  Ta  Ta123  1  0.20084896  0.00253132  0.19303297  1
  Ta  Ta124  1  0.60860878  0.39783519  0.00283856  1
  Ta  Ta125  1  0.49163784  0.09430197  0.29416530  1
  Ta  Ta126  1  0.50919607  0.49098577  0.90258049  1
  Ta  Ta127  1  0.40305425  0.59625014  0.20142159  1
  Ta  Ta128  1  0.09778522  0.50766895  0.50066107  1
  Ta  Ta129  1  0.70557354  0.50428888  0.09517472  1
  Ta  Ta130  1  0.50116756  0.69442328  0.90011312  1
  Ta  Ta131  1  -0.00051259  0.60109904  0.60210053  1
  Ta  Ta132  1  0.60504604  0.78842181  -0.00587673  1
  Ta  Ta133  1  0.50261515  0.10254964  0.10002817  1
  Ta  Ta134  1  0.91343337  0.88815140  0.50067266  1
  Ta  Ta135  1  0.60023574  0.77640409  0.57502580  1
  Ta  Ta136  1  -0.00783347  0.80891320  0.79260902  1
  Ta  Ta137  1  0.70112898  0.50955964  0.30752059  1
  Ta  Ta138  1  -0.00845968  0.21795398  0.80904846  1
  Ta  Ta139  1  0.69940120  0.50073835  0.50756804  1
  Ta  Ta140  1  0.09437983  0.89558291  0.90373962  1
  Ta  Ta141  1  0.39479212  0.00078239  0.19254314  1
  Ta  Ta142  1  0.41689003  0.39066144  0.00591246  1
  Ta  Ta143  1  0.19762516  -0.00367643  0.00961350  1
  Ta  Ta144  1  0.00246646  0.40152355  0.60401221  1
  Ta  Ta145  1  0.30366853  0.09853828  0.09926526  1
  Ta  Ta146  1  0.80371237  0.60531319  0.40417708  1
  Ta  Ta147  1  0.70174174  0.49045258  0.90024515  1
  Ta  Ta148  1  0.29784150  0.09971748  0.29677127  1
  Ta  Ta149  1  0.80191882  0.21308374  0.61553592  1
  Ti  Ti150  1  0.09092655  0.09913463  0.10318941  1
  Ti  Ti151  1  0.80378565  0.60070460  0.19856978  1
  Ti  Ti152  1  0.70046850  0.10503680  0.10498678  1
  Ti  Ti153  1  0.89860527  0.50094615  0.09391712  1
  Ti  Ti154  1  0.19779973  0.80991957  0.00722766  1
  Ti  Ti155  1  0.40375835  0.00424272  0.00027036  1
  Ti  Ti156  1  0.89393187  0.88527403  0.11051748  1
  Ti  Ti157  1  0.39725514  0.20363480  0.60300126  1
  Ti  Ti158  1  0.89778211  0.11062807  0.89421891  1
  Ti  Ti159  1  0.40249621  0.79716765  0.59476973  1
  Ti  Ti160  1  0.59823709  0.79064995  0.80699856  1
  Ti  Ti161  1  0.60552559  0.40471238  0.40407885  1
  Ti  Ti162  1  0.60452505  0.38941712  0.79469825  1
  Ti  Ti163  1  0.69748353  0.49299107  0.69682591  1
  Ti  Ti164  1  0.89949853  0.49562786  0.89693678  1
  Ti  Ti165  1  0.40044770  0.80324793  0.00141679  1
  Ti  Ti166  1  0.91261830  0.69999169  0.50052633  1
  Ti  Ti167  1  0.29985032  0.09889407  0.69443952  1
  Ti  Ti168  1  0.80468512  -0.00366881  0.80245449  1
  Ti  Ti169  1  -0.00486330  0.59914757  0.80375365  1
  Ti  Ti170  1  0.80290022  0.39656860  0.61333214  1
  Ti  Ti171  1  0.50384899  0.89419951  0.90412369  1
  Ti  Ti172  1  0.90357262  0.28824360  0.30096338  1
  Ti  Ti173  1  -0.00671551  0.59558816  -0.00522870  1
  Ti  Ti174  1  0.18820885  0.80700223  0.59543256  1
  Ti  Ti175  1  0.59574550  0.19842032  0.19788611  1
  Ti  Ti176  1  0.09988013  0.10399848  0.29661696  1
  Ti  Ti177  1  0.18996646  0.80696066  0.79767339  1
  Ti  Ti178  1  0.90597862  0.49627657  0.70158269  1
  Ti  Ti179  1  0.69989515  0.29329749  0.09723842  1
  Ti  Ti180  1  0.00729913  0.79001410  0.39429504  1
  Ti  Ti181  1  0.59819754  0.00334061  0.19512599  1
  Ti  Ti182  1  0.51162187  0.29628302  0.09665961  1
  Ti  Ti183  1  0.90839997  0.69882815  0.29300086  1
  Ti  Ti184  1  0.90409221  0.70533593  0.70175266  1
  Ti  Ti185  1  0.39032682  0.59154601  0.60649204  1
  Ti  Ti186  1  0.90239296  0.10661381  0.10300760  1
  Ti  Ti187  1  0.19213377  0.59848188  0.19966309  1
  Ti  Ti188  1  0.09933140  0.30511202  0.70351482  1
  Ti  Ti189  1  0.90780817  0.89369191  0.28678564  1
  Ti  Ti190  1  0.29590741  0.30437037  0.09569232  1
  Ti  Ti191  1  0.18769467  0.60970723  0.40047798  1
  Ti  Ti192  1  0.50826720  0.88571015  0.69301463  1
  Ti  Ti193  1  0.80399500  0.19804562  0.39696363  1
  Ti  Ti194  1  0.09415406  0.69851022  0.50262381  1
  Ti  Ti195  1  0.80448719  0.39406155  0.79803825  1
  Ti  Ti196  1  0.80073200  0.21376832  0.80166884  1
  Ti  Ti197  1  0.80043405  0.39884655  -0.00516241  1
  Ti  Ti198  1  0.20081587  0.19428191  0.19637805  1
  Ti  Ti199  1  0.81260681  0.79771851  0.60038480  1
  Mo  Mo200  1  0.89338353  0.89154466  0.69722211  1
  Mo  Mo201  1  0.19051711  0.59814406  0.59906092  1
  Mo  Mo202  1  0.80511994  0.19670313  0.19421669  1
  Mo  Mo203  1  0.89744183  0.30929688  0.70377286  1
  Mo  Mo204  1  0.80633125  0.79704512  0.20018476  1
  Mo  Mo205  1  0.10267268  0.30858704  0.49860935  1
  Mo  Mo206  1  0.08714300  0.50177680  0.89381416  1
  Mo  Mo207  1  0.30027708  0.49774075  0.70005179  1
  Mo  Mo208  1  0.38317723  0.80067159  0.40450994  1
  Mo  Mo209  1  0.80756348  0.79167286  0.79962454  1
  Mo  Mo210  1  0.40086478  0.60407688  0.40208950  1
  Mo  Mo211  1  0.89193111  0.69683332  0.11384064  1
  Mo  Mo212  1  0.60289871  0.21100934  0.61340708  1
  Mo  Mo213  1  0.39766876  0.40144619  0.40313902  1
  Mo  Mo214  1  0.70550975  0.10416378  0.89240851  1
  Mo  Mo215  1  0.69968416  0.69717992  0.89864695  1
  Mo  Mo216  1  0.47884325  0.69711900  0.50492554  1
  Mo  Mo217  1  0.79809862  0.79400345  -0.00108761  1
  Mo  Mo218  1  -0.00544268  0.79163576  0.20536345  1
  Mo  Mo219  1  0.61174911  0.80046554  0.40303503  1
  Mo  Mo220  1  0.09199357  0.49586730  0.09249151  1
  Mo  Mo221  1  0.39561451  0.00222744  0.39498668  1
  Mo  Mo222  1  0.89159596  0.30896078  0.90005481  1
  Mo  Mo223  1  0.50588611  0.10629096  0.90578024  1
  Mo  Mo224  1  0.60452412  0.20205762  0.80836716  1
  Mo  Mo225  1  0.10438436  0.69909275  0.30266533  1
  Mo  Mo226  1  0.38990683  0.39967492  0.60339261  1
  Mo  Mo227  1  -0.00060259  0.20401232  0.39366921  1
  Mo  Mo228  1  -0.00709067  0.19864879  -0.00105457  1
  Mo  Mo229  1  0.89953358  0.10787727  0.29333871  1
  Mo  Mo230  1  0.00057771  0.60599925  0.40592022  1
  Mo  Mo231  1  0.60343450  0.20187228  0.00432411  1
  Mo  Mo232  1  -0.00120211  0.79519537  0.59581334  1
  Mo  Mo233  1  0.39423440  0.79889527  0.19456034  1
  Mo  Mo234  1  0.20241820  -0.00150130  0.59226701  1
  Mo  Mo235  1  0.19283646  0.40415919  0.40651267  1
  Mo  Mo236  1  0.29926698  0.09755413  0.50058931  1
  Mo  Mo237  1  0.72516288  0.70080404  0.50347353  1
  Mo  Mo238  1  0.70223869  0.30635458  0.70821542  1
  Mo  Mo239  1  -0.00591217  0.00975991  0.19911059  1
  Mo  Mo240  1  0.61303899  0.40106351  0.60772870  1
  Mo  Mo241  1  0.18324599  0.39873529  -0.00020953  1
  Mo  Mo242  1  0.50453136  0.29579822  0.69985077  1
  Mo  Mo243  1  0.29775935  0.90537342  0.09946090  1
  Mo  Mo244  1  0.20074012  0.19724717  0.39901828  1
  Mo  Mo245  1  0.09784964  0.89390775  0.69637107  1
  Mo  Mo246  1  0.09041898  0.30290257  0.90187726  1
  Mo  Mo247  1  0.89110358  0.89276338  0.89083534  1
  Mo  Mo248  1  0.60782503  0.59739912  0.60246765  1
  Mo  Mo249  1  0.89924645  0.69576395  0.88145707  1
