# generated using pymatgen
data_HfZrTaTiMo
_symmetry_space_group_name_H-M   'P 1'
_cell_length_a   16.88370457
_cell_length_b   16.89760041
_cell_length_c   16.88594442
_cell_angle_alpha   90.00199720
_cell_angle_beta   89.99339127
_cell_angle_gamma   89.98058168
_symmetry_Int_Tables_number   1
_chemical_formula_structural   HfZrTaTiMo
_chemical_formula_sum   'Hf50 Zr50 Ta50 Ti50 Mo50'
_cell_volume   4817.45989115
_cell_formula_units_Z   50
loop_
 _symmetry_equiv_pos_site_id
 _symmetry_equiv_pos_as_xyz
  1  'x, y, z'
loop_
 _atom_site_type_symbol
 _atom_site_label
 _atom_site_symmetry_multiplicity
 _atom_site_fract_x
 _atom_site_fract_y
 _atom_site_fract_z
 _atom_site_occupancy
  Hf  Hf0  1  0.79567139  0.00018440  -0.00057820  1
  Hf  Hf1  1  0.80527974  -0.00101240  0.19251307  1
  Hf  Hf2  1  0.89966224  0.48722919  0.10165737  1
  Hf  Hf3  1  0.49624533  0.49889130  0.30433391  1
  Hf  Hf4  1  0.38951777  0.60353836  0.80265677  1
  Hf  Hf5  1  0.68931242  0.09853507  0.69660798  1
  Hf  Hf6  1  0.10229899  0.29799618  0.49011290  1
  Hf  Hf7  1  0.20649713  0.39900392  0.79932724  1
  Hf  Hf8  1  0.49607581  0.90872997  0.70390624  1
  Hf  Hf9  1  0.01247802  0.59210755  0.60262241  1
  Hf  Hf10  1  0.60629789  -0.00825003  0.40893487  1
  Hf  Hf11  1  0.92438606  0.10379264  0.09835542  1
  Hf  Hf12  1  0.79248341  -0.00450238  0.59125644  1
  Hf  Hf13  1  0.30512377  0.28559531  0.69393577  1
  Hf  Hf14  1  0.48614517  0.70417423  0.68625135  1
  Hf  Hf15  1  0.30026524  0.90611893  0.29134463  1
  Hf  Hf16  1  0.69750611  0.09742358  0.29612611  1
  Hf  Hf17  1  0.10721944  0.90157216  0.50451650  1
  Hf  Hf18  1  0.68863387  0.90801987  0.70224529  1
  Hf  Hf19  1  0.09657983  0.09922284  0.90642638  1
  Hf  Hf20  1  0.70019726  0.70729523  0.90744766  1
  Hf  Hf21  1  0.78993620  0.19209628  0.00203333  1
  Hf  Hf22  1  0.11290493  0.90560772  0.70955228  1
  Hf  Hf23  1  0.60084103  0.80085193  0.59105109  1
  Hf  Hf24  1  0.89269355  0.09611486  0.69787668  1
  Hf  Hf25  1  0.49477275  0.90235669  0.50780535  1
  Hf  Hf26  1  0.80036388  0.80499070  0.59464475  1
  Hf  Hf27  1  0.49119282  0.70870426  0.90867331  1
  Hf  Hf28  1  0.20444241  0.00600460  0.40020079  1
  Hf  Hf29  1  0.50006451  0.69606803  0.30973264  1
  Hf  Hf30  1  0.89606495  0.70449032  0.90947058  1
  Hf  Hf31  1  0.59695365  0.19308833  0.80948883  1
  Hf  Hf32  1  0.79932717  -0.00362023  0.39856460  1
  Hf  Hf33  1  0.40125787  0.80098411  0.19974140  1
  Hf  Hf34  1  0.79444724  0.57606021  -0.00751970  1
  Hf  Hf35  1  0.31755339  0.49675234  0.08422989  1
  Hf  Hf36  1  0.19433551  0.79794664  -0.00800068  1
  Hf  Hf37  1  0.59532011  0.80008208  0.19632606  1
  Hf  Hf38  1  0.69848170  0.69958193  0.70328224  1
  Hf  Hf39  1  0.10101123  0.29233993  0.90400632  1
  Hf  Hf40  1  0.00711534  0.79513436  0.60795300  1
  Hf  Hf41  1  0.90661213  0.09978599  0.90441325  1
  Hf  Hf42  1  0.00188315  0.40425406  0.59885072  1
  Hf  Hf43  1  0.40020978  0.39149787  0.19903232  1
  Hf  Hf44  1  0.49652617  0.10072173  0.50871056  1
  Hf  Hf45  1  0.10863608  0.29097095  0.69481774  1
  Hf  Hf46  1  0.89846945  0.30210589  0.91112096  1
  Hf  Hf47  1  0.58834732  0.20567869  0.19992166  1
  Hf  Hf48  1  0.00064076  0.19738935  0.59919965  1
  Hf  Hf49  1  0.29980191  0.90587854  0.89603709  1
  Zr  Zr50  1  0.39946872  0.80233715  0.40794325  1
  Zr  Zr51  1  0.19890744  0.59999064  -0.00647607  1
  Zr  Zr52  1  0.19194200  0.41505095  0.60108759  1
  Zr  Zr53  1  0.89591620  0.69472621  0.69784252  1
  Zr  Zr54  1  0.91393764  0.10604360  0.29535822  1
  Zr  Zr55  1  0.59790397  0.00509290  -0.00796046  1
  Zr  Zr56  1  0.49126687  0.29476837  0.90373452  1
  Zr  Zr57  1  0.90810712  0.10443330  0.49333105  1
  Zr  Zr58  1  0.39791101  0.20507616  0.39575714  1
  Zr  Zr59  1  -0.00208680  0.40425406  0.79535152  1
  Zr  Zr60  1  0.70678468  0.70320784  0.28947964  1
  Zr  Zr61  1  0.60283901  0.59778426  0.80746512  1
  Zr  Zr62  1  0.60867721  0.59986430  0.40286759  1
  Zr  Zr63  1  0.20025579  0.00617654  0.01191090  1
  Zr  Zr64  1  0.91174161  0.89615806  0.49729222  1
  Zr  Zr65  1  0.90567416  0.29946099  0.10359088  1
  Zr  Zr66  1  0.70010317  0.70141536  0.09434389  1
  Zr  Zr67  1  0.70489337  0.31259543  0.50418006  1
  Zr  Zr68  1  0.21685289  0.79759380  0.61037773  1
  Zr  Zr69  1  0.48982819  0.49525799  0.91831724  1
  Zr  Zr70  1  0.09660129  0.69782454  0.10629796  1
  Zr  Zr71  1  0.50160738  0.49691471  0.69966883  1
  Zr  Zr72  1  0.40212689  0.59759022  0.19965465  1
  Zr  Zr73  1  0.20756496  0.80365926  0.39957340  1
  Zr  Zr74  1  0.49216778  0.90160634  0.08828646  1
  Zr  Zr75  1  -0.00036535  0.59661062  -0.00078341  1
  Zr  Zr76  1  0.29681046  0.30334436  0.49529509  1
  Zr  Zr77  1  0.01301322  -0.00554006  0.38892599  1
  Zr  Zr78  1  0.79804006  0.20475221  0.20404225  1
  Zr  Zr79  1  0.60090409  0.20796150  0.40180376  1
  Zr  Zr80  1  0.10322081  0.49559224  0.90091780  1
  Zr  Zr81  1  0.10169727  0.69888356  0.29680415  1
  Zr  Zr82  1  0.20344273  0.39306848  0.19820245  1
  Zr  Zr83  1  0.89284156  0.49715005  0.49868729  1
  Zr  Zr84  1  0.88904655  0.70488828  0.10722680  1
  Zr  Zr85  1  0.20179993  0.58483568  0.20033649  1
  Zr  Zr86  1  0.30543151  0.70548101  0.09244097  1
  Zr  Zr87  1  0.49022115  0.50890123  0.49916267  1
  Zr  Zr88  1  0.80335711  0.59481699  0.39179563  1
  Zr  Zr89  1  0.10665369  0.69489815  0.49670016  1
  Zr  Zr90  1  0.79861378  0.81269712  0.80517506  1
  Zr  Zr91  1  0.49817792  0.09474879  0.29769186  1
  Zr  Zr92  1  0.59448752  0.21123953  0.59889897  1
  Zr  Zr93  1  0.00829569  0.79260650  0.80491944  1
  Zr  Zr94  1  0.10117150  0.90896787  0.89721828  1
  Zr  Zr95  1  0.68947164  0.30464601  0.91293416  1
  Zr  Zr96  1  0.79465891  0.41020860  0.81327432  1
  Zr  Zr97  1  -0.00274494  0.19881476  0.79314791  1
  Zr  Zr98  1  0.29941106  0.49915855  0.49408430  1
  Zr  Zr99  1  0.32322129  0.68585191  0.51359592  1
  Ta  Ta100  1  0.29995338  0.11060574  0.50797582  1
  Ta  Ta101  1  0.00057009  0.80991653  0.19814525  1
  Ta  Ta102  1  0.80093757  0.59146164  0.80718155  1
  Ta  Ta103  1  0.88779347  0.30172887  0.69610555  1
  Ta  Ta104  1  0.50140094  0.90395299  0.30195028  1
  Ta  Ta105  1  0.59623354  0.39985340  0.40398389  1
  Ta  Ta106  1  0.00062194  0.59309703  0.39360593  1
  Ta  Ta107  1  0.00346127  0.40249067  0.39662476  1
  Ta  Ta108  1  0.80193473  0.80043047  0.39699674  1
  Ta  Ta109  1  0.20776793  0.18977541  0.80047190  1
  Ta  Ta110  1  0.20670471  0.19848065  0.00335578  1
  Ta  Ta111  1  0.38600818  0.79741323  0.79619122  1
  Ta  Ta112  1  0.80176286  0.20566115  0.40007235  1
  Ta  Ta113  1  0.79280681  0.00460285  0.80913801  1
  Ta  Ta114  1  0.20224250  0.19862317  0.38834287  1
  Ta  Ta115  1  0.19732328  0.60682092  0.79683241  1
  Ta  Ta116  1  0.39191558  0.00130528  0.40318255  1
  Ta  Ta117  1  0.40116246  0.00393894  0.19378591  1
  Ta  Ta118  1  0.90323732  0.69720409  0.49267875  1
  Ta  Ta119  1  0.68455841  0.10115991  0.10110454  1
  Ta  Ta120  1  0.60165697  0.60417554  0.59458805  1
  Ta  Ta121  1  0.79245025  0.19993542  0.80009663  1
  Ta  Ta122  1  0.59671320  0.40071715  0.80234141  1
  Ta  Ta123  1  0.89981115  0.89305182  0.29203267  1
  Ta  Ta124  1  0.20658420  0.19824417  0.19530228  1
  Ta  Ta125  1  0.69020133  0.30128346  0.09837467  1
  Ta  Ta126  1  0.79639188  0.58437923  0.19786897  1
  Ta  Ta127  1  0.09979647  0.29146042  0.09822228  1
  Ta  Ta128  1  0.39449712  0.39206081  0.80120244  1
  Ta  Ta129  1  0.90280680  0.49060791  0.29293071  1
  Ta  Ta130  1  0.69599449  0.30682233  0.70249507  1
  Ta  Ta131  1  0.30331255  0.49532389  0.90178750  1
  Ta  Ta132  1  0.90060815  0.30084740  0.49619024  1
  Ta  Ta133  1  0.70813804  0.69954518  0.49872250  1
  Ta  Ta134  1  0.20449885  0.39143175  0.00210629  1
  Ta  Ta135  1  0.59476987  0.39949367  0.19965713  1
  Ta  Ta136  1  0.70521821  0.89469190  0.09964836  1
  Ta  Ta137  1  0.70141901  0.89596677  0.29266533  1
  Ta  Ta138  1  0.89584791  0.50224580  0.70149061  1
  Ta  Ta139  1  0.49907361  0.30212162  0.09087777  1
  Ta  Ta140  1  0.20463371  0.01126253  0.60613742  1
  Ta  Ta141  1  0.49963912  0.69492875  0.08813201  1
  Ta  Ta142  1  0.90366035  0.90715286  0.90650572  1
  Ta  Ta143  1  0.49810126  0.29928464  0.70273695  1
  Ta  Ta144  1  0.00237275  0.59982307  0.80118448  1
  Ta  Ta145  1  0.10089785  0.10699835  0.28965755  1
  Ta  Ta146  1  0.40539801  0.39296414  0.59944629  1
  Ta  Ta147  1  0.38950980  0.00363203  0.60381646  1
  Ta  Ta148  1  0.00021499  0.81136047  0.00885971  1
  Ta  Ta149  1  0.79753942  0.20301283  0.59972544  1
  Ti  Ti150  1  0.29898539  0.90674612  0.70818495  1
  Ti  Ti151  1  0.30024156  0.69493924  0.30251236  1
  Ti  Ti152  1  0.39337472  0.01295998  0.79698466  1
  Ti  Ti153  1  0.91177110  0.29964767  0.30456217  1
  Ti  Ti154  1  0.00692505  0.40218355  0.00281647  1
  Ti  Ti155  1  0.30507586  0.10289510  0.89913636  1
  Ti  Ti156  1  0.30978266  0.09841094  0.09959917  1
  Ti  Ti157  1  0.00999224  0.00527681  0.60594667  1
  Ti  Ti158  1  0.48408932  0.90225171  0.89843572  1
  Ti  Ti159  1  0.19658293  0.00324755  0.19567809  1
  Ti  Ti160  1  0.00304097  0.79736698  0.38976445  1
  Ti  Ti161  1  0.49407414  0.30807594  0.30729197  1
  Ti  Ti162  1  0.30517207  0.50100521  0.69732277  1
  Ti  Ti163  1  0.60151272  0.81316726  -0.00618411  1
  Ti  Ti164  1  0.79862730  0.40250849  0.60669991  1
  Ti  Ti165  1  0.01527118  -0.01133197  0.19112210  1
  Ti  Ti166  1  0.48648603  0.10005745  0.90656151  1
  Ti  Ti167  1  0.69649933  0.30551563  0.30035701  1
  Ti  Ti168  1  0.49039992  0.10518999  0.69884089  1
  Ti  Ti169  1  0.60045643  0.59014894  0.19061807  1
  Ti  Ti170  1  0.10195273  0.29454043  0.29974578  1
  Ti  Ti171  1  0.60541886  0.80138257  0.40381922  1
  Ti  Ti172  1  0.30036974  0.10106677  0.29288562  1
  Ti  Ti173  1  0.30561555  0.29482528  0.09249585  1
  Ti  Ti174  1  0.69291481  0.48368227  0.09490230  1
  Ti  Ti175  1  0.69732990  0.49624326  0.50739836  1
  Ti  Ti176  1  0.19040867  0.81470323  0.19560184  1
  Ti  Ti177  1  0.19772704  0.59911492  0.61286607  1
  Ti  Ti178  1  -0.00061594  0.00294510  0.79404138  1
  Ti  Ti179  1  0.69683826  0.49842340  0.69675330  1
  Ti  Ti180  1  0.69801922  0.49089518  0.29607473  1
  Ti  Ti181  1  0.00056687  0.58824239  0.20234632  1
  Ti  Ti182  1  0.80180120  0.39673523  0.39161256  1
  Ti  Ti183  1  0.30366260  0.90123178  0.09428242  1
  Ti  Ti184  1  0.79269335  0.39623227  0.20140792  1
  Ti  Ti185  1  0.90164975  0.90683609  0.70341456  1
  Ti  Ti186  1  0.59346793  0.80651803  0.80710895  1
  Ti  Ti187  1  0.90171784  0.69806593  0.29417060  1
  Ti  Ti188  1  0.59802600  0.00378066  0.81364483  1
  Ti  Ti189  1  0.79582166  0.59854184  0.60019924  1
  Ti  Ti190  1  0.59857084  0.59052385  0.00514386  1
  Ti  Ti191  1  0.30582523  0.48645836  0.31377792  1
  Ti  Ti192  1  0.20045013  0.59283348  0.39625843  1
  Ti  Ti193  1  0.10231333  0.49293728  0.30458927  1
  Ti  Ti194  1  0.39896696  0.20062302  0.19774797  1
  Ti  Ti195  1  0.69776491  0.10383142  0.50290675  1
  Ti  Ti196  1  0.59425857  -0.00432877  0.19381394  1
  Ti  Ti197  1  0.39655146  0.19549554  0.00205055  1
  Ti  Ti198  1  0.10510803  0.10814980  0.49754531  1
  Ti  Ti199  1  0.01153021  0.39818887  0.20212998  1
  Mo  Mo200  1  0.69671246  0.10116605  0.89759119  1
  Mo  Mo201  1  0.09619811  0.48406605  0.10382876  1
  Mo  Mo202  1  0.29876978  0.29400657  0.29519223  1
  Mo  Mo203  1  0.80470674  0.80419381  0.20087031  1
  Mo  Mo204  1  0.39267890  0.60142500  0.39334116  1
  Mo  Mo205  1  0.39505261  0.00785224  -0.00196727  1
  Mo  Mo206  1  0.29999883  0.69516933  0.70110820  1
  Mo  Mo207  1  0.39834786  0.81639419  0.60879549  1
  Mo  Mo208  1  0.19747220  0.18981114  0.59519097  1
  Mo  Mo209  1  0.68777369  0.49863617  0.90383253  1
  Mo  Mo210  1  0.01394675  0.20985025  0.20344054  1
  Mo  Mo211  1  0.40035586  0.58688017  0.60895254  1
  Mo  Mo212  1  0.50514788  0.49774271  0.10291345  1
  Mo  Mo213  1  0.10244271  0.90242267  0.29281811  1
  Mo  Mo214  1  0.69919144  0.89250397  0.49066274  1
  Mo  Mo215  1  0.29641603  0.70121846  0.89577296  1
  Mo  Mo216  1  0.49247207  0.10625595  0.09813439  1
  Mo  Mo217  1  0.79201337  0.39591409  0.00873846  1
  Mo  Mo218  1  0.40105613  0.20027573  0.60202019  1
  Mo  Mo219  1  0.39347810  0.38624286  -0.00066244  1
  Mo  Mo220  1  0.39915041  0.60840898  -0.00360620  1
  Mo  Mo221  1  0.20765614  0.01681364  0.79743870  1
  Mo  Mo222  1  0.40177739  0.39602259  0.39880274  1
  Mo  Mo223  1  0.39495035  0.80554502  -0.00647561  1
  Mo  Mo224  1  0.30336252  0.10145058  0.70147191  1
  Mo  Mo225  1  0.00217997  -0.00359830  0.00763092  1
  Mo  Mo226  1  0.40038971  0.19415457  0.80057462  1
  Mo  Mo227  1  0.10198646  0.90119407  0.10001032  1
  Mo  Mo228  1  0.19682466  0.39788900  0.38880082  1
  Mo  Mo229  1  0.29853007  0.29293066  0.90045850  1
  Mo  Mo230  1  0.09662850  0.70073069  0.89759403  1
  Mo  Mo231  1  0.10754793  0.10289698  0.10626398  1
  Mo  Mo232  1  0.80244430  0.81500985  0.00310377  1
  Mo  Mo233  1  0.59449635  0.00601451  0.59995595  1
  Mo  Mo234  1  0.00963474  0.20137965  0.00349079  1
  Mo  Mo235  1  0.90421570  0.90381073  0.09864147  1
  Mo  Mo236  1  0.10235256  0.50140646  0.48204072  1
  Mo  Mo237  1  0.90426200  0.49790286  0.89878792  1
  Mo  Mo238  1  0.69752503  0.90147763  0.90065479  1
  Mo  Mo239  1  0.60165527  0.40641079  0.60486648  1
  Mo  Mo240  1  0.20608222  0.78549976  0.80178069  1
  Mo  Mo241  1  0.59365573  0.40129368  0.00737186  1
  Mo  Mo242  1  0.50753401  0.70084340  0.50203173  1
  Mo  Mo243  1  0.10484576  0.09569863  0.70142744  1
  Mo  Mo244  1  0.00508548  0.20811812  0.39546935  1
  Mo  Mo245  1  0.30084844  0.91543654  0.50695259  1
  Mo  Mo246  1  0.49792778  0.31190500  0.50314424  1
  Mo  Mo247  1  0.59091426  0.19458582  0.00662231  1
  Mo  Mo248  1  0.10667471  0.69635082  0.70398433  1
  Mo  Mo249  1  0.09943341  0.50500791  0.70762733  1
