# generated using pymatgen
data_HfZrTaTiMo
_symmetry_space_group_name_H-M   'P 1'
_cell_length_a   16.88331159
_cell_length_b   16.89459163
_cell_length_c   16.88572397
_cell_angle_alpha   89.99795907
_cell_angle_beta   90.02770929
_cell_angle_gamma   89.99730641
_symmetry_Int_Tables_number   1
_chemical_formula_structural   HfZrTaTiMo
_chemical_formula_sum   'Hf50 Zr50 Ta50 Ti50 Mo50'
_cell_volume   4816.42684502
_cell_formula_units_Z   50
loop_
 _symmetry_equiv_pos_site_id
 _symmetry_equiv_pos_as_xyz
  1  'x, y, z'
loop_
 _atom_site_type_symbol
 _atom_site_label
 _atom_site_symmetry_multiplicity
 _atom_site_fract_x
 _atom_site_fract_y
 _atom_site_fract_z
 _atom_site_occupancy
  Hf  Hf0  1  0.40141676  -0.00833418  0.60910469  1
  Hf  Hf1  1  0.50462932  0.09557792  0.10921611  1
  Hf  Hf2  1  -0.00109038  0.19530269  0.80897669  1
  Hf  Hf3  1  0.70708865  0.29064142  0.09756346  1
  Hf  Hf4  1  0.00139436  0.79772934  0.79750407  1
  Hf  Hf5  1  0.89520523  0.09780694  0.70026411  1
  Hf  Hf6  1  0.30001746  0.49458284  0.49188020  1
  Hf  Hf7  1  0.19465199  0.20426726  0.20548821  1
  Hf  Hf8  1  0.60598202  0.39390220  0.40316084  1
  Hf  Hf9  1  0.39149077  0.20092569  0.80140767  1
  Hf  Hf10  1  0.50548804  0.30153955  0.90187566  1
  Hf  Hf11  1  0.39064043  0.61024540  0.80833926  1
  Hf  Hf12  1  0.70355679  0.50167981  0.50436903  1
  Hf  Hf13  1  0.59235593  0.60106098  0.60165008  1
  Hf  Hf14  1  0.89857031  0.30218253  0.70280374  1
  Hf  Hf15  1  0.49268297  0.71032063  0.50308631  1
  Hf  Hf16  1  0.70287877  0.49900546  0.30101187  1
  Hf  Hf17  1  0.50087295  0.90299801  0.49084636  1
  Hf  Hf18  1  0.51107358  0.10533327  0.49534842  1
  Hf  Hf19  1  0.09923069  0.49369922  0.70011552  1
  Hf  Hf20  1  0.78815937  0.38779851  0.60178483  1
  Hf  Hf21  1  0.00250224  0.39427141  0.00026309  1
  Hf  Hf22  1  -0.00438385  -0.00836267  0.59164601  1
  Hf  Hf23  1  0.19073103  0.60986275  0.19706492  1
  Hf  Hf24  1  0.80890891  0.39555102  0.19858528  1
  Hf  Hf25  1  0.39505763  -0.00705664  0.00003750  1
  Hf  Hf26  1  0.20022456  0.20616275  0.39459392  1
  Hf  Hf27  1  0.30516450  0.70096915  0.09633099  1
  Hf  Hf28  1  0.50222464  0.29318887  0.09824654  1
  Hf  Hf29  1  0.80045811  0.60291082  0.19459737  1
  Hf  Hf30  1  0.09753578  0.09019428  0.49249619  1
  Hf  Hf31  1  0.89519144  0.49383196  0.89129253  1
  Hf  Hf32  1  0.29560002  0.50780003  0.09346212  1
  Hf  Hf33  1  0.28792855  0.50348804  0.70854664  1
  Hf  Hf34  1  0.80609465  0.80285798  0.39963293  1
  Hf  Hf35  1  -0.00495821  0.20091765  0.38512470  1
  Hf  Hf36  1  0.71147210  0.10743690  0.49382471  1
  Hf  Hf37  1  0.69732289  0.50264371  0.70412999  1
  Hf  Hf38  1  0.62798000  0.20505155  0.62198462  1
  Hf  Hf39  1  0.80501110  -0.00006825  0.59458807  1
  Hf  Hf40  1  0.09087731  0.49443359  0.29760178  1
  Hf  Hf41  1  0.09180158  0.30513019  0.69542049  1
  Hf  Hf42  1  0.30343472  0.50290481  0.29362393  1
  Hf  Hf43  1  0.40045824  0.80978071  0.20058685  1
  Hf  Hf44  1  0.20160205  0.60864643  0.59026188  1
  Hf  Hf45  1  0.09756786  0.89672856  0.09672175  1
  Hf  Hf46  1  0.39801751  0.19427246  0.60406435  1
  Hf  Hf47  1  -0.00245863  0.60127708  0.59945421  1
  Hf  Hf48  1  0.20078814  0.79607474  0.80462452  1
  Hf  Hf49  1  0.00542875  0.59774739  -0.00443868  1
  Zr  Zr50  1  -0.00020537  0.78747313  -0.01495924  1
  Zr  Zr51  1  0.51052888  0.29697882  0.50558810  1
  Zr  Zr52  1  0.39887579  0.19253756  0.39128853  1
  Zr  Zr53  1  0.61127376  0.60758275  0.19736388  1
  Zr  Zr54  1  0.29567135  0.09433319  0.10928190  1
  Zr  Zr55  1  0.78117598  0.19694791  0.79175576  1
  Zr  Zr56  1  0.10066656  0.08735399  0.29887262  1
  Zr  Zr57  1  0.20560761  -0.01316112  0.79970879  1
  Zr  Zr58  1  0.60490634  0.60726418  0.40155487  1
  Zr  Zr59  1  0.19232641  0.61087722  0.39496249  1
  Zr  Zr60  1  0.19309383  0.39227481  -0.00975178  1
  Zr  Zr61  1  0.49840992  0.50106050  0.71076531  1
  Zr  Zr62  1  0.80660690  0.79422688  0.80641902  1
  Zr  Zr63  1  0.29862484  0.08536532  0.49248135  1
  Zr  Zr64  1  0.60917779  0.79710465  0.39026832  1
  Zr  Zr65  1  0.79651760  0.79090350  0.00306749  1
  Zr  Zr66  1  0.29064925  0.31104052  0.70304900  1
  Zr  Zr67  1  0.60188193  -0.00030532  0.60524298  1
  Zr  Zr68  1  0.89748269  0.28770453  0.50562747  1
  Zr  Zr69  1  0.60365469  0.00348091  0.00278235  1
  Zr  Zr70  1  0.60792730  0.60597066  0.00871240  1
  Zr  Zr71  1  -0.00125375  0.61011372  0.80239110  1
  Zr  Zr72  1  0.50797737  0.30359657  0.70911907  1
  Zr  Zr73  1  0.88488402  0.69946989  0.68375101  1
  Zr  Zr74  1  0.50442291  0.09883173  0.89388686  1
  Zr  Zr75  1  0.60384175  0.40884676  0.01045120  1
  Zr  Zr76  1  0.90230801  0.90222813  0.09726395  1
  Zr  Zr77  1  0.40170880  0.40471503  0.59861342  1
  Zr  Zr78  1  0.80054811  0.37954027  0.39433514  1
  Zr  Zr79  1  0.39526779  0.60814782  0.40600118  1
  Zr  Zr80  1  0.70346585  0.91171742  0.90048754  1
  Zr  Zr81  1  0.80016380  0.79661995  0.20637096  1
  Zr  Zr82  1  0.39080287  0.81120791  0.80256646  1
  Zr  Zr83  1  0.29665810  0.30011517  0.10236836  1
  Zr  Zr84  1  0.81449795  0.20486622  0.21184894  1
  Zr  Zr85  1  0.19496908  0.20616906  0.80833018  1
  Zr  Zr86  1  0.48506753  0.51441199  0.10377903  1
  Zr  Zr87  1  0.40149993  0.39688247  0.19759783  1
  Zr  Zr88  1  0.89970380  0.91755739  0.90034388  1
  Zr  Zr89  1  0.38933381  0.19989145  -0.00272273  1
  Zr  Zr90  1  0.50278039  0.29748586  0.30398713  1
  Zr  Zr91  1  0.91145165  0.49997943  0.30634388  1
  Zr  Zr92  1  0.80339768  0.40527520  0.00882003  1
  Zr  Zr93  1  0.59655352  0.80688644  0.60464476  1
  Zr  Zr94  1  0.60666207  0.19263685  0.20867785  1
  Zr  Zr95  1  0.49264381  0.69778024  0.28845653  1
  Zr  Zr96  1  0.20233057  0.19804205  0.59614724  1
  Zr  Zr97  1  0.08766349  0.30625807  0.49994802  1
  Zr  Zr98  1  0.59488794  0.80400706  0.79936632  1
  Zr  Zr99  1  0.08617446  0.49698233  0.49192603  1
  Ta  Ta100  1  0.69476962  0.69223193  0.89585869  1
  Ta  Ta101  1  0.19952577  -0.01006925  0.60057208  1
  Ta  Ta102  1  0.70971787  0.90127512  0.70401893  1
  Ta  Ta103  1  0.09825658  0.90407243  0.90283601  1
  Ta  Ta104  1  0.10058977  0.09305188  0.69912265  1
  Ta  Ta105  1  0.70704775  0.09581925  0.30426940  1
  Ta  Ta106  1  0.69951661  0.90586852  0.10688138  1
  Ta  Ta107  1  0.09211184  0.70887169  0.49612189  1
  Ta  Ta108  1  0.69759023  0.69641582  0.70021006  1
  Ta  Ta109  1  0.91145532  0.69773157  0.30367660  1
  Ta  Ta110  1  0.39218872  0.80816150  0.39440512  1
  Ta  Ta111  1  0.49885920  0.70045383  0.90659128  1
  Ta  Ta112  1  0.71422592  0.09715493  0.09924368  1
  Ta  Ta113  1  0.29223988  0.09485307  0.89992884  1
  Ta  Ta114  1  0.71589060  0.70383445  0.51692017  1
  Ta  Ta115  1  0.80141333  0.60920063  0.40012268  1
  Ta  Ta116  1  0.79730203  0.59926193  0.80042226  1
  Ta  Ta117  1  0.19979849  0.80073967  0.40114769  1
  Ta  Ta118  1  0.29060656  0.90416298  0.29856043  1
  Ta  Ta119  1  0.89813251  0.49828317  0.50047289  1
  Ta  Ta120  1  -0.00121055  0.80578946  0.59583788  1
  Ta  Ta121  1  0.29690974  0.09210768  0.70409699  1
  Ta  Ta122  1  0.49658875  0.49855512  0.30300722  1
  Ta  Ta123  1  0.19810089  0.80406338  0.59497377  1
  Ta  Ta124  1  0.19719775  0.39330112  0.39061086  1
  Ta  Ta125  1  0.50215375  0.89959064  0.90362511  1
  Ta  Ta126  1  0.89112964  0.29561204  0.90167800  1
  Ta  Ta127  1  0.29655346  0.70348220  0.69571019  1
  Ta  Ta128  1  0.80571639  0.00158195  0.20260570  1
  Ta  Ta129  1  0.50630211  0.89762507  0.10298074  1
  Ta  Ta130  1  -0.00304092  -0.00000485  0.19904278  1
  Ta  Ta131  1  0.90830228  0.69633032  0.10289863  1
  Ta  Ta132  1  0.50659481  0.09757323  0.71110245  1
  Ta  Ta133  1  0.70320055  0.91024354  0.29884637  1
  Ta  Ta134  1  0.18758091  0.19784975  -0.00264176  1
  Ta  Ta135  1  0.19687039  -0.00093839  0.00119789  1
  Ta  Ta136  1  0.90041705  0.10278632  0.09749597  1
  Ta  Ta137  1  0.69829872  0.50283983  0.89589810  1
  Ta  Ta138  1  0.19556735  0.61053831  -0.01268678  1
  Ta  Ta139  1  0.49309128  0.70158331  0.70419901  1
  Ta  Ta140  1  -0.00207368  0.20044215  -0.00073390  1
  Ta  Ta141  1  0.70589017  0.90239648  0.49620296  1
  Ta  Ta142  1  0.29422121  0.89714993  0.10381850  1
  Ta  Ta143  1  0.80055640  0.59933201  0.00419401  1
  Ta  Ta144  1  0.09648359  0.09270131  0.90235854  1
  Ta  Ta145  1  0.70165200  0.30183990  0.89859816  1
  Ta  Ta146  1  0.90091263  0.70070236  0.49894529  1
  Ta  Ta147  1  0.39485901  0.60720732  0.60049012  1
  Ta  Ta148  1  0.29617374  0.70890683  0.29572474  1
  Ta  Ta149  1  0.49863163  0.50752950  0.90158209  1
  Ti  Ti150  1  0.60533448  0.40174580  0.80575481  1
  Ti  Ti151  1  0.38864134  0.39920231  0.81504278  1
  Ti  Ti152  1  0.29879238  0.89984789  0.49323112  1
  Ti  Ti153  1  0.39165562  0.80623639  0.60352732  1
  Ti  Ti154  1  0.00387372  0.39377850  0.80835552  1
  Ti  Ti155  1  0.40452793  -0.00251330  0.20566331  1
  Ti  Ti156  1  0.29372223  0.50527765  0.90032922  1
  Ti  Ti157  1  0.29293031  0.08438454  0.30058040  1
  Ti  Ti158  1  0.09901682  0.49829220  0.10364854  1
  Ti  Ti159  1  0.39844136  0.80409807  -0.00378204  1
  Ti  Ti160  1  0.20354224  0.80118667  -0.00922045  1
  Ti  Ti161  1  0.39516831  0.40194770  -0.00758319  1
  Ti  Ti162  1  0.00056623  0.00872003  0.00135818  1
  Ti  Ti163  1  0.91451436  0.50172998  0.10770179  1
  Ti  Ti164  1  0.09347687  0.10092148  0.10158088  1
  Ti  Ti165  1  0.10860707  0.50204659  0.88622094  1
  Ti  Ti166  1  0.49398978  0.70479510  0.09573441  1
  Ti  Ti167  1  0.00065299  0.80238146  0.39936755  1
  Ti  Ti168  1  0.19814764  0.39992032  0.58899602  1
  Ti  Ti169  1  0.60286017  0.79888606  0.00569225  1
  Ti  Ti170  1  0.30818151  0.30684478  0.49085328  1
  Ti  Ti171  1  0.10488871  0.70032236  0.69674322  1
  Ti  Ti172  1  0.61039132  0.79772361  0.19558637  1
  Ti  Ti173  1  0.08797476  0.29457691  0.10919048  1
  Ti  Ti174  1  0.60305640  0.00460049  0.39234459  1
  Ti  Ti175  1  0.89656955  0.49253130  0.69830106  1
  Ti  Ti176  1  0.19245150  0.79981103  0.20523603  1
  Ti  Ti177  1  0.00516319  0.79735569  0.20555767  1
  Ti  Ti178  1  0.40596648  -0.00271526  0.38674044  1
  Ti  Ti179  1  0.61286419  0.19280197  -0.00657108  1
  Ti  Ti180  1  0.00129090  0.00048230  0.79723931  1
  Ti  Ti181  1  0.19358518  -0.00769654  0.19662668  1
  Ti  Ti182  1  0.81542985  -0.00151616  0.40215209  1
  Ti  Ti183  1  0.89528572  0.90040554  0.70124703  1
  Ti  Ti184  1  0.00777408  0.61076211  0.20042122  1
  Ti  Ti185  1  0.51274397  0.90701017  0.29099739  1
  Ti  Ti186  1  0.88634916  0.09945395  0.90695266  1
  Ti  Ti187  1  0.09950337  0.90036988  0.48999911  1
  Ti  Ti188  1  0.49826572  0.49626947  0.49740600  1
  Ti  Ti189  1  0.90395778  0.09229054  0.30053245  1
  Ti  Ti190  1  0.60738499  0.40107248  0.19989153  1
  Ti  Ti191  1  0.19241466  0.39500401  0.20157622  1
  Ti  Ti192  1  0.90944886  0.90319420  0.30119372  1
  Ti  Ti193  1  0.09880286  0.90092899  0.30494756  1
  Ti  Ti194  1  0.39778836  -0.00917634  0.79952219  1
  Ti  Ti195  1  0.09928428  0.89953022  0.69779973  1
  Ti  Ti196  1  0.39942729  0.19036120  0.21100422  1
  Ti  Ti197  1  -0.00338813  0.18562139  0.59874435  1
  Ti  Ti198  1  0.30467327  0.30836581  0.30245892  1
  Ti  Ti199  1  0.10009494  0.70685213  0.09517105  1
  Mo  Mo200  1  0.80037951  0.81119504  0.59726713  1
  Mo  Mo201  1  0.19845979  -0.01474492  0.40071315  1
  Mo  Mo202  1  0.00213044  0.19342937  0.19298739  1
  Mo  Mo203  1  0.19994921  0.60483807  0.79999809  1
  Mo  Mo204  1  0.10646030  0.70169681  0.89584657  1
  Mo  Mo205  1  0.79715218  0.40117177  0.80285185  1
  Mo  Mo206  1  0.60330786  0.19818374  0.80646282  1
  Mo  Mo207  1  0.80058708  0.59179687  0.59957093  1
  Mo  Mo208  1  0.39458072  0.60874155  0.19775036  1
  Mo  Mo209  1  0.29461719  0.30130619  0.90275316  1
  Mo  Mo210  1  0.19522242  0.40300681  0.80809772  1
  Mo  Mo211  1  0.50587841  0.08825876  0.30188856  1
  Mo  Mo212  1  -0.00435749  -0.00978112  0.39504384  1
  Mo  Mo213  1  0.39652454  0.60570545  -0.00651885  1
  Mo  Mo214  1  0.49482461  0.90314757  0.70897736  1
  Mo  Mo215  1  0.70213193  0.28959967  0.49799832  1
  Mo  Mo216  1  0.60141069  -0.00170414  0.79952513  1
  Mo  Mo217  1  0.00143538  0.39118878  0.19336881  1
  Mo  Mo218  1  0.70424171  0.70688988  0.09726272  1
  Mo  Mo219  1  0.29785807  0.71431523  0.50116002  1
  Mo  Mo220  1  0.80109018  0.00894809  0.00657372  1
  Mo  Mo221  1  0.60941231  -0.00317780  0.20235169  1
  Mo  Mo222  1  -0.01245099  0.40804214  0.60310801  1
  Mo  Mo223  1  0.91666042  0.30179797  0.29290841  1
  Mo  Mo224  1  0.30076366  0.70410249  0.90595910  1
  Mo  Mo225  1  0.29713064  0.89686840  0.68802804  1
  Mo  Mo226  1  0.90110420  0.09745811  0.49305516  1
  Mo  Mo227  1  0.70311744  0.10427227  0.90236535  1
  Mo  Mo228  1  0.09550537  0.71243979  0.30059543  1
  Mo  Mo229  1  -0.00592508  0.60975649  0.40322260  1
  Mo  Mo230  1  0.70880803  0.49804308  0.10288345  1
  Mo  Mo231  1  0.80047182  0.00185335  0.79936329  1
  Mo  Mo232  1  0.69968503  0.29442921  0.30121897  1
  Mo  Mo233  1  0.29767334  0.90120477  0.91563914  1
  Mo  Mo234  1  0.08990625  0.29382554  0.90116661  1
  Mo  Mo235  1  0.59604662  0.60585513  0.80433281  1
  Mo  Mo236  1  0.40059870  0.40360192  0.39712704  1
  Mo  Mo237  1  0.69974488  0.07881501  0.71101589  1
  Mo  Mo238  1  -0.00333368  0.39283302  0.39653018  1
  Mo  Mo239  1  0.80380659  0.19978236  -0.00571659  1
  Mo  Mo240  1  0.71085640  0.70527114  0.30175785  1
  Mo  Mo241  1  0.61537740  0.20066308  0.39586372  1
  Mo  Mo242  1  0.89173810  0.68461292  0.90361067  1
  Mo  Mo243  1  0.90278540  0.89459900  0.49345944  1
  Mo  Mo244  1  0.90945343  0.29276458  0.09750469  1
  Mo  Mo245  1  0.10017531  0.30558074  0.29294102  1
  Mo  Mo246  1  0.60100888  0.40138820  0.59866981  1
  Mo  Mo247  1  0.80134407  0.19600905  0.60197506  1
  Mo  Mo248  1  0.69814625  0.31866588  0.71018022  1
  Mo  Mo249  1  0.80640130  0.19084613  0.39484783  1
