# generated using pymatgen
data_HfZrTaTiMo
_symmetry_space_group_name_H-M   'P 1'
_cell_length_a   16.88763153
_cell_length_b   16.87845291
_cell_length_c   16.88785829
_cell_angle_alpha   90.02096373
_cell_angle_beta   89.94751357
_cell_angle_gamma   89.93045101
_symmetry_Int_Tables_number   1
_chemical_formula_structural   HfZrTaTiMo
_chemical_formula_sum   'Hf50 Zr50 Ta50 Ti50 Mo50'
_cell_volume   4813.66015065
_cell_formula_units_Z   50
loop_
 _symmetry_equiv_pos_site_id
 _symmetry_equiv_pos_as_xyz
  1  'x, y, z'
loop_
 _atom_site_type_symbol
 _atom_site_label
 _atom_site_symmetry_multiplicity
 _atom_site_fract_x
 _atom_site_fract_y
 _atom_site_fract_z
 _atom_site_occupancy
  Hf  Hf0  1  0.00045351  0.20472010  0.20881031  1
  Hf  Hf1  1  0.30748076  0.70369418  0.89722750  1
  Hf  Hf2  1  0.19713420  0.39602582  0.60483063  1
  Hf  Hf3  1  0.69874098  0.69860389  0.30144861  1
  Hf  Hf4  1  0.20171976  0.80255341  0.38539498  1
  Hf  Hf5  1  0.09160567  0.31031634  0.10064788  1
  Hf  Hf6  1  0.50530186  0.09185293  0.29500784  1
  Hf  Hf7  1  -0.00173591  0.79691648  0.59837996  1
  Hf  Hf8  1  0.19686106  0.18960054  -0.00038706  1
  Hf  Hf9  1  0.49920370  0.10233266  0.09230963  1
  Hf  Hf10  1  0.80273235  0.59615978  0.79201275  1
  Hf  Hf11  1  0.90285209  0.90663433  0.69177537  1
  Hf  Hf12  1  0.60671792  0.40502656  0.61253817  1
  Hf  Hf13  1  0.19528121  0.59868757  0.80280076  1
  Hf  Hf14  1  0.59386447  0.39824025  0.00156611  1
  Hf  Hf15  1  0.48192593  0.30881042  0.70960379  1
  Hf  Hf16  1  0.60180776  0.60403707  0.40733851  1
  Hf  Hf17  1  -0.00491823  0.19458824  0.80616765  1
  Hf  Hf18  1  0.91045454  0.09998981  0.50127511  1
  Hf  Hf19  1  -0.00576209  0.60498476  0.79177455  1
  Hf  Hf20  1  0.90797471  0.70312935  0.29930157  1
  Hf  Hf21  1  0.49622038  0.50812957  0.29235070  1
  Hf  Hf22  1  0.10491578  0.49175066  0.49258953  1
  Hf  Hf23  1  0.19725498  0.60533839  0.00348280  1
  Hf  Hf24  1  0.29683143  0.30150256  0.30740526  1
  Hf  Hf25  1  0.69934393  0.90986898  0.09993187  1
  Hf  Hf26  1  0.00238815  0.39482243  0.59790260  1
  Hf  Hf27  1  0.80035493  0.39945024  0.60321558  1
  Hf  Hf28  1  0.60686462  0.19925699  0.79593396  1
  Hf  Hf29  1  0.81601405  0.79807798  0.79562303  1
  Hf  Hf30  1  0.19505007  0.60848381  0.20434838  1
  Hf  Hf31  1  0.29947472  0.30312683  0.71114487  1
  Hf  Hf32  1  0.79468611  0.00807901  0.59633210  1
  Hf  Hf33  1  0.20141287  0.00051368  0.59819640  1
  Hf  Hf34  1  0.60874054  0.19741548  0.19913538  1
  Hf  Hf35  1  0.30019342  0.89401688  0.09730375  1
  Hf  Hf36  1  0.90613631  0.70122449  0.91052927  1
  Hf  Hf37  1  0.30635010  0.70343740  0.50075212  1
  Hf  Hf38  1  0.18760428  0.79929290  0.00177126  1
  Hf  Hf39  1  0.20552871  0.59462180  0.38524039  1
  Hf  Hf40  1  0.71094254  0.70359840  0.68717889  1
  Hf  Hf41  1  0.29694418  0.30416664  0.49943652  1
  Hf  Hf42  1  0.39624000  0.19103023  0.59829960  1
  Hf  Hf43  1  0.08857752  0.09166645  0.68950042  1
  Hf  Hf44  1  0.87755620  0.08900226  0.90885848  1
  Hf  Hf45  1  0.70343976  0.90207899  0.69877415  1
  Hf  Hf46  1  0.29940332  0.90068049  0.89514877  1
  Hf  Hf47  1  0.39396608  -0.00099475  0.39809921  1
  Hf  Hf48  1  0.19162244  0.18333715  0.80213901  1
  Hf  Hf49  1  0.79750142  0.39620649  0.79329951  1
  Zr  Zr50  1  0.10242823  0.70215332  0.49719887  1
  Zr  Zr51  1  0.48758742  0.89118837  0.50296418  1
  Zr  Zr52  1  0.61596124  0.59526671  0.19329988  1
  Zr  Zr53  1  0.69160323  0.90876216  0.29810854  1
  Zr  Zr54  1  0.50509619  0.91141348  0.10438008  1
  Zr  Zr55  1  0.59954037  0.19576614  0.60359877  1
  Zr  Zr56  1  0.70595807  0.30346100  0.48797820  1
  Zr  Zr57  1  0.00146368  -0.00317656  0.81173565  1
  Zr  Zr58  1  0.71057146  0.50189728  0.49645162  1
  Zr  Zr59  1  0.80251549  0.19486971  0.20134037  1
  Zr  Zr60  1  0.29976797  0.89613889  0.49947205  1
  Zr  Zr61  1  0.60417525  0.60286495  -0.00663459  1
  Zr  Zr62  1  0.08831789  0.50157686  0.90814184  1
  Zr  Zr63  1  0.30484905  0.70233953  0.70247895  1
  Zr  Zr64  1  0.79930870  0.79633684  0.40400847  1
  Zr  Zr65  1  0.60176524  0.00907296  0.79778438  1
  Zr  Zr66  1  0.38480038  0.00218592  0.20167401  1
  Zr  Zr67  1  0.80956551  0.60299045  0.18885566  1
  Zr  Zr68  1  0.59650847  0.79794390  0.80608011  1
  Zr  Zr69  1  0.48617307  0.29236607  0.90100649  1
  Zr  Zr70  1  0.00206381  0.59837618  0.39717610  1
  Zr  Zr71  1  0.30004216  0.30221295  0.89222815  1
  Zr  Zr72  1  0.30119393  0.30033388  0.09335620  1
  Zr  Zr73  1  0.10012257  0.30868050  0.89986410  1
  Zr  Zr74  1  0.71002314  0.29509835  0.91075866  1
  Zr  Zr75  1  0.30583328  0.89631465  0.70377162  1
  Zr  Zr76  1  0.49131444  0.69403128  0.10519468  1
  Zr  Zr77  1  -0.01924240  0.20918480  0.00148692  1
  Zr  Zr78  1  0.72293491  0.48572870  0.08349369  1
  Zr  Zr79  1  0.79306746  0.20077691  0.60552220  1
  Zr  Zr80  1  0.59544713  0.19641849  0.40022541  1
  Zr  Zr81  1  0.19694070  0.19296917  0.19932473  1
  Zr  Zr82  1  0.70121861  0.89512526  0.50228954  1
  Zr  Zr83  1  0.72253368  0.91617483  0.90048696  1
  Zr  Zr84  1  0.60417021  0.40868021  0.80139162  1
  Zr  Zr85  1  0.39041499  0.19370878  0.19788859  1
  Zr  Zr86  1  0.90559702  0.09416112  0.30902718  1
  Zr  Zr87  1  0.89686318  0.50042933  0.91631735  1
  Zr  Zr88  1  0.19990308  0.59401917  0.60456807  1
  Zr  Zr89  1  0.19723551  -0.00301426  0.19930963  1
  Zr  Zr90  1  0.49104618  0.31028172  0.50370964  1
  Zr  Zr91  1  0.60575401  0.79788225  -0.00303257  1
  Zr  Zr92  1  0.59525603  0.79582384  0.59922404  1
  Zr  Zr93  1  0.59391712  0.40911267  0.39527235  1
  Zr  Zr94  1  0.48438238  0.69547423  0.50165183  1
  Zr  Zr95  1  0.19659185  0.40966076  0.21257561  1
  Zr  Zr96  1  0.49205208  0.50311115  0.09846339  1
  Zr  Zr97  1  0.41311591  0.79889067  -0.00826441  1
  Zr  Zr98  1  0.60501127  0.59714994  0.79853328  1
  Zr  Zr99  1  0.80186812  0.80069675  0.19599434  1
  Ta  Ta100  1  0.49053033  0.69817093  0.70037564  1
  Ta  Ta101  1  0.19509516  0.19968751  0.59971329  1
  Ta  Ta102  1  0.09071211  0.09356064  0.09867062  1
  Ta  Ta103  1  0.00785570  0.60226468  0.20184916  1
  Ta  Ta104  1  0.91374203  0.48973094  0.10231069  1
  Ta  Ta105  1  0.09709196  0.70239628  0.70028278  1
  Ta  Ta106  1  0.39847818  0.40138602  0.20008638  1
  Ta  Ta107  1  0.80072672  0.00509784  0.20342109  1
  Ta  Ta108  1  0.90280315  0.30062270  0.49253034  1
  Ta  Ta109  1  0.59229381  0.79635014  0.39752672  1
  Ta  Ta110  1  0.01053783  0.39225786  0.39119035  1
  Ta  Ta111  1  0.30244235  0.50759817  0.10076384  1
  Ta  Ta112  1  0.60122368  0.59700839  0.60209829  1
  Ta  Ta113  1  0.90343357  0.29405741  0.69774606  1
  Ta  Ta114  1  0.90388672  0.90347178  0.49548949  1
  Ta  Ta115  1  0.59011595  0.00700851  0.59914996  1
  Ta  Ta116  1  0.90365978  0.49422494  0.29663592  1
  Ta  Ta117  1  0.90690132  0.90332686  0.29986262  1
  Ta  Ta118  1  0.49621832  0.30209507  0.29486238  1
  Ta  Ta119  1  0.29276282  0.10189877  0.49635802  1
  Ta  Ta120  1  0.48766432  0.50490583  0.69648591  1
  Ta  Ta121  1  0.71688072  0.69831179  0.90483152  1
  Ta  Ta122  1  0.49794715  0.89536006  0.29618842  1
  Ta  Ta123  1  0.40065679  0.19556485  0.40127016  1
  Ta  Ta124  1  0.10223831  0.09881624  0.49502415  1
  Ta  Ta125  1  0.80591359  0.59775645  0.40063206  1
  Ta  Ta126  1  0.90804131  0.90376743  0.10303805  1
  Ta  Ta127  1  -0.00855721  0.39800515  0.79907002  1
  Ta  Ta128  1  0.59403376  -0.00030919  0.40698686  1
  Ta  Ta129  1  0.70679565  0.29674281  0.10010727  1
  Ta  Ta130  1  0.59785469  0.79694368  0.19935478  1
  Ta  Ta131  1  0.39491062  0.40823369  0.39409454  1
  Ta  Ta132  1  0.90268152  0.49814359  0.69289611  1
  Ta  Ta133  1  0.20175019  0.41054793  0.00175189  1
  Ta  Ta134  1  0.80859913  0.79900342  0.01044537  1
  Ta  Ta135  1  -0.00416885  0.59756589  0.59884968  1
  Ta  Ta136  1  0.70424123  0.30494273  0.29867316  1
  Ta  Ta137  1  0.40517370  0.00149669  0.79909765  1
  Ta  Ta138  1  0.00797714  0.20819392  0.40051084  1
  Ta  Ta139  1  0.60258530  0.39402673  0.19672160  1
  Ta  Ta140  1  0.09695430  0.90016745  0.69898202  1
  Ta  Ta141  1  0.09459583  0.49946614  0.10178819  1
  Ta  Ta142  1  0.19477610  0.80193975  0.60465884  1
  Ta  Ta143  1  0.79531738  0.19170947  0.79526037  1
  Ta  Ta144  1  0.39506075  0.40466595  0.00037262  1
  Ta  Ta145  1  0.30559920  0.70028170  0.10364753  1
  Ta  Ta146  1  0.01131960  0.79752463  0.19643040  1
  Ta  Ta147  1  0.10120982  0.09635238  0.30884025  1
  Ta  Ta148  1  0.18466374  0.80240315  0.80314288  1
  Ta  Ta149  1  0.49157351  0.70227170  0.29602702  1
  Ti  Ti150  1  0.80399138  0.39514910  0.20168730  1
  Ti  Ti151  1  0.90209220  0.09714173  0.69603426  1
  Ti  Ti152  1  0.08987919  0.70547698  0.90182298  1
  Ti  Ti153  1  0.80113584  0.19798655  0.39533120  1
  Ti  Ti154  1  0.30611126  0.09836294  0.89985266  1
  Ti  Ti155  1  0.70528227  0.09677873  0.08973956  1
  Ti  Ti156  1  0.09378849  0.90183478  0.09740941  1
  Ti  Ti157  1  0.49876439  0.90909026  0.89553969  1
  Ti  Ti158  1  0.89837274  0.30733769  0.30496506  1
  Ti  Ti159  1  0.39091726  0.59750245  0.39100999  1
  Ti  Ti160  1  0.00145587  -0.00164321  0.20169554  1
  Ti  Ti161  1  0.09671460  0.49480200  0.70590356  1
  Ti  Ti162  1  0.00774391  -0.00396414  0.40190270  1
  Ti  Ti163  1  0.09714891  0.90524786  0.50167787  1
  Ti  Ti164  1  0.49403280  0.10062064  0.70341718  1
  Ti  Ti165  1  0.49202012  0.10713854  0.90148393  1
  Ti  Ti166  1  0.71114073  0.49258204  0.29967784  1
  Ti  Ti167  1  0.00554831  0.80438732  0.39686438  1
  Ti  Ti168  1  0.19890101  0.79730251  0.20261521  1
  Ti  Ti169  1  0.00453992  -0.00218900  -0.00231297  1
  Ti  Ti170  1  0.19104313  0.00193514  -0.00688704  1
  Ti  Ti171  1  0.49612398  0.29520995  0.09845027  1
  Ti  Ti172  1  0.60448637  0.19713220  -0.00098811  1
  Ti  Ti173  1  0.90216264  0.49195886  0.49198817  1
  Ti  Ti174  1  0.89520874  0.70290856  0.50320572  1
  Ti  Ti175  1  0.71576231  0.50100489  0.90992296  1
  Ti  Ti176  1  0.09889593  0.90469208  0.29922146  1
  Ti  Ti177  1  0.79570567  0.00275373  0.39778490  1
  Ti  Ti178  1  0.83301015  0.36478140  0.00262480  1
  Ti  Ti179  1  0.30758146  0.49374005  0.70438393  1
  Ti  Ti180  1  0.28425726  0.09842765  0.31712441  1
  Ti  Ti181  1  0.29943773  0.09577659  0.70372541  1
  Ti  Ti182  1  0.30459703  0.49730258  0.50116104  1
  Ti  Ti183  1  0.30030954  0.49933538  0.89969193  1
  Ti  Ti184  1  0.19173753  -0.00103041  0.80796102  1
  Ti  Ti185  1  0.80699253  0.60165271  0.59429375  1
  Ti  Ti186  1  0.60507075  0.00976948  -0.01110342  1
  Ti  Ti187  1  0.00185587  0.80267521  0.80025147  1
  Ti  Ti188  1  0.39575275  0.00532197  -0.00351901  1
  Ti  Ti189  1  0.18985720  0.20831088  0.40555032  1
  Ti  Ti190  1  0.00845357  0.20795903  0.59336380  1
  Ti  Ti191  1  0.00159114  0.61594762  0.02125864  1
  Ti  Ti192  1  0.48733231  0.50358113  0.90060491  1
  Ti  Ti193  1  0.69574584  0.09868104  0.49274435  1
  Ti  Ti194  1  0.90093655  0.09209539  0.10043956  1
  Ti  Ti195  1  0.90337040  0.89811662  0.91200666  1
  Ti  Ti196  1  0.40405478  0.00290560  0.60262605  1
  Ti  Ti197  1  0.10003823  0.30044781  0.70842464  1
  Ti  Ti198  1  0.48429255  0.50317981  0.51104412  1
  Ti  Ti199  1  0.40240680  0.59996702  0.80441694  1
  Mo  Mo200  1  0.69940246  0.10350912  0.90925876  1
  Mo  Mo201  1  0.39646310  0.80044832  0.38153234  1
  Mo  Mo202  1  0.39495096  0.41894297  0.80557102  1
  Mo  Mo203  1  0.70560517  0.50782406  0.69227333  1
  Mo  Mo204  1  0.39839253  0.80021128  0.20000743  1
  Mo  Mo205  1  0.89865854  0.29291376  0.88304217  1
  Mo  Mo206  1  0.20228623  0.40227684  0.40347941  1
  Mo  Mo207  1  0.80221329  0.00770857  0.78571655  1
  Mo  Mo208  1  0.10120099  0.29586547  0.50086210  1
  Mo  Mo209  1  0.38756816  0.60074751  0.20410179  1
  Mo  Mo210  1  0.41547370  0.80608339  0.80122107  1
  Mo  Mo211  1  0.10256600  0.70349350  0.10199152  1
  Mo  Mo212  1  0.49939186  0.68904466  0.88976787  1
  Mo  Mo213  1  0.39168766  0.59707077  -0.00550489  1
  Mo  Mo214  1  0.09417768  0.09312925  0.91027300  1
  Mo  Mo215  1  0.29577115  0.09089816  0.07843776  1
  Mo  Mo216  1  0.89971197  0.30403027  0.12333066  1
  Mo  Mo217  1  0.09537469  0.49687292  0.29781752  1
  Mo  Mo218  1  0.70361147  0.69388450  0.49839610  1
  Mo  Mo219  1  0.39817030  0.19530174  -0.00467958  1
  Mo  Mo220  1  0.69594614  0.09662939  0.69954936  1
  Mo  Mo221  1  0.80808662  -0.00317048  0.01848956  1
  Mo  Mo222  1  0.79868646  0.19467127  0.01014939  1
  Mo  Mo223  1  0.39688856  0.79894526  0.61313179  1
  Mo  Mo224  1  0.49098353  0.09203738  0.50095794  1
  Mo  Mo225  1  0.09985136  0.70773229  0.29639087  1
  Mo  Mo226  1  0.81053170  0.79825884  0.59415820  1
  Mo  Mo227  1  0.81237496  0.40165445  0.39256287  1
  Mo  Mo228  1  0.91011722  0.70543106  0.10360921  1
  Mo  Mo229  1  0.19451372  -0.00115652  0.40018365  1
  Mo  Mo230  1  0.00284502  -0.00322824  0.58856534  1
  Mo  Mo231  1  -0.00033578  0.39803050  0.00415844  1
  Mo  Mo232  1  0.19521539  0.41103408  0.79905629  1
  Mo  Mo233  1  0.70157133  0.09930771  0.31141549  1
  Mo  Mo234  1  0.39797693  0.59493121  0.60239067  1
  Mo  Mo235  1  0.39480112  0.17833525  0.79667595  1
  Mo  Mo236  1  0.30673937  0.70412292  0.29269521  1
  Mo  Mo237  1  0.10325326  0.29778777  0.30550184  1
  Mo  Mo238  1  0.80519966  0.61328199  0.00645644  1
  Mo  Mo239  1  -0.00016556  0.40268033  0.20765255  1
  Mo  Mo240  1  0.09829528  0.89900366  0.89937186  1
  Mo  Mo241  1  0.00094917  0.80755374  0.00569996  1
  Mo  Mo242  1  0.30155360  0.89375622  0.29525291  1
  Mo  Mo243  1  0.90549363  0.69645272  0.69131661  1
  Mo  Mo244  1  0.70216846  0.70965478  0.09561440  1
  Mo  Mo245  1  0.39200941  0.40675322  0.59932613  1
  Mo  Mo246  1  0.49675929  0.90331480  0.70178085  1
  Mo  Mo247  1  0.30373130  0.50084834  0.29761290  1
  Mo  Mo248  1  0.60725363  0.00579644  0.20347174  1
  Mo  Mo249  1  0.70569008  0.29579016  0.70423007  1
