# generated using pymatgen
data_HfZrTaTiMo
_symmetry_space_group_name_H-M   'P 1'
_cell_length_a   16.89069129
_cell_length_b   16.88445521
_cell_length_c   16.88812633
_cell_angle_alpha   89.94611349
_cell_angle_beta   90.02409119
_cell_angle_gamma   89.97965893
_symmetry_Int_Tables_number   1
_chemical_formula_structural   HfZrTaTiMo
_chemical_formula_sum   'Hf50 Zr50 Ta50 Ti50 Mo50'
_cell_volume   4816.32392178
_cell_formula_units_Z   50
loop_
 _symmetry_equiv_pos_site_id
 _symmetry_equiv_pos_as_xyz
  1  'x, y, z'
loop_
 _atom_site_type_symbol
 _atom_site_label
 _atom_site_symmetry_multiplicity
 _atom_site_fract_x
 _atom_site_fract_y
 _atom_site_fract_z
 _atom_site_occupancy
  Hf  Hf0  1  0.90189718  0.30736111  0.90003168  1
  Hf  Hf1  1  0.58800314  0.59663829  0.20362078  1
  Hf  Hf2  1  0.40339178  0.80638051  0.60016540  1
  Hf  Hf3  1  0.09838547  0.30031136  0.11074610  1
  Hf  Hf4  1  0.20151922  0.40253664  0.00293905  1
  Hf  Hf5  1  0.79734440  0.60176521  0.00889738  1
  Hf  Hf6  1  0.90711872  0.10322019  0.29737231  1
  Hf  Hf7  1  0.29502493  0.29686835  0.69469157  1
  Hf  Hf8  1  0.50633760  0.89878548  0.10584274  1
  Hf  Hf9  1  -0.00066328  0.59444857  0.59897212  1
  Hf  Hf10  1  0.21816949  0.61663092  0.00178419  1
  Hf  Hf11  1  0.49842721  0.10082385  0.69582906  1
  Hf  Hf12  1  0.50062909  0.09722720  0.90817820  1
  Hf  Hf13  1  0.09650174  0.70416429  0.70171947  1
  Hf  Hf14  1  0.69858043  0.29385397  0.70995021  1
  Hf  Hf15  1  0.09747239  0.70753803  0.50324156  1
  Hf  Hf16  1  0.69070387  0.49188702  0.10309507  1
  Hf  Hf17  1  0.10154998  0.69222409  0.29176484  1
  Hf  Hf18  1  0.70038478  0.69830433  0.49004377  1
  Hf  Hf19  1  0.30415280  0.50373342  0.89469965  1
  Hf  Hf20  1  0.59945928  0.00388388  0.38276622  1
  Hf  Hf21  1  0.80060897  0.80112971  0.60064371  1
  Hf  Hf22  1  0.79841212  -0.00158244  0.59641866  1
  Hf  Hf23  1  0.09933230  0.29975563  0.29848208  1
  Hf  Hf24  1  0.21127325  0.79388676  0.19097446  1
  Hf  Hf25  1  0.60218057  0.79813929  0.60379590  1
  Hf  Hf26  1  0.19107321  0.40534806  0.79015782  1
  Hf  Hf27  1  0.40335245  -0.00209550  0.20763381  1
  Hf  Hf28  1  0.60180973  0.60877635  0.80346333  1
  Hf  Hf29  1  0.50762629  0.88673060  0.91723387  1
  Hf  Hf30  1  0.89037825  0.69367889  0.30228832  1
  Hf  Hf31  1  0.80720168  -0.00752269  -0.00371685  1
  Hf  Hf32  1  0.30338854  0.10976065  0.49471632  1
  Hf  Hf33  1  0.40792809  0.80183092  0.80445767  1
  Hf  Hf34  1  0.30081080  0.49687505  0.50744634  1
  Hf  Hf35  1  -0.00067177  0.39738269  0.40109847  1
  Hf  Hf36  1  0.89892779  0.90121506  0.30429570  1
  Hf  Hf37  1  0.39628160  0.19950016  -0.00173769  1
  Hf  Hf38  1  0.59468191  0.60884854  -0.00195321  1
  Hf  Hf39  1  0.20021426  0.19850488  -0.00235681  1
  Hf  Hf40  1  0.29944409  0.50040915  0.30058573  1
  Hf  Hf41  1  0.89859502  0.70452340  0.90456137  1
  Hf  Hf42  1  0.69930820  0.09814050  0.89418612  1
  Hf  Hf43  1  -0.00777704  0.41952122  0.01732140  1
  Hf  Hf44  1  0.69310243  0.70351048  0.29663229  1
  Hf  Hf45  1  0.20175993  -0.00453919  0.59265527  1
  Hf  Hf46  1  0.79596514  0.19733156  0.59380205  1
  Hf  Hf47  1  0.59640324  -0.01537699  0.80085033  1
  Hf  Hf48  1  0.10658384  0.89599823  0.30283597  1
  Hf  Hf49  1  0.30433582  0.50481875  0.69724478  1
  Zr  Zr50  1  0.69870583  0.09899122  0.70247827  1
  Zr  Zr51  1  0.29497640  0.10370039  0.69758409  1
  Zr  Zr52  1  0.79786060  0.40651484  0.80170035  1
  Zr  Zr53  1  0.30195959  0.09927505  0.10492079  1
  Zr  Zr54  1  0.00623169  -0.01173436  0.60106247  1
  Zr  Zr55  1  0.49765931  0.48531204  0.08941904  1
  Zr  Zr56  1  0.69953858  0.50092458  0.49276174  1
  Zr  Zr57  1  0.40554765  0.60614981  0.39325240  1
  Zr  Zr58  1  0.29944015  0.29060006  0.30336179  1
  Zr  Zr59  1  0.79449059  -0.00538989  0.19989233  1
  Zr  Zr60  1  0.19772003  0.80969842  0.59973303  1
  Zr  Zr61  1  0.80005821  0.19774314  -0.00019153  1
  Zr  Zr62  1  0.20088529  0.60108126  0.40519049  1
  Zr  Zr63  1  0.40350891  -0.00433010  0.79803743  1
  Zr  Zr64  1  0.69866480  0.89850548  0.70097388  1
  Zr  Zr65  1  0.50174588  0.50524651  0.50378600  1
  Zr  Zr66  1  -0.00449025  0.18288136  0.00668002  1
  Zr  Zr67  1  0.59320376  0.20677161  0.59404903  1
  Zr  Zr68  1  0.79743640  0.19762154  0.20222402  1
  Zr  Zr69  1  0.09663995  0.69875870  0.89776277  1
  Zr  Zr70  1  0.30738622  0.50332097  0.10524631  1
  Zr  Zr71  1  0.69124064  0.09016259  0.10344750  1
  Zr  Zr72  1  0.10394662  0.49935295  0.29429032  1
  Zr  Zr73  1  -0.00501856  0.79906990  0.19734294  1
  Zr  Zr74  1  0.90071680  0.09535252  0.49545955  1
  Zr  Zr75  1  0.10474317  0.08880972  0.89183513  1
  Zr  Zr76  1  0.50361878  0.30009757  0.10492032  1
  Zr  Zr77  1  0.09367131  0.69427772  0.09585171  1
  Zr  Zr78  1  0.88431637  0.49786338  0.49832556  1
  Zr  Zr79  1  0.79672727  0.60872821  0.61705819  1
  Zr  Zr80  1  0.49946599  0.30976621  0.91188952  1
  Zr  Zr81  1  -0.00182304  0.59589836  0.40368326  1
  Zr  Zr82  1  0.90487078  0.30009412  0.69434273  1
  Zr  Zr83  1  0.30530190  0.29738874  0.11187412  1
  Zr  Zr84  1  0.90781248  0.29327182  0.11214963  1
  Zr  Zr85  1  -0.01251736  0.59500532  0.78965122  1
  Zr  Zr86  1  0.30330990  0.10502919  0.30366064  1
  Zr  Zr87  1  0.90205093  0.30154158  0.50351379  1
  Zr  Zr88  1  0.09494555  0.30689853  0.90395372  1
  Zr  Zr89  1  0.09659499  0.51451779  0.90312886  1
  Zr  Zr90  1  0.59713837  0.39665720  0.60338107  1
  Zr  Zr91  1  0.50548945  0.89636602  0.48804869  1
  Zr  Zr92  1  0.59715418  0.40322092  0.80013109  1
  Zr  Zr93  1  0.20052132  0.80720930  0.80793047  1
  Zr  Zr94  1  0.40882978  0.39130713  0.40333208  1
  Zr  Zr95  1  0.79468919  0.39129212  0.20783276  1
  Zr  Zr96  1  0.00274260  0.00243892  0.19164924  1
  Zr  Zr97  1  0.00697177  0.20280279  0.79493775  1
  Zr  Zr98  1  0.41085583  0.38148893  0.60238596  1
  Zr  Zr99  1  0.30004377  0.69432990  0.70306216  1
  Ta  Ta100  1  0.40291908  -0.00122322  0.39733758  1
  Ta  Ta101  1  0.79764223  0.80416209  0.39632271  1
  Ta  Ta102  1  0.30533644  0.69952057  0.50496245  1
  Ta  Ta103  1  0.50032777  0.71433325  0.10472425  1
  Ta  Ta104  1  -0.02023692  0.58849640  0.18940784  1
  Ta  Ta105  1  0.30260354  0.90443741  0.70099618  1
  Ta  Ta106  1  0.40659505  0.61164627  -0.00409491  1
  Ta  Ta107  1  0.39934815  0.20457200  0.80138215  1
  Ta  Ta108  1  0.00317265  0.20139174  0.39832210  1
  Ta  Ta109  1  0.20109063  -0.00509124  0.20135420  1
  Ta  Ta110  1  0.89945543  0.89574986  0.49428860  1
  Ta  Ta111  1  0.49999283  0.88136491  0.29708410  1
  Ta  Ta112  1  0.59273980  0.60082044  0.39205928  1
  Ta  Ta113  1  0.50228953  0.70275104  0.70244353  1
  Ta  Ta114  1  0.60520669  0.19877106  0.20903393  1
  Ta  Ta115  1  0.79652321  0.20574599  0.38962306  1
  Ta  Ta116  1  0.10551155  0.89995088  0.09443000  1
  Ta  Ta117  1  0.89428649  0.50647587  0.90645132  1
  Ta  Ta118  1  0.09855605  0.09995275  0.69456819  1
  Ta  Ta119  1  0.49297258  0.51332627  0.69987108  1
  Ta  Ta120  1  0.09777895  0.10213253  0.49879072  1
  Ta  Ta121  1  0.00073528  0.82007445  0.80259549  1
  Ta  Ta122  1  0.80939542  -0.00860185  0.80344171  1
  Ta  Ta123  1  0.20574044  0.80390271  -0.00049483  1
  Ta  Ta124  1  0.40368701  0.39890268  0.79695821  1
  Ta  Ta125  1  0.70121671  0.50335649  0.90470164  1
  Ta  Ta126  1  0.69896711  0.90117685  0.48853679  1
  Ta  Ta127  1  0.40816415  0.60865727  0.81034251  1
  Ta  Ta128  1  -0.00383918  0.79787906  0.40167561  1
  Ta  Ta129  1  0.80089240  0.80633232  0.80599057  1
  Ta  Ta130  1  -0.00064494  -0.00877992  -0.00606723  1
  Ta  Ta131  1  0.60654367  0.20280258  0.00069360  1
  Ta  Ta132  1  0.69413105  0.10167749  0.48833349  1
  Ta  Ta133  1  0.10665061  0.51126277  0.10838282  1
  Ta  Ta134  1  0.30128504  0.90582794  0.90630830  1
  Ta  Ta135  1  -0.00017304  0.80974372  -0.00452793  1
  Ta  Ta136  1  0.29719757  0.09567068  0.89399292  1
  Ta  Ta137  1  0.50450387  0.09974215  0.10614417  1
  Ta  Ta138  1  0.88427919  0.49894137  0.30421779  1
  Ta  Ta139  1  0.41201399  0.39967468  0.21435176  1
  Ta  Ta140  1  0.69950709  0.71528984  0.90556243  1
  Ta  Ta141  1  0.69570344  0.30426534  0.48266818  1
  Ta  Ta142  1  0.60006779  0.60930700  0.60512665  1
  Ta  Ta143  1  0.90593283  0.09667377  0.70180626  1
  Ta  Ta144  1  0.79644697  0.80126849  0.19571068  1
  Ta  Ta145  1  0.49897404  0.10310992  0.48954291  1
  Ta  Ta146  1  0.30498017  0.89388052  0.30512230  1
  Ta  Ta147  1  0.40286555  -0.00269256  0.59285899  1
  Ta  Ta148  1  0.79577639  0.39753082  0.00213789  1
  Ta  Ta149  1  0.19363888  0.59522619  0.60301460  1
  Ti  Ti150  1  0.90443775  0.71544318  0.70198498  1
  Ti  Ti151  1  0.49884208  0.49644158  0.90432759  1
  Ti  Ti152  1  0.00853242  0.00055119  0.39900667  1
  Ti  Ti153  1  0.09440981  0.31030412  0.67633269  1
  Ti  Ti154  1  0.69603904  0.50546371  0.70206314  1
  Ti  Ti155  1  0.51203792  0.29623928  0.30609034  1
  Ti  Ti156  1  0.89762357  0.48952234  0.69318240  1
  Ti  Ti157  1  0.89852223  0.89316272  0.09518615  1
  Ti  Ti158  1  0.89643805  0.70322195  0.49673310  1
  Ti  Ti159  1  0.40506736  0.60708561  0.19981096  1
  Ti  Ti160  1  0.10818807  0.47894074  0.50918812  1
  Ti  Ti161  1  0.20143253  -0.00457520  0.00138768  1
  Ti  Ti162  1  0.28586375  0.30199154  0.49665756  1
  Ti  Ti163  1  0.60668701  -0.00500811  -0.00069935  1
  Ti  Ti164  1  0.20435630  0.40241837  0.20146197  1
  Ti  Ti165  1  0.90464225  0.90092182  0.69975810  1
  Ti  Ti166  1  0.69508026  0.70998452  0.10196824  1
  Ti  Ti167  1  0.10108352  0.09316848  0.09920439  1
  Ti  Ti168  1  0.20016769  0.00167425  0.39824571  1
  Ti  Ti169  1  0.89494279  0.70455195  0.09659145  1
  Ti  Ti170  1  0.18697406  0.20481958  0.59252026  1
  Ti  Ti171  1  0.38993645  0.79051082  0.00175048  1
  Ti  Ti172  1  0.30507987  0.89686046  0.48754268  1
  Ti  Ti173  1  0.39702536  0.00004295  0.00363472  1
  Ti  Ti174  1  0.30008907  0.30334341  0.89443506  1
  Ti  Ti175  1  0.68953303  0.89301617  0.29373353  1
  Ti  Ti176  1  0.09561721  0.89438447  0.49282217  1
  Ti  Ti177  1  0.18773256  0.20064152  0.40279787  1
  Ti  Ti178  1  -0.00891818  0.40776077  0.20531673  1
  Ti  Ti179  1  0.18330933  0.18236928  0.20744251  1
  Ti  Ti180  1  0.19488158  -0.00872332  0.79417565  1
  Ti  Ti181  1  0.79375648  0.59842380  0.19784265  1
  Ti  Ti182  1  0.19778213  0.20385153  0.79865482  1
  Ti  Ti183  1  0.79456817  0.60842404  0.79962326  1
  Ti  Ti184  1  0.59545667  -0.00110612  0.59391222  1
  Ti  Ti185  1  0.69468273  0.49291153  0.30768739  1
  Ti  Ti186  1  0.30978300  0.70621758  0.29711741  1
  Ti  Ti187  1  0.80527944  0.19768628  0.80428182  1
  Ti  Ti188  1  0.79130668  0.00188012  0.39394041  1
  Ti  Ti189  1  0.69331078  0.89024637  0.09739102  1
  Ti  Ti190  1  0.49957888  0.70374098  0.49536963  1
  Ti  Ti191  1  0.49929640  0.10951867  0.29753714  1
  Ti  Ti192  1  0.20575581  0.79476446  0.39964344  1
  Ti  Ti193  1  0.59113626  0.20487807  0.80797108  1
  Ti  Ti194  1  0.90641386  0.09159455  0.88976942  1
  Ti  Ti195  1  0.78923342  0.39616285  0.60167516  1
  Ti  Ti196  1  0.00268586  0.40974252  0.79258963  1
  Ti  Ti197  1  0.30537896  0.89850347  0.10019281  1
  Ti  Ti198  1  0.68917289  0.30364494  0.10267550  1
  Ti  Ti199  1  0.40718339  0.20644755  0.59257368  1
  Mo  Mo200  1  0.00760226  0.19044820  0.20538682  1
  Mo  Mo201  1  0.60086445  0.40191343  0.39261051  1
  Mo  Mo202  1  0.39996633  0.79961741  0.20139471  1
  Mo  Mo203  1  0.69927508  0.10217057  0.30222644  1
  Mo  Mo204  1  0.10252619  0.50125463  0.69513289  1
  Mo  Mo205  1  0.80069958  0.80166368  0.00651495  1
  Mo  Mo206  1  0.59459295  -0.00100693  0.20337180  1
  Mo  Mo207  1  0.10386685  0.09414497  0.30936694  1
  Mo  Mo208  1  0.10038616  0.90585921  0.70554426  1
  Mo  Mo209  1  0.20698189  0.60264825  0.79585505  1
  Mo  Mo210  1  0.69885766  0.70384633  0.71366273  1
  Mo  Mo211  1  0.70406958  0.89673752  0.90330525  1
  Mo  Mo212  1  0.50278124  0.70590251  0.90561339  1
  Mo  Mo213  1  0.00408791  0.40448938  0.60002842  1
  Mo  Mo214  1  0.49789205  0.70381436  0.29671077  1
  Mo  Mo215  1  0.00725769  0.19362653  0.59597323  1
  Mo  Mo216  1  -0.01195455  0.60407395  0.01049619  1
  Mo  Mo217  1  0.60282228  0.79955759  0.19960870  1
  Mo  Mo218  1  0.21346982  0.60389929  0.19836937  1
  Mo  Mo219  1  0.60804208  0.79934611  0.00575295  1
  Mo  Mo220  1  0.40642025  0.61289640  0.60114202  1
  Mo  Mo221  1  0.60330867  0.79713790  0.80405439  1
  Mo  Mo222  1  0.61702207  0.39655854  -0.00896106  1
  Mo  Mo223  1  0.50124532  0.49913075  0.29701088  1
  Mo  Mo224  1  0.50950562  0.29113253  0.48431359  1
  Mo  Mo225  1  -0.00060476  -0.00164554  0.79575428  1
  Mo  Mo226  1  0.79204117  0.60216625  0.38988957  1
  Mo  Mo227  1  0.88540104  0.49955087  0.10623223  1
  Mo  Mo228  1  0.79783785  0.39474782  0.39477431  1
  Mo  Mo229  1  0.10520150  0.90332428  0.90625051  1
  Mo  Mo230  1  0.90517907  0.29917133  0.30499208  1
  Mo  Mo231  1  0.59962859  0.79733126  0.39660985  1
  Mo  Mo232  1  0.30576200  0.70576151  0.90175837  1
  Mo  Mo233  1  0.90687263  0.09027551  0.09931715  1
  Mo  Mo234  1  -0.00813677  0.80186949  0.59883868  1
  Mo  Mo235  1  0.20018628  0.39787707  0.59952381  1
  Mo  Mo236  1  0.59826099  0.39597656  0.21275039  1
  Mo  Mo237  1  0.20004143  0.39218620  0.40485866  1
  Mo  Mo238  1  0.39607976  0.79893887  0.40038192  1
  Mo  Mo239  1  0.60260884  0.19882574  0.39403439  1
  Mo  Mo240  1  0.70222814  0.29771967  0.90231232  1
  Mo  Mo241  1  0.90192259  0.89892325  0.89849051  1
  Mo  Mo242  1  0.69400859  0.30057477  0.30278623  1
  Mo  Mo243  1  0.41776184  0.20171275  0.20478148  1
  Mo  Mo244  1  0.38743946  0.40134593  -0.01007174  1
  Mo  Mo245  1  0.49519483  0.29206952  0.71342963  1
  Mo  Mo246  1  0.31262220  0.70322559  0.10436563  1
  Mo  Mo247  1  0.49813400  0.90014031  0.68953547  1
  Mo  Mo248  1  0.40979877  0.20014650  0.40266419  1
  Mo  Mo249  1  0.10227142  0.29649985  0.49830293  1
