# generated using pymatgen
data_HfZrTaTiMo
_symmetry_space_group_name_H-M   'P 1'
_cell_length_a   16.88931872
_cell_length_b   16.88096474
_cell_length_c   16.89585509
_cell_angle_alpha   89.98786726
_cell_angle_beta   89.94921139
_cell_angle_gamma   89.97883421
_symmetry_Int_Tables_number   1
_chemical_formula_structural   HfZrTaTiMo
_chemical_formula_sum   'Hf50 Zr50 Ta50 Ti50 Mo50'
_cell_volume   4817.14102156
_cell_formula_units_Z   50
loop_
 _symmetry_equiv_pos_site_id
 _symmetry_equiv_pos_as_xyz
  1  'x, y, z'
loop_
 _atom_site_type_symbol
 _atom_site_label
 _atom_site_symmetry_multiplicity
 _atom_site_fract_x
 _atom_site_fract_y
 _atom_site_fract_z
 _atom_site_occupancy
  Hf  Hf0  1  0.49703264  0.69624095  0.70207828  1
  Hf  Hf1  1  0.20432698  0.39804859  0.41412096  1
  Hf  Hf2  1  0.79186379  0.60818825  -0.00021791  1
  Hf  Hf3  1  0.49157326  0.30484907  0.50594354  1
  Hf  Hf4  1  0.69301135  0.51480284  0.51043291  1
  Hf  Hf5  1  0.69554138  0.30531630  0.29835058  1
  Hf  Hf6  1  0.70555007  0.89775854  0.30557635  1
  Hf  Hf7  1  0.19924785  0.80461228  0.40585909  1
  Hf  Hf8  1  0.79229801  0.79817921  -0.00595908  1
  Hf  Hf9  1  0.19377079  0.59206256  0.41354258  1
  Hf  Hf10  1  -0.00255665  -0.00131645  0.39569170  1
  Hf  Hf11  1  0.00510001  0.39905848  -0.00234424  1
  Hf  Hf12  1  0.39541955  -0.00129583  0.41313262  1
  Hf  Hf13  1  0.81082958  0.00021119  0.40705701  1
  Hf  Hf14  1  0.58584900  0.19932343  0.80790823  1
  Hf  Hf15  1  0.29575655  0.10415828  0.30560950  1
  Hf  Hf16  1  0.21098207  0.39295361  -0.01613634  1
  Hf  Hf17  1  0.00125438  0.39324665  0.19600749  1
  Hf  Hf18  1  0.39989033  0.00295019  0.19917518  1
  Hf  Hf19  1  -0.00104349  0.40327470  0.79026113  1
  Hf  Hf20  1  0.89231101  0.50095324  0.51280008  1
  Hf  Hf21  1  0.20931199  0.80269612  0.60195557  1
  Hf  Hf22  1  0.80029651  0.40923747  0.78762144  1
  Hf  Hf23  1  0.69076484  0.51387394  0.89843390  1
  Hf  Hf24  1  0.50260960  0.30175262  0.09315984  1
  Hf  Hf25  1  0.50447733  0.29969674  0.30792755  1
  Hf  Hf26  1  0.49496963  0.09925518  0.51500814  1
  Hf  Hf27  1  -0.00551104  0.20881451  0.78968004  1
  Hf  Hf28  1  0.00054522  0.40161122  0.40574252  1
  Hf  Hf29  1  0.79757253  0.19447961  0.19970641  1
  Hf  Hf30  1  0.59660642  0.00458373  0.19887402  1
  Hf  Hf31  1  -0.00383770  0.80777902  0.40683984  1
  Hf  Hf32  1  0.31159630  0.50662812  0.30754668  1
  Hf  Hf33  1  0.39945685  0.79805575  0.19882410  1
  Hf  Hf34  1  0.89182260  0.49739109  0.29859656  1
  Hf  Hf35  1  0.00597473  0.59469702  0.78618686  1
  Hf  Hf36  1  0.50407079  0.50980173  0.09178968  1
  Hf  Hf37  1  0.09720043  0.29716388  0.51545882  1
  Hf  Hf38  1  0.21135006  0.78993143  -0.00690305  1
  Hf  Hf39  1  0.50182779  0.89637871  0.50936465  1
  Hf  Hf40  1  0.40845374  0.40143126  0.19912454  1
  Hf  Hf41  1  0.50064762  0.10806689  0.31048765  1
  Hf  Hf42  1  -0.01039997  0.19910794  0.39831078  1
  Hf  Hf43  1  0.80041796  0.20175536  0.40908833  1
  Hf  Hf44  1  0.70366426  0.09246098  0.89629007  1
  Hf  Hf45  1  0.29770086  0.90226139  0.30453617  1
  Hf  Hf46  1  -0.00200468  0.20356246  -0.00309950  1
  Hf  Hf47  1  0.90042550  0.89318340  0.89233776  1
  Hf  Hf48  1  0.48871162  0.29870732  0.70058102  1
  Hf  Hf49  1  0.60111496  0.19903432  0.60670379  1
  Zr  Zr50  1  0.09976774  0.70072445  0.30367639  1
  Zr  Zr51  1  0.90711266  0.71392037  0.10123915  1
  Zr  Zr52  1  0.31008523  0.29800369  0.30801224  1
  Zr  Zr53  1  0.30911252  0.29168037  0.08918510  1
  Zr  Zr54  1  0.50180897  0.89784861  0.69960281  1
  Zr  Zr55  1  -0.00752424  -0.00730688  0.59429477  1
  Zr  Zr56  1  0.39094829  0.61574865  -0.00296758  1
  Zr  Zr57  1  0.21310323  -0.00386842  0.78777391  1
  Zr  Zr58  1  0.50632647  0.89637962  0.30737079  1
  Zr  Zr59  1  -0.00198177  0.00167670  0.79006005  1
  Zr  Zr60  1  0.89790453  0.50609094  0.89727520  1
  Zr  Zr61  1  0.69962142  0.90207396  0.10338764  1
  Zr  Zr62  1  0.69926256  0.09859950  0.30435783  1
  Zr  Zr63  1  0.10360737  0.10325267  0.50393776  1
  Zr  Zr64  1  0.20331184  0.61066648  -0.01280402  1
  Zr  Zr65  1  0.20501763  0.39333747  0.19737982  1
  Zr  Zr66  1  0.79272770  0.41051967  0.01024078  1
  Zr  Zr67  1  0.10964297  0.50163862  0.09680021  1
  Zr  Zr68  1  0.10076470  0.10001419  0.89416430  1
  Zr  Zr69  1  0.60142260  0.19733013  -0.00053534  1
  Zr  Zr70  1  0.79517591  0.61139321  0.40496657  1
  Zr  Zr71  1  0.10773745  0.28931237  0.30355357  1
  Zr  Zr72  1  0.20215870  0.80060711  0.20059244  1
  Zr  Zr73  1  0.89090129  0.09921032  0.89427861  1
  Zr  Zr74  1  0.40623232  -0.00310635  -0.01449790  1
  Zr  Zr75  1  0.20813364  -0.00531726  -0.01490160  1
  Zr  Zr76  1  0.10708223  0.09760669  0.09570370  1
  Zr  Zr77  1  0.30179487  0.68878366  0.50358657  1
  Zr  Zr78  1  0.00015724  0.60290554  0.20108591  1
  Zr  Zr79  1  0.69097524  0.70289249  0.30375884  1
  Zr  Zr80  1  0.59451459  0.80300966  -0.01089140  1
  Zr  Zr81  1  0.10437205  0.50171285  0.29921031  1
  Zr  Zr82  1  -0.00056697  0.19232341  0.20441434  1
  Zr  Zr83  1  0.09622904  0.89993740  0.09734660  1
  Zr  Zr84  1  0.50943299  0.68920765  0.49873575  1
  Zr  Zr85  1  0.10069982  0.89123018  0.69876611  1
  Zr  Zr86  1  0.80219654  -0.00365707  0.59880633  1
  Zr  Zr87  1  0.30784622  0.50352614  0.09908096  1
  Zr  Zr88  1  0.40175653  0.59017017  0.60860542  1
  Zr  Zr89  1  0.20787780  0.20335699  0.79707063  1
  Zr  Zr90  1  0.70095382  0.09182335  0.70928937  1
  Zr  Zr91  1  0.09197930  0.87630320  0.89078500  1
  Zr  Zr92  1  0.70103614  0.30382215  0.90298601  1
  Zr  Zr93  1  0.50294835  0.50652385  0.30908990  1
  Zr  Zr94  1  0.91092163  0.70684783  0.88914435  1
  Zr  Zr95  1  0.79619383  0.39555102  0.41032660  1
  Zr  Zr96  1  0.79341044  0.59795331  0.19297507  1
  Zr  Zr97  1  0.89781617  0.08747446  0.10585110  1
  Zr  Zr98  1  0.59309571  0.40477509  0.79863872  1
  Zr  Zr99  1  0.01008867  0.60650011  -0.00581648  1
  Ta  Ta100  1  0.40135932  -0.00191886  0.79706186  1
  Ta  Ta101  1  0.20103443  -0.00046034  0.20024807  1
  Ta  Ta102  1  0.79967794  -0.00762059  -0.00198758  1
  Ta  Ta103  1  0.40910050  0.20206662  -0.02259909  1
  Ta  Ta104  1  0.60332481  0.79473931  0.79884914  1
  Ta  Ta105  1  0.49656004  0.69434372  0.30502304  1
  Ta  Ta106  1  0.69963102  0.68882965  0.69376275  1
  Ta  Ta107  1  0.89307383  0.88380150  0.70101561  1
  Ta  Ta108  1  0.80155550  0.20780008  0.60794284  1
  Ta  Ta109  1  0.29992681  0.29995888  0.69276299  1
  Ta  Ta110  1  0.30358078  0.90234572  0.09606250  1
  Ta  Ta111  1  0.60031836  0.40319662  0.41106572  1
  Ta  Ta112  1  0.09841791  0.69612834  0.50991030  1
  Ta  Ta113  1  0.11188131  0.50161119  0.88549432  1
  Ta  Ta114  1  0.49706783  0.10150886  0.09197862  1
  Ta  Ta115  1  0.10746116  0.10779293  0.68510762  1
  Ta  Ta116  1  0.89154417  0.30246032  0.10035661  1
  Ta  Ta117  1  0.80137698  0.21128511  0.79286112  1
  Ta  Ta118  1  0.10304567  0.30164625  0.69277001  1
  Ta  Ta119  1  0.39170156  0.79979071  0.60516544  1
  Ta  Ta120  1  -0.00499140  0.79068163  0.60001125  1
  Ta  Ta121  1  0.49771273  0.89922881  0.09525494  1
  Ta  Ta122  1  -0.00341720  0.60205871  0.40986193  1
  Ta  Ta123  1  0.30491904  0.10164300  0.09252524  1
  Ta  Ta124  1  0.89568576  0.90415439  0.28790081  1
  Ta  Ta125  1  0.29411942  0.10221680  0.51619836  1
  Ta  Ta126  1  0.39713652  0.79837982  0.40871990  1
  Ta  Ta127  1  0.30856971  0.69261227  0.30612630  1
  Ta  Ta128  1  0.39231639  0.20190551  0.41729601  1
  Ta  Ta129  1  0.89445959  0.30346711  0.90102252  1
  Ta  Ta130  1  0.10994351  0.69286749  0.69611654  1
  Ta  Ta131  1  0.70069278  0.89341951  0.69992249  1
  Ta  Ta132  1  0.90146516  0.90045396  0.10307502  1
  Ta  Ta133  1  0.49993847  0.70031739  0.10141342  1
  Ta  Ta134  1  0.49285205  0.50754644  0.89826508  1
  Ta  Ta135  1  0.70111369  0.90428571  0.88651820  1
  Ta  Ta136  1  -0.00471240  -0.00629801  -0.00376085  1
  Ta  Ta137  1  0.39373736  0.39921730  0.80218484  1
  Ta  Ta138  1  0.69390443  0.49876717  0.30111059  1
  Ta  Ta139  1  0.69815367  0.30606921  0.69706838  1
  Ta  Ta140  1  0.60508478  0.00031738  0.41505123  1
  Ta  Ta141  1  0.89596648  0.71220007  0.30354273  1
  Ta  Ta142  1  0.70213262  0.89122177  0.50289474  1
  Ta  Ta143  1  0.89071931  0.30332404  0.29297325  1
  Ta  Ta144  1  0.00361582  0.59508233  0.60247873  1
  Ta  Ta145  1  0.79055876  0.78870719  0.79502566  1
  Ta  Ta146  1  0.29477235  0.50238349  0.70505044  1
  Ta  Ta147  1  0.49757582  0.69809505  0.89121190  1
  Ta  Ta148  1  0.59473177  0.41203829  0.60862754  1
  Ta  Ta149  1  0.68357021  0.69766299  0.09651262  1
  Ti  Ti150  1  0.69731425  0.30820288  0.51356221  1
  Ti  Ti151  1  0.38059815  -0.00704064  0.61022821  1
  Ti  Ti152  1  0.20020683  0.41024849  0.59966387  1
  Ti  Ti153  1  0.10059422  0.30188851  0.89186780  1
  Ti  Ti154  1  0.60270287  0.20178090  0.41517438  1
  Ti  Ti155  1  0.89694557  0.69990328  0.50333201  1
  Ti  Ti156  1  0.49976240  0.50119528  0.49801638  1
  Ti  Ti157  1  0.79936038  0.20011997  0.00145887  1
  Ti  Ti158  1  0.60034486  0.19689837  0.19403733  1
  Ti  Ti159  1  0.59425695  0.79948509  0.19873565  1
  Ti  Ti160  1  0.48479622  0.10056495  0.70228046  1
  Ti  Ti161  1  0.79562811  0.79763740  0.19798079  1
  Ti  Ti162  1  0.89296568  0.69192474  0.69492097  1
  Ti  Ti163  1  0.10695478  0.29338719  0.09483524  1
  Ti  Ti164  1  0.59770236  0.59895412  0.79279594  1
  Ti  Ti165  1  0.58827901  -0.00495965  0.80515119  1
  Ti  Ti166  1  0.59915151  0.60053358  0.19915727  1
  Ti  Ti167  1  -0.00261472  0.40979910  0.61258203  1
  Ti  Ti168  1  0.20834871  0.20159510  -0.01223572  1
  Ti  Ti169  1  0.19865593  -0.00362313  0.40746280  1
  Ti  Ti170  1  0.60410309  0.79717568  0.40903579  1
  Ti  Ti171  1  0.31120030  0.49521969  0.50131322  1
  Ti  Ti172  1  0.90260136  0.11175649  0.51324638  1
  Ti  Ti173  1  0.70142479  0.09989198  0.50806973  1
  Ti  Ti174  1  0.39996349  0.79905682  -0.00513965  1
  Ti  Ti175  1  0.20260045  0.39906315  0.79439229  1
  Ti  Ti176  1  0.21197079  0.61187447  0.19320737  1
  Ti  Ti177  1  0.59813645  0.40580145  -0.00194235  1
  Ti  Ti178  1  0.10643121  0.09288394  0.29952098  1
  Ti  Ti179  1  0.31241284  0.88599013  0.88599999  1
  Ti  Ti180  1  0.89635620  0.10266083  0.69754241  1
  Ti  Ti181  1  0.40445887  0.19681495  0.19704323  1
  Ti  Ti182  1  0.20565351  0.19411740  0.19434679  1
  Ti  Ti183  1  0.60612954  0.40912708  0.19480077  1
  Ti  Ti184  1  0.60463797  -0.00155255  0.60279207  1
  Ti  Ti185  1  0.00546829  0.80939529  0.20844023  1
  Ti  Ti186  1  0.59587106  -0.00215646  -0.00687564  1
  Ti  Ti187  1  0.31131796  0.10554017  0.88922949  1
  Ti  Ti188  1  0.20757377  0.20379956  0.41454413  1
  Ti  Ti189  1  0.90076447  0.30375830  0.51894761  1
  Ti  Ti190  1  0.21352808  0.78568780  0.79346535  1
  Ti  Ti191  1  0.09893339  0.70800598  0.09857002  1
  Ti  Ti192  1  0.70214745  0.30728507  0.10510117  1
  Ti  Ti193  1  0.89997748  0.49779090  0.10282457  1
  Ti  Ti194  1  0.30348617  0.50455350  0.88980885  1
  Ti  Ti195  1  0.60748175  0.79140120  0.60154458  1
  Ti  Ti196  1  0.70113355  0.09246018  0.09608061  1
  Ti  Ti197  1  0.39678919  0.40460069  0.60546007  1
  Ti  Ti198  1  0.10252252  0.90065832  0.50673875  1
  Ti  Ti199  1  0.79751572  0.79151506  0.59448273  1
  Mo  Mo200  1  0.20261625  0.20471671  0.60364989  1
  Mo  Mo201  1  0.11135921  0.49470172  0.69553699  1
  Mo  Mo202  1  0.30971407  0.70375116  0.88173809  1
  Mo  Mo203  1  0.09779083  0.91199741  0.30144820  1
  Mo  Mo204  1  0.30514288  0.70722679  0.10987971  1
  Mo  Mo205  1  0.20426252  0.60148924  0.79525560  1
  Mo  Mo206  1  0.09150264  0.50017904  0.50931462  1
  Mo  Mo207  1  0.30533837  0.09979509  0.69730602  1
  Mo  Mo208  1  0.59875595  0.59791352  0.40171447  1
  Mo  Mo209  1  0.79187448  0.39997584  0.60448755  1
  Mo  Mo210  1  0.69259428  0.69952377  0.88977946  1
  Mo  Mo211  1  0.50142314  0.09097582  0.89426271  1
  Mo  Mo212  1  0.30093425  0.90454520  0.50402970  1
  Mo  Mo213  1  0.50250217  0.89534479  0.89477126  1
  Mo  Mo214  1  0.30090398  0.69529214  0.70155793  1
  Mo  Mo215  1  0.30446758  0.30123140  0.88947731  1
  Mo  Mo216  1  0.69410038  0.50705564  0.69800585  1
  Mo  Mo217  1  0.88962687  0.50771907  0.69336386  1
  Mo  Mo218  1  0.39687169  0.59624934  0.80070976  1
  Mo  Mo219  1  0.79489019  0.60298871  0.79174455  1
  Mo  Mo220  1  0.39314795  0.19713111  0.60594977  1
  Mo  Mo221  1  0.39768039  0.19838803  0.79849156  1
  Mo  Mo222  1  0.80078400  -0.00248174  0.19786351  1
  Mo  Mo223  1  0.89808786  0.09945376  0.30182688  1
  Mo  Mo224  1  0.49359105  0.31268475  0.90146443  1
  Mo  Mo225  1  0.00542179  0.80261100  0.00366636  1
  Mo  Mo226  1  0.68610687  0.50614934  0.10264577  1
  Mo  Mo227  1  0.79321252  0.39878110  0.19737577  1
  Mo  Mo228  1  0.20422950  -0.00219144  0.59765617  1
  Mo  Mo229  1  0.89738876  0.30688310  0.69486793  1
  Mo  Mo230  1  0.80069021  -0.01162086  0.79537115  1
  Mo  Mo231  1  0.30034341  0.30233838  0.51297875  1
  Mo  Mo232  1  -0.00491528  0.78497965  0.77983221  1
  Mo  Mo233  1  0.00491603  -0.00527711  0.20666140  1
  Mo  Mo234  1  0.80238142  0.60505753  0.60402498  1
  Mo  Mo235  1  0.40499158  0.40164565  -0.01385121  1
  Mo  Mo236  1  0.10794273  0.69693882  0.88253854  1
  Mo  Mo237  1  -0.00575553  0.20347337  0.60534223  1
  Mo  Mo238  1  0.69932284  0.70652192  0.50774737  1
  Mo  Mo239  1  0.30508350  0.89615754  0.70268990  1
  Mo  Mo240  1  0.40101239  0.59944790  0.40447436  1
  Mo  Mo241  1  0.40411243  0.79753468  0.79793438  1
  Mo  Mo242  1  0.80545816  0.80374165  0.40427308  1
  Mo  Mo243  1  0.49372592  0.49799126  0.70618011  1
  Mo  Mo244  1  0.40411370  0.60798478  0.20133788  1
  Mo  Mo245  1  0.59343306  0.60795683  -0.00547936  1
  Mo  Mo246  1  0.40393142  0.40048072  0.41253254  1
  Mo  Mo247  1  0.89496111  0.88446726  0.50363468  1
  Mo  Mo248  1  0.19815533  0.59041943  0.60316584  1
  Mo  Mo249  1  0.59822112  0.59568818  0.60806154  1
