# generated using pymatgen
data_HfZrTaTiMo
_symmetry_space_group_name_H-M   'P 1'
_cell_length_a   16.87783808
_cell_length_b   16.88605838
_cell_length_c   16.87925173
_cell_angle_alpha   90.01354355
_cell_angle_beta   89.99443905
_cell_angle_gamma   90.01233938
_symmetry_Int_Tables_number   1
_chemical_formula_structural   HfZrTaTiMo
_chemical_formula_sum   'Hf50 Zr50 Ta50 Ti50 Mo50'
_cell_volume   4810.58916049
_cell_formula_units_Z   50
loop_
 _symmetry_equiv_pos_site_id
 _symmetry_equiv_pos_as_xyz
  1  'x, y, z'
loop_
 _atom_site_type_symbol
 _atom_site_label
 _atom_site_symmetry_multiplicity
 _atom_site_fract_x
 _atom_site_fract_y
 _atom_site_fract_z
 _atom_site_occupancy
  Hf  Hf0  1  0.40162102  0.20299054  0.78878234  1
  Hf  Hf1  1  0.59780130  0.60680598  0.18998699  1
  Hf  Hf2  1  0.89257634  0.69477592  0.89614066  1
  Hf  Hf3  1  0.69350029  0.49492716  0.49801888  1
  Hf  Hf4  1  0.80188614  0.59719404  0.39749405  1
  Hf  Hf5  1  0.09569062  0.90234353  0.30316697  1
  Hf  Hf6  1  0.70532122  0.69329114  0.89745564  1
  Hf  Hf7  1  0.19864416  0.00564890  0.00351191  1
  Hf  Hf8  1  -0.00315100  0.00021203  0.00275318  1
  Hf  Hf9  1  0.60733193  0.19306727  0.00504859  1
  Hf  Hf10  1  0.40520345  0.60590993  0.00497247  1
  Hf  Hf11  1  0.19509026  0.60001198  0.79610027  1
  Hf  Hf12  1  0.30304623  0.90232734  0.69406320  1
  Hf  Hf13  1  0.30467944  0.10470229  0.10726048  1
  Hf  Hf14  1  0.20752661  0.39366419  0.59935108  1
  Hf  Hf15  1  0.70259217  0.90045827  0.89827414  1
  Hf  Hf16  1  0.10328994  0.09952295  0.69424231  1
  Hf  Hf17  1  0.20001314  0.80053615  0.60149552  1
  Hf  Hf18  1  0.30370649  0.90472462  0.09796132  1
  Hf  Hf19  1  0.09875394  0.90085584  0.90075950  1
  Hf  Hf20  1  0.10270234  0.69950100  0.90979085  1
  Hf  Hf21  1  0.10605598  0.30895041  0.90683455  1
  Hf  Hf22  1  0.00490983  0.59674738  0.19736589  1
  Hf  Hf23  1  0.40237587  0.39470278  0.00309765  1
  Hf  Hf24  1  0.20385782  0.00522931  0.79805237  1
  Hf  Hf25  1  0.49899655  0.09672864  0.90244036  1
  Hf  Hf26  1  0.30400685  0.48850848  0.30301417  1
  Hf  Hf27  1  -0.00177266  0.40337283  0.80398590  1
  Hf  Hf28  1  0.19873372  0.60247645  0.20436673  1
  Hf  Hf29  1  0.78701101  0.19592673  0.60339192  1
  Hf  Hf30  1  0.69677111  0.49208570  0.30502441  1
  Hf  Hf31  1  0.49781527  0.48563460  0.49635654  1
  Hf  Hf32  1  0.70171734  0.30669927  0.90521590  1
  Hf  Hf33  1  0.59529568  0.79018742  0.60132878  1
  Hf  Hf34  1  0.69529535  0.70520443  0.29292795  1
  Hf  Hf35  1  0.79681144  0.80473125  0.40067877  1
  Hf  Hf36  1  0.59359153  0.80507558  0.39338028  1
  Hf  Hf37  1  0.59678851  0.79829013  0.80032818  1
  Hf  Hf38  1  0.30671391  0.68939667  0.50343709  1
  Hf  Hf39  1  0.70422556  0.90722010  0.69709996  1
  Hf  Hf40  1  0.90375358  0.70073811  0.29684811  1
  Hf  Hf41  1  0.60011191  0.39521044  0.20121194  1
  Hf  Hf42  1  0.20236941  0.00482245  0.39455546  1
  Hf  Hf43  1  0.09274126  0.30350915  0.10607274  1
  Hf  Hf44  1  0.50358603  0.91051883  0.50437410  1
  Hf  Hf45  1  0.79677871  0.39671971  0.19768613  1
  Hf  Hf46  1  0.21070327  0.20360439  0.79017806  1
  Hf  Hf47  1  0.30335495  0.29938193  0.11357030  1
  Hf  Hf48  1  0.10156608  0.70980852  0.31234761  1
  Hf  Hf49  1  0.49718873  0.49347590  0.10515121  1
  Zr  Zr50  1  0.20205119  0.20065290  0.00251901  1
  Zr  Zr51  1  0.90200869  0.08522634  0.88934030  1
  Zr  Zr52  1  -0.00134688  0.19884286  0.59256875  1
  Zr  Zr53  1  0.20779102  0.80172732  0.20402047  1
  Zr  Zr54  1  0.49475274  0.09997751  0.10818529  1
  Zr  Zr55  1  -0.01026479  0.20069828  -0.00445716  1
  Zr  Zr56  1  0.30369742  0.89564065  0.90148641  1
  Zr  Zr57  1  0.09985682  0.70519965  0.49750192  1
  Zr  Zr58  1  0.18750817  0.58876866  0.60223903  1
  Zr  Zr59  1  0.30096720  0.30934621  0.89674177  1
  Zr  Zr60  1  0.08831716  0.89713182  0.49246296  1
  Zr  Zr61  1  0.79696630  0.59529701  0.59564280  1
  Zr  Zr62  1  0.31548168  0.69623765  0.31965728  1
  Zr  Zr63  1  0.89687099  0.90860948  0.10755370  1
  Zr  Zr64  1  0.79838862  0.79779089  0.19425175  1
  Zr  Zr65  1  0.31062986  0.69597522  0.70395470  1
  Zr  Zr66  1  0.59953780  0.79144895  0.01512764  1
  Zr  Zr67  1  0.00298850  0.59027392  0.40093599  1
  Zr  Zr68  1  0.79538327  0.20105706  0.80069532  1
  Zr  Zr69  1  0.90103016  0.69222328  0.09232279  1
  Zr  Zr70  1  0.41120845  0.79560161  0.20059841  1
  Zr  Zr71  1  0.90075741  0.70032875  0.70888476  1
  Zr  Zr72  1  0.89216203  0.09422525  0.49067338  1
  Zr  Zr73  1  0.70710471  0.69382830  0.70512900  1
  Zr  Zr74  1  0.29280270  0.49559555  0.10151644  1
  Zr  Zr75  1  0.29880544  0.50462934  0.89891205  1
  Zr  Zr76  1  -0.00141656  0.20524015  0.79879662  1
  Zr  Zr77  1  0.60270820  -0.00146284  0.00646322  1
  Zr  Zr78  1  0.89633267  0.50737769  0.70303849  1
  Zr  Zr79  1  0.31605769  0.50258379  0.69493490  1
  Zr  Zr80  1  0.79151509  0.19898746  0.39295322  1
  Zr  Zr81  1  0.80282692  0.80558148  0.59974003  1
  Zr  Zr82  1  0.00932461  0.40328648  0.60113910  1
  Zr  Zr83  1  0.70359702  0.91618732  0.29861793  1
  Zr  Zr84  1  -0.00280863  -0.00004377  0.60006177  1
  Zr  Zr85  1  0.50249273  0.49616469  0.89095847  1
  Zr  Zr86  1  0.29530318  0.10994075  0.50422586  1
  Zr  Zr87  1  0.10065001  0.49075193  0.09306853  1
  Zr  Zr88  1  0.89961648  0.29972303  0.10285256  1
  Zr  Zr89  1  0.91082647  0.70691956  0.49913375  1
  Zr  Zr90  1  0.40703881  0.79656955  0.00641104  1
  Zr  Zr91  1  0.89504720  0.30365729  0.69372258  1
  Zr  Zr92  1  0.68890917  0.30906569  0.49537011  1
  Zr  Zr93  1  0.39989940  0.01195066  0.79305855  1
  Zr  Zr94  1  0.40239439  0.00491781  0.39652189  1
  Zr  Zr95  1  0.50916523  0.30377740  0.89778118  1
  Zr  Zr96  1  0.59057459  0.60080224  0.39115901  1
  Zr  Zr97  1  0.49958767  0.90833322  0.70161860  1
  Zr  Zr98  1  0.60789219  0.19311286  0.78606015  1
  Zr  Zr99  1  0.48802110  0.69805081  0.48538558  1
  Ta  Ta100  1  0.60522791  0.59713859  0.00251816  1
  Ta  Ta101  1  0.09624677  0.89973461  0.70555818  1
  Ta  Ta102  1  0.79506526  0.59219181  0.19270733  1
  Ta  Ta103  1  0.10231959  0.29454885  0.49167334  1
  Ta  Ta104  1  -0.00542612  0.80427865  0.00052934  1
  Ta  Ta105  1  0.40868700  0.20343288  0.40151842  1
  Ta  Ta106  1  0.00321654  0.80351356  0.19612935  1
  Ta  Ta107  1  0.50234581  0.69298612  0.89409493  1
  Ta  Ta108  1  0.79542203  0.00534055  0.00292625  1
  Ta  Ta109  1  0.89530560  0.90885022  0.49208049  1
  Ta  Ta110  1  0.69307686  0.69833403  0.49928029  1
  Ta  Ta111  1  0.49655697  0.90373344  0.90504716  1
  Ta  Ta112  1  0.50029704  0.29414988  0.10961835  1
  Ta  Ta113  1  0.10639307  0.49841318  0.90618863  1
  Ta  Ta114  1  0.79635124  0.19226598  0.00058799  1
  Ta  Ta115  1  0.40415004  0.60433567  0.20201701  1
  Ta  Ta116  1  0.09905932  0.48460592  0.30121782  1
  Ta  Ta117  1  0.89859384  0.09626035  0.29663901  1
  Ta  Ta118  1  0.22163011  0.81492852  0.40339905  1
  Ta  Ta119  1  0.89771670  0.30535106  0.48963483  1
  Ta  Ta120  1  0.69452857  0.09221550  0.49726586  1
  Ta  Ta121  1  0.09979764  0.10081629  0.89614142  1
  Ta  Ta122  1  0.19972528  0.00616987  0.20499121  1
  Ta  Ta123  1  0.69828719  0.91360748  0.50066407  1
  Ta  Ta124  1  0.89852816  0.49399597  0.09879217  1
  Ta  Ta125  1  0.40187429  -0.00275667  0.20668217  1
  Ta  Ta126  1  0.90321044  0.48694376  0.29760951  1
  Ta  Ta127  1  0.89901881  0.48384736  0.49348238  1
  Ta  Ta128  1  0.59100703  0.19729531  0.39871701  1
  Ta  Ta129  1  0.59680922  0.59130303  0.78625081  1
  Ta  Ta130  1  0.79476795  0.19839847  0.20369628  1
  Ta  Ta131  1  0.10270862  0.89896498  0.10028091  1
  Ta  Ta132  1  0.79961264  0.80557772  0.00051122  1
  Ta  Ta133  1  0.60239350  0.19759870  0.21297671  1
  Ta  Ta134  1  0.19652820  0.79742345  0.79845541  1
  Ta  Ta135  1  0.09340933  0.10483132  0.10965409  1
  Ta  Ta136  1  0.19125046  0.19930203  0.21273283  1
  Ta  Ta137  1  0.00154617  0.19674267  0.39230904  1
  Ta  Ta138  1  0.40367196  0.20154469  0.00114341  1
  Ta  Ta139  1  0.00481477  0.00579087  0.20409446  1
  Ta  Ta140  1  0.79801563  0.40512239  0.80437743  1
  Ta  Ta141  1  0.40596060  0.79874032  0.60038162  1
  Ta  Ta142  1  0.10224863  0.48547279  0.48793866  1
  Ta  Ta143  1  0.89783912  0.90898336  0.71562867  1
  Ta  Ta144  1  0.48987034  0.49078207  0.30230234  1
  Ta  Ta145  1  0.70022405  0.29604878  0.10036549  1
  Ta  Ta146  1  0.30525857  0.10997517  0.29681970  1
  Ta  Ta147  1  0.19724094  0.40364737  0.78689929  1
  Ta  Ta148  1  -0.00319048  0.80532214  0.80649552  1
  Ta  Ta149  1  0.69853011  0.90334982  0.10952838  1
  Ti  Ti150  1  0.59366152  0.00405768  0.20619018  1
  Ti  Ti151  1  0.20225782  0.38870947  0.39889282  1
  Ti  Ti152  1  0.40629419  0.20715423  0.60080512  1
  Ti  Ti153  1  0.40352960  0.39669626  0.78561836  1
  Ti  Ti154  1  -0.00203273  0.59243122  -0.00347180  1
  Ti  Ti155  1  0.90230198  0.91056715  0.30385011  1
  Ti  Ti156  1  0.09001150  0.70306992  0.70294871  1
  Ti  Ti157  1  0.78907099  0.00753135  0.79996966  1
  Ti  Ti158  1  0.19662607  0.39184894  0.20828792  1
  Ti  Ti159  1  0.60850728  0.40508247  0.00980726  1
  Ti  Ti160  1  0.30883471  0.49645211  0.49362242  1
  Ti  Ti161  1  0.30960428  0.29752572  0.30048610  1
  Ti  Ti162  1  0.20054445  0.59072816  0.40135759  1
  Ti  Ti163  1  0.28910711  0.69903158  0.09115766  1
  Ti  Ti164  1  0.60282224  0.01009161  0.79836671  1
  Ti  Ti165  1  0.19686057  -0.00369742  0.59349593  1
  Ti  Ti166  1  0.30088689  0.10298335  0.67970405  1
  Ti  Ti167  1  0.40559117  0.79351823  0.80014964  1
  Ti  Ti168  1  -0.00438222  0.80826263  0.60904929  1
  Ti  Ti169  1  0.50530304  0.30249888  0.69366847  1
  Ti  Ti170  1  0.10520074  0.70528384  0.09081273  1
  Ti  Ti171  1  0.42825379  0.59943431  0.61124217  1
  Ti  Ti172  1  0.79093503  0.39923971  0.60574492  1
  Ti  Ti173  1  0.10089389  0.10415163  0.49303274  1
  Ti  Ti174  1  0.31342951  0.90528349  0.50573293  1
  Ti  Ti175  1  0.70533629  0.09507147  0.11478599  1
  Ti  Ti176  1  0.59981041  0.20096505  0.60054993  1
  Ti  Ti177  1  0.40321482  0.38807981  0.59894650  1
  Ti  Ti178  1  0.90467374  0.30003111  0.30046940  1
  Ti  Ti179  1  0.89462366  0.09074549  0.69937344  1
  Ti  Ti180  1  0.49932848  0.10306400  0.50788603  1
  Ti  Ti181  1  0.08794462  0.30158694  0.30003539  1
  Ti  Ti182  1  0.30721663  0.10019886  0.90797762  1
  Ti  Ti183  1  0.59700444  0.40409565  0.60975952  1
  Ti  Ti184  1  0.69587789  0.30243392  0.30546426  1
  Ti  Ti185  1  0.30385670  0.29575741  0.49628757  1
  Ti  Ti186  1  0.49998245  0.89963663  0.29748832  1
  Ti  Ti187  1  -0.01751236  0.40352806  -0.01174963  1
  Ti  Ti188  1  0.00403180  0.59269786  0.80594561  1
  Ti  Ti189  1  0.59582767  0.01358850  0.39189829  1
  Ti  Ti190  1  0.00503847  0.59181353  0.59738187  1
  Ti  Ti191  1  0.70048756  0.49893532  0.89937422  1
  Ti  Ti192  1  0.19710745  0.20283932  0.39263852  1
  Ti  Ti193  1  0.29735313  0.70018743  0.90245294  1
  Ti  Ti194  1  0.60010803  0.01543076  0.60891213  1
  Ti  Ti195  1  0.49435807  0.30446243  0.30339195  1
  Ti  Ti196  1  0.61102867  0.40238442  0.78458938  1
  Ti  Ti197  1  0.10573594  0.29575439  0.69359916  1
  Ti  Ti198  1  0.89854416  0.10299272  0.11033170  1
  Ti  Ti199  1  0.79266798  0.58521153  0.00533095  1
  Mo  Mo200  1  0.80401467  0.39586595  0.39466660  1
  Mo  Mo201  1  0.69523529  0.10299910  0.30047161  1
  Mo  Mo202  1  0.59169191  0.38929393  0.39364946  1
  Mo  Mo203  1  0.40281328  0.39335537  0.20469960  1
  Mo  Mo204  1  0.89815790  0.50410883  0.90517639  1
  Mo  Mo205  1  0.69812857  0.49629058  0.69816523  1
  Mo  Mo206  1  0.69918628  0.09709346  0.69270441  1
  Mo  Mo207  1  -0.00362894  0.00743459  0.39392765  1
  Mo  Mo208  1  0.40214125  0.00108395  0.00444695  1
  Mo  Mo209  1  0.70143996  0.49556634  0.09602555  1
  Mo  Mo210  1  0.09794238  0.50053797  0.70502346  1
  Mo  Mo211  1  0.00404294  -0.00186353  0.79758996  1
  Mo  Mo212  1  0.79692370  0.40060442  -0.00087255  1
  Mo  Mo213  1  0.59604035  0.80680117  0.19772824  1
  Mo  Mo214  1  -0.00447343  0.19895023  0.20850494  1
  Mo  Mo215  1  0.88721907  0.31062341  0.90468652  1
  Mo  Mo216  1  -0.01340652  0.81132054  0.39002115  1
  Mo  Mo217  1  0.69669735  0.30733631  0.69583044  1
  Mo  Mo218  1  0.39979343  0.81813951  0.40407769  1
  Mo  Mo219  1  0.49886036  0.29461444  0.50430724  1
  Mo  Mo220  1  0.50541115  0.90447836  0.10918951  1
  Mo  Mo221  1  0.49749635  0.69990275  0.29473517  1
  Mo  Mo222  1  0.00109243  0.38826121  0.39770093  1
  Mo  Mo223  1  0.40415584  0.20187439  0.21052686  1
  Mo  Mo224  1  0.80343057  0.00919556  0.19972649  1
  Mo  Mo225  1  -0.00312024  0.39956731  0.20532179  1
  Mo  Mo226  1  0.20055488  0.60478400  0.00120122  1
  Mo  Mo227  1  0.80421493  0.81246075  0.80804026  1
  Mo  Mo228  1  0.89447440  0.89821714  0.90188596  1
  Mo  Mo229  1  0.39551997  0.38556809  0.40408169  1
  Mo  Mo230  1  0.39728989  0.58015759  0.39788706  1
  Mo  Mo231  1  0.79165754  0.58305063  0.80896768  1
  Mo  Mo232  1  0.40849846  0.60435065  0.80298053  1
  Mo  Mo233  1  0.50187454  0.10596919  0.68794488  1
  Mo  Mo234  1  0.50391897  0.69182713  0.09775195  1
  Mo  Mo235  1  0.50113236  0.69638144  0.70459528  1
  Mo  Mo236  1  0.30614936  0.30171939  0.69059464  1
  Mo  Mo237  1  0.50339335  0.49397749  0.69505053  1
  Mo  Mo238  1  0.19597254  0.79803958  0.00093095  1
  Mo  Mo239  1  0.59797116  0.59614712  0.60103373  1
  Mo  Mo240  1  0.70445148  0.69691432  0.09476581  1
  Mo  Mo241  1  0.19816755  0.20500171  0.59375563  1
  Mo  Mo242  1  0.20162185  0.40172514  -0.00087409  1
  Mo  Mo243  1  0.40256559  0.00848853  0.59822061  1
  Mo  Mo244  1  0.09920591  0.10376928  0.30073611  1
  Mo  Mo245  1  0.50014319  0.10252740  0.30185366  1
  Mo  Mo246  1  0.79662593  0.00185071  0.39807474  1
  Mo  Mo247  1  0.79654562  0.00084929  0.60049248  1
  Mo  Mo248  1  0.30201942  0.90942141  0.29768687  1
  Mo  Mo249  1  0.70306888  0.09624744  0.90162245  1
