# generated using pymatgen
data_HfZrTaTiMo
_symmetry_space_group_name_H-M   'P 1'
_cell_length_a   16.88786642
_cell_length_b   16.88620821
_cell_length_c   16.88406162
_cell_angle_alpha   90.02932886
_cell_angle_beta   90.03213851
_cell_angle_gamma   90.01451867
_symmetry_Int_Tables_number   1
_chemical_formula_structural   HfZrTaTiMo
_chemical_formula_sum   'Hf50 Zr50 Ta50 Ti50 Mo50'
_cell_volume   4814.86055831
_cell_formula_units_Z   50
loop_
 _symmetry_equiv_pos_site_id
 _symmetry_equiv_pos_as_xyz
  1  'x, y, z'
loop_
 _atom_site_type_symbol
 _atom_site_label
 _atom_site_symmetry_multiplicity
 _atom_site_fract_x
 _atom_site_fract_y
 _atom_site_fract_z
 _atom_site_occupancy
  Hf  Hf0  1  0.89179261  0.10871003  0.50526586  1
  Hf  Hf1  1  0.30384407  0.69151840  0.49641509  1
  Hf  Hf2  1  0.29608980  0.29407719  0.49849119  1
  Hf  Hf3  1  0.20890121  0.19810295  0.00381265  1
  Hf  Hf4  1  -0.00093277  0.00298736  0.39745109  1
  Hf  Hf5  1  0.10338427  0.89053631  0.70321308  1
  Hf  Hf6  1  0.60264432  0.59669653  0.40827795  1
  Hf  Hf7  1  0.50256300  0.09919819  0.69975904  1
  Hf  Hf8  1  0.20024734  0.19827821  0.39263051  1
  Hf  Hf9  1  0.69224659  0.49976141  0.89930582  1
  Hf  Hf10  1  0.29955072  0.90331517  0.10463850  1
  Hf  Hf11  1  0.39888457  0.79338337  0.79917868  1
  Hf  Hf12  1  0.89976464  0.70792992  0.69557613  1
  Hf  Hf13  1  0.40658678  0.80156563  0.20795232  1
  Hf  Hf14  1  0.69497045  0.70406066  0.69494494  1
  Hf  Hf15  1  0.69968572  0.29083804  0.09731648  1
  Hf  Hf16  1  0.08596551  0.70912404  0.50360851  1
  Hf  Hf17  1  0.00590772  0.19815333  0.39311146  1
  Hf  Hf18  1  0.19666607  0.60088277  0.59997675  1
  Hf  Hf19  1  0.79861757  0.41395608  0.60242081  1
  Hf  Hf20  1  0.89850718  0.50821293  0.29739312  1
  Hf  Hf21  1  -0.00567996  0.00072418  -0.00365841  1
  Hf  Hf22  1  0.90451851  0.70160038  0.30262459  1
  Hf  Hf23  1  0.58912860  0.39884610  0.00554710  1
  Hf  Hf24  1  0.41204462  0.80926205  0.40152401  1
  Hf  Hf25  1  0.30431309  0.30150210  0.90042966  1
  Hf  Hf26  1  0.00242980  0.19895795  0.79249661  1
  Hf  Hf27  1  0.70535805  0.50222008  0.30228301  1
  Hf  Hf28  1  0.40674413  0.80275198  0.59977971  1
  Hf  Hf29  1  0.79116454  -0.00275785  0.20704027  1
  Hf  Hf30  1  0.09583200  0.89356865  0.29612807  1
  Hf  Hf31  1  0.90645307  0.89341258  0.10465297  1
  Hf  Hf32  1  0.39916746  0.39629018  0.40145335  1
  Hf  Hf33  1  0.48702922  0.49795928  0.29298125  1
  Hf  Hf34  1  0.30770318  0.30053704  0.11294854  1
  Hf  Hf35  1  0.30305803  0.91035599  0.70317093  1
  Hf  Hf36  1  0.09543762  0.88657748  0.09951238  1
  Hf  Hf37  1  0.89790975  0.30153127  0.29988953  1
  Hf  Hf38  1  0.19641350  -0.00472256  -0.00195764  1
  Hf  Hf39  1  0.80470309  0.39418772  0.19192155  1
  Hf  Hf40  1  0.20170956  0.79778414  0.39602469  1
  Hf  Hf41  1  0.19390291  0.41689713  0.19896786  1
  Hf  Hf42  1  0.60448089  -0.00474706  0.80664192  1
  Hf  Hf43  1  0.78703714  0.80423382  0.20216460  1
  Hf  Hf44  1  0.90311178  0.30110914  0.50046027  1
  Hf  Hf45  1  0.89922782  0.89185890  0.89797619  1
  Hf  Hf46  1  0.68833396  0.50092132  0.69861856  1
  Hf  Hf47  1  0.30606423  0.09380771  0.89679855  1
  Hf  Hf48  1  0.59730258  -0.00614619  0.59627186  1
  Hf  Hf49  1  0.39848352  0.39651957  0.59961098  1
  Zr  Zr50  1  -0.00359648  0.39836186  0.00582965  1
  Zr  Zr51  1  0.91028895  0.88018260  0.50258769  1
  Zr  Zr52  1  0.70277255  0.10948710  0.90113241  1
  Zr  Zr53  1  0.49579232  0.91085249  0.10135021  1
  Zr  Zr54  1  0.79534227  -0.00468103  0.39332825  1
  Zr  Zr55  1  0.59650691  0.81354284  -0.00694926  1
  Zr  Zr56  1  0.20903717  0.79830720  0.60398954  1
  Zr  Zr57  1  0.29730635  0.50406367  0.69787222  1
  Zr  Zr58  1  0.10011953  0.10132905  0.10329370  1
  Zr  Zr59  1  0.39054759  0.79521172  -0.00325250  1
  Zr  Zr60  1  0.88765211  0.10546587  0.69244983  1
  Zr  Zr61  1  0.30641030  0.09434547  0.50152557  1
  Zr  Zr62  1  0.30379278  0.68795500  0.29975622  1
  Zr  Zr63  1  0.00113781  0.59927063  0.40013823  1
  Zr  Zr64  1  0.70073838  0.50103443  0.09201860  1
  Zr  Zr65  1  0.79519687  0.40429214  0.40375991  1
  Zr  Zr66  1  0.59782154  0.39300831  0.20201075  1
  Zr  Zr67  1  -0.00500640  0.01186514  0.20477330  1
  Zr  Zr68  1  0.68595880  0.69786024  0.09137163  1
  Zr  Zr69  1  0.69835040  0.71015100  0.88418667  1
  Zr  Zr70  1  0.09436989  0.49575191  0.69954071  1
  Zr  Zr71  1  0.41247713  0.19269945  0.00476270  1
  Zr  Zr72  1  0.59344359  0.59810122  0.19876523  1
  Zr  Zr73  1  0.79366963  0.80666134  0.00033954  1
  Zr  Zr74  1  0.69707410  0.89330151  0.49704599  1
  Zr  Zr75  1  0.30053759  0.91297339  0.49488055  1
  Zr  Zr76  1  0.10060426  0.10716270  0.89939300  1
  Zr  Zr77  1  0.90910122  0.30997630  0.69328691  1
  Zr  Zr78  1  0.91739006  0.70332845  0.10250912  1
  Zr  Zr79  1  0.80859176  0.59487696  0.78922294  1
  Zr  Zr80  1  0.49302337  0.50547172  0.90037553  1
  Zr  Zr81  1  0.39722808  0.40476139  0.79865911  1
  Zr  Zr82  1  0.21022086  0.59558985  -0.00006771  1
  Zr  Zr83  1  0.29276451  0.89875510  0.89227115  1
  Zr  Zr84  1  0.20850426  0.41171430  0.00380170  1
  Zr  Zr85  1  -0.00115419  0.00098048  0.79779764  1
  Zr  Zr86  1  0.69954880  0.09938154  0.50396459  1
  Zr  Zr87  1  0.79972318  0.39761901  0.79846077  1
  Zr  Zr88  1  0.69244963  0.30297227  0.49982253  1
  Zr  Zr89  1  0.10186168  0.49919471  0.49782671  1
  Zr  Zr90  1  0.11110835  0.09670471  0.50217237  1
  Zr  Zr91  1  0.02925766  0.21444235  0.60024408  1
  Zr  Zr92  1  0.69520971  0.10175411  0.10548879  1
  Zr  Zr93  1  0.70344410  0.69779696  0.30735060  1
  Zr  Zr94  1  0.49800012  0.69266503  0.90103054  1
  Zr  Zr95  1  0.40684885  0.19861432  0.79907909  1
  Zr  Zr96  1  0.10040637  0.30070087  0.89730433  1
  Zr  Zr97  1  0.10088427  0.29624234  0.10323096  1
  Zr  Zr98  1  0.00080256  0.00182485  0.60677469  1
  Zr  Zr99  1  0.80622142  0.60210901  -0.00531564  1
  Ta  Ta100  1  0.29952022  0.10032403  0.69690206  1
  Ta  Ta101  1  0.10052842  0.69805657  0.70580263  1
  Ta  Ta102  1  0.20473859  0.79529835  0.20141214  1
  Ta  Ta103  1  0.90908335  0.50078274  0.89898195  1
  Ta  Ta104  1  0.00186525  0.40373629  0.20071106  1
  Ta  Ta105  1  0.18862624  0.38384764  0.59895457  1
  Ta  Ta106  1  0.20075586  0.40013638  0.79915461  1
  Ta  Ta107  1  0.10200405  0.50433825  0.89537636  1
  Ta  Ta108  1  0.78653930  0.20084276  0.38949527  1
  Ta  Ta109  1  0.50011818  0.49805812  0.50569691  1
  Ta  Ta110  1  0.30839969  0.09287370  0.10594298  1
  Ta  Ta111  1  0.70302231  0.88735879  0.70785527  1
  Ta  Ta112  1  0.49194509  0.68883701  0.09782322  1
  Ta  Ta113  1  0.09899514  0.89698737  0.49958678  1
  Ta  Ta114  1  0.10255627  0.30227565  0.29450670  1
  Ta  Ta115  1  0.10535189  0.69925688  0.89774823  1
  Ta  Ta116  1  0.59103520  0.20074581  -0.00074210  1
  Ta  Ta117  1  0.50643044  0.30445561  0.69907159  1
  Ta  Ta118  1  0.90547810  0.88522434  0.30012379  1
  Ta  Ta119  1  0.00604629  0.40045567  0.39546839  1
  Ta  Ta120  1  0.79702419  -0.00376649  0.80163766  1
  Ta  Ta121  1  0.40785988  0.19250265  0.39813762  1
  Ta  Ta122  1  0.69423905  0.30280075  0.89900295  1
  Ta  Ta123  1  0.29530814  0.50494390  0.30462370  1
  Ta  Ta124  1  0.59066485  0.01217912  -0.00285800  1
  Ta  Ta125  1  0.50621059  0.30247640  0.89488696  1
  Ta  Ta126  1  0.59562446  0.20009129  0.60083100  1
  Ta  Ta127  1  0.29426473  0.29086739  0.69849528  1
  Ta  Ta128  1  0.50393767  0.69859613  0.50300768  1
  Ta  Ta129  1  0.79495483  -0.00109220  -0.00217297  1
  Ta  Ta130  1  0.00542495  0.79740247  0.80256986  1
  Ta  Ta131  1  0.59688229  0.19382586  0.39470836  1
  Ta  Ta132  1  0.50202663  0.50515293  0.69794357  1
  Ta  Ta133  1  -0.01189261  0.59889413  0.60424413  1
  Ta  Ta134  1  0.00151759  0.60075613  0.80052405  1
  Ta  Ta135  1  0.40696732  0.19849278  0.59719428  1
  Ta  Ta136  1  0.29704690  0.50062184  0.49443892  1
  Ta  Ta137  1  0.49648136  0.29531026  0.30103578  1
  Ta  Ta138  1  0.10740044  0.69812129  0.10187522  1
  Ta  Ta139  1  0.79461609  0.20652871  0.79689840  1
  Ta  Ta140  1  0.59527266  0.80693254  0.20839905  1
  Ta  Ta141  1  0.40877490  0.00830467  0.20744708  1
  Ta  Ta142  1  0.30336349  0.30189850  0.29540810  1
  Ta  Ta143  1  0.90590065  0.50353027  0.09938635  1
  Ta  Ta144  1  -0.00742420  0.20365726  0.20079786  1
  Ta  Ta145  1  0.50301243  0.69365395  0.69838595  1
  Ta  Ta146  1  0.30406853  0.90957671  0.29893357  1
  Ta  Ta147  1  0.90999031  0.70232106  0.89864376  1
  Ta  Ta148  1  0.50212428  0.29643150  0.49787982  1
  Ta  Ta149  1  0.30144732  0.69519764  0.10507446  1
  Ti  Ti150  1  0.79411739  0.20061538  0.20892946  1
  Ti  Ti151  1  0.30704980  0.09554304  0.30137958  1
  Ti  Ti152  1  0.31925694  0.50965462  0.11875346  1
  Ti  Ti153  1  0.89815336  0.50544506  0.50218476  1
  Ti  Ti154  1  0.80744245  0.39558246  -0.00051625  1
  Ti  Ti155  1  0.40972082  0.00176323  0.80193922  1
  Ti  Ti156  1  0.20085689  0.00324265  0.20617392  1
  Ti  Ti157  1  0.49344741  0.90609867  0.90039239  1
  Ti  Ti158  1  0.41466007  -0.00243533  0.59217081  1
  Ti  Ti159  1  0.50134186  0.69599145  0.30287948  1
  Ti  Ti160  1  0.89155839  0.10404410  0.30149574  1
  Ti  Ti161  1  0.80051582  0.60374035  0.19061009  1
  Ti  Ti162  1  0.80557058  0.20604776  -0.00240499  1
  Ti  Ti163  1  -0.01376227  0.20280202  0.00615684  1
  Ti  Ti164  1  0.79663869  0.79079609  0.59192213  1
  Ti  Ti165  1  0.68750034  0.90999134  0.10293650  1
  Ti  Ti166  1  0.79655201  -0.01060650  0.60476427  1
  Ti  Ti167  1  0.89462656  0.89031044  0.70163251  1
  Ti  Ti168  1  0.59497080  0.80037089  0.59479694  1
  Ti  Ti169  1  0.50986628  0.91695198  0.30734217  1
  Ti  Ti170  1  0.19578441  0.00278894  0.60792464  1
  Ti  Ti171  1  0.20071515  0.79284647  -0.00633643  1
  Ti  Ti172  1  0.10532992  0.69374574  0.29715205  1
  Ti  Ti173  1  0.39920870  0.40918131  0.00694937  1
  Ti  Ti174  1  0.29829822  0.69262340  0.71093685  1
  Ti  Ti175  1  0.60349719  0.60048551  0.59122241  1
  Ti  Ti176  1  0.19045579  0.00461887  0.79859153  1
  Ti  Ti177  1  0.70024207  0.09846653  0.69992660  1
  Ti  Ti178  1  0.60485091  0.20523230  0.79603550  1
  Ti  Ti179  1  0.89832271  0.29913271  0.89828665  1
  Ti  Ti180  1  0.19515781  0.00249606  0.38810986  1
  Ti  Ti181  1  0.79854424  0.79244541  0.40418657  1
  Ti  Ti182  1  0.59772742  0.39924619  0.59865088  1
  Ti  Ti183  1  0.59314839  0.19183063  0.20791635  1
  Ti  Ti184  1  0.50590159  0.89396701  0.70470665  1
  Ti  Ti185  1  0.40397916  0.59967365  0.60133780  1
  Ti  Ti186  1  0.01781050  0.59126297  0.19952571  1
  Ti  Ti187  1  0.20105220  0.19101841  0.20776969  1
  Ti  Ti188  1  0.00850298  0.59932652  -0.00246903  1
  Ti  Ti189  1  0.88958088  0.10550587  0.10126552  1
  Ti  Ti190  1  0.40712317  0.59558474  0.40581508  1
  Ti  Ti191  1  0.19634550  0.39990792  0.39505160  1
  Ti  Ti192  1  0.59852928  0.39890473  0.39881423  1
  Ti  Ti193  1  0.59407367  0.60109072  0.79715564  1
  Ti  Ti194  1  0.89314724  0.10336438  0.89810516  1
  Ti  Ti195  1  0.49306058  0.30049885  0.10916694  1
  Ti  Ti196  1  0.40682999  0.19257621  0.20722092  1
  Ti  Ti197  1  -0.00042210  0.40320259  0.79865342  1
  Ti  Ti198  1  0.78307034  0.21599580  0.61141972  1
  Ti  Ti199  1  0.59826378  0.80120432  0.39927815  1
  Mo  Mo200  1  0.39604667  0.39719145  0.20574318  1
  Mo  Mo201  1  0.10516719  0.10307962  0.29471022  1
  Mo  Mo202  1  0.40236396  0.00423049  0.00277518  1
  Mo  Mo203  1  0.01262489  0.79488707  -0.00732388  1
  Mo  Mo204  1  0.69730156  0.70102367  0.50414816  1
  Mo  Mo205  1  0.20336507  0.20061182  0.79454512  1
  Mo  Mo206  1  0.50493963  0.10180802  0.89719048  1
  Mo  Mo207  1  0.59156997  0.80486378  0.79429725  1
  Mo  Mo208  1  0.50050837  0.10227693  0.10668863  1
  Mo  Mo209  1  0.59065053  0.59640564  -0.00149482  1
  Mo  Mo210  1  0.29910619  0.50279863  0.89465861  1
  Mo  Mo211  1  0.39681020  0.60284356  0.79269938  1
  Mo  Mo212  1  0.00072800  0.79815619  0.60690475  1
  Mo  Mo213  1  0.59634088  0.00603163  0.39699646  1
  Mo  Mo214  1  0.69157145  0.29332802  0.29887891  1
  Mo  Mo215  1  0.10666515  0.30484326  0.70746531  1
  Mo  Mo216  1  0.00384470  0.79827187  0.39618792  1
  Mo  Mo217  1  0.90536548  0.50435223  0.69927294  1
  Mo  Mo218  1  0.19952912  0.59811314  0.80358929  1
  Mo  Mo219  1  0.69190290  0.09903816  0.30047744  1
  Mo  Mo220  1  0.40054319  0.60314979  0.20411322  1
  Mo  Mo221  1  0.10387721  0.30618272  0.48574185  1
  Mo  Mo222  1  0.20115426  0.78952378  0.80301527  1
  Mo  Mo223  1  0.10134370  0.49935053  0.29893058  1
  Mo  Mo224  1  0.79651386  0.60248139  0.59084327  1
  Mo  Mo225  1  0.50155560  0.10045693  0.30144979  1
  Mo  Mo226  1  0.68868335  0.30145051  0.70149187  1
  Mo  Mo227  1  0.19927233  0.60154583  0.19932287  1
  Mo  Mo228  1  0.01060786  0.78766925  0.20357113  1
  Mo  Mo229  1  0.48826937  0.50117292  0.09733690  1
  Mo  Mo230  1  0.50196240  0.09950237  0.49828074  1
  Mo  Mo231  1  0.79987531  0.60464424  0.41823958  1
  Mo  Mo232  1  0.40991791  0.00492292  0.39429672  1
  Mo  Mo233  1  0.89620907  0.29321161  0.10219789  1
  Mo  Mo234  1  0.50438463  0.89804360  0.49515143  1
  Mo  Mo235  1  0.19924471  0.59535938  0.39919714  1
  Mo  Mo236  1  0.09003569  0.50800009  0.09713164  1
  Mo  Mo237  1  0.89172383  0.69408777  0.50232482  1
  Mo  Mo238  1  0.69102715  0.89606585  0.30307318  1
  Mo  Mo239  1  0.09906259  0.88812516  0.89893254  1
  Mo  Mo240  1  0.59942011  0.00089233  0.20524223  1
  Mo  Mo241  1  0.70189501  0.90864482  0.89889617  1
  Mo  Mo242  1  0.29596298  0.69131748  0.89479949  1
  Mo  Mo243  1  0.00088244  0.40729496  0.59057428  1
  Mo  Mo244  1  0.20921586  0.20025475  0.60226591  1
  Mo  Mo245  1  0.39465199  0.59511988  0.00556358  1
  Mo  Mo246  1  0.80507858  0.80387436  0.79659729  1
  Mo  Mo247  1  0.12154379  0.10633920  0.70287966  1
  Mo  Mo248  1  0.59578103  0.39830408  0.79844227  1
  Mo  Mo249  1  0.69050421  0.50221501  0.50429017  1
