# generated using pymatgen
data_HfZrTaTiMo
_symmetry_space_group_name_H-M   'P 1'
_cell_length_a   16.89249657
_cell_length_b   16.89231038
_cell_length_c   16.88817264
_cell_angle_alpha   90.00864454
_cell_angle_beta   90.00009626
_cell_angle_gamma   90.02748933
_symmetry_Int_Tables_number   1
_chemical_formula_structural   HfZrTaTiMo
_chemical_formula_sum   'Hf50 Zr50 Ta50 Ti50 Mo50'
_cell_volume   4819.09510214
_cell_formula_units_Z   50
loop_
 _symmetry_equiv_pos_site_id
 _symmetry_equiv_pos_as_xyz
  1  'x, y, z'
loop_
 _atom_site_type_symbol
 _atom_site_label
 _atom_site_symmetry_multiplicity
 _atom_site_fract_x
 _atom_site_fract_y
 _atom_site_fract_z
 _atom_site_occupancy
  Hf  Hf0  1  0.29993778  0.90307505  0.10366851  1
  Hf  Hf1  1  0.79795438  0.79859591  0.39002284  1
  Hf  Hf2  1  0.31059576  0.29261678  0.70776336  1
  Hf  Hf3  1  0.79690991  0.60404089  0.40168466  1
  Hf  Hf4  1  0.39765799  0.81127333  0.60704526  1
  Hf  Hf5  1  0.20211254  0.60613837  -0.01180038  1
  Hf  Hf6  1  0.49158553  0.50078992  0.07739746  1
  Hf  Hf7  1  0.30501542  0.69842452  0.10338697  1
  Hf  Hf8  1  0.10302594  0.31167697  0.31467720  1
  Hf  Hf9  1  0.59861561  0.60151880  0.19902716  1
  Hf  Hf10  1  0.80544770  0.00059161  0.40194214  1
  Hf  Hf11  1  0.69113696  0.89917737  0.50009281  1
  Hf  Hf12  1  0.00434804  0.80210496  0.38333150  1
  Hf  Hf13  1  0.69284450  0.29596864  0.09416377  1
  Hf  Hf14  1  0.80524053  0.01163124  0.59752394  1
  Hf  Hf15  1  0.19808961  0.39945096  0.80867068  1
  Hf  Hf16  1  0.69256193  0.29944038  0.29842774  1
  Hf  Hf17  1  0.58798646  -0.00697728  0.79657887  1
  Hf  Hf18  1  0.49246241  0.89757078  0.29544911  1
  Hf  Hf19  1  0.01008759  0.19985543  0.20453072  1
  Hf  Hf20  1  0.09991668  0.49883823  0.69949728  1
  Hf  Hf21  1  0.58315381  0.00133983  0.60045207  1
  Hf  Hf22  1  0.39903242  0.59111359  0.40441822  1
  Hf  Hf23  1  -0.00089818  0.00588668  0.79220756  1
  Hf  Hf24  1  0.20005172  0.59523707  0.38883408  1
  Hf  Hf25  1  0.91350694  0.10278012  0.09231308  1
  Hf  Hf26  1  0.10468708  0.90998914  0.89832727  1
  Hf  Hf27  1  0.89161571  0.30395911  0.30593337  1
  Hf  Hf28  1  0.59864643  0.60005813  0.60393953  1
  Hf  Hf29  1  0.31625527  0.49250072  0.70125498  1
  Hf  Hf30  1  0.40603074  0.61285337  0.80936848  1
  Hf  Hf31  1  0.30802163  0.30071141  0.10207976  1
  Hf  Hf32  1  0.00416352  0.79857740  0.00119886  1
  Hf  Hf33  1  0.09212096  0.29649512  0.09028996  1
  Hf  Hf34  1  0.20922523  0.39715380  0.60066384  1
  Hf  Hf35  1  -0.01042990  0.39758501  0.59828435  1
  Hf  Hf36  1  0.40159921  0.00612630  0.40427916  1
  Hf  Hf37  1  0.19966991  0.40208470  -0.00785347  1
  Hf  Hf38  1  0.20814730  0.79847101  0.79780059  1
  Hf  Hf39  1  0.69960238  0.30187912  0.49449189  1
  Hf  Hf40  1  0.00104017  0.59991281  0.39091834  1
  Hf  Hf41  1  0.80446548  0.19979527  0.59967088  1
  Hf  Hf42  1  0.10252458  0.70947522  0.50000830  1
  Hf  Hf43  1  0.00059574  0.41849501  -0.00872168  1
  Hf  Hf44  1  0.29901530  0.91048800  0.90226442  1
  Hf  Hf45  1  0.89703135  0.70317391  0.10184507  1
  Hf  Hf46  1  0.10308795  0.29728837  0.50056338  1
  Hf  Hf47  1  0.79605952  0.40599422  0.18252809  1
  Hf  Hf48  1  0.20741954  0.60055019  0.80585041  1
  Hf  Hf49  1  0.30045351  0.09919177  0.89618524  1
  Zr  Zr50  1  0.80000297  -0.00031369  0.19511688  1
  Zr  Zr51  1  0.51194426  0.71891669  0.70362528  1
  Zr  Zr52  1  0.68778042  0.10826078  0.70226825  1
  Zr  Zr53  1  0.10637454  0.51656959  0.10391638  1
  Zr  Zr54  1  0.20302972  0.20043242  -0.00068120  1
  Zr  Zr55  1  0.39552410  0.00310766  0.60376282  1
  Zr  Zr56  1  0.30797624  0.50296329  0.09972370  1
  Zr  Zr57  1  0.90088489  0.90018973  0.10317611  1
  Zr  Zr58  1  0.91294696  0.09509716  0.30066354  1
  Zr  Zr59  1  0.50069938  0.49358574  0.50361037  1
  Zr  Zr60  1  0.10606292  0.49242708  0.49210123  1
  Zr  Zr61  1  0.32801684  0.49479625  0.91175522  1
  Zr  Zr62  1  0.89094899  0.50372974  0.29711774  1
  Zr  Zr63  1  0.30392616  0.71379836  0.29951253  1
  Zr  Zr64  1  0.89632786  0.69261632  0.70340329  1
  Zr  Zr65  1  0.69261648  0.49147731  0.30399834  1
  Zr  Zr66  1  0.69426252  0.49489703  0.90467414  1
  Zr  Zr67  1  0.19758702  0.40206437  0.20500321  1
  Zr  Zr68  1  0.60505162  0.39354682  0.61042322  1
  Zr  Zr69  1  0.79221218  0.80026584  0.60063890  1
  Zr  Zr70  1  0.69724731  0.89781255  0.29099984  1
  Zr  Zr71  1  0.30744161  0.29934808  0.50239888  1
  Zr  Zr72  1  0.59000959  0.59907180  0.81323275  1
  Zr  Zr73  1  0.80096769  0.40406981  0.79817774  1
  Zr  Zr74  1  0.79365594  -0.00503179  0.79614437  1
  Zr  Zr75  1  0.40812029  0.59800155  0.20827295  1
  Zr  Zr76  1  0.68461555  0.10096550  0.28759651  1
  Zr  Zr77  1  0.90631572  0.70298103  0.50924172  1
  Zr  Zr78  1  0.69407230  0.70235641  0.90263969  1
  Zr  Zr79  1  0.20342666  0.19661482  0.39795099  1
  Zr  Zr80  1  0.68727675  0.09860620  0.90570583  1
  Zr  Zr81  1  -0.00267294  0.18882437  0.60117482  1
  Zr  Zr82  1  0.19783968  0.79451504  -0.00147463  1
  Zr  Zr83  1  0.09238532  0.70167408  0.69105726  1
  Zr  Zr84  1  0.30500840  0.71074593  0.49353039  1
  Zr  Zr85  1  0.21454435  0.59785406  0.59484458  1
  Zr  Zr86  1  0.89847823  0.30010814  0.70652237  1
  Zr  Zr87  1  0.80013101  0.19762863  0.19112791  1
  Zr  Zr88  1  0.79444982  0.59866423  0.00699655  1
  Zr  Zr89  1  0.59710664  0.78901766  0.19987048  1
  Zr  Zr90  1  0.00180101  0.19101471  0.79460373  1
  Zr  Zr91  1  0.49717403  0.29776121  0.50248932  1
  Zr  Zr92  1  0.90024088  0.29784865  0.91098739  1
  Zr  Zr93  1  -0.00412190  0.58974759  0.80782420  1
  Zr  Zr94  1  0.29867937  0.09558042  0.29345595  1
  Zr  Zr95  1  -0.00103221  0.40798512  0.20179530  1
  Zr  Zr96  1  0.51595462  0.09439144  0.10205494  1
  Zr  Zr97  1  0.91414506  0.89751617  0.50099891  1
  Zr  Zr98  1  0.90414873  0.89219300  0.69768400  1
  Zr  Zr99  1  0.80429670  0.19198207  0.40970840  1
  Ta  Ta100  1  0.00987797  0.61303426  0.20614921  1
  Ta  Ta101  1  0.29405583  0.90198926  0.49047205  1
  Ta  Ta102  1  0.78598615  0.60727632  0.19973689  1
  Ta  Ta103  1  0.68820971  0.90542757  0.09616978  1
  Ta  Ta104  1  0.00883457  0.80157245  0.20069594  1
  Ta  Ta105  1  0.50083684  0.49009630  0.70825629  1
  Ta  Ta106  1  0.39826130  0.39936776  0.39115350  1
  Ta  Ta107  1  -0.00171063  0.80204649  0.80441694  1
  Ta  Ta108  1  0.79714057  0.19420318  -0.00041584  1
  Ta  Ta109  1  0.19764130  0.19715734  0.19900836  1
  Ta  Ta110  1  0.59102746  0.39146420  -0.00657387  1
  Ta  Ta111  1  0.00831261  0.00572691  0.60346333  1
  Ta  Ta112  1  0.20416699  0.00150737  0.60607013  1
  Ta  Ta113  1  0.59173095  0.00108985  0.40041145  1
  Ta  Ta114  1  0.49970033  0.10064679  0.29419768  1
  Ta  Ta115  1  0.49846379  0.10227364  0.89695176  1
  Ta  Ta116  1  0.50036741  0.70590694  0.49931519  1
  Ta  Ta117  1  0.89951526  0.09573779  0.90356787  1
  Ta  Ta118  1  0.40027992  0.00123076  0.79148697  1
  Ta  Ta119  1  0.69677612  0.29662779  0.90012668  1
  Ta  Ta120  1  0.09413609  0.29367714  0.89707111  1
  Ta  Ta121  1  0.40124388  -0.00045085  0.19640341  1
  Ta  Ta122  1  0.79333786  0.00114085  0.00097389  1
  Ta  Ta123  1  0.49770458  0.89700290  0.09783546  1
  Ta  Ta124  1  0.69936038  0.49985576  0.49943241  1
  Ta  Ta125  1  0.49783663  0.89216827  0.49638438  1
  Ta  Ta126  1  0.79918249  0.19324956  0.80436828  1
  Ta  Ta127  1  0.40679091  0.59967641  0.60219638  1
  Ta  Ta128  1  0.79429887  0.80782017  0.00082783  1
  Ta  Ta129  1  0.40488052  0.18716755  0.60771962  1
  Ta  Ta130  1  0.89689383  0.90019116  0.90311858  1
  Ta  Ta131  1  0.11311117  0.90670208  0.30031059  1
  Ta  Ta132  1  0.30067135  0.09570229  0.09903481  1
  Ta  Ta133  1  0.30655322  0.29729534  0.29588734  1
  Ta  Ta134  1  0.69184576  0.69760906  0.50340663  1
  Ta  Ta135  1  0.89303813  0.70446745  0.90009662  1
  Ta  Ta136  1  0.70036035  0.69865953  0.70546293  1
  Ta  Ta137  1  0.10269650  0.09763352  0.90346142  1
  Ta  Ta138  1  0.20582467  0.81200768  0.60362410  1
  Ta  Ta139  1  0.59953138  0.79482788  0.39913453  1
  Ta  Ta140  1  0.29718058  0.89970368  0.30003826  1
  Ta  Ta141  1  0.10448536  0.90341898  0.70127392  1
  Ta  Ta142  1  0.79470166  0.80192998  0.80520494  1
  Ta  Ta143  1  0.10641694  0.09195748  0.49829802  1
  Ta  Ta144  1  0.19225850  0.79740568  0.19943240  1
  Ta  Ta145  1  -0.01739910  0.40367112  0.40986558  1
  Ta  Ta146  1  0.70188847  0.50614160  0.70474762  1
  Ta  Ta147  1  0.40775899  0.19954574  0.00022865  1
  Ta  Ta148  1  0.10688845  0.90909194  0.10296241  1
  Ta  Ta149  1  0.80169404  0.40538402  0.59766776  1
  Ti  Ti150  1  0.40454397  0.19644063  0.40119584  1
  Ti  Ti151  1  0.00554517  -0.00259672  0.40071773  1
  Ti  Ti152  1  0.00218095  0.60584327  -0.00115451  1
  Ti  Ti153  1  0.00242179  -0.00013666  -0.00283951  1
  Ti  Ti154  1  0.49632728  0.70098237  0.08968954  1
  Ti  Ti155  1  0.69732234  0.70664487  0.09672302  1
  Ti  Ti156  1  0.41415006  0.39208311  0.80817748  1
  Ti  Ti157  1  0.88702812  0.50683935  0.90187051  1
  Ti  Ti158  1  0.59492248  0.80144054  -0.00120219  1
  Ti  Ti159  1  -0.00371881  0.19823838  0.40909830  1
  Ti  Ti160  1  0.90065682  0.51092606  0.10041252  1
  Ti  Ti161  1  0.59883486  0.60636787  0.39535077  1
  Ti  Ti162  1  0.29547820  0.09947967  0.50187742  1
  Ti  Ti163  1  0.49074142  0.70883154  0.30881084  1
  Ti  Ti164  1  0.39930684  0.79780845  -0.00666323  1
  Ti  Ti165  1  0.50337823  0.49310022  0.30058075  1
  Ti  Ti166  1  0.88990833  0.70765607  0.28492991  1
  Ti  Ti167  1  -0.00032753  0.40547964  0.80251782  1
  Ti  Ti168  1  0.69423887  0.29755578  0.71191820  1
  Ti  Ti169  1  0.69343676  0.89891271  0.90597861  1
  Ti  Ti170  1  0.40644375  0.00400985  0.00015460  1
  Ti  Ti171  1  0.20249743  0.18962555  0.61040493  1
  Ti  Ti172  1  0.68018663  0.88366544  0.69827613  1
  Ti  Ti173  1  0.00757587  -0.00669478  0.20550592  1
  Ti  Ti174  1  0.30938063  0.29270297  0.89634864  1
  Ti  Ti175  1  0.40820969  0.39700371  0.20134279  1
  Ti  Ti176  1  0.59294170  0.39676987  0.39920540  1
  Ti  Ti177  1  0.10674450  0.09147337  0.30357017  1
  Ti  Ti178  1  0.58861739  0.19367806  0.40016600  1
  Ti  Ti179  1  0.30622088  0.70197540  0.69924520  1
  Ti  Ti180  1  0.49996846  0.90059342  0.90424197  1
  Ti  Ti181  1  0.40137717  0.81125332  0.80083224  1
  Ti  Ti182  1  0.68658795  0.49858648  0.09089683  1
  Ti  Ti183  1  0.59595502  0.20090686  0.00179511  1
  Ti  Ti184  1  0.68572636  0.10047733  0.49828232  1
  Ti  Ti185  1  0.50136924  0.29223885  0.70902023  1
  Ti  Ti186  1  0.09282337  0.70041383  0.89400469  1
  Ti  Ti187  1  0.10662218  0.09197118  0.09670465  1
  Ti  Ti188  1  0.29712253  0.49305482  0.29714213  1
  Ti  Ti189  1  0.10812552  0.90232477  0.49853432  1
  Ti  Ti190  1  0.40596275  0.19725046  0.19470486  1
  Ti  Ti191  1  -0.01163126  0.58057843  0.59366615  1
  Ti  Ti192  1  0.58714900  0.39442756  0.18948611  1
  Ti  Ti193  1  0.79952812  0.59236030  0.60187637  1
  Ti  Ti194  1  0.50034680  0.29260366  0.29361381  1
  Ti  Ti195  1  0.10261229  0.29873919  0.70365297  1
  Ti  Ti196  1  0.58907646  0.19521643  0.60155555  1
  Ti  Ti197  1  0.90208725  0.30078567  0.08957043  1
  Ti  Ti198  1  0.19870117  0.19368508  0.79572713  1
  Ti  Ti199  1  0.50533623  0.29131691  0.89430839  1
  Mo  Mo200  1  0.11344467  0.09648703  0.69948762  1
  Mo  Mo201  1  0.22024698  0.40289863  0.39991779  1
  Mo  Mo202  1  0.49519581  0.90227618  0.70262715  1
  Mo  Mo203  1  0.59424823  -0.00554989  0.19768134  1
  Mo  Mo204  1  0.19641794  0.60527707  0.20706984  1
  Mo  Mo205  1  0.79664407  0.40202610  0.41211746  1
  Mo  Mo206  1  0.40664785  0.39539693  0.61200484  1
  Mo  Mo207  1  0.20040204  0.00121049  0.19997874  1
  Mo  Mo208  1  0.59943581  0.39355584  0.80086791  1
  Mo  Mo209  1  0.49896189  0.10332070  0.49270382  1
  Mo  Mo210  1  0.59761444  0.20455414  0.80393770  1
  Mo  Mo211  1  0.79838878  0.39868418  0.00334385  1
  Mo  Mo212  1  0.00234545  0.19034984  -0.00309516  1
  Mo  Mo213  1  0.29669982  0.90414633  0.70412690  1
  Mo  Mo214  1  0.50211900  0.48379641  0.89873861  1
  Mo  Mo215  1  0.89404786  0.50066055  0.69642131  1
  Mo  Mo216  1  0.49485162  0.10608739  0.70715575  1
  Mo  Mo217  1  0.20033351  0.00007264  0.40512719  1
  Mo  Mo218  1  0.59813357  0.79978876  0.59500810  1
  Mo  Mo219  1  0.79696645  0.60429978  0.79811529  1
  Mo  Mo220  1  0.19922369  0.00575761  0.00370684  1
  Mo  Mo221  1  0.09925852  0.50355669  0.30178635  1
  Mo  Mo222  1  0.91255998  0.89860897  0.29560201  1
  Mo  Mo223  1  0.91832611  0.09588429  0.49918812  1
  Mo  Mo224  1  0.40784274  0.37294239  -0.00409642  1
  Mo  Mo225  1  0.40653538  0.19681087  0.80372006  1
  Mo  Mo226  1  0.50104677  0.72460816  0.90433058  1
  Mo  Mo227  1  0.59272493  0.60372523  0.00593010  1
  Mo  Mo228  1  0.40896265  0.62307915  -0.01119059  1
  Mo  Mo229  1  0.40043805  0.80498853  0.19511840  1
  Mo  Mo230  1  0.69659445  0.69595767  0.30385216  1
  Mo  Mo231  1  0.09896834  0.70388553  0.10251544  1
  Mo  Mo232  1  0.40320534  0.80600589  0.40125191  1
  Mo  Mo233  1  0.01624817  0.81223796  0.60564351  1
  Mo  Mo234  1  0.89669965  0.29920351  0.49795474  1
  Mo  Mo235  1  0.20195656  0.00522610  0.79557807  1
  Mo  Mo236  1  0.89021066  0.09536924  0.70308455  1
  Mo  Mo237  1  0.09596332  0.50232497  0.89817899  1
  Mo  Mo238  1  0.59599043  -0.00962414  -0.00354220  1
  Mo  Mo239  1  0.89071953  0.50132646  0.50027764  1
  Mo  Mo240  1  0.31072948  0.71000027  0.89788401  1
  Mo  Mo241  1  0.60272534  0.80836777  0.80795047  1
  Mo  Mo242  1  0.79670749  0.79434508  0.19287855  1
  Mo  Mo243  1  0.59260072  0.20490852  0.20115297  1
  Mo  Mo244  1  0.29797198  0.10240874  0.70440131  1
  Mo  Mo245  1  0.10714413  0.70392757  0.29589590  1
  Mo  Mo246  1  0.30978650  0.49395496  0.49877468  1
  Mo  Mo247  1  0.49981114  0.29682047  0.10159639  1
  Mo  Mo248  1  0.19797176  0.80888486  0.39883470  1
  Mo  Mo249  1  0.69793137  0.09799323  0.09154789  1
