# generated using pymatgen
data_HfZrTaTiMo
_symmetry_space_group_name_H-M   'P 1'
_cell_length_a   16.88732013
_cell_length_b   16.88778320
_cell_length_c   16.88232577
_cell_angle_alpha   89.96037501
_cell_angle_beta   90.00821733
_cell_angle_gamma   90.01072641
_symmetry_Int_Tables_number   1
_chemical_formula_structural   HfZrTaTiMo
_chemical_formula_sum   'Hf50 Zr50 Ta50 Ti50 Mo50'
_cell_volume   4814.65909172
_cell_formula_units_Z   50
loop_
 _symmetry_equiv_pos_site_id
 _symmetry_equiv_pos_as_xyz
  1  'x, y, z'
loop_
 _atom_site_type_symbol
 _atom_site_label
 _atom_site_symmetry_multiplicity
 _atom_site_fract_x
 _atom_site_fract_y
 _atom_site_fract_z
 _atom_site_occupancy
  Hf  Hf0  1  0.29579866  0.29375291  0.90250943  1
  Hf  Hf1  1  0.20071603  0.40501128  0.00711836  1
  Hf  Hf2  1  0.69721647  0.30137284  0.90230747  1
  Hf  Hf3  1  0.31071243  0.68328198  0.30691485  1
  Hf  Hf4  1  0.59296495  0.39087840  0.40764128  1
  Hf  Hf5  1  0.29389222  0.10543732  0.90534810  1
  Hf  Hf6  1  0.80979658  0.40204767  0.79473941  1
  Hf  Hf7  1  0.30769140  0.70483214  0.70075582  1
  Hf  Hf8  1  0.70217250  0.71009712  0.69119398  1
  Hf  Hf9  1  0.80056040  0.19931979  0.39944809  1
  Hf  Hf10  1  0.62078996  0.60804995  0.19539067  1
  Hf  Hf11  1  0.29851783  0.28937050  0.50323933  1
  Hf  Hf12  1  0.11016470  0.69322963  0.50012548  1
  Hf  Hf13  1  0.09678929  0.90317158  0.69225684  1
  Hf  Hf14  1  0.69718377  0.89339718  0.68777555  1
  Hf  Hf15  1  0.39527567  0.81607882  0.38703152  1
  Hf  Hf16  1  0.89542583  0.69480289  0.91247369  1
  Hf  Hf17  1  0.00079344  -0.00199257  0.80435923  1
  Hf  Hf18  1  0.49214854  0.69804276  0.90467574  1
  Hf  Hf19  1  0.49713048  0.70001331  0.29331107  1
  Hf  Hf20  1  0.09609814  0.69753778  0.09742162  1
  Hf  Hf21  1  0.59421933  0.80759872  0.80876092  1
  Hf  Hf22  1  0.19634291  0.39665054  0.20479619  1
  Hf  Hf23  1  0.89442743  0.09307315  0.90602076  1
  Hf  Hf24  1  0.49694065  0.30206492  0.90577635  1
  Hf  Hf25  1  0.00325476  0.19505535  0.59649412  1
  Hf  Hf26  1  0.80685032  0.59619594  0.79292873  1
  Hf  Hf27  1  0.10386004  0.89453950  0.90943229  1
  Hf  Hf28  1  0.30060266  0.70335155  0.89654475  1
  Hf  Hf29  1  0.09983711  0.89858495  0.10827006  1
  Hf  Hf30  1  0.00017991  0.40788589  0.21157483  1
  Hf  Hf31  1  0.79510700  0.78968474  0.19970783  1
  Hf  Hf32  1  0.80340172  0.19928336  0.80213696  1
  Hf  Hf33  1  0.19574700  0.39557881  0.39092918  1
  Hf  Hf34  1  0.29363908  0.50100420  0.88890868  1
  Hf  Hf35  1  0.49597940  0.28935231  0.30262190  1
  Hf  Hf36  1  0.59038932  -0.00174670  0.80240385  1
  Hf  Hf37  1  0.69474849  0.30449841  0.68933055  1
  Hf  Hf38  1  0.29668626  0.10426392  0.69388085  1
  Hf  Hf39  1  0.10484519  0.90511401  0.30232933  1
  Hf  Hf40  1  0.90361860  0.10292112  0.29720944  1
  Hf  Hf41  1  0.49245662  0.70054363  0.49332186  1
  Hf  Hf42  1  0.09919852  0.30556577  0.89927853  1
  Hf  Hf43  1  0.70009589  0.09823831  0.10309674  1
  Hf  Hf44  1  0.50352514  0.90182449  0.49693946  1
  Hf  Hf45  1  0.10660135  0.69450406  0.29968760  1
  Hf  Hf46  1  0.19294043  0.79819294  0.79409952  1
  Hf  Hf47  1  -0.00434755  0.59000798  0.39127462  1
  Hf  Hf48  1  0.89997346  0.89808188  0.69313277  1
  Hf  Hf49  1  0.09672135  0.69415602  0.90424939  1
  Zr  Zr50  1  0.70639080  0.49169457  0.30215594  1
  Zr  Zr51  1  0.59521313  0.40029515  0.79498283  1
  Zr  Zr52  1  0.79963499  0.20410804  0.00019537  1
  Zr  Zr53  1  0.70448217  0.90651836  0.91520809  1
  Zr  Zr54  1  0.49578103  0.49980285  0.69286887  1
  Zr  Zr55  1  0.10155861  0.09987665  0.70061483  1
  Zr  Zr56  1  0.10180514  0.49916262  0.70700230  1
  Zr  Zr57  1  0.69686202  0.10109876  0.70142190  1
  Zr  Zr58  1  -0.00296176  0.79362471  0.40137163  1
  Zr  Zr59  1  0.21106750  0.80439856  0.40429865  1
  Zr  Zr60  1  0.90481972  0.10555404  0.11261150  1
  Zr  Zr61  1  0.60304311  0.60189679  0.80110693  1
  Zr  Zr62  1  0.40032213  -0.00125453  0.00970150  1
  Zr  Zr63  1  0.59121848  0.00681845  0.59615872  1
  Zr  Zr64  1  0.80125968  0.19824774  0.59365518  1
  Zr  Zr65  1  0.79728269  0.00344193  0.58956249  1
  Zr  Zr66  1  0.69858926  0.90905881  0.29214554  1
  Zr  Zr67  1  0.10655017  0.09981635  0.49366423  1
  Zr  Zr68  1  0.60906472  0.80251726  0.39371956  1
  Zr  Zr69  1  0.60188491  0.59750467  0.58923450  1
  Zr  Zr70  1  0.40889693  -0.00034792  0.80361711  1
  Zr  Zr71  1  0.10622765  0.49965133  0.49831605  1
  Zr  Zr72  1  0.39773067  0.39865078  0.01149701  1
  Zr  Zr73  1  0.90243313  0.90710346  0.29861366  1
  Zr  Zr74  1  0.88978776  0.90087832  0.09456845  1
  Zr  Zr75  1  0.49508024  0.71207487  0.69439376  1
  Zr  Zr76  1  0.58940468  0.19596901  0.79688786  1
  Zr  Zr77  1  0.60248740  0.79173937  0.00943414  1
  Zr  Zr78  1  0.22338706  0.80350708  0.20143942  1
  Zr  Zr79  1  0.90075617  0.50559774  0.09006011  1
  Zr  Zr80  1  0.58348393  0.20043562  0.58334566  1
  Zr  Zr81  1  0.91256483  0.29459259  0.70245545  1
  Zr  Zr82  1  0.20561741  0.59072538  0.19214401  1
  Zr  Zr83  1  0.20276395  0.20435778  0.20497258  1
  Zr  Zr84  1  0.30434050  0.90109849  0.70165939  1
  Zr  Zr85  1  0.50139049  0.89618803  0.11589118  1
  Zr  Zr86  1  0.70699634  0.50211718  0.90855665  1
  Zr  Zr87  1  0.38582210  0.59754460  0.01106802  1
  Zr  Zr88  1  0.80057049  0.59584418  0.59662690  1
  Zr  Zr89  1  0.39268957  0.39729813  0.78704967  1
  Zr  Zr90  1  0.60991300  0.60152190  0.40456809  1
  Zr  Zr91  1  -0.00418571  0.59815651  0.60603525  1
  Zr  Zr92  1  0.00519195  0.00230892  0.00148749  1
  Zr  Zr93  1  0.40426948  0.19373116  0.02186468  1
  Zr  Zr94  1  0.60021731  0.39675021  0.19748356  1
  Zr  Zr95  1  0.49549477  0.50451851  0.11001408  1
  Zr  Zr96  1  0.49191240  0.50660782  0.30263794  1
  Zr  Zr97  1  0.79769345  0.60783917  0.40209450  1
  Zr  Zr98  1  0.10073883  0.10683201  0.10389786  1
  Zr  Zr99  1  0.09074756  0.09947942  0.29746178  1
  Ta  Ta100  1  0.90104874  0.49060420  0.49659199  1
  Ta  Ta101  1  0.81268170  0.39785628  0.59821615  1
  Ta  Ta102  1  0.40128111  0.19748443  0.79308948  1
  Ta  Ta103  1  0.19849773  0.20417944  0.79760731  1
  Ta  Ta104  1  0.09918481  0.90585751  0.50180540  1
  Ta  Ta105  1  0.29719666  0.50425086  0.49406879  1
  Ta  Ta106  1  0.49946946  0.50110604  0.90499525  1
  Ta  Ta107  1  0.90447753  0.90184894  0.50267801  1
  Ta  Ta108  1  0.48864429  0.69912111  0.10960295  1
  Ta  Ta109  1  0.91215280  0.49985241  0.90201706  1
  Ta  Ta110  1  0.20316492  0.00046926  0.59340030  1
  Ta  Ta111  1  0.39396620  0.80480997  0.01002586  1
  Ta  Ta112  1  0.38525567  0.80377097  0.57908870  1
  Ta  Ta113  1  0.09086924  0.50017528  0.09416850  1
  Ta  Ta114  1  0.20095652  0.59587446  0.00421373  1
  Ta  Ta115  1  0.20317606  0.79993233  0.59521373  1
  Ta  Ta116  1  0.60229521  0.40031145  0.01069995  1
  Ta  Ta117  1  0.20443149  0.39914422  0.60390913  1
  Ta  Ta118  1  0.09155619  0.30117176  0.09827787  1
  Ta  Ta119  1  0.80159111  0.80072674  0.80340933  1
  Ta  Ta120  1  0.70134222  0.29061360  0.29646492  1
  Ta  Ta121  1  0.30599386  0.10245773  0.30756672  1
  Ta  Ta122  1  0.39276039  0.59891162  0.59211283  1
  Ta  Ta123  1  -0.00700931  0.79201115  0.19985533  1
  Ta  Ta124  1  0.00058780  0.39681931  0.39407217  1
  Ta  Ta125  1  0.79846758  -0.00363748  0.80074455  1
  Ta  Ta126  1  0.90923490  0.09589711  0.49056023  1
  Ta  Ta127  1  0.40082857  0.00776384  0.59134465  1
  Ta  Ta128  1  0.90905477  0.29762341  0.49405840  1
  Ta  Ta129  1  0.21254029  0.00255205  0.20130480  1
  Ta  Ta130  1  0.59578795  0.20292723  0.01183369  1
  Ta  Ta131  1  0.40038748  0.39703970  0.40816371  1
  Ta  Ta132  1  -0.00301595  0.20879456  -0.00398768  1
  Ta  Ta133  1  0.60462487  0.59589270  0.00821318  1
  Ta  Ta134  1  0.90025218  0.70879685  0.69955324  1
  Ta  Ta135  1  0.79607723  0.80301295  0.40698171  1
  Ta  Ta136  1  0.80737701  0.59824939  0.19908587  1
  Ta  Ta137  1  0.59543313  0.00741502  0.39533245  1
  Ta  Ta138  1  0.90231684  0.30461735  0.10171094  1
  Ta  Ta139  1  0.89494643  0.89544789  0.90358811  1
  Ta  Ta140  1  -0.00233121  0.79632260  0.80042936  1
  Ta  Ta141  1  0.80934953  0.39282133  0.39622282  1
  Ta  Ta142  1  0.70623312  0.30131515  0.10636972  1
  Ta  Ta143  1  0.10118991  0.29684330  0.49940486  1
  Ta  Ta144  1  0.70597652  0.47961555  0.50191426  1
  Ta  Ta145  1  0.69491363  0.10865733  0.29608856  1
  Ta  Ta146  1  0.30592954  0.49657975  0.30291321  1
  Ta  Ta147  1  0.00265725  0.39824645  0.59778432  1
  Ta  Ta148  1  0.49582446  0.10577112  0.30003942  1
  Ta  Ta149  1  0.21031486  -0.00036289  0.01133044  1
  Ti  Ti150  1  0.70262863  0.29970259  0.49654810  1
  Ti  Ti151  1  0.31176118  0.29149993  0.30624651  1
  Ti  Ti152  1  0.30192105  0.89664826  0.90187112  1
  Ti  Ti153  1  0.19632676  0.20321304  0.39387766  1
  Ti  Ti154  1  0.00093525  0.19687986  0.80838584  1
  Ti  Ti155  1  0.20762882  0.60254998  0.60783468  1
  Ti  Ti156  1  0.10506853  0.29654292  0.69652573  1
  Ti  Ti157  1  0.29557724  0.91837999  0.49279415  1
  Ti  Ti158  1  0.10845693  0.10778972  0.90796165  1
  Ti  Ti159  1  0.69721849  0.09632172  0.90690491  1
  Ti  Ti160  1  0.00195009  -0.00293717  0.40294941  1
  Ti  Ti161  1  0.21133846  0.79915628  0.00993872  1
  Ti  Ti162  1  0.79832500  0.00474604  0.20020791  1
  Ti  Ti163  1  0.70649506  0.69912447  0.90502261  1
  Ti  Ti164  1  -0.00243421  0.40150892  0.79924567  1
  Ti  Ti165  1  0.80467946  0.40069142  0.20152009  1
  Ti  Ti166  1  0.58544646  0.39763594  0.58778207  1
  Ti  Ti167  1  -0.00487990  0.59909291  0.20351558  1
  Ti  Ti168  1  -0.00046327  0.60477686  0.79458746  1
  Ti  Ti169  1  0.48510058  0.29421462  0.68472635  1
  Ti  Ti170  1  0.59153150  0.00652343  0.20431010  1
  Ti  Ti171  1  0.60835989  0.79402075  0.20009018  1
  Ti  Ti172  1  0.90348219  0.09262554  0.69775167  1
  Ti  Ti173  1  0.72291634  0.69040514  0.08343734  1
  Ti  Ti174  1  0.69091767  0.10323989  0.48663501  1
  Ti  Ti175  1  0.39232763  0.40542928  0.59299842  1
  Ti  Ti176  1  0.39704174  0.00241294  0.20271650  1
  Ti  Ti177  1  0.70227122  0.90591792  0.09808907  1
  Ti  Ti178  1  0.39343146  0.39139979  0.19812979  1
  Ti  Ti179  1  0.49915778  0.10426129  0.90801590  1
  Ti  Ti180  1  0.49210693  0.89165594  0.69059490  1
  Ti  Ti181  1  0.90040438  0.29229691  0.29441540  1
  Ti  Ti182  1  0.00747811  0.79427334  0.60107269  1
  Ti  Ti183  1  0.19854532  0.00061789  0.80615707  1
  Ti  Ti184  1  0.80451035  0.39813690  -0.00041270  1
  Ti  Ti185  1  0.19725406  0.60468580  0.79217507  1
  Ti  Ti186  1  0.89700026  0.69866012  0.29921150  1
  Ti  Ti187  1  0.09505301  0.50269942  0.90219246  1
  Ti  Ti188  1  -0.00717420  0.79629581  0.00589179  1
  Ti  Ti189  1  0.20368018  0.39637853  0.78935593  1
  Ti  Ti190  1  0.40451068  0.00518276  0.39714122  1
  Ti  Ti191  1  0.58967834  0.00513944  0.00574808  1
  Ti  Ti192  1  0.29720190  0.29133887  0.69096829  1
  Ti  Ti193  1  0.29576760  0.29146524  0.10203126  1
  Ti  Ti194  1  0.59223102  0.19993292  0.19268311  1
  Ti  Ti195  1  0.39916525  0.59381977  0.79343120  1
  Ti  Ti196  1  0.79337355  -0.00105454  0.40243390  1
  Ti  Ti197  1  0.89588753  0.70799810  0.50832258  1
  Ti  Ti198  1  0.29999317  0.10559482  0.49573004  1
  Ti  Ti199  1  0.69893257  0.49255869  0.68902303  1
  Mo  Mo200  1  0.00673411  0.59631371  -0.00445949  1
  Mo  Mo201  1  0.09906441  0.70341042  0.69838000  1
  Mo  Mo202  1  0.50576891  0.29956386  0.10768482  1
  Mo  Mo203  1  0.09872352  0.50082361  0.29668943  1
  Mo  Mo204  1  0.49021514  0.10103661  0.48830431  1
  Mo  Mo205  1  0.40025300  0.19707347  0.40329331  1
  Mo  Mo206  1  0.00327629  -0.01444212  0.20391498  1
  Mo  Mo207  1  -0.00348442  0.21761710  0.19895880  1
  Mo  Mo208  1  0.40227990  0.80223669  0.20111454  1
  Mo  Mo209  1  0.71011683  0.49548929  0.09869226  1
  Mo  Mo210  1  0.49270894  0.49537706  0.50113808  1
  Mo  Mo211  1  0.49859507  0.89758557  0.91325976  1
  Mo  Mo212  1  0.70823686  0.70163279  0.29650701  1
  Mo  Mo213  1  0.89724841  0.49972157  0.30113796  1
  Mo  Mo214  1  0.30022842  0.09983833  0.10975379  1
  Mo  Mo215  1  0.48787659  0.10125083  0.69357835  1
  Mo  Mo216  1  0.29535634  0.49122428  0.10893480  1
  Mo  Mo217  1  0.20630316  0.00533751  0.39933252  1
  Mo  Mo218  1  0.50478688  0.09845446  0.11305708  1
  Mo  Mo219  1  0.79417121  0.00198640  0.00193283  1
  Mo  Mo220  1  0.30662395  0.91981115  0.30046072  1
  Mo  Mo221  1  0.48651297  0.29891585  0.50046655  1
  Mo  Mo222  1  0.30017993  0.70413497  0.09859428  1
  Mo  Mo223  1  0.09039331  0.29533596  0.30459148  1
  Mo  Mo224  1  0.00102156  -0.00066527  0.59255099  1
  Mo  Mo225  1  0.39664290  0.19509781  0.59859234  1
  Mo  Mo226  1  0.79784323  0.20630139  0.20208169  1
  Mo  Mo227  1  0.90379329  0.69721555  0.10286148  1
  Mo  Mo228  1  0.90822111  0.49847786  0.69883279  1
  Mo  Mo229  1  0.80051064  0.79664796  0.00065702  1
  Mo  Mo230  1  0.90767837  0.30570161  0.90297887  1
  Mo  Mo231  1  0.00050579  0.39968483  -0.00315706  1
  Mo  Mo232  1  0.60211572  0.19837366  0.39674404  1
  Mo  Mo233  1  -0.00172833  0.20623765  0.39758839  1
  Mo  Mo234  1  0.40427463  0.81200362  0.81762912  1
  Mo  Mo235  1  0.29510131  0.50478703  0.69177421  1
  Mo  Mo236  1  0.29852780  0.69245481  0.50062979  1
  Mo  Mo237  1  0.39414864  0.59966848  0.20075344  1
  Mo  Mo238  1  0.70332912  0.90844613  0.49291635  1
  Mo  Mo239  1  0.40002218  0.58888099  0.40583883  1
  Mo  Mo240  1  0.70128054  0.72363328  0.50992935  1
  Mo  Mo241  1  0.80610466  0.80235987  0.59313728  1
  Mo  Mo242  1  0.80260554  0.59503995  -0.00211070  1
  Mo  Mo243  1  0.50120264  0.91170265  0.29743581  1
  Mo  Mo244  1  0.19330202  0.20107400  0.00185827  1
  Mo  Mo245  1  0.39668082  0.19690816  0.20517799  1
  Mo  Mo246  1  0.19845981  0.20432282  0.60145656  1
  Mo  Mo247  1  0.59373209  0.80330815  0.59164571  1
  Mo  Mo248  1  0.30278910  0.90276503  0.10441788  1
  Mo  Mo249  1  0.20162930  0.59007174  0.39653966  1
