# generated using pymatgen
data_HfZrTaTiMo
_symmetry_space_group_name_H-M   'P 1'
_cell_length_a   16.87525170
_cell_length_b   16.88660143
_cell_length_c   16.88347302
_cell_angle_alpha   89.98465278
_cell_angle_beta   90.02647115
_cell_angle_gamma   89.99018109
_symmetry_Int_Tables_number   1
_chemical_formula_structural   HfZrTaTiMo
_chemical_formula_sum   'Hf50 Zr50 Ta50 Ti50 Mo50'
_cell_volume   4811.20909756
_cell_formula_units_Z   50
loop_
 _symmetry_equiv_pos_site_id
 _symmetry_equiv_pos_as_xyz
  1  'x, y, z'
loop_
 _atom_site_type_symbol
 _atom_site_label
 _atom_site_symmetry_multiplicity
 _atom_site_fract_x
 _atom_site_fract_y
 _atom_site_fract_z
 _atom_site_occupancy
  Hf  Hf0  1  0.19509461  0.20868404  0.60590891  1
  Hf  Hf1  1  0.00061428  0.40889739  0.00228792  1
  Hf  Hf2  1  0.29682102  0.09648865  0.50158633  1
  Hf  Hf3  1  0.40192168  0.19945250  0.39581530  1
  Hf  Hf4  1  0.69781927  0.50207581  0.28805924  1
  Hf  Hf5  1  0.50321556  0.90256191  0.29935728  1
  Hf  Hf6  1  0.69803471  0.10659301  0.09811643  1
  Hf  Hf7  1  0.40187253  0.20360052  0.82367384  1
  Hf  Hf8  1  0.10414825  0.69114693  0.70841464  1
  Hf  Hf9  1  -0.00617545  0.40595675  0.40413153  1
  Hf  Hf10  1  0.30076453  0.89730929  0.69687547  1
  Hf  Hf11  1  0.09268734  0.30590013  0.50197212  1
  Hf  Hf12  1  0.80454318  0.39649781  0.39851505  1
  Hf  Hf13  1  0.69985147  0.89764695  0.09737937  1
  Hf  Hf14  1  0.90085359  0.09432490  0.29327724  1
  Hf  Hf15  1  0.19642254  0.00503429  0.00273067  1
  Hf  Hf16  1  0.69774553  0.69743107  0.69978661  1
  Hf  Hf17  1  0.00641063  -0.00171540  0.39920653  1
  Hf  Hf18  1  0.49981688  0.89668488  0.90530006  1
  Hf  Hf19  1  0.30343456  0.88890115  0.30796687  1
  Hf  Hf20  1  0.19121381  0.40216482  0.60342734  1
  Hf  Hf21  1  0.69605308  0.69050053  0.10426824  1
  Hf  Hf22  1  0.09918341  0.30764353  0.29527530  1
  Hf  Hf23  1  0.80229164  0.79914693  0.80616776  1
  Hf  Hf24  1  -0.00590309  0.20348144  0.40078621  1
  Hf  Hf25  1  0.40656137  0.01034426  0.80389240  1
  Hf  Hf26  1  0.90007101  0.67949293  0.70361341  1
  Hf  Hf27  1  0.70537274  0.10870427  0.89978785  1
  Hf  Hf28  1  0.89224458  0.10100089  0.49731197  1
  Hf  Hf29  1  0.40026308  0.78597576  0.80103472  1
  Hf  Hf30  1  0.89168148  0.49265639  0.52419895  1
  Hf  Hf31  1  0.59980084  0.19057239  0.40018848  1
  Hf  Hf32  1  0.60912562  0.39531930  0.60742788  1
  Hf  Hf33  1  0.29804131  0.70679006  0.48282136  1
  Hf  Hf34  1  0.30389688  0.90842161  0.10984206  1
  Hf  Hf35  1  0.79864289  0.40224570  0.19055849  1
  Hf  Hf36  1  0.79942538  0.58901345  -0.00418964  1
  Hf  Hf37  1  0.00448022  0.59272103  0.40813814  1
  Hf  Hf38  1  0.50116832  0.68434916  0.91178586  1
  Hf  Hf39  1  0.19399138  0.79037065  0.00600571  1
  Hf  Hf40  1  -0.00533324  0.79192651  0.80928705  1
  Hf  Hf41  1  0.80526732  0.80583382  0.60991732  1
  Hf  Hf42  1  0.08732922  0.10379000  0.89611478  1
  Hf  Hf43  1  0.79211744  0.39938655  0.79397441  1
  Hf  Hf44  1  0.50156531  0.49731991  0.70509122  1
  Hf  Hf45  1  0.70923120  0.10708943  0.70556739  1
  Hf  Hf46  1  0.11145155  0.69328159  0.29869210  1
  Hf  Hf47  1  0.50885905  0.50665293  0.49159357  1
  Hf  Hf48  1  0.19554042  0.59667682  0.59150377  1
  Hf  Hf49  1  0.29781066  0.89702633  0.90173016  1
  Zr  Zr50  1  0.79939253  0.59716201  0.39829416  1
  Zr  Zr51  1  0.20112041  0.00570803  0.80661094  1
  Zr  Zr52  1  0.89832605  0.29988944  0.89233678  1
  Zr  Zr53  1  0.20112656  0.19319182  0.39528741  1
  Zr  Zr54  1  0.39328121  0.40484321  0.59220616  1
  Zr  Zr55  1  0.50779634  0.31834385  0.29776315  1
  Zr  Zr56  1  0.39880286  0.60094208  0.59385682  1
  Zr  Zr57  1  0.29294938  0.32597504  0.30067409  1
  Zr  Zr58  1  -0.00365022  -0.00116384  0.60062899  1
  Zr  Zr59  1  0.69889499  0.70409290  0.50294669  1
  Zr  Zr60  1  0.40731678  0.20298057  0.59599940  1
  Zr  Zr61  1  0.50422043  0.69470764  0.29654560  1
  Zr  Zr62  1  0.41429405  0.00888346  0.40444121  1
  Zr  Zr63  1  0.90237009  0.90255116  0.90574122  1
  Zr  Zr64  1  0.09160763  0.10199755  0.11042980  1
  Zr  Zr65  1  0.59771777  0.79436994  0.80067935  1
  Zr  Zr66  1  0.00448428  0.79784287  0.60102552  1
  Zr  Zr67  1  0.20145655  0.20813408  0.80138082  1
  Zr  Zr68  1  0.89890155  0.10237651  0.88321519  1
  Zr  Zr69  1  0.09243828  0.30204604  0.90127473  1
  Zr  Zr70  1  0.10243681  0.90213110  0.70862270  1
  Zr  Zr71  1  0.30025685  0.10237735  0.69849818  1
  Zr  Zr72  1  0.59846592  0.01731216  0.59208107  1
  Zr  Zr73  1  0.10628861  0.30281460  0.10106742  1
  Zr  Zr74  1  0.50816345  0.88793499  0.49616782  1
  Zr  Zr75  1  0.89805099  0.69858523  0.29666538  1
  Zr  Zr76  1  0.40090766  0.01469131  -0.00306613  1
  Zr  Zr77  1  0.10473473  0.89701475  0.29268946  1
  Zr  Zr78  1  0.00473119  0.79704672  0.40140816  1
  Zr  Zr79  1  0.40541687  0.19935409  0.20751192  1
  Zr  Zr80  1  0.20727603  0.19164655  0.20605687  1
  Zr  Zr81  1  0.88849666  0.89717059  0.48696792  1
  Zr  Zr82  1  0.70085514  0.90498764  0.48864212  1
  Zr  Zr83  1  0.69779553  0.69615783  0.91126641  1
  Zr  Zr84  1  0.29569216  0.50407158  0.70867191  1
  Zr  Zr85  1  0.40847549  0.78606810  0.60370571  1
  Zr  Zr86  1  0.30148725  0.30543575  0.10152130  1
  Zr  Zr87  1  0.68771730  0.30577060  0.09302068  1
  Zr  Zr88  1  0.71254829  0.50884007  0.69054522  1
  Zr  Zr89  1  0.90080360  0.09936182  0.10356726  1
  Zr  Zr90  1  0.20052796  0.40400388  0.81324088  1
  Zr  Zr91  1  0.79380667  0.20486577  0.20529566  1
  Zr  Zr92  1  0.29607396  0.49639748  0.09999070  1
  Zr  Zr93  1  0.59906905  0.20977006  0.80130376  1
  Zr  Zr94  1  0.50703839  0.89765846  0.69544191  1
  Zr  Zr95  1  0.39279736  0.78707802  0.00776496  1
  Zr  Zr96  1  0.40729959  0.79189636  0.19022656  1
  Zr  Zr97  1  0.59774697  0.00158928  0.00026760  1
  Zr  Zr98  1  0.89587620  0.69862733  0.09744746  1
  Zr  Zr99  1  0.50327952  0.30979233  0.49331978  1
  Ta  Ta100  1  0.50039038  0.10544865  0.10467243  1
  Ta  Ta101  1  0.90547263  0.50075100  0.89244077  1
  Ta  Ta102  1  -0.00567150  0.20097723  0.00392894  1
  Ta  Ta103  1  0.00418872  0.59273303  0.59979321  1
  Ta  Ta104  1  0.58941043  0.79988096  0.01475437  1
  Ta  Ta105  1  0.60564780  0.20614227  0.59934976  1
  Ta  Ta106  1  0.30087576  0.89731075  0.49825185  1
  Ta  Ta107  1  0.60257930  0.58820234  0.80827625  1
  Ta  Ta108  1  0.61156367  0.79821163  0.38387747  1
  Ta  Ta109  1  0.29384554  0.69300797  0.70914594  1
  Ta  Ta110  1  0.80145264  0.00019020  0.00177202  1
  Ta  Ta111  1  0.09240138  0.50156386  0.70720987  1
  Ta  Ta112  1  0.19820389  0.00126003  0.39933711  1
  Ta  Ta113  1  0.89600914  0.69671657  0.50375298  1
  Ta  Ta114  1  0.79699893  0.80215341  0.20090912  1
  Ta  Ta115  1  0.21128556  0.19844723  -0.00597817  1
  Ta  Ta116  1  0.89528729  0.89899173  0.29521409  1
  Ta  Ta117  1  0.70785432  0.30064573  0.50118236  1
  Ta  Ta118  1  0.79416015  -0.00750844  0.19983057  1
  Ta  Ta119  1  0.40229658  0.40011231  0.81430054  1
  Ta  Ta120  1  0.39584737  0.59521607  0.19661095  1
  Ta  Ta121  1  0.20225901  0.78971111  0.18827378  1
  Ta  Ta122  1  0.80153522  0.20817684  -0.00368473  1
  Ta  Ta123  1  0.59979006  0.00602306  0.80325920  1
  Ta  Ta124  1  0.00399945  0.79527210  0.19063014  1
  Ta  Ta125  1  0.20278668  0.79583363  0.59936403  1
  Ta  Ta126  1  0.90241863  0.50502401  0.28614159  1
  Ta  Ta127  1  0.39726249  0.59646682  0.38995919  1
  Ta  Ta128  1  0.69550790  0.90238796  0.69727974  1
  Ta  Ta129  1  0.09957480  0.69005577  0.89884845  1
  Ta  Ta130  1  0.19583383  0.59369509  -0.00163555  1
  Ta  Ta131  1  -0.00772455  0.20619630  0.60434882  1
  Ta  Ta132  1  0.50029731  0.30785759  0.70949231  1
  Ta  Ta133  1  -0.00084318  -0.00281738  0.00160625  1
  Ta  Ta134  1  0.70233086  0.50317233  0.50641482  1
  Ta  Ta135  1  0.40091917  0.39623412  -0.00766223  1
  Ta  Ta136  1  0.40570076  0.00331947  0.59641093  1
  Ta  Ta137  1  0.30873593  0.30640351  0.70720631  1
  Ta  Ta138  1  0.29791335  0.69662006  0.29721613  1
  Ta  Ta139  1  0.00734330  0.59814296  0.18979366  1
  Ta  Ta140  1  0.80307171  0.20523425  0.60329196  1
  Ta  Ta141  1  0.59774654  0.19780394  0.20703514  1
  Ta  Ta142  1  0.80154141  0.00420244  0.60661786  1
  Ta  Ta143  1  0.00422054  0.59783971  -0.00255488  1
  Ta  Ta144  1  0.10556998  0.50073796  0.29777584  1
  Ta  Ta145  1  0.40003500  0.59155516  0.81088235  1
  Ta  Ta146  1  -0.00075748  0.40795013  0.19512100  1
  Ta  Ta147  1  0.08554975  0.10518696  0.70351139  1
  Ta  Ta148  1  0.59960563  0.00345907  0.20323618  1
  Ta  Ta149  1  0.09961593  0.09984200  0.50634701  1
  Ti  Ti150  1  0.68657135  0.49633479  0.09049889  1
  Ti  Ti151  1  0.70467318  0.69600944  0.28958500  1
  Ti  Ti152  1  0.90188606  0.29964326  0.09967430  1
  Ti  Ti153  1  0.29477025  0.68298471  0.90234698  1
  Ti  Ti154  1  0.31067465  0.07972216  0.29141282  1
  Ti  Ti155  1  0.89868925  0.30545305  0.69570317  1
  Ti  Ti156  1  0.19774765  -0.00009484  0.20200629  1
  Ti  Ti157  1  0.60566327  0.60264285  0.39536887  1
  Ti  Ti158  1  -0.00127876  0.40291643  0.79286739  1
  Ti  Ti159  1  0.50135896  0.30493227  0.09824312  1
  Ti  Ti160  1  0.61230482  0.40631053  0.40137352  1
  Ti  Ti161  1  0.80199832  0.59450852  0.81042354  1
  Ti  Ti162  1  0.90269404  0.89895099  0.10221979  1
  Ti  Ti163  1  0.40558356  0.41134992  0.19911234  1
  Ti  Ti164  1  0.90395770  0.30274851  0.29065668  1
  Ti  Ti165  1  0.20102441  0.79331718  0.80566066  1
  Ti  Ti166  1  0.89806371  0.50383313  0.10062676  1
  Ti  Ti167  1  0.79562113  -0.00505269  0.79836260  1
  Ti  Ti168  1  0.10680970  0.69989811  0.49502511  1
  Ti  Ti169  1  0.00316357  0.79274063  0.00179925  1
  Ti  Ti170  1  0.70851665  0.10033204  0.49382098  1
  Ti  Ti171  1  0.30696227  0.10156192  0.10311388  1
  Ti  Ti172  1  0.50376201  0.70366096  0.48583166  1
  Ti  Ti173  1  0.09538701  0.89909213  0.90132962  1
  Ti  Ti174  1  0.49927984  0.67681460  0.09391303  1
  Ti  Ti175  1  0.50572944  0.50077263  0.29845438  1
  Ti  Ti176  1  0.09394614  0.90106953  0.10228487  1
  Ti  Ti177  1  0.10877828  0.50015980  0.10298323  1
  Ti  Ti178  1  0.08850483  0.09805746  0.29111187  1
  Ti  Ti179  1  0.58405179  0.20489814  -0.00630443  1
  Ti  Ti180  1  0.79957023  0.20699501  0.39731584  1
  Ti  Ti181  1  0.59955633  0.80275549  0.19533790  1
  Ti  Ti182  1  0.58859904  0.61166062  0.60390500  1
  Ti  Ti183  1  0.70280200  0.08676699  0.30761183  1
  Ti  Ti184  1  0.28432586  0.50055206  0.48093935  1
  Ti  Ti185  1  0.28386532  0.50957517  0.29667936  1
  Ti  Ti186  1  0.29383156  0.30801218  0.49254797  1
  Ti  Ti187  1  0.39555456  0.41479995  0.39681763  1
  Ti  Ti188  1  0.50199433  0.49631096  0.09199347  1
  Ti  Ti189  1  0.59482731  0.59136815  0.19367532  1
  Ti  Ti190  1  0.19767368  -0.00147259  0.59904722  1
  Ti  Ti191  1  0.79811780  0.40340512  -0.00538498  1
  Ti  Ti192  1  0.69411465  0.30666038  0.29806373  1
  Ti  Ti193  1  0.69215126  0.30956211  0.90170467  1
  Ti  Ti194  1  0.80212209  0.80009145  -0.00166306  1
  Ti  Ti195  1  0.90275602  0.91162279  0.71144848  1
  Ti  Ti196  1  0.50996752  0.49344744  0.90963451  1
  Ti  Ti197  1  0.69718185  0.89964156  0.90223056  1
  Ti  Ti198  1  0.50260287  0.10834029  0.70049241  1
  Ti  Ti199  1  0.11538789  0.89600735  0.49743143  1
  Mo  Mo200  1  0.40816147  0.00261169  0.19716730  1
  Mo  Mo201  1  0.80557085  0.60625896  0.59865139  1
  Mo  Mo202  1  0.19993169  0.59909295  0.39600892  1
  Mo  Mo203  1  -0.00175834  0.39873205  0.61173927  1
  Mo  Mo204  1  0.50275015  0.30661999  0.90649159  1
  Mo  Mo205  1  0.70117515  0.29842175  0.69725114  1
  Mo  Mo206  1  0.20225628  0.80388995  0.40235592  1
  Mo  Mo207  1  0.20056593  0.59846449  0.80942313  1
  Mo  Mo208  1  0.30230646  0.30414219  0.90823834  1
  Mo  Mo209  1  0.89563405  0.10250084  0.69837165  1
  Mo  Mo210  1  0.19262742  0.40877607  0.40138313  1
  Mo  Mo211  1  0.70111371  0.89701465  0.29323691  1
  Mo  Mo212  1  0.20029320  0.40206590  0.00026579  1
  Mo  Mo213  1  0.30060653  0.49997054  0.90909762  1
  Mo  Mo214  1  0.50938359  0.09764594  0.29738637  1
  Mo  Mo215  1  0.90473526  0.49642088  0.70679108  1
  Mo  Mo216  1  0.49950098  0.68262399  0.71245395  1
  Mo  Mo217  1  0.89478011  0.29714813  0.50509306  1
  Mo  Mo218  1  0.19235146  0.41047328  0.20020650  1
  Mo  Mo219  1  0.08774331  0.30380856  0.70113474  1
  Mo  Mo220  1  0.09775576  0.50258980  0.90185038  1
  Mo  Mo221  1  0.29550410  0.68680371  0.10190212  1
  Mo  Mo222  1  0.09558005  0.49913479  0.50229603  1
  Mo  Mo223  1  0.80045202  0.59471950  0.19171897  1
  Mo  Mo224  1  0.20104009  0.60253453  0.19586103  1
  Mo  Mo225  1  0.59989368  0.40371558  0.80434464  1
  Mo  Mo226  1  0.39780676  0.58732433  -0.00072483  1
  Mo  Mo227  1  0.70006964  0.49327421  0.90022742  1
  Mo  Mo228  1  0.40626472  0.79189016  0.39595338  1
  Mo  Mo229  1  0.00210165  0.59200904  0.80546945  1
  Mo  Mo230  1  -0.00599215  0.20393136  0.78608055  1
  Mo  Mo231  1  -0.00159569  -0.00054410  0.80076403  1
  Mo  Mo232  1  0.80019587  0.38965458  0.60132408  1
  Mo  Mo233  1  0.09841487  0.69561816  0.09573169  1
  Mo  Mo234  1  0.60355417  0.78894639  0.59970820  1
  Mo  Mo235  1  0.50611893  0.10623906  0.90500042  1
  Mo  Mo236  1  0.50318336  0.91003352  0.10627195  1
  Mo  Mo237  1  0.29973421  0.10545054  0.90856006  1
  Mo  Mo238  1  0.40367573  0.20466728  0.00868343  1
  Mo  Mo239  1  0.59812583  0.58904160  0.00370370  1
  Mo  Mo240  1  0.60883474  0.00133036  0.39507775  1
  Mo  Mo241  1  0.79985080  0.00164780  0.39224315  1
  Mo  Mo242  1  0.50399706  0.10772011  0.50205632  1
  Mo  Mo243  1  0.59276426  0.39927548  -0.00222800  1
  Mo  Mo244  1  0.79755595  0.21368376  0.79672162  1
  Mo  Mo245  1  0.59574328  0.40298565  0.19395452  1
  Mo  Mo246  1  -0.00525046  -0.01817336  0.19597181  1
  Mo  Mo247  1  -0.00566698  0.21525149  0.19988380  1
  Mo  Mo248  1  0.79565998  0.79735772  0.38437656  1
  Mo  Mo249  1  0.90475594  0.69279428  0.90454975  1
