# generated using pymatgen
data_HfZrTaTiMo
_symmetry_space_group_name_H-M   'P 1'
_cell_length_a   16.88220642
_cell_length_b   16.88523482
_cell_length_c   16.87993773
_cell_angle_alpha   90.00175915
_cell_angle_beta   89.94622200
_cell_angle_gamma   90.01020434
_symmetry_Int_Tables_number   1
_chemical_formula_structural   HfZrTaTiMo
_chemical_formula_sum   'Hf50 Zr50 Ta50 Ti50 Mo50'
_cell_volume   4811.79318567
_cell_formula_units_Z   50
loop_
 _symmetry_equiv_pos_site_id
 _symmetry_equiv_pos_as_xyz
  1  'x, y, z'
loop_
 _atom_site_type_symbol
 _atom_site_label
 _atom_site_symmetry_multiplicity
 _atom_site_fract_x
 _atom_site_fract_y
 _atom_site_fract_z
 _atom_site_occupancy
  Hf  Hf0  1  0.59414899  0.80593535  0.59247801  1
  Hf  Hf1  1  0.18942534  0.60476158  0.20315331  1
  Hf  Hf2  1  0.09339578  0.30038106  0.10045995  1
  Hf  Hf3  1  0.09000366  0.50739844  0.10226726  1
  Hf  Hf4  1  -0.00907024  0.40894520  0.00450291  1
  Hf  Hf5  1  0.39639622  -0.00664225  -0.00058719  1
  Hf  Hf6  1  0.39911989  0.59599619  0.80223389  1
  Hf  Hf7  1  0.29350811  0.50819497  0.30457235  1
  Hf  Hf8  1  0.30545103  0.29650693  0.70230085  1
  Hf  Hf9  1  0.51473759  0.29640401  0.11307467  1
  Hf  Hf10  1  -0.00337075  0.21065818  0.78681784  1
  Hf  Hf11  1  0.29979781  0.90033035  0.70429638  1
  Hf  Hf12  1  0.60513648  0.58721868  0.00319016  1
  Hf  Hf13  1  0.20189975  0.80043918  -0.00937925  1
  Hf  Hf14  1  0.18346936  0.80120897  0.60169955  1
  Hf  Hf15  1  0.19444203  0.40280506  0.80202275  1
  Hf  Hf16  1  0.30217478  0.69498342  0.10101082  1
  Hf  Hf17  1  0.39647222  0.39815383  0.20284219  1
  Hf  Hf18  1  0.30236904  0.49617692  0.90425660  1
  Hf  Hf19  1  0.49902001  0.90452861  0.29253308  1
  Hf  Hf20  1  0.09590624  0.50294992  0.69880298  1
  Hf  Hf21  1  0.60747022  0.80263109  0.79885700  1
  Hf  Hf22  1  0.19004765  -0.00185337  0.60251110  1
  Hf  Hf23  1  0.60384811  0.00137563  0.59051416  1
  Hf  Hf24  1  0.17592288  0.60427241  0.41708648  1
  Hf  Hf25  1  0.09056997  0.10724453  0.50093129  1
  Hf  Hf26  1  0.79989155  0.59072876  0.39739854  1
  Hf  Hf27  1  -0.00086232  0.00496180  0.20275930  1
  Hf  Hf28  1  0.40597932  0.80802171  0.40551360  1
  Hf  Hf29  1  0.69584766  0.29508346  0.29475880  1
  Hf  Hf30  1  0.90744142  0.69585057  0.09703370  1
  Hf  Hf31  1  0.01360421  0.60423011  0.58125009  1
  Hf  Hf32  1  0.09315054  0.11018715  0.90618255  1
  Hf  Hf33  1  0.90309680  0.89722863  0.50615657  1
  Hf  Hf34  1  0.70091955  0.70052792  0.10150109  1
  Hf  Hf35  1  0.30715017  0.09945699  0.88947350  1
  Hf  Hf36  1  0.38755526  0.79862819  0.81703468  1
  Hf  Hf37  1  0.79732433  0.59814882  0.78988085  1
  Hf  Hf38  1  0.38718508  0.20460466  0.19695496  1
  Hf  Hf39  1  0.49177773  0.90006304  0.70384064  1
  Hf  Hf40  1  0.50111401  0.68461549  0.49852430  1
  Hf  Hf41  1  0.19254246  0.20608009  0.79664595  1
  Hf  Hf42  1  0.90973372  0.69880392  0.69611698  1
  Hf  Hf43  1  0.70585394  0.10571438  0.90549876  1
  Hf  Hf44  1  0.40291784  0.39254564  0.00234271  1
  Hf  Hf45  1  0.30403204  0.50380589  0.49588467  1
  Hf  Hf46  1  0.18982889  0.19392655  0.38510379  1
  Hf  Hf47  1  -0.00208584  0.79427453  0.40062139  1
  Hf  Hf48  1  0.40248389  -0.00348729  0.59016879  1
  Hf  Hf49  1  0.70147900  0.70308993  0.90386118  1
  Zr  Zr50  1  0.81292228  -0.00436903  0.80333290  1
  Zr  Zr51  1  0.29285713  0.89864280  0.49582008  1
  Zr  Zr52  1  0.79458131  0.58848379  0.59740239  1
  Zr  Zr53  1  0.49971321  0.50176108  0.10185380  1
  Zr  Zr54  1  0.89496394  0.29755412  0.90759589  1
  Zr  Zr55  1  0.20898247  0.20664132  0.00639393  1
  Zr  Zr56  1  0.80640909  0.58810829  0.00661798  1
  Zr  Zr57  1  0.70133222  0.29504927  0.10045843  1
  Zr  Zr58  1  0.39767899  0.80317762  0.00543636  1
  Zr  Zr59  1  0.60567992  0.00137554  0.80059956  1
  Zr  Zr60  1  0.70648221  0.10337006  0.09895888  1
  Zr  Zr61  1  0.69819524  0.49071192  0.88772926  1
  Zr  Zr62  1  0.89986518  0.11083105  0.90573217  1
  Zr  Zr63  1  -0.00344862  -0.00261519  -0.00240830  1
  Zr  Zr64  1  0.19795915  0.79691543  0.20171509  1
  Zr  Zr65  1  0.19751871  0.40191102  0.60407429  1
  Zr  Zr66  1  0.40002771  0.58820763  0.60806747  1
  Zr  Zr67  1  0.18270303  0.39758493  0.40356949  1
  Zr  Zr68  1  0.50363344  0.10456481  0.29186970  1
  Zr  Zr69  1  0.70222008  0.89886807  0.09645326  1
  Zr  Zr70  1  0.69293235  0.68176644  0.29635723  1
  Zr  Zr71  1  0.00042699  0.79428792  0.20415679  1
  Zr  Zr72  1  0.80025722  0.40430443  0.01116537  1
  Zr  Zr73  1  0.49847580  0.10594388  0.49115069  1
  Zr  Zr74  1  0.80268565  0.20474681  0.40431132  1
  Zr  Zr75  1  0.80358745  0.00799022  0.40039164  1
  Zr  Zr76  1  0.19095921  0.60227690  -0.00512928  1
  Zr  Zr77  1  0.30049571  0.70198868  0.50341204  1
  Zr  Zr78  1  0.19769054  0.19911885  0.20397083  1
  Zr  Zr79  1  0.50186303  0.69618760  0.29889461  1
  Zr  Zr80  1  0.29503203  0.29492513  0.50302736  1
  Zr  Zr81  1  0.40948597  0.39959158  0.40184339  1
  Zr  Zr82  1  0.39336434  0.20597391  0.38775658  1
  Zr  Zr83  1  0.49935536  0.70082664  0.69713061  1
  Zr  Zr84  1  0.18943851  -0.00523197  0.80306233  1
  Zr  Zr85  1  0.20266228  0.60583991  0.80316611  1
  Zr  Zr86  1  0.90840703  0.69845300  0.89830801  1
  Zr  Zr87  1  0.71993937  0.89711529  0.50426373  1
  Zr  Zr88  1  0.50896002  0.30506451  0.70238830  1
  Zr  Zr89  1  0.90031508  0.89735917  0.10055595  1
  Zr  Zr90  1  0.50895478  0.70024403  0.91057696  1
  Zr  Zr91  1  0.49244322  0.10444539  0.70727324  1
  Zr  Zr92  1  0.70822465  0.09902767  0.69413154  1
  Zr  Zr93  1  0.60728780  0.80717349  0.39890407  1
  Zr  Zr94  1  0.40197024  0.20532414  0.00267913  1
  Zr  Zr95  1  0.29163148  0.10462831  0.50113964  1
  Zr  Zr96  1  0.60848090  -0.00193061  0.39804779  1
  Zr  Zr97  1  0.50712899  0.50923125  0.30782659  1
  Zr  Zr98  1  0.80491860  0.40887982  0.20463679  1
  Zr  Zr99  1  0.90735376  0.48685570  0.49654737  1
  Ta  Ta100  1  0.80297926  0.79531053  0.21090224  1
  Ta  Ta101  1  0.29837439  0.09042719  0.10217900  1
  Ta  Ta102  1  0.30050450  0.10405359  0.69926638  1
  Ta  Ta103  1  0.79840147  0.20727815  0.59269406  1
  Ta  Ta104  1  0.70119133  0.69482525  0.50336493  1
  Ta  Ta105  1  0.30304448  0.69639430  0.30956659  1
  Ta  Ta106  1  0.40505811  0.20466772  0.59979398  1
  Ta  Ta107  1  0.50858508  0.30140825  0.50069548  1
  Ta  Ta108  1  0.50304640  0.09611425  0.10014561  1
  Ta  Ta109  1  0.19902039  -0.00314334  0.00183726  1
  Ta  Ta110  1  0.80905053  0.80472405  -0.00756415  1
  Ta  Ta111  1  0.09807435  0.90149523  0.30085142  1
  Ta  Ta112  1  0.89686615  0.70158269  0.49712038  1
  Ta  Ta113  1  0.90195594  0.89980267  0.69334691  1
  Ta  Ta114  1  0.70232234  0.89957012  0.90552256  1
  Ta  Ta115  1  -0.01017553  0.39746530  0.20334891  1
  Ta  Ta116  1  0.00095537  0.00501302  0.39580950  1
  Ta  Ta117  1  0.59535705  0.20166265  -0.00680089  1
  Ta  Ta118  1  0.50932760  0.70281232  0.10759923  1
  Ta  Ta119  1  0.39809091  0.60145402  0.20043380  1
  Ta  Ta120  1  0.09683562  0.10055432  0.09910439  1
  Ta  Ta121  1  0.19227518  0.00338192  0.38802393  1
  Ta  Ta122  1  0.29666041  0.70653429  0.69835220  1
  Ta  Ta123  1  0.70093627  0.29917089  0.89677549  1
  Ta  Ta124  1  0.60705314  -0.00099205  0.19882269  1
  Ta  Ta125  1  0.60353615  0.20752356  0.80268036  1
  Ta  Ta126  1  0.40739274  0.40153041  0.60094666  1
  Ta  Ta127  1  0.71282563  0.89904292  0.69485109  1
  Ta  Ta128  1  0.80227975  0.39344607  0.78541356  1
  Ta  Ta129  1  0.30527806  0.30175133  0.89379506  1
  Ta  Ta130  1  0.90372149  0.10111024  0.68760606  1
  Ta  Ta131  1  0.51477554  0.49390337  0.69929413  1
  Ta  Ta132  1  0.90517802  0.49328420  0.69586523  1
  Ta  Ta133  1  0.19417266  0.00120909  0.20100756  1
  Ta  Ta134  1  0.09539611  0.70554858  0.70415230  1
  Ta  Ta135  1  0.50494517  0.90536498  0.90269238  1
  Ta  Ta136  1  0.29598526  0.49945786  0.10267715  1
  Ta  Ta137  1  0.79879096  0.20927325  0.78758834  1
  Ta  Ta138  1  0.70475796  0.10513563  0.29122917  1
  Ta  Ta139  1  0.00104182  0.39696308  0.79638859  1
  Ta  Ta140  1  0.00099426  0.81096238  0.79919422  1
  Ta  Ta141  1  0.10049764  0.89791361  0.09834146  1
  Ta  Ta142  1  0.90281506  0.49834764  0.88696684  1
  Ta  Ta143  1  0.80400303  0.80233857  0.79770836  1
  Ta  Ta144  1  0.60990480  0.20505434  0.59498212  1
  Ta  Ta145  1  0.90429592  0.10895244  0.30083273  1
  Ta  Ta146  1  0.08234522  0.49951724  0.30618900  1
  Ta  Ta147  1  0.09364321  0.10746182  0.69048571  1
  Ta  Ta148  1  0.49859523  0.10186809  0.89816112  1
  Ta  Ta149  1  0.09334272  0.30275304  0.90650979  1
  Ti  Ti150  1  0.79946486  0.79362713  0.38996027  1
  Ti  Ti151  1  0.90446585  0.49966094  0.30503943  1
  Ti  Ti152  1  0.09239230  0.89738726  0.90327211  1
  Ti  Ti153  1  0.80211559  0.79079550  0.60495017  1
  Ti  Ti154  1  0.09130469  0.69530059  0.30509426  1
  Ti  Ti155  1  0.69764656  0.48595947  0.69465370  1
  Ti  Ti156  1  0.61136978  0.57883085  0.42148140  1
  Ti  Ti157  1  0.89899662  0.30375599  0.68295290  1
  Ti  Ti158  1  0.61001673  0.41619174  0.20445004  1
  Ti  Ti159  1  0.39112006  0.00121434  0.39313530  1
  Ti  Ti160  1  0.19243364  0.79951513  0.39726019  1
  Ti  Ti161  1  0.50673732  0.49088630  0.89157042  1
  Ti  Ti162  1  0.40099427  0.60054996  -0.00052322  1
  Ti  Ti163  1  -0.00586579  0.20057029  0.19994735  1
  Ti  Ti164  1  0.61130807  0.39975248  0.58910903  1
  Ti  Ti165  1  0.09257299  0.90100813  0.49440297  1
  Ti  Ti166  1  0.39770567  0.79840937  0.20125839  1
  Ti  Ti167  1  0.90617662  0.10399717  0.50590539  1
  Ti  Ti168  1  0.51383331  0.29773949  0.30010168  1
  Ti  Ti169  1  0.40463714  0.40230685  0.79726922  1
  Ti  Ti170  1  0.00563156  0.59416559  0.80463943  1
  Ti  Ti171  1  0.60245221  0.59707443  0.79230114  1
  Ti  Ti172  1  0.89789899  0.90181097  0.30407765  1
  Ti  Ti173  1  0.19796155  0.40021013  0.00044685  1
  Ti  Ti174  1  0.59715490  0.00124359  0.00125671  1
  Ti  Ti175  1  0.00245508  -0.00505137  0.60326367  1
  Ti  Ti176  1  0.79536103  0.39669747  0.40017871  1
  Ti  Ti177  1  0.80454172  0.00166468  0.20400863  1
  Ti  Ti178  1  0.29346693  0.90182492  0.10504652  1
  Ti  Ti179  1  0.08891664  0.70270124  0.90306025  1
  Ti  Ti180  1  0.90736607  0.30087971  0.49582940  1
  Ti  Ti181  1  0.69469337  0.69909516  0.69160864  1
  Ti  Ti182  1  0.29548192  0.89922612  0.29729304  1
  Ti  Ti183  1  0.07966451  0.29986700  0.30395728  1
  Ti  Ti184  1  0.19047459  0.40285519  0.20073384  1
  Ti  Ti185  1  0.59921667  0.39477495  -0.00504024  1
  Ti  Ti186  1  0.19845507  0.60053787  0.60329828  1
  Ti  Ti187  1  0.00626816  0.39305707  0.59968768  1
  Ti  Ti188  1  0.08910811  0.28994357  0.50546048  1
  Ti  Ti189  1  0.61193893  0.20005080  0.40767068  1
  Ti  Ti190  1  0.50763807  0.89710431  0.10093312  1
  Ti  Ti191  1  0.60966074  0.80783722  0.20390243  1
  Ti  Ti192  1  0.81560447  0.20320183  0.19603577  1
  Ti  Ti193  1  0.60990437  0.40057330  0.40624473  1
  Ti  Ti194  1  -0.00910089  0.60055194  0.20728640  1
  Ti  Ti195  1  0.19462727  0.80020128  0.80528558  1
  Ti  Ti196  1  0.80929710  -0.00021467  0.00046508  1
  Ti  Ti197  1  0.28823024  0.31199766  0.29896062  1
  Ti  Ti198  1  0.39513149  -0.00135571  0.19735028  1
  Ti  Ti199  1  0.00075196  -0.00230042  0.79513268  1
  Mo  Mo200  1  -0.00599181  0.20655871  0.59587569  1
  Mo  Mo201  1  0.19575511  0.19817564  0.60712036  1
  Mo  Mo202  1  0.50936034  0.49113853  0.50775461  1
  Mo  Mo203  1  0.70012760  0.49302284  0.30696510  1
  Mo  Mo204  1  0.40397283  0.20186037  0.79997926  1
  Mo  Mo205  1  0.09148616  0.90193674  0.70672807  1
  Mo  Mo206  1  0.70582862  0.48970561  0.50235749  1
  Mo  Mo207  1  -0.00231757  0.80029922  0.60051231  1
  Mo  Mo208  1  0.09516072  0.71276271  0.50205886  1
  Mo  Mo209  1  0.70085467  0.30330176  0.49947543  1
  Mo  Mo210  1  0.71106240  0.90513730  0.29120913  1
  Mo  Mo211  1  0.00201000  0.59660170  -0.00859010  1
  Mo  Mo212  1  0.40282729  0.60131542  0.39767580  1
  Mo  Mo213  1  0.39621427  0.80000332  0.60070313  1
  Mo  Mo214  1  0.30493837  0.49857368  0.70109837  1
  Mo  Mo215  1  -0.00614312  0.60240543  0.39656157  1
  Mo  Mo216  1  0.79833854  0.20325621  0.00313381  1
  Mo  Mo217  1  0.09437357  0.30208922  0.69741682  1
  Mo  Mo218  1  0.09150129  0.09851060  0.29662407  1
  Mo  Mo219  1  0.09131600  0.70182152  0.09419407  1
  Mo  Mo220  1  0.80161636  0.39201242  0.59988253  1
  Mo  Mo221  1  0.70440578  0.10748472  0.49936885  1
  Mo  Mo222  1  0.90194376  0.29964057  0.30270495  1
  Mo  Mo223  1  0.29888993  0.69682282  0.89972673  1
  Mo  Mo224  1  -0.00415683  0.20070627  0.39825093  1
  Mo  Mo225  1  0.81090568  0.00740433  0.60032112  1
  Mo  Mo226  1  0.28804071  0.31773353  0.10255235  1
  Mo  Mo227  1  0.00731698  0.79863366  -0.00401393  1
  Mo  Mo228  1  0.49218079  0.90403191  0.49501654  1
  Mo  Mo229  1  0.89931660  0.10479590  0.10579678  1
  Mo  Mo230  1  0.60293552  0.59524486  0.19298708  1
  Mo  Mo231  1  0.89473577  0.69451871  0.30228193  1
  Mo  Mo232  1  0.60348458  0.80902164  0.00421211  1
  Mo  Mo233  1  0.90352254  0.29464878  0.10602043  1
  Mo  Mo234  1  0.59912092  0.19055038  0.19884244  1
  Mo  Mo235  1  0.60597663  0.59041077  0.60091179  1
  Mo  Mo236  1  0.29334097  0.90341687  0.90038015  1
  Mo  Mo237  1  -0.00513397  0.39102461  0.39694606  1
  Mo  Mo238  1  0.09068346  0.49461415  0.89989036  1
  Mo  Mo239  1  0.29965734  0.08344371  0.29263866  1
  Mo  Mo240  1  -0.00373754  0.20495734  0.01589684  1
  Mo  Mo241  1  0.60437916  0.39721333  0.79841580  1
  Mo  Mo242  1  0.50398965  0.30071236  0.89557948  1
  Mo  Mo243  1  0.90308269  0.50902174  0.11462065  1
  Mo  Mo244  1  0.80505895  0.59698288  0.20417678  1
  Mo  Mo245  1  0.90016312  0.89725144  0.89473298  1
  Mo  Mo246  1  0.09573885  0.48900170  0.50007236  1
  Mo  Mo247  1  0.70317126  0.30119984  0.69546209  1
  Mo  Mo248  1  0.39848681  -0.00086024  0.80635201  1
  Mo  Mo249  1  0.69896551  0.50363823  0.11252627  1
