# generated using pymatgen
data_HfZrTaTiMo
_symmetry_space_group_name_H-M   'P 1'
_cell_length_a   16.88304167
_cell_length_b   16.88628811
_cell_length_c   16.88050721
_cell_angle_alpha   90.00320298
_cell_angle_beta   90.02190037
_cell_angle_gamma   89.94755212
_symmetry_Int_Tables_number   1
_chemical_formula_structural   HfZrTaTiMo
_chemical_formula_sum   'Hf50 Zr50 Ta50 Ti50 Mo50'
_cell_volume   4812.49359715
_cell_formula_units_Z   50
loop_
 _symmetry_equiv_pos_site_id
 _symmetry_equiv_pos_as_xyz
  1  'x, y, z'
loop_
 _atom_site_type_symbol
 _atom_site_label
 _atom_site_symmetry_multiplicity
 _atom_site_fract_x
 _atom_site_fract_y
 _atom_site_fract_z
 _atom_site_occupancy
  Hf  Hf0  1  0.59716735  0.38103273  0.20244186  1
  Hf  Hf1  1  0.89466812  0.49830447  0.29755262  1
  Hf  Hf2  1  0.59967277  0.39407023  0.79338298  1
  Hf  Hf3  1  0.90359392  0.70314769  0.29182254  1
  Hf  Hf4  1  0.10762706  0.49506057  0.49943352  1
  Hf  Hf5  1  0.00059584  0.59986823  0.40486979  1
  Hf  Hf6  1  0.20039269  0.20654617  0.00651011  1
  Hf  Hf7  1  0.90464987  0.90215683  0.90865305  1
  Hf  Hf8  1  0.90356622  0.70274717  0.70441622  1
  Hf  Hf9  1  0.00143253  0.79898234  0.39779719  1
  Hf  Hf10  1  0.50019549  0.90725930  0.29888362  1
  Hf  Hf11  1  0.89048222  0.29880818  0.89907676  1
  Hf  Hf12  1  0.29842504  0.69315296  0.89799250  1
  Hf  Hf13  1  0.59717625  0.79613950  0.60055440  1
  Hf  Hf14  1  0.50614143  0.09867909  0.90566906  1
  Hf  Hf15  1  0.79224721  0.80054074  0.80715257  1
  Hf  Hf16  1  0.60294611  0.79453219  0.00145202  1
  Hf  Hf17  1  0.40063392  0.59202398  0.40475101  1
  Hf  Hf18  1  0.59305375  0.58399794  0.59777712  1
  Hf  Hf19  1  0.69538746  0.90795560  0.50068634  1
  Hf  Hf20  1  0.59885902  0.59330454  0.40016065  1
  Hf  Hf21  1  0.89882179  0.90444418  0.49436069  1
  Hf  Hf22  1  0.90019173  0.90379908  0.70352406  1
  Hf  Hf23  1  0.80110462  0.60217947  0.80786373  1
  Hf  Hf24  1  0.29547049  0.30282120  0.89019691  1
  Hf  Hf25  1  0.40518118  0.79940340  0.00149129  1
  Hf  Hf26  1  0.90300429  0.89889794  0.10416447  1
  Hf  Hf27  1  0.50006453  0.90885599  0.69203683  1
  Hf  Hf28  1  -0.00798660  0.59524744  0.59994257  1
  Hf  Hf29  1  0.40531770  0.80452524  0.80839705  1
  Hf  Hf30  1  0.29597313  0.10428144  0.10951523  1
  Hf  Hf31  1  0.70330237  0.49213386  0.69821203  1
  Hf  Hf32  1  0.30440051  0.90666802  0.30090410  1
  Hf  Hf33  1  0.39807553  0.00334135  0.00404827  1
  Hf  Hf34  1  0.79458824  0.38232809  0.20178012  1
  Hf  Hf35  1  0.60277837  0.61174247  -0.00259997  1
  Hf  Hf36  1  0.39489351  0.78983377  0.39421534  1
  Hf  Hf37  1  0.60398736  0.79451857  0.39188128  1
  Hf  Hf38  1  0.30380993  0.49620622  0.29243350  1
  Hf  Hf39  1  0.20198772  0.39128712  0.18917903  1
  Hf  Hf40  1  0.50158199  0.69006769  0.28897941  1
  Hf  Hf41  1  0.10779569  0.69778224  0.90430970  1
  Hf  Hf42  1  0.19381070  0.38552532  0.38509989  1
  Hf  Hf43  1  0.39949278  0.20492187  0.01057267  1
  Hf  Hf44  1  0.59771600  0.79502924  0.80600169  1
  Hf  Hf45  1  0.80180562  0.19774511  0.20407896  1
  Hf  Hf46  1  0.18423254  0.20503164  0.21549423  1
  Hf  Hf47  1  0.90741631  0.71611719  0.91313066  1
  Hf  Hf48  1  0.79662182  0.61589273  0.00000472  1
  Hf  Hf49  1  0.70529879  0.28847408  0.48787043  1
  Zr  Zr50  1  0.89715476  0.10914873  0.69962514  1
  Zr  Zr51  1  0.29721471  0.69867254  0.50992804  1
  Zr  Zr52  1  0.19776268  0.79827871  0.39276756  1
  Zr  Zr53  1  -0.00331863  0.39481535  0.59792381  1
  Zr  Zr54  1  0.00244330  0.59362781  0.81359129  1
  Zr  Zr55  1  0.18962515  0.79635516  0.19491158  1
  Zr  Zr56  1  0.29766553  0.30975793  0.69129306  1
  Zr  Zr57  1  0.59885182  0.38786886  0.00639703  1
  Zr  Zr58  1  0.71481630  0.48023532  0.90435495  1
  Zr  Zr59  1  0.29937545  0.10529181  0.69685134  1
  Zr  Zr60  1  0.39788989  0.60315879  0.00563874  1
  Zr  Zr61  1  0.89778302  0.10694903  0.90044704  1
  Zr  Zr62  1  0.49919631  0.50648834  0.11555911  1
  Zr  Zr63  1  0.40389391  0.19665042  0.79336449  1
  Zr  Zr64  1  0.78676501  0.61150034  0.20053590  1
  Zr  Zr65  1  0.29587503  0.69925675  0.70158477  1
  Zr  Zr66  1  0.38302682  0.39982785  0.01865933  1
  Zr  Zr67  1  0.30580624  0.29335796  0.50237093  1
  Zr  Zr68  1  0.29940030  0.90131956  0.69059226  1
  Zr  Zr69  1  0.89348865  0.10957609  0.49772235  1
  Zr  Zr70  1  0.29574396  0.48559628  0.50283498  1
  Zr  Zr71  1  0.50008454  0.09985357  0.49164447  1
  Zr  Zr72  1  0.00483137  0.80289617  0.59996205  1
  Zr  Zr73  1  0.09687763  0.30551882  0.90081433  1
  Zr  Zr74  1  0.60547448  0.20464328  0.00967912  1
  Zr  Zr75  1  0.69773956  0.91093684  0.91105575  1
  Zr  Zr76  1  0.20017380  0.58692250  0.00986950  1
  Zr  Zr77  1  0.59763671  0.00696740  0.79532428  1
  Zr  Zr78  1  0.59973822  0.60286631  0.80568124  1
  Zr  Zr79  1  0.30065913  0.90271779  0.10322436  1
  Zr  Zr80  1  0.19232934  0.00505673  0.20330559  1
  Zr  Zr81  1  0.02163545  0.00603879  0.80515592  1
  Zr  Zr82  1  0.10327551  0.49991970  0.70360311  1
  Zr  Zr83  1  0.11193779  0.69767614  0.51399276  1
  Zr  Zr84  1  0.00805676  0.00719823  0.59931373  1
  Zr  Zr85  1  0.70402901  0.10197990  0.69169214  1
  Zr  Zr86  1  0.20348052  0.82084924  0.81515781  1
  Zr  Zr87  1  0.60287753  0.19673167  0.59233428  1
  Zr  Zr88  1  0.79946320  0.59520060  0.40578949  1
  Zr  Zr89  1  0.49178059  0.30275840  0.89514385  1
  Zr  Zr90  1  0.09338099  0.50307165  0.28996483  1
  Zr  Zr91  1  0.49450081  0.90706149  0.49256409  1
  Zr  Zr92  1  -0.00567153  0.37960176  0.20402477  1
  Zr  Zr93  1  -0.00013733  0.20291044  0.38511987  1
  Zr  Zr94  1  0.19858382  0.00498048  0.59026451  1
  Zr  Zr95  1  0.49071153  0.49902875  0.89933102  1
  Zr  Zr96  1  0.80549271  0.40207756  0.58848871  1
  Zr  Zr97  1  0.69886725  0.49651914  0.10264275  1
  Zr  Zr98  1  0.89780026  0.49517294  0.09627545  1
  Zr  Zr99  1  0.70092026  0.69879674  0.50254874  1
  Ta  Ta100  1  0.40737486  0.01045293  0.20298583  1
  Ta  Ta101  1  0.79586624  0.00141209  0.59568975  1
  Ta  Ta102  1  0.29389546  0.10051318  0.90154983  1
  Ta  Ta103  1  0.79964254  0.80111100  0.60012670  1
  Ta  Ta104  1  -0.00617644  0.19617573  0.20065768  1
  Ta  Ta105  1  0.80143318  0.00441838  0.00666199  1
  Ta  Ta106  1  0.79408333  0.80495527  0.20279818  1
  Ta  Ta107  1  -0.00982957  0.39649373  0.40250792  1
  Ta  Ta108  1  0.70918040  0.29737740  0.69841066  1
  Ta  Ta109  1  0.00920588  0.20238579  0.79494338  1
  Ta  Ta110  1  0.70178858  0.69804722  0.69692758  1
  Ta  Ta111  1  0.19410481  0.00818687  0.39417973  1
  Ta  Ta112  1  0.39682849  0.00905340  0.59204240  1
  Ta  Ta113  1  0.39525114  -0.00072886  0.80598461  1
  Ta  Ta114  1  0.80312998  0.59619378  0.59935416  1
  Ta  Ta115  1  0.70063188  0.90599484  0.10355995  1
  Ta  Ta116  1  0.50934611  0.90604523  0.10654659  1
  Ta  Ta117  1  0.09362810  0.10293200  0.09989419  1
  Ta  Ta118  1  0.49560718  0.69511328  0.69733123  1
  Ta  Ta119  1  0.79870291  0.00467579  0.20469110  1
  Ta  Ta120  1  0.11168314  0.70058196  0.70687735  1
  Ta  Ta121  1  0.60447360  0.20458399  0.79814100  1
  Ta  Ta122  1  0.19355871  0.20004519  0.59792620  1
  Ta  Ta123  1  0.19742813  0.40317054  0.00484966  1
  Ta  Ta124  1  0.79689066  0.00178367  0.80121692  1
  Ta  Ta125  1  0.10285614  0.29651597  0.49778686  1
  Ta  Ta126  1  0.60623080  0.00864759  0.20357734  1
  Ta  Ta127  1  0.10148443  0.10986774  0.49038822  1
  Ta  Ta128  1  0.20435002  0.60565037  0.38423838  1
  Ta  Ta129  1  0.79748540  0.80411040  0.39242276  1
  Ta  Ta130  1  0.69340530  0.49020914  0.30265907  1
  Ta  Ta131  1  0.50141808  0.49543413  0.29682902  1
  Ta  Ta132  1  0.60902144  0.79815089  0.19941760  1
  Ta  Ta133  1  0.69980731  0.90190272  0.69399549  1
  Ta  Ta134  1  -0.00284637  0.39826251  0.80247162  1
  Ta  Ta135  1  0.90805021  0.71073387  0.10265340  1
  Ta  Ta136  1  0.00321617  0.59830123  0.00526312  1
  Ta  Ta137  1  0.80051910  0.00484799  0.39155437  1
  Ta  Ta138  1  0.70535098  0.10646325  0.90304065  1
  Ta  Ta139  1  0.40570984  0.58629769  0.60406043  1
  Ta  Ta140  1  0.00849096  0.00277330  0.00307331  1
  Ta  Ta141  1  0.90126200  0.10021864  0.09830563  1
  Ta  Ta142  1  0.50199152  0.29982428  0.68647763  1
  Ta  Ta143  1  0.60312312  0.19969064  0.20643217  1
  Ta  Ta144  1  0.89375450  0.29607891  0.70390781  1
  Ta  Ta145  1  0.89445071  0.49303886  0.70910853  1
  Ta  Ta146  1  0.01362898  0.80716573  0.80463993  1
  Ta  Ta147  1  0.08791367  0.90341073  0.29538835  1
  Ta  Ta148  1  0.50274777  0.90825055  0.91028757  1
  Ta  Ta149  1  0.41053872  0.39412341  0.39498631  1
  Ti  Ti150  1  0.90188040  0.48508795  0.91047215  1
  Ti  Ti151  1  0.40032866  0.59386967  0.79060896  1
  Ti  Ti152  1  0.50045781  0.10188324  0.30382339  1
  Ti  Ti153  1  0.19806881  0.81119012  0.00486085  1
  Ti  Ti154  1  0.10861093  0.89689215  0.69547899  1
  Ti  Ti155  1  0.08870779  0.49634604  0.10112135  1
  Ti  Ti156  1  0.69659727  0.48440916  0.49356515  1
  Ti  Ti157  1  0.41760467  0.40898718  0.59682469  1
  Ti  Ti158  1  0.40875907  0.20350334  0.20202159  1
  Ti  Ti159  1  0.38723118  0.60397909  0.19773958  1
  Ti  Ti160  1  0.19717121  0.41097236  0.80028427  1
  Ti  Ti161  1  0.89664105  0.29289275  0.08196764  1
  Ti  Ti162  1  0.19159863  -0.00119978  -0.00515126  1
  Ti  Ti163  1  0.49599983  0.69667364  0.50364368  1
  Ti  Ti164  1  0.18851009  0.19178081  0.79760005  1
  Ti  Ti165  1  0.40167741  0.41008441  0.78394662  1
  Ti  Ti166  1  0.89543049  0.70451948  0.50118603  1
  Ti  Ti167  1  0.40007185  0.80036423  0.59644060  1
  Ti  Ti168  1  0.30610380  0.28978543  0.30217968  1
  Ti  Ti169  1  0.00582088  0.20364961  0.60264742  1
  Ti  Ti170  1  0.70136974  0.11016220  0.31108639  1
  Ti  Ti171  1  0.50552168  0.69979241  0.11097879  1
  Ti  Ti172  1  0.40800772  0.20388240  0.39551987  1
  Ti  Ti173  1  0.00388810  0.19441968  -0.00417130  1
  Ti  Ti174  1  -0.00004554  0.00692779  0.39089790  1
  Ti  Ti175  1  0.60871239  0.00970022  0.39624461  1
  Ti  Ti176  1  0.50349590  0.29835026  0.49908351  1
  Ti  Ti177  1  0.21036969  0.58571088  0.61217842  1
  Ti  Ti178  1  0.89430975  0.29417864  0.49423872  1
  Ti  Ti179  1  0.40112570  0.38545646  0.20182706  1
  Ti  Ti180  1  0.30054880  0.10824733  0.49043263  1
  Ti  Ti181  1  0.30447561  0.10443102  0.30817180  1
  Ti  Ti182  1  0.10330234  0.30346345  0.69781075  1
  Ti  Ti183  1  0.08821386  0.29919333  0.09371094  1
  Ti  Ti184  1  0.29463639  0.50001729  0.89002739  1
  Ti  Ti185  1  -0.00244495  0.00673202  0.20108898  1
  Ti  Ti186  1  0.49772905  0.10114627  0.68956434  1
  Ti  Ti187  1  0.02258769  0.80771023  0.01134318  1
  Ti  Ti188  1  0.19751938  0.60138301  0.19478767  1
  Ti  Ti189  1  0.29979957  0.90375252  0.49440370  1
  Ti  Ti190  1  0.10336233  0.90432340  0.49249304  1
  Ti  Ti191  1  0.50682832  0.09781198  0.10546217  1
  Ti  Ti192  1  0.40046567  0.79866700  0.19834536  1
  Ti  Ti193  1  0.70256851  0.09810252  0.09836379  1
  Ti  Ti194  1  0.09066467  0.69630794  0.28407394  1
  Ti  Ti195  1  0.70025596  0.90490397  0.29770329  1
  Ti  Ti196  1  0.19918657  0.00565840  0.80760236  1
  Ti  Ti197  1  0.59469424  0.38897962  0.39564675  1
  Ti  Ti198  1  0.29409305  0.70223157  0.10177180  1
  Ti  Ti199  1  0.90172834  0.90237494  0.29607915  1
  Mo  Mo200  1  0.89754698  0.09299039  0.29400392  1
  Mo  Mo201  1  0.59966693  0.00067499  0.59600692  1
  Mo  Mo202  1  0.49734013  0.29282902  0.30528741  1
  Mo  Mo203  1  0.19971009  0.80951408  0.59837970  1
  Mo  Mo204  1  0.10589243  0.10421498  0.90395875  1
  Mo  Mo205  1  0.50372929  0.48602615  0.49375309  1
  Mo  Mo206  1  0.30000961  0.29614248  0.11199762  1
  Mo  Mo207  1  0.00008891  0.40182588  -0.00055717  1
  Mo  Mo208  1  0.79840525  0.19502878  0.00576600  1
  Mo  Mo209  1  0.30130242  0.91279691  0.90711412  1
  Mo  Mo210  1  0.49426568  0.70173161  0.89152658  1
  Mo  Mo211  1  0.09069097  0.09516185  0.29909315  1
  Mo  Mo212  1  0.49617006  0.29045152  0.11343122  1
  Mo  Mo213  1  0.80007073  0.19758852  0.39389355  1
  Mo  Mo214  1  0.79934732  0.39675482  0.39576123  1
  Mo  Mo215  1  0.30487118  0.49629166  0.70049410  1
  Mo  Mo216  1  0.80425110  0.39575241  0.79894828  1
  Mo  Mo217  1  0.79361816  0.20025222  0.80026555  1
  Mo  Mo218  1  0.89989420  0.49889319  0.49778367  1
  Mo  Mo219  1  0.60281317  0.60056167  0.20627329  1
  Mo  Mo220  1  0.79947966  0.38507520  0.00343203  1
  Mo  Mo221  1  0.10315221  0.11130868  0.69565069  1
  Mo  Mo222  1  0.09651399  0.69899826  0.09738198  1
  Mo  Mo223  1  0.69979963  0.70335608  0.29953124  1
  Mo  Mo224  1  0.60020659  0.39178590  0.59410515  1
  Mo  Mo225  1  0.09894482  0.49330311  0.90651654  1
  Mo  Mo226  1  0.40226614  0.19983425  0.59296202  1
  Mo  Mo227  1  0.70168912  0.71206814  0.10255504  1
  Mo  Mo228  1  0.89053736  0.29838952  0.31241122  1
  Mo  Mo229  1  0.30042800  0.69334076  0.28898531  1
  Mo  Mo230  1  0.19259559  0.39138902  0.60251995  1
  Mo  Mo231  1  0.00131716  0.60868944  0.18763527  1
  Mo  Mo232  1  0.59866195  0.19975749  0.39135038  1
  Mo  Mo233  1  0.70609529  0.70672740  0.90133785  1
  Mo  Mo234  1  0.20381207  0.59067818  0.80289785  1
  Mo  Mo235  1  0.60249063  0.00453388  0.01354874  1
  Mo  Mo236  1  0.50097044  0.49530129  0.69726734  1
  Mo  Mo237  1  0.79767795  0.80642423  0.01243321  1
  Mo  Mo238  1  0.29774136  0.49673427  0.11288358  1
  Mo  Mo239  1  0.70501603  0.28920813  0.09976630  1
  Mo  Mo240  1  0.09679668  0.90935443  0.10135424  1
  Mo  Mo241  1  0.09199933  0.29944265  0.30162979  1
  Mo  Mo242  1  0.70295519  0.09603763  0.49118109  1
  Mo  Mo243  1  0.38790707  0.00862271  0.39533167  1
  Mo  Mo244  1  0.69595157  0.29372507  0.30613848  1
  Mo  Mo245  1  0.10377659  0.90468521  0.90891564  1
  Mo  Mo246  1  0.70556130  0.28992125  0.89428727  1
  Mo  Mo247  1  0.20128929  0.19545202  0.40006272  1
  Mo  Mo248  1  -0.00152587  0.80612139  0.19997019  1
  Mo  Mo249  1  0.80363274  0.20251773  0.59688055  1
