# generated using pymatgen
data_HfZrTaTiMo
_symmetry_space_group_name_H-M   'P 1'
_cell_length_a   16.88444512
_cell_length_b   16.88779443
_cell_length_c   16.88679384
_cell_angle_alpha   89.97579823
_cell_angle_beta   90.04336072
_cell_angle_gamma   90.01162608
_symmetry_Int_Tables_number   1
_chemical_formula_structural   HfZrTaTiMo
_chemical_formula_sum   'Hf50 Zr50 Ta50 Ti50 Mo50'
_cell_volume   4815.11602282
_cell_formula_units_Z   50
loop_
 _symmetry_equiv_pos_site_id
 _symmetry_equiv_pos_as_xyz
  1  'x, y, z'
loop_
 _atom_site_type_symbol
 _atom_site_label
 _atom_site_symmetry_multiplicity
 _atom_site_fract_x
 _atom_site_fract_y
 _atom_site_fract_z
 _atom_site_occupancy
  Hf  Hf0  1  0.59950635  0.59477129  0.80598631  1
  Hf  Hf1  1  0.11360209  0.49402510  0.10234542  1
  Hf  Hf2  1  0.09258266  0.30921059  0.49531957  1
  Hf  Hf3  1  0.00374728  0.60126175  0.80485361  1
  Hf  Hf4  1  0.90087744  0.69596292  0.70723524  1
  Hf  Hf5  1  0.49426003  0.70576253  0.28978302  1
  Hf  Hf6  1  0.60165443  0.21090144  0.40323888  1
  Hf  Hf7  1  -0.00057572  0.39332051  0.00665910  1
  Hf  Hf8  1  0.79244236  0.79145686  0.40259695  1
  Hf  Hf9  1  -0.00339956  0.60683551  0.00022028  1
  Hf  Hf10  1  0.49637325  0.12015256  0.69899975  1
  Hf  Hf11  1  0.60079172  0.39733998  0.19481967  1
  Hf  Hf12  1  0.40401093  -0.00173084  0.79506414  1
  Hf  Hf13  1  0.39134024  0.39559137  0.20034360  1
  Hf  Hf14  1  0.91129051  0.70415349  0.29998253  1
  Hf  Hf15  1  0.80000619  0.20295150  0.59808291  1
  Hf  Hf16  1  0.20324696  0.61099372  -0.00192015  1
  Hf  Hf17  1  -0.00477384  0.80567936  -0.01395212  1
  Hf  Hf18  1  0.00158317  -0.00095370  0.60165667  1
  Hf  Hf19  1  0.49592798  0.29826801  0.50760500  1
  Hf  Hf20  1  0.10682690  0.10075634  0.28763523  1
  Hf  Hf21  1  0.80561111  0.59905091  0.40016991  1
  Hf  Hf22  1  0.20323875  0.40386597  0.59243971  1
  Hf  Hf23  1  0.00011377  0.19521520  0.79846155  1
  Hf  Hf24  1  0.90037627  0.89411865  0.50123599  1
  Hf  Hf25  1  0.69776590  0.10050198  0.90282798  1
  Hf  Hf26  1  0.61267956  0.39947199  -0.00320246  1
  Hf  Hf27  1  0.80105812  0.00464845  0.79851032  1
  Hf  Hf28  1  0.80761077  0.79603521  0.01013522  1
  Hf  Hf29  1  0.49648212  0.11056371  0.89682420  1
  Hf  Hf30  1  0.29189925  0.89836194  0.10573643  1
  Hf  Hf31  1  0.60353795  0.39753480  0.80346146  1
  Hf  Hf32  1  0.59597381  0.60165754  0.40470150  1
  Hf  Hf33  1  0.81087587  0.00337723  0.19104185  1
  Hf  Hf34  1  -0.00602324  0.19378523  0.39504647  1
  Hf  Hf35  1  0.49638357  0.49885955  0.91039718  1
  Hf  Hf36  1  0.89760769  0.29989815  0.90514186  1
  Hf  Hf37  1  0.00272208  0.39394025  0.19550538  1
  Hf  Hf38  1  0.49964696  0.89878122  0.29705734  1
  Hf  Hf39  1  0.29838144  0.09881145  0.29302658  1
  Hf  Hf40  1  0.70273225  0.90736668  0.90771990  1
  Hf  Hf41  1  0.00089184  -0.00199528  0.39903030  1
  Hf  Hf42  1  0.79920349  0.20103308  0.79253602  1
  Hf  Hf43  1  0.20119581  -0.00835791  0.39734778  1
  Hf  Hf44  1  0.20021219  0.20285336  0.00283095  1
  Hf  Hf45  1  0.81244401  0.19600892  0.19897379  1
  Hf  Hf46  1  0.70379962  0.49660971  0.49811865  1
  Hf  Hf47  1  0.00439152  0.58991256  0.60031963  1
  Hf  Hf48  1  0.70829565  0.50083395  0.69980862  1
  Hf  Hf49  1  0.10301800  0.71104585  0.10866492  1
  Zr  Zr50  1  0.29625053  0.50264589  0.71054089  1
  Zr  Zr51  1  0.89997289  0.88978645  0.70113157  1
  Zr  Zr52  1  0.38826264  0.79513690  -0.00544992  1
  Zr  Zr53  1  0.49995504  0.89885026  0.89608935  1
  Zr  Zr54  1  0.20837074  0.60315193  0.21192257  1
  Zr  Zr55  1  0.30709620  0.29280845  0.70474421  1
  Zr  Zr56  1  0.70086493  0.89439452  0.70072913  1
  Zr  Zr57  1  0.68996574  0.10371161  0.50662460  1
  Zr  Zr58  1  0.50077766  0.50381896  0.29520903  1
  Zr  Zr59  1  0.49210435  0.89489323  0.10599535  1
  Zr  Zr60  1  0.58844808  0.59896466  0.59549057  1
  Zr  Zr61  1  0.58983079  0.00106110  0.00170277  1
  Zr  Zr62  1  0.59799198  0.40131415  0.59962327  1
  Zr  Zr63  1  0.29661266  0.10145697  0.70205987  1
  Zr  Zr64  1  0.29381109  0.09581412  0.10028571  1
  Zr  Zr65  1  0.38809216  0.60513946  0.40342722  1
  Zr  Zr66  1  0.29283332  0.89311347  0.69323451  1
  Zr  Zr67  1  0.69272595  0.90608059  0.29703710  1
  Zr  Zr68  1  0.49747271  0.89764143  0.50749251  1
  Zr  Zr69  1  0.38886545  0.60554408  -0.00108925  1
  Zr  Zr70  1  0.81398594  0.59750705  0.58960366  1
  Zr  Zr71  1  0.11231982  0.49707716  0.90109037  1
  Zr  Zr72  1  0.48873730  0.30748723  0.08582922  1
  Zr  Zr73  1  0.00038888  0.59535743  0.19895092  1
  Zr  Zr74  1  0.39255687  0.60118215  0.59728915  1
  Zr  Zr75  1  0.69988081  0.69932059  0.69584704  1
  Zr  Zr76  1  -0.00424088  0.40497590  0.79188923  1
  Zr  Zr77  1  0.69398214  0.09610929  0.29630881  1
  Zr  Zr78  1  0.80138052  0.80240959  0.19111164  1
  Zr  Zr79  1  -0.00402248  0.00141342  0.20164628  1
  Zr  Zr80  1  0.50336760  0.09767330  0.29640381  1
  Zr  Zr81  1  0.29974529  0.89444912  0.29109293  1
  Zr  Zr82  1  0.80818486  0.60348501  0.18836826  1
  Zr  Zr83  1  0.80077435  0.20584851  0.01457160  1
  Zr  Zr84  1  0.00063359  -0.01100786  0.81009686  1
  Zr  Zr85  1  0.19678336  0.80050926  -0.00994436  1
  Zr  Zr86  1  0.21039287  0.20239981  0.58899154  1
  Zr  Zr87  1  0.11023724  0.09332802  0.50561203  1
  Zr  Zr88  1  0.10491738  0.29508789  0.89552197  1
  Zr  Zr89  1  0.00867293  0.78909877  0.60542773  1
  Zr  Zr90  1  0.19942963  0.60116599  0.59587188  1
  Zr  Zr91  1  -0.00608270  0.19862707  0.59745036  1
  Zr  Zr92  1  0.80725066  0.20044345  0.40718525  1
  Zr  Zr93  1  0.70580438  0.30451441  0.29598744  1
  Zr  Zr94  1  0.68888963  0.69233606  0.28860459  1
  Zr  Zr95  1  0.20723998  0.20833169  0.39542684  1
  Zr  Zr96  1  0.69729101  0.89718943  0.50633598  1
  Zr  Zr97  1  0.59991160  0.79676399  0.80457476  1
  Zr  Zr98  1  0.81361063  0.79267516  0.82343769  1
  Zr  Zr99  1  0.59755703  0.00589976  0.61755256  1
  Ta  Ta100  1  0.90428913  0.30610340  0.29941569  1
  Ta  Ta101  1  0.10263664  0.09592516  0.90283179  1
  Ta  Ta102  1  0.89876775  0.49066434  0.30085372  1
  Ta  Ta103  1  0.39573360  0.20044073  0.39775619  1
  Ta  Ta104  1  0.39126925  0.00277961  -0.00461396  1
  Ta  Ta105  1  0.39429797  0.79989972  0.40227935  1
  Ta  Ta106  1  0.70432743  0.49832385  0.29165113  1
  Ta  Ta107  1  0.10182377  0.09773778  0.09825363  1
  Ta  Ta108  1  0.90058590  0.09741696  0.91238385  1
  Ta  Ta109  1  0.89970327  0.89743255  0.30319164  1
  Ta  Ta110  1  0.50007758  0.69698437  0.90288066  1
  Ta  Ta111  1  0.59513945  0.20691203  0.19048268  1
  Ta  Ta112  1  0.00406184  0.59259794  0.40010541  1
  Ta  Ta113  1  0.60362943  0.39944100  0.39974469  1
  Ta  Ta114  1  0.29454974  0.10268733  0.89311837  1
  Ta  Ta115  1  0.69121472  0.09810521  0.10181287  1
  Ta  Ta116  1  0.39551878  0.20663923  0.20079467  1
  Ta  Ta117  1  0.49166175  0.70530570  0.69951558  1
  Ta  Ta118  1  0.10449368  0.70119287  0.49147415  1
  Ta  Ta119  1  0.50083896  0.69508676  0.09994329  1
  Ta  Ta120  1  0.39196711  0.60272165  0.19609773  1
  Ta  Ta121  1  0.60289606  0.20780712  0.00327147  1
  Ta  Ta122  1  0.40189253  0.40012898  0.80625522  1
  Ta  Ta123  1  0.39448033  0.00541951  0.59615179  1
  Ta  Ta124  1  0.11315260  0.89013676  0.50725953  1
  Ta  Ta125  1  0.70001273  0.50408912  0.09482837  1
  Ta  Ta126  1  0.10284469  0.90470873  0.10495773  1
  Ta  Ta127  1  0.49960084  0.50671415  0.09683165  1
  Ta  Ta128  1  0.20662191  0.40363423  0.39444812  1
  Ta  Ta129  1  0.80279185  0.40008075  0.40227078  1
  Ta  Ta130  1  0.10192807  0.70552037  0.30431143  1
  Ta  Ta131  1  0.39691159  0.00193101  0.40523756  1
  Ta  Ta132  1  0.30108147  0.49394090  0.09888403  1
  Ta  Ta133  1  0.49441457  0.10770853  0.50414674  1
  Ta  Ta134  1  0.60301293  0.79328104  0.00417460  1
  Ta  Ta135  1  0.49492861  0.10588220  0.09891863  1
  Ta  Ta136  1  0.10874817  0.90009443  0.70308979  1
  Ta  Ta137  1  0.29818896  0.89758988  0.50456558  1
  Ta  Ta138  1  0.79804376  0.40009130  0.79999319  1
  Ta  Ta139  1  0.10557655  0.29672533  0.69804911  1
  Ta  Ta140  1  0.20120661  0.21947391  0.19331198  1
  Ta  Ta141  1  0.39257579  0.79435312  0.79788203  1
  Ta  Ta142  1  0.80355289  0.01073007  0.60128272  1
  Ta  Ta143  1  0.89102951  0.49621548  0.90478144  1
  Ta  Ta144  1  0.20145206  0.59783178  0.40295326  1
  Ta  Ta145  1  0.49401411  0.29787617  0.70236802  1
  Ta  Ta146  1  0.59669266  0.79351005  0.40590783  1
  Ta  Ta147  1  0.11179869  0.09670426  0.70680432  1
  Ta  Ta148  1  0.39973498  0.60254096  0.80059106  1
  Ta  Ta149  1  0.81010275  0.00699829  0.40082873  1
  Ti  Ti150  1  0.70849565  0.30111607  0.90266174  1
  Ti  Ti151  1  0.48524511  0.48672313  0.48943518  1
  Ti  Ti152  1  0.80903775  0.40012183  0.59883358  1
  Ti  Ti153  1  0.80449461  0.60321360  -0.00093419  1
  Ti  Ti154  1  0.20357583  0.39317533  0.79971462  1
  Ti  Ti155  1  0.39554192  0.40537177  0.60358861  1
  Ti  Ti156  1  0.28951549  0.69479829  0.87705031  1
  Ti  Ti157  1  0.90329035  0.09824218  0.70017216  1
  Ti  Ti158  1  0.49267484  0.29753087  0.89804575  1
  Ti  Ti159  1  0.39124452  0.20112262  0.00142036  1
  Ti  Ti160  1  0.91644853  0.69994550  0.49300167  1
  Ti  Ti161  1  0.30513718  0.29850130  0.89826588  1
  Ti  Ti162  1  0.31381087  0.31148044  0.49139887  1
  Ti  Ti163  1  0.19182593  0.80227098  0.80464444  1
  Ti  Ti164  1  -0.00097468  0.20343034  0.19204983  1
  Ti  Ti165  1  0.79773957  0.78570143  0.58917046  1
  Ti  Ti166  1  0.60201325  0.80114814  0.19100044  1
  Ti  Ti167  1  0.49401700  0.49866470  0.70568264  1
  Ti  Ti168  1  0.69680691  0.91033683  0.09772552  1
  Ti  Ti169  1  0.69456694  0.29785519  0.69034320  1
  Ti  Ti170  1  0.10761680  0.49677731  0.70563638  1
  Ti  Ti171  1  0.01066328  0.80626642  0.39764643  1
  Ti  Ti172  1  0.49334236  0.30363676  0.30532019  1
  Ti  Ti173  1  -0.00391908  0.80977394  0.19534974  1
  Ti  Ti174  1  0.80272925  0.59373369  0.80922045  1
  Ti  Ti175  1  0.30190872  0.49387384  0.30294744  1
  Ti  Ti176  1  0.29730871  0.49439845  0.90122942  1
  Ti  Ti177  1  0.49538900  0.71326611  0.50966721  1
  Ti  Ti178  1  0.09720105  0.49471617  0.48957232  1
  Ti  Ti179  1  0.20350357  0.79609905  0.39427556  1
  Ti  Ti180  1  0.49758628  0.88941719  0.69522175  1
  Ti  Ti181  1  0.10055158  0.49492333  0.30340825  1
  Ti  Ti182  1  0.21060790  0.38636210  0.01057191  1
  Ti  Ti183  1  0.10125183  0.30699701  0.29894435  1
  Ti  Ti184  1  0.60621248  0.20614057  0.79944754  1
  Ti  Ti185  1  0.29320776  0.71665460  0.50865161  1
  Ti  Ti186  1  -0.00490415  -0.00504792  0.00457521  1
  Ti  Ti187  1  0.80243396  0.39290646  0.18504923  1
  Ti  Ti188  1  0.19434701  -0.00402430  -0.00669003  1
  Ti  Ti189  1  0.69668922  0.68786241  0.91062973  1
  Ti  Ti190  1  0.90693913  0.31582220  0.49464765  1
  Ti  Ti191  1  0.68735180  0.68692927  0.09736209  1
  Ti  Ti192  1  0.90250355  0.30525379  0.69746053  1
  Ti  Ti193  1  0.29229430  0.90864139  0.89039763  1
  Ti  Ti194  1  0.89351173  0.49389489  0.09383113  1
  Ti  Ti195  1  0.59461209  -0.00039758  0.40640554  1
  Ti  Ti196  1  -0.00386035  0.40974787  0.60373094  1
  Ti  Ti197  1  0.00114889  0.19870974  0.01145768  1
  Ti  Ti198  1  0.40242539  0.00504741  0.19565163  1
  Ti  Ti199  1  0.11382647  0.70099657  0.70972429  1
  Mo  Mo200  1  0.59520826  0.00450735  0.19198658  1
  Mo  Mo201  1  0.19800928  0.79584870  0.60030323  1
  Mo  Mo202  1  0.79956139  0.40423593  0.00142763  1
  Mo  Mo203  1  0.90743254  0.70310367  0.09889287  1
  Mo  Mo204  1  0.20069873  0.40083854  0.20700171  1
  Mo  Mo205  1  0.29877028  0.30267274  0.09958224  1
  Mo  Mo206  1  0.20026328  0.59965217  0.80032448  1
  Mo  Mo207  1  0.09819709  0.89010423  0.29998874  1
  Mo  Mo208  1  0.91315690  0.10226189  0.09520111  1
  Mo  Mo209  1  0.19113926  -0.00225157  0.19777768  1
  Mo  Mo210  1  0.90787985  0.90264427  0.10030842  1
  Mo  Mo211  1  0.90361915  0.30051865  0.10508714  1
  Mo  Mo212  1  0.19775922  -0.00093565  0.80523162  1
  Mo  Mo213  1  0.59429551  0.79393149  0.60053375  1
  Mo  Mo214  1  0.29706634  0.70189588  0.30897935  1
  Mo  Mo215  1  0.80777116  0.00213376  0.00680257  1
  Mo  Mo216  1  0.90712236  0.49228815  0.49571809  1
  Mo  Mo217  1  0.60182615  0.60076286  0.00022423  1
  Mo  Mo218  1  0.30093974  0.70310177  0.11562496  1
  Mo  Mo219  1  0.30823854  0.09206411  0.49512613  1
  Mo  Mo220  1  0.09946423  0.70512323  0.89133110  1
  Mo  Mo221  1  0.19657881  0.19867998  0.80588994  1
  Mo  Mo222  1  0.29896959  0.49059291  0.49365561  1
  Mo  Mo223  1  0.69547137  0.10597033  0.70645870  1
  Mo  Mo224  1  0.20035514  -0.00494136  0.59970840  1
  Mo  Mo225  1  0.71085012  0.50182940  0.90179328  1
  Mo  Mo226  1  0.89974304  0.68646100  0.90253525  1
  Mo  Mo227  1  0.39837962  0.20054217  0.58836491  1
  Mo  Mo228  1  0.70027649  0.29961408  0.10092058  1
  Mo  Mo229  1  0.60021755  0.20857727  0.60420881  1
  Mo  Mo230  1  0.39794151  0.20690899  0.81184053  1
  Mo  Mo231  1  0.10119991  0.29550784  0.10232474  1
  Mo  Mo232  1  0.89889426  0.09134013  0.50316935  1
  Mo  Mo233  1  0.68585664  0.69864822  0.49940302  1
  Mo  Mo234  1  0.90474780  0.10242609  0.30078091  1
  Mo  Mo235  1  0.40096042  0.39699861  0.39487127  1
  Mo  Mo236  1  0.39636361  0.80065830  0.60129263  1
  Mo  Mo237  1  0.10248798  0.90555976  0.90173360  1
  Mo  Mo238  1  0.70245393  0.30939873  0.50405690  1
  Mo  Mo239  1  0.39280632  0.78824756  0.19933315  1
  Mo  Mo240  1  0.30259081  0.30132756  0.30007738  1
  Mo  Mo241  1  0.29846803  0.70244486  0.70649623  1
  Mo  Mo242  1  0.19239270  0.80162493  0.20662964  1
  Mo  Mo243  1  0.89833771  0.91320654  0.90926256  1
  Mo  Mo244  1  0.89721060  0.49606764  0.70409506  1
  Mo  Mo245  1  0.60103498  0.00928634  0.79624604  1
  Mo  Mo246  1  0.01291996  0.79593068  0.80534530  1
  Mo  Mo247  1  0.38823606  0.40294784  -0.00579517  1
  Mo  Mo248  1  0.00174478  0.40246086  0.39108733  1
  Mo  Mo249  1  0.59589420  0.59344714  0.19245400  1
