# generated using pymatgen
data_HfZrTaTiMo
_symmetry_space_group_name_H-M   'P 1'
_cell_length_a   16.89006119
_cell_length_b   16.89025595
_cell_length_c   16.88396537
_cell_angle_alpha   89.97736574
_cell_angle_beta   89.96373492
_cell_angle_gamma   90.01987856
_symmetry_Int_Tables_number   1
_chemical_formula_structural   HfZrTaTiMo
_chemical_formula_sum   'Hf50 Zr50 Ta50 Ti50 Mo50'
_cell_volume   4816.61306544
_cell_formula_units_Z   50
loop_
 _symmetry_equiv_pos_site_id
 _symmetry_equiv_pos_as_xyz
  1  'x, y, z'
loop_
 _atom_site_type_symbol
 _atom_site_label
 _atom_site_symmetry_multiplicity
 _atom_site_fract_x
 _atom_site_fract_y
 _atom_site_fract_z
 _atom_site_occupancy
  Hf  Hf0  1  0.59952962  0.40044950  0.80522191  1
  Hf  Hf1  1  0.50423501  0.90490215  0.09578234  1
  Hf  Hf2  1  0.69933995  0.10196531  0.49305150  1
  Hf  Hf3  1  0.88635476  0.10907330  0.09668570  1
  Hf  Hf4  1  0.89585441  0.29942472  0.70436559  1
  Hf  Hf5  1  0.31307527  0.70515720  0.68829775  1
  Hf  Hf6  1  0.70621644  0.90643623  0.29412033  1
  Hf  Hf7  1  0.30196004  0.69142621  0.30860209  1
  Hf  Hf8  1  0.59883544  0.78823225  0.19974504  1
  Hf  Hf9  1  0.89281478  0.70357464  0.89304206  1
  Hf  Hf10  1  0.19948339  0.19651119  0.39600053  1
  Hf  Hf11  1  0.19140430  0.00703482  0.40020493  1
  Hf  Hf12  1  0.10179543  0.50427034  0.90418564  1
  Hf  Hf13  1  -0.00274863  0.78680484  0.59115265  1
  Hf  Hf14  1  -0.00566811  0.80568168  0.00837486  1
  Hf  Hf15  1  -0.00076749  0.39445882  0.60503642  1
  Hf  Hf16  1  0.09526287  0.89366434  0.49416056  1
  Hf  Hf17  1  0.10241009  0.29958680  0.90502905  1
  Hf  Hf18  1  0.79296348  0.40647051  0.19781529  1
  Hf  Hf19  1  0.60587749  0.59992036  0.80146787  1
  Hf  Hf20  1  0.90388019  0.11073283  0.69988489  1
  Hf  Hf21  1  0.10263690  0.10614040  0.09500166  1
  Hf  Hf22  1  0.68712331  0.10309946  0.90363859  1
  Hf  Hf23  1  0.89076353  0.49979737  0.70039818  1
  Hf  Hf24  1  0.00102558  0.20510435  0.19737830  1
  Hf  Hf25  1  0.60081218  0.59648102  0.19762193  1
  Hf  Hf26  1  0.80129786  -0.00521985  0.59402220  1
  Hf  Hf27  1  0.09243097  0.29996752  0.49891221  1
  Hf  Hf28  1  -0.00466850  0.60732964  0.20908227  1
  Hf  Hf29  1  0.19824301  0.79994896  0.19966832  1
  Hf  Hf30  1  0.89881813  0.30661900  0.30288611  1
  Hf  Hf31  1  0.40564986  -0.00503652  0.40819894  1
  Hf  Hf32  1  0.59675238  0.20516049  0.20139893  1
  Hf  Hf33  1  0.09547001  0.89584552  0.29860573  1
  Hf  Hf34  1  0.10346202  0.69520953  0.09366810  1
  Hf  Hf35  1  0.41638456  0.20029830  0.18687638  1
  Hf  Hf36  1  0.88790745  0.09598943  0.29345744  1
  Hf  Hf37  1  0.20338514  0.01442497  -0.01396734  1
  Hf  Hf38  1  0.90919550  0.89273296  0.70389722  1
  Hf  Hf39  1  0.90029275  0.11273495  0.89609950  1
  Hf  Hf40  1  0.09966843  0.50495635  0.69527874  1
  Hf  Hf41  1  0.30461222  0.50078891  0.69275610  1
  Hf  Hf42  1  0.31112531  0.09287032  0.29111663  1
  Hf  Hf43  1  -0.01242800  0.59842107  0.00056258  1
  Hf  Hf44  1  0.20445342  0.60231507  0.79826980  1
  Hf  Hf45  1  -0.00039705  0.00882434  -0.00444227  1
  Hf  Hf46  1  0.41124497  0.59992158  0.79737975  1
  Hf  Hf47  1  0.57979664  0.19057258  0.01080252  1
  Hf  Hf48  1  0.48823070  0.29594292  0.90497708  1
  Hf  Hf49  1  0.30507197  0.69837252  0.09364285  1
  Zr  Zr50  1  0.89576574  0.89639403  0.89324839  1
  Zr  Zr51  1  0.20392344  0.80055945  0.79540852  1
  Zr  Zr52  1  0.30159697  0.09212465  0.71402569  1
  Zr  Zr53  1  0.40782635  0.20081270  0.60165463  1
  Zr  Zr54  1  0.30575881  0.69842281  0.90919090  1
  Zr  Zr55  1  0.50115312  0.90114377  0.70872120  1
  Zr  Zr56  1  0.20690886  0.40747814  0.40267453  1
  Zr  Zr57  1  0.71018915  0.88894098  0.70180157  1
  Zr  Zr58  1  0.60182133  -0.00572954  0.59485911  1
  Zr  Zr59  1  0.89123323  0.90986835  0.11141886  1
  Zr  Zr60  1  0.41348875  0.59759481  0.20289575  1
  Zr  Zr61  1  0.31581561  0.90655066  0.09551060  1
  Zr  Zr62  1  0.70803325  0.69154388  0.30598152  1
  Zr  Zr63  1  0.30938828  0.30912818  0.09415284  1
  Zr  Zr64  1  0.19837784  0.59880827  0.20878268  1
  Zr  Zr65  1  0.50751537  0.08702661  0.29518340  1
  Zr  Zr66  1  0.60286004  0.79882205  0.40398679  1
  Zr  Zr67  1  0.08973940  0.91306799  0.88021226  1
  Zr  Zr68  1  0.17870965  0.19738732  0.61003297  1
  Zr  Zr69  1  0.41104429  0.78571119  0.40740666  1
  Zr  Zr70  1  0.79538340  0.60096425  0.59872392  1
  Zr  Zr71  1  0.59471568  0.20459560  0.60040016  1
  Zr  Zr72  1  0.29955876  0.10164327  0.50851369  1
  Zr  Zr73  1  0.79409160  0.40032830  0.40316832  1
  Zr  Zr74  1  0.00996250  0.01108714  0.59239938  1
  Zr  Zr75  1  0.09409338  0.70129399  0.89695997  1
  Zr  Zr76  1  0.19720650  0.81475076  -0.00135418  1
  Zr  Zr77  1  0.10362314  0.32064827  0.29314647  1
  Zr  Zr78  1  0.69926724  0.90600779  0.10239447  1
  Zr  Zr79  1  0.09311176  0.50463552  0.49544400  1
  Zr  Zr80  1  0.60077385  0.78802607  0.59647038  1
  Zr  Zr81  1  0.89940357  0.10915296  0.49868685  1
  Zr  Zr82  1  0.60344884  0.78966899  0.80546608  1
  Zr  Zr83  1  0.19392469  0.78810994  0.59496401  1
  Zr  Zr84  1  0.88806836  0.29901113  0.90263409  1
  Zr  Zr85  1  0.31767483  0.91036881  0.89475651  1
  Zr  Zr86  1  0.20015497  0.39436627  0.79915354  1
  Zr  Zr87  1  0.78342101  0.60158886  0.00437512  1
  Zr  Zr88  1  0.20357312  0.19666357  0.19853106  1
  Zr  Zr89  1  0.30502111  0.89673975  0.30001354  1
  Zr  Zr90  1  0.50367141  0.49004471  0.69323928  1
  Zr  Zr91  1  0.41169610  0.20882285  0.39889843  1
  Zr  Zr92  1  0.10696519  0.49599223  0.10356099  1
  Zr  Zr93  1  0.69105695  0.10499821  0.70597210  1
  Zr  Zr94  1  0.00878042  0.18945034  0.39382919  1
  Zr  Zr95  1  0.79733989  0.00357569  0.80138927  1
  Zr  Zr96  1  -0.00988751  0.39814268  0.00545397  1
  Zr  Zr97  1  0.30064498  0.88962238  0.51047893  1
  Zr  Zr98  1  0.30570711  0.29371506  0.70583792  1
  Zr  Zr99  1  0.31075966  0.31127010  0.29014869  1
  Ta  Ta100  1  0.30469473  0.90268060  0.70133300  1
  Ta  Ta101  1  0.41078816  0.79168056  0.20042889  1
  Ta  Ta102  1  0.79006791  0.79531116  0.00223098  1
  Ta  Ta103  1  0.59775783  0.60136569  0.59875533  1
  Ta  Ta104  1  0.69080836  0.29713829  0.90797814  1
  Ta  Ta105  1  0.69521021  0.30607154  0.69935326  1
  Ta  Ta106  1  0.60617024  0.79145942  0.00058907  1
  Ta  Ta107  1  0.88953102  0.49833846  0.89558619  1
  Ta  Ta108  1  0.89790316  0.50775606  0.30889151  1
  Ta  Ta109  1  0.69204592  0.49822260  0.50229708  1
  Ta  Ta110  1  -0.00310421  0.79529177  0.20269822  1
  Ta  Ta111  1  0.50197364  0.09856732  0.72022296  1
  Ta  Ta112  1  0.69417287  0.90061293  0.90433590  1
  Ta  Ta113  1  0.79130516  0.20696108  0.39893051  1
  Ta  Ta114  1  -0.00130008  0.00011923  0.39456870  1
  Ta  Ta115  1  0.69583576  0.09610314  0.10586556  1
  Ta  Ta116  1  0.41080756  0.60518320  0.58756997  1
  Ta  Ta117  1  0.69977146  0.09870991  0.29865465  1
  Ta  Ta118  1  0.79756863  0.59619984  0.19936880  1
  Ta  Ta119  1  0.20910024  0.39909722  -0.00161831  1
  Ta  Ta120  1  0.89205005  0.70435919  0.70334958  1
  Ta  Ta121  1  0.69295890  0.30586000  0.50130331  1
  Ta  Ta122  1  0.20239226  0.39772015  0.59918540  1
  Ta  Ta123  1  -0.00721482  0.40818823  0.20052019  1
  Ta  Ta124  1  0.41008320  0.40792530  0.40067266  1
  Ta  Ta125  1  0.50226394  0.69581678  0.90977331  1
  Ta  Ta126  1  0.90125656  0.89293774  0.49448388  1
  Ta  Ta127  1  0.89237980  0.70098584  0.10371121  1
  Ta  Ta128  1  0.69322059  0.30184858  0.09553463  1
  Ta  Ta129  1  -0.00959075  0.59733522  0.79604897  1
  Ta  Ta130  1  0.09960739  0.90264478  0.70015408  1
  Ta  Ta131  1  0.40213823  0.40120757  0.59113840  1
  Ta  Ta132  1  0.40646939  -0.00129227  0.60534261  1
  Ta  Ta133  1  0.41208703  0.79683481  0.80256752  1
  Ta  Ta134  1  0.30114663  0.30332146  0.50206731  1
  Ta  Ta135  1  0.10745867  0.30681460  0.09981126  1
  Ta  Ta136  1  0.89994108  0.50174306  0.49378045  1
  Ta  Ta137  1  0.60351583  -0.00857623  0.40357163  1
  Ta  Ta138  1  0.69422360  0.30382273  0.29955463  1
  Ta  Ta139  1  0.19966372  0.00101447  0.19540867  1
  Ta  Ta140  1  -0.00053336  0.40211713  0.80047204  1
  Ta  Ta141  1  0.50232869  0.89944028  0.29251985  1
  Ta  Ta142  1  0.30648464  0.49800337  0.90633139  1
  Ta  Ta143  1  0.79601663  0.21138944  0.59563038  1
  Ta  Ta144  1  0.30725081  0.49854379  0.29887440  1
  Ta  Ta145  1  0.59897690  0.20738430  0.39713705  1
  Ta  Ta146  1  0.59398926  0.40350656  0.39868335  1
  Ta  Ta147  1  0.80527589  0.79869518  0.40050072  1
  Ta  Ta148  1  0.78904986  0.59793688  0.80276046  1
  Ta  Ta149  1  0.59104101  0.59767794  0.40524024  1
  Ti  Ti150  1  0.69714101  0.49257231  0.69183098  1
  Ti  Ti151  1  0.69735897  0.50144897  0.30755578  1
  Ti  Ti152  1  0.01371306  0.20714959  0.79488664  1
  Ti  Ti153  1  0.00147796  0.20450065  0.00156229  1
  Ti  Ti154  1  0.68402862  0.49114097  0.09280844  1
  Ti  Ti155  1  0.70621981  0.69576102  0.49695374  1
  Ti  Ti156  1  0.79446616  0.00331256  -0.00232467  1
  Ti  Ti157  1  0.79252592  0.39936852  0.00233170  1
  Ti  Ti158  1  0.09975930  0.08971247  0.71962845  1
  Ti  Ti159  1  0.78969025  0.40319508  0.80484453  1
  Ti  Ti160  1  0.31259095  0.09662326  0.09426481  1
  Ti  Ti161  1  0.40375963  0.59293371  0.00223545  1
  Ti  Ti162  1  -0.00729390  0.60354878  0.59825774  1
  Ti  Ti163  1  0.88920572  0.29873483  0.09842340  1
  Ti  Ti164  1  0.80115373  -0.00554044  0.40218454  1
  Ti  Ti165  1  0.78541183  0.20812876  0.79994566  1
  Ti  Ti166  1  0.89878749  0.90036826  0.29820110  1
  Ti  Ti167  1  0.89410135  0.69057895  0.48794921  1
  Ti  Ti168  1  0.41027518  0.59492065  0.40436589  1
  Ti  Ti169  1  0.89292178  0.50181539  0.10200308  1
  Ti  Ti170  1  0.00358103  0.00520181  0.20320408  1
  Ti  Ti171  1  0.09802274  0.90821409  0.10246121  1
  Ti  Ti172  1  0.20560878  0.60388290  0.58905146  1
  Ti  Ti173  1  0.79668492  0.39672245  0.59520655  1
  Ti  Ti174  1  0.50066232  0.49673657  0.91289957  1
  Ti  Ti175  1  0.09172313  0.69711560  0.70175966  1
  Ti  Ti176  1  0.80361568  0.79077884  0.20237470  1
  Ti  Ti177  1  0.71167602  0.70330675  0.70036613  1
  Ti  Ti178  1  0.41913855  0.01759084  -0.01015819  1
  Ti  Ti179  1  0.90282312  0.29981774  0.49837953  1
  Ti  Ti180  1  0.50435271  0.31107921  0.50187334  1
  Ti  Ti181  1  0.78977088  0.20742288  0.20049695  1
  Ti  Ti182  1  0.50501077  0.09752910  0.50013498  1
  Ti  Ti183  1  0.50085916  0.49277564  0.09294179  1
  Ti  Ti184  1  0.19690058  -0.00025163  0.60239240  1
  Ti  Ti185  1  0.30366684  0.49663800  0.10150862  1
  Ti  Ti186  1  -0.00770082  0.78605302  0.38711794  1
  Ti  Ti187  1  0.09570360  0.50671764  0.31032602  1
  Ti  Ti188  1  0.09780215  0.68515799  0.48056753  1
  Ti  Ti189  1  0.49811341  0.89378749  0.50744593  1
  Ti  Ti190  1  0.30358267  0.50527896  0.49760590  1
  Ti  Ti191  1  0.49880117  0.32083771  0.09482954  1
  Ti  Ti192  1  0.20186838  0.19350422  0.81352446  1
  Ti  Ti193  1  0.39683760  0.39901288  0.80552429  1
  Ti  Ti194  1  0.19887006  0.78649914  0.40111807  1
  Ti  Ti195  1  0.50187948  0.69703192  0.08860671  1
  Ti  Ti196  1  0.50004146  0.29814761  0.70836798  1
  Ti  Ti197  1  0.69211320  0.49553972  0.91052609  1
  Ti  Ti198  1  0.21356107  0.20153591  -0.00748820  1
  Ti  Ti199  1  0.59082014  0.40339454  0.20843218  1
  Mo  Mo200  1  0.40122922  -0.00516222  0.19566528  1
  Mo  Mo201  1  0.79424984  0.59677798  0.40238001  1
  Mo  Mo202  1  0.50745768  0.89854858  0.90610633  1
  Mo  Mo203  1  0.20269168  0.00135435  0.79681834  1
  Mo  Mo204  1  0.80517394  0.79494776  0.58623624  1
  Mo  Mo205  1  0.20469997  0.59898739  0.40277889  1
  Mo  Mo206  1  0.69751532  0.69886126  0.90418611  1
  Mo  Mo207  1  0.50053966  0.69602486  0.70059767  1
  Mo  Mo208  1  0.59932343  0.39962091  0.59842801  1
  Mo  Mo209  1  0.71200625  0.89669060  0.49247913  1
  Mo  Mo210  1  0.89631482  0.70079079  0.29715833  1
  Mo  Mo211  1  0.40322431  0.19577566  0.80863821  1
  Mo  Mo212  1  0.21209427  0.58892691  -0.00004851  1
  Mo  Mo213  1  0.50003889  0.09793683  0.89291254  1
  Mo  Mo214  1  0.31059123  0.10824988  0.90017568  1
  Mo  Mo215  1  0.09761876  0.70347124  0.30657489  1
  Mo  Mo216  1  0.50202930  0.69651071  0.30373360  1
  Mo  Mo217  1  0.09971780  0.09675510  0.49477149  1
  Mo  Mo218  1  0.50227801  0.50026661  0.30378708  1
  Mo  Mo219  1  0.59563665  -0.00683784  0.81354367  1
  Mo  Mo220  1  0.60276450  0.00046567  0.20228245  1
  Mo  Mo221  1  0.59974491  -0.00150900  -0.00009316  1
  Mo  Mo222  1  0.50535323  0.31039021  0.29879671  1
  Mo  Mo223  1  0.30202729  0.29852156  0.90238748  1
  Mo  Mo224  1  0.09893063  0.30120312  0.70593780  1
  Mo  Mo225  1  0.40131807  0.40945427  0.00001980  1
  Mo  Mo226  1  -0.00717555  0.60495446  0.39875680  1
  Mo  Mo227  1  0.50162659  0.08480681  0.10095205  1
  Mo  Mo228  1  0.39685438  0.19201201  0.00017878  1
  Mo  Mo229  1  0.78318303  0.20365004  0.00608926  1
  Mo  Mo230  1  0.09879385  0.08932043  0.29003902  1
  Mo  Mo231  1  0.40577367  -0.00063316  0.80331380  1
  Mo  Mo232  1  -0.00737428  0.40772426  0.39833575  1
  Mo  Mo233  1  -0.00371158  0.20570157  0.60631767  1
  Mo  Mo234  1  0.50304143  0.69474104  0.50220069  1
  Mo  Mo235  1  0.70163647  0.69819766  0.10282447  1
  Mo  Mo236  1  0.20214359  0.40937399  0.19700448  1
  Mo  Mo237  1  0.79849493  0.00590764  0.20363233  1
  Mo  Mo238  1  0.59708421  0.39823039  0.00034030  1
  Mo  Mo239  1  0.59601634  0.21003961  0.80158656  1
  Mo  Mo240  1  0.50107652  0.50032666  0.49946138  1
  Mo  Mo241  1  0.41613083  0.79448920  -0.00102831  1
  Mo  Mo242  1  0.40574959  0.80018358  0.60417522  1
  Mo  Mo243  1  0.10073736  0.11204886  0.89699911  1
  Mo  Mo244  1  0.79671705  0.79383221  0.80635993  1
  Mo  Mo245  1  -0.00130725  0.01088077  0.79744767  1
  Mo  Mo246  1  0.59410183  0.59488884  0.00188173  1
  Mo  Mo247  1  0.00054208  0.79090237  0.78608155  1
  Mo  Mo248  1  0.30113648  0.68729736  0.49784481  1
  Mo  Mo249  1  0.40860096  0.40835644  0.19925446  1
