# generated using pymatgen
data_HfZrTaTiMo
_symmetry_space_group_name_H-M   'P 1'
_cell_length_a   16.88250872
_cell_length_b   16.88407979
_cell_length_c   16.88008775
_cell_angle_alpha   89.97976087
_cell_angle_beta   90.02547274
_cell_angle_gamma   90.01249207
_symmetry_Int_Tables_number   1
_chemical_formula_structural   HfZrTaTiMo
_chemical_formula_sum   'Hf50 Zr50 Ta50 Ti50 Mo50'
_cell_volume   4811.59425926
_cell_formula_units_Z   50
loop_
 _symmetry_equiv_pos_site_id
 _symmetry_equiv_pos_as_xyz
  1  'x, y, z'
loop_
 _atom_site_type_symbol
 _atom_site_label
 _atom_site_symmetry_multiplicity
 _atom_site_fract_x
 _atom_site_fract_y
 _atom_site_fract_z
 _atom_site_occupancy
  Hf  Hf0  1  0.59231244  0.01170994  0.80449378  1
  Hf  Hf1  1  0.39554642  0.40086618  -0.00635806  1
  Hf  Hf2  1  0.09911676  0.90799790  0.29969977  1
  Hf  Hf3  1  0.29443759  0.10360505  0.70421770  1
  Hf  Hf4  1  0.50614081  0.50345824  0.30365670  1
  Hf  Hf5  1  0.50334355  0.29359577  0.09602766  1
  Hf  Hf6  1  0.40071805  0.20444287  0.61226367  1
  Hf  Hf7  1  0.89876466  0.90985497  0.48923616  1
  Hf  Hf8  1  0.89914492  0.90290142  0.88983841  1
  Hf  Hf9  1  0.30240788  0.49807437  0.50751133  1
  Hf  Hf10  1  0.50663098  0.30134832  0.50603108  1
  Hf  Hf11  1  0.80164477  -0.00386550  0.60307155  1
  Hf  Hf12  1  0.20449136  0.40390653  -0.00461422  1
  Hf  Hf13  1  0.00099275  0.40076100  0.60651282  1
  Hf  Hf14  1  0.69216194  0.89934984  0.29324678  1
  Hf  Hf15  1  0.50437406  0.30232629  0.29973160  1
  Hf  Hf16  1  0.60404597  0.60575189  -0.01743585  1
  Hf  Hf17  1  0.70012394  0.09789815  0.30057182  1
  Hf  Hf18  1  0.70335074  0.09923524  0.49387874  1
  Hf  Hf19  1  0.49754713  0.10241135  0.50195567  1
  Hf  Hf20  1  0.31098338  0.69876775  0.30511654  1
  Hf  Hf21  1  0.40085995  0.18994840  0.21164023  1
  Hf  Hf22  1  0.09397254  0.89481189  0.70938182  1
  Hf  Hf23  1  -0.00002004  0.20615033  0.60088451  1
  Hf  Hf24  1  0.70106406  0.29063429  0.89899861  1
  Hf  Hf25  1  0.40669939  0.80434209  0.19751627  1
  Hf  Hf26  1  0.01311151  0.40434192  0.80978383  1
  Hf  Hf27  1  0.69897955  0.49799428  0.30696810  1
  Hf  Hf28  1  0.29700447  0.89515520  0.90192926  1
  Hf  Hf29  1  0.70515416  0.49703954  0.09194673  1
  Hf  Hf30  1  0.20003044  0.79585680  0.60094180  1
  Hf  Hf31  1  -0.00503982  0.79654216  0.60090697  1
  Hf  Hf32  1  0.70223245  0.10208430  0.71262601  1
  Hf  Hf33  1  0.10329205  0.49509172  0.30480181  1
  Hf  Hf34  1  0.10472195  0.50530700  0.50135921  1
  Hf  Hf35  1  0.20066568  0.19992588  0.19931135  1
  Hf  Hf36  1  0.30271469  0.90329385  0.09883890  1
  Hf  Hf37  1  0.40489696  0.40197879  0.40502909  1
  Hf  Hf38  1  0.09863401  0.09338947  0.49909739  1
  Hf  Hf39  1  0.29990623  0.91324730  0.29020651  1
  Hf  Hf40  1  0.79969365  0.38929042  0.19548070  1
  Hf  Hf41  1  0.09376959  0.11132219  0.08936125  1
  Hf  Hf42  1  0.60879651  0.59759276  0.79228420  1
  Hf  Hf43  1  0.39722247  0.78913731  0.80080996  1
  Hf  Hf44  1  0.70269945  0.89222494  0.70537742  1
  Hf  Hf45  1  0.89091842  0.30242384  0.70937488  1
  Hf  Hf46  1  0.09966609  0.70039554  0.89142945  1
  Hf  Hf47  1  0.50923140  0.70324671  0.30492122  1
  Hf  Hf48  1  0.08305733  0.48904479  0.09166763  1
  Hf  Hf49  1  0.80365572  0.19544034  0.59976860  1
  Zr  Zr50  1  0.19986227  0.39241257  0.61952087  1
  Zr  Zr51  1  0.89461548  0.09522796  0.72082129  1
  Zr  Zr52  1  0.49464673  0.49735556  0.69461836  1
  Zr  Zr53  1  0.89767421  0.49431505  0.09421887  1
  Zr  Zr54  1  0.49666177  0.49586777  0.88896652  1
  Zr  Zr55  1  0.69793201  0.70461506  0.09986956  1
  Zr  Zr56  1  0.30386424  0.28965404  0.09267274  1
  Zr  Zr57  1  -0.00997437  0.19809291  0.40168444  1
  Zr  Zr58  1  0.10583153  0.10280595  0.70496009  1
  Zr  Zr59  1  0.81129137  0.19455852  0.19534932  1
  Zr  Zr60  1  0.11012055  0.30415607  0.49207546  1
  Zr  Zr61  1  0.09482150  0.10011045  0.90583375  1
  Zr  Zr62  1  0.60737406  0.60605774  0.20430093  1
  Zr  Zr63  1  0.89381006  0.50038497  0.69754174  1
  Zr  Zr64  1  0.79538934  0.79565593  0.40009774  1
  Zr  Zr65  1  0.09883806  0.69040377  0.09287856  1
  Zr  Zr66  1  0.40404620  0.01178336  0.79824539  1
  Zr  Zr67  1  -0.00081202  0.79699578  0.19899183  1
  Zr  Zr68  1  0.20950293  0.58949854  0.19251669  1
  Zr  Zr69  1  0.49614221  0.70404715  0.09240406  1
  Zr  Zr70  1  0.89815719  0.90766832  0.29994398  1
  Zr  Zr71  1  0.70119765  0.90337925  0.89421464  1
  Zr  Zr72  1  0.10408045  0.69479253  0.30246270  1
  Zr  Zr73  1  0.50040651  0.88997699  0.90357827  1
  Zr  Zr74  1  -0.00648522  0.40435616  0.40668591  1
  Zr  Zr75  1  0.50062601  0.50362114  0.09536614  1
  Zr  Zr76  1  0.20939587  0.19531146  0.39619683  1
  Zr  Zr77  1  0.71253603  0.48766065  0.50826510  1
  Zr  Zr78  1  0.90240810  0.90632205  0.09239794  1
  Zr  Zr79  1  0.50016022  0.69794596  0.68815492  1
  Zr  Zr80  1  0.29770373  0.90034296  0.69876428  1
  Zr  Zr81  1  0.79899239  0.80063569  -0.00138132  1
  Zr  Zr82  1  0.70370972  0.29636264  0.31253351  1
  Zr  Zr83  1  0.40752269  0.00500213  -0.00327287  1
  Zr  Zr84  1  0.09880095  0.29164698  0.92919027  1
  Zr  Zr85  1  0.58680202  -0.00523448  0.40241933  1
  Zr  Zr86  1  0.50485119  0.89220660  0.69272781  1
  Zr  Zr87  1  0.20312013  0.60930666  0.61188143  1
  Zr  Zr88  1  0.20774394  0.80005190  0.40385697  1
  Zr  Zr89  1  0.20580079  0.40198025  0.19082045  1
  Zr  Zr90  1  0.30311282  0.69906043  0.08911749  1
  Zr  Zr91  1  0.10216230  0.91171327  0.10168021  1
  Zr  Zr92  1  -0.00398320  0.20710010  0.80966454  1
  Zr  Zr93  1  0.79922055  0.60301492  0.79575201  1
  Zr  Zr94  1  0.50223932  0.70121225  0.50038844  1
  Zr  Zr95  1  0.09861536  0.09696466  0.29541829  1
  Zr  Zr96  1  0.80251755  0.60301254  0.40971825  1
  Zr  Zr97  1  -0.00562157  0.00117587  0.60244815  1
  Zr  Zr98  1  0.89571350  0.49271303  0.30153026  1
  Zr  Zr99  1  0.90362927  0.69253245  0.09504457  1
  Ta  Ta100  1  0.69442600  0.10416783  0.09443362  1
  Ta  Ta101  1  0.69972149  0.29359123  0.08962985  1
  Ta  Ta102  1  0.60122182  0.39373970  -0.00558437  1
  Ta  Ta103  1  0.80298811  0.79439505  0.60145709  1
  Ta  Ta104  1  -0.00426713  0.59122825  -0.02284535  1
  Ta  Ta105  1  -0.00169578  0.79505932  0.40513824  1
  Ta  Ta106  1  0.30034164  0.09166341  0.10342684  1
  Ta  Ta107  1  0.79678592  0.01116685  -0.00233790  1
  Ta  Ta108  1  0.39835946  0.40643100  0.19780098  1
  Ta  Ta109  1  0.39222631  0.60763977  0.79773189  1
  Ta  Ta110  1  0.60934097  0.59315314  0.59896205  1
  Ta  Ta111  1  0.89979434  0.69977859  0.30183543  1
  Ta  Ta112  1  0.70024193  0.29645127  0.50325542  1
  Ta  Ta113  1  0.60128891  0.39245738  0.79497285  1
  Ta  Ta114  1  0.09728694  0.69877599  0.50097413  1
  Ta  Ta115  1  0.79371792  0.79773311  0.20168049  1
  Ta  Ta116  1  -0.00486191  0.59320868  0.20957949  1
  Ta  Ta117  1  0.40460984  0.00256961  0.59742614  1
  Ta  Ta118  1  0.80184097  0.59913330  -0.01408254  1
  Ta  Ta119  1  0.79587730  0.00371870  0.19014854  1
  Ta  Ta120  1  0.29430439  0.10892525  0.90171210  1
  Ta  Ta121  1  0.40759776  0.59396888  0.40920134  1
  Ta  Ta122  1  -0.01368574  0.01895393  0.19527762  1
  Ta  Ta123  1  0.69309673  0.70227911  0.50353252  1
  Ta  Ta124  1  0.20189767  0.39688885  0.80567854  1
  Ta  Ta125  1  0.50350765  0.10225594  0.09915200  1
  Ta  Ta126  1  0.40048184  0.39379479  0.60624933  1
  Ta  Ta127  1  0.50101034  0.29567228  0.89847251  1
  Ta  Ta128  1  0.70384169  0.48857752  0.89927780  1
  Ta  Ta129  1  0.88288851  0.31015555  0.50111058  1
  Ta  Ta130  1  0.59488997  0.00206383  0.60321755  1
  Ta  Ta131  1  0.60272931  0.39565727  0.19362547  1
  Ta  Ta132  1  0.19549542  0.80209538  -0.00327809  1
  Ta  Ta133  1  -0.00733259  0.20730138  0.19668346  1
  Ta  Ta134  1  0.59838911  0.19854448  0.61165203  1
  Ta  Ta135  1  0.59862126  0.79805112  -0.00455909  1
  Ta  Ta136  1  0.00438500  0.80038010  -0.00921431  1
  Ta  Ta137  1  0.30038706  0.30795191  0.30491607  1
  Ta  Ta138  1  0.30256341  0.30148532  0.50008753  1
  Ta  Ta139  1  0.69311645  0.89719272  0.50621721  1
  Ta  Ta140  1  0.39904645  0.19647649  0.39834791  1
  Ta  Ta141  1  0.10075178  0.90247546  0.49499868  1
  Ta  Ta142  1  0.79928813  0.60734453  0.20608698  1
  Ta  Ta143  1  0.09821082  0.30680622  0.29406003  1
  Ta  Ta144  1  0.19815907  -0.00186663  0.80727398  1
  Ta  Ta145  1  0.30507074  0.90913775  0.49854067  1
  Ta  Ta146  1  0.20735780  0.00358770  0.40101802  1
  Ta  Ta147  1  -0.00722855  0.60324657  0.40979551  1
  Ta  Ta148  1  0.20026623  0.00220673  -0.00311658  1
  Ta  Ta149  1  0.30542201  0.50044341  0.70550259  1
  Ti  Ti150  1  0.20371158  0.60375041  0.79727757  1
  Ti  Ti151  1  0.80404829  0.19288890  -0.00411694  1
  Ti  Ti152  1  0.89288604  0.48608464  0.90146842  1
  Ti  Ti153  1  -0.00640877  0.60553199  0.59896137  1
  Ti  Ti154  1  0.60122866  0.01139357  -0.00570228  1
  Ti  Ti155  1  0.70147775  0.29495410  0.70276095  1
  Ti  Ti156  1  0.10263359  0.50814351  0.70762857  1
  Ti  Ti157  1  0.20149003  0.79687422  0.19566254  1
  Ti  Ti158  1  0.89731820  0.30148767  0.30704066  1
  Ti  Ti159  1  0.30136328  0.49791589  0.30815203  1
  Ti  Ti160  1  0.60090618  0.78493217  0.79883492  1
  Ti  Ti161  1  0.29924237  0.50291981  0.89043767  1
  Ti  Ti162  1  0.00072613  0.59976327  0.79800267  1
  Ti  Ti163  1  0.40240567  0.19560599  -0.00859871  1
  Ti  Ti164  1  0.30138652  0.10008261  0.50401067  1
  Ti  Ti165  1  0.20238091  -0.00282056  0.59839598  1
  Ti  Ti166  1  0.80078145  0.60807829  0.60268663  1
  Ti  Ti167  1  0.59879108  0.40513508  0.40934571  1
  Ti  Ti168  1  0.20084173  0.20794921  0.60631456  1
  Ti  Ti169  1  0.39898065  0.00975662  0.39240818  1
  Ti  Ti170  1  0.20736671  0.60199395  0.40538885  1
  Ti  Ti171  1  0.90943292  0.30721302  0.08571847  1
  Ti  Ti172  1  0.49926442  0.90545431  0.29148787  1
  Ti  Ti173  1  0.70868004  0.70890072  0.88989733  1
  Ti  Ti174  1  0.69019066  0.90388998  0.09982045  1
  Ti  Ti175  1  0.59332364  0.19649066  0.40002863  1
  Ti  Ti176  1  0.29569849  0.70192886  0.90333158  1
  Ti  Ti177  1  0.89083603  0.30418076  0.90571791  1
  Ti  Ti178  1  0.39164668  0.38385259  0.79628483  1
  Ti  Ti179  1  0.59325502  0.00591048  0.19575962  1
  Ti  Ti180  1  0.90123162  0.70829267  0.70826938  1
  Ti  Ti181  1  0.78882431  0.40112774  0.79589255  1
  Ti  Ti182  1  0.60131879  0.19871444  0.19928040  1
  Ti  Ti183  1  0.20019914  0.79021265  0.79322264  1
  Ti  Ti184  1  0.39782461  0.59215148  0.20112716  1
  Ti  Ti185  1  0.40400769  0.20382152  0.80035146  1
  Ti  Ti186  1  -0.00109038  -0.00153597  0.80509803  1
  Ti  Ti187  1  0.31029538  0.69697220  0.50305157  1
  Ti  Ti188  1  0.50770593  0.90148521  0.09795813  1
  Ti  Ti189  1  0.88941602  0.09046000  0.31907380  1
  Ti  Ti190  1  0.59005989  0.19858687  0.80032806  1
  Ti  Ti191  1  0.19925916  0.59078051  -0.00785220  1
  Ti  Ti192  1  0.90314989  0.70826447  0.89082788  1
  Ti  Ti193  1  0.40748765  0.81454861  0.40495201  1
  Ti  Ti194  1  0.59776900  0.80483641  0.40283384  1
  Ti  Ti195  1  0.39555202  0.80317510  0.59399778  1
  Ti  Ti196  1  0.60366979  0.39641363  0.61103463  1
  Ti  Ti197  1  0.09661085  0.89855831  0.89918665  1
  Ti  Ti198  1  0.20427503  0.21683794  0.80429795  1
  Ti  Ti199  1  0.39867354  0.60253334  -0.01488001  1
  Mo  Mo200  1  0.50278607  0.10095404  0.29632224  1
  Mo  Mo201  1  -0.00456063  0.39937612  -0.00658074  1
  Mo  Mo202  1  0.89637001  0.89383881  0.70763532  1
  Mo  Mo203  1  0.90089762  0.70075998  0.50472366  1
  Mo  Mo204  1  -0.00074165  0.79727525  0.79925669  1
  Mo  Mo205  1  0.70026740  0.70552574  0.30591463  1
  Mo  Mo206  1  0.50014575  0.11354690  0.90331783  1
  Mo  Mo207  1  0.30484841  0.09490241  0.29975821  1
  Mo  Mo208  1  0.31000733  0.50505055  0.08822810  1
  Mo  Mo209  1  0.50817610  0.49826971  0.50467480  1
  Mo  Mo210  1  0.69885275  0.10494526  0.90408121  1
  Mo  Mo211  1  0.50055328  0.10396301  0.69911103  1
  Mo  Mo212  1  0.30444106  0.29386725  0.89546009  1
  Mo  Mo213  1  0.41353097  0.00154128  0.19658776  1
  Mo  Mo214  1  0.10714843  0.50799916  0.89576168  1
  Mo  Mo215  1  0.80110429  0.19876475  0.40443746  1
  Mo  Mo216  1  0.21454346  0.19487379  0.00329663  1
  Mo  Mo217  1  0.50113128  0.69695325  0.89616708  1
  Mo  Mo218  1  -0.00297695  0.00093731  -0.00394048  1
  Mo  Mo219  1  0.79819084  0.39442988  -0.00475032  1
  Mo  Mo220  1  0.40037613  0.79756110  -0.00185746  1
  Mo  Mo221  1  0.79607021  0.20009531  0.80982690  1
  Mo  Mo222  1  0.60663788  0.80122385  0.59578163  1
  Mo  Mo223  1  0.60131180  0.59932771  0.41055591  1
  Mo  Mo224  1  0.00628097  -0.00239663  0.39676197  1
  Mo  Mo225  1  0.30345751  0.69734843  0.69857987  1
  Mo  Mo226  1  0.89652465  0.10104473  0.09424480  1
  Mo  Mo227  1  0.79646483  0.00134609  0.80637960  1
  Mo  Mo228  1  0.79689634  0.39522098  0.40399891  1
  Mo  Mo229  1  0.69929971  0.49394072  0.70025720  1
  Mo  Mo230  1  0.89587178  0.09541712  0.90656819  1
  Mo  Mo231  1  0.30094230  0.29990755  0.70565952  1
  Mo  Mo232  1  0.70123123  0.70045837  0.69050695  1
  Mo  Mo233  1  0.08804550  0.29934207  0.10594923  1
  Mo  Mo234  1  0.50383814  0.29993245  0.70615052  1
  Mo  Mo235  1  0.59811043  0.19721978  -0.00124183  1
  Mo  Mo236  1  0.89539467  0.10193524  0.48947623  1
  Mo  Mo237  1  0.20858111  0.40120016  0.39585853  1
  Mo  Mo238  1  0.10360588  0.29951802  0.70942961  1
  Mo  Mo239  1  0.09283988  0.69554905  0.70395574  1
  Mo  Mo240  1  0.90147526  0.50455070  0.51186556  1
  Mo  Mo241  1  0.40048205  0.59401501  0.59962115  1
  Mo  Mo242  1  0.80487836  0.79783139  0.79068204  1
  Mo  Mo243  1  0.19943512  0.00694367  0.19448099  1
  Mo  Mo244  1  0.78837052  -0.00168291  0.39962016  1
  Mo  Mo245  1  0.49408152  0.90292782  0.49928026  1
  Mo  Mo246  1  0.59889849  0.81190357  0.19429679  1
  Mo  Mo247  1  0.79389165  0.39076545  0.60708448  1
  Mo  Mo248  1  -0.02370883  0.19895996  0.00447916  1
  Mo  Mo249  1  -0.00284689  0.38873672  0.20026920  1
