# generated using pymatgen
data_HfZrTaTiMo
_symmetry_space_group_name_H-M   'P 1'
_cell_length_a   16.87374564
_cell_length_b   16.87902359
_cell_length_c   16.88690834
_cell_angle_alpha   89.96705591
_cell_angle_beta   90.03426271
_cell_angle_gamma   89.98257480
_symmetry_Int_Tables_number   1
_chemical_formula_structural   HfZrTaTiMo
_chemical_formula_sum   'Hf50 Zr50 Ta50 Ti50 Mo50'
_cell_volume   4809.59818319
_cell_formula_units_Z   50
loop_
 _symmetry_equiv_pos_site_id
 _symmetry_equiv_pos_as_xyz
  1  'x, y, z'
loop_
 _atom_site_type_symbol
 _atom_site_label
 _atom_site_symmetry_multiplicity
 _atom_site_fract_x
 _atom_site_fract_y
 _atom_site_fract_z
 _atom_site_occupancy
  Hf  Hf0  1  0.40619560  0.79834954  0.39729062  1
  Hf  Hf1  1  0.01231803  0.81097979  0.61233911  1
  Hf  Hf2  1  0.69191107  0.50561943  0.49869761  1
  Hf  Hf3  1  0.69399628  0.30294665  0.09750795  1
  Hf  Hf4  1  0.10397996  0.90189075  0.29441779  1
  Hf  Hf5  1  0.20395961  0.01154275  -0.00694986  1
  Hf  Hf6  1  0.20706078  0.79444223  0.39340187  1
  Hf  Hf7  1  0.10907875  0.30448394  0.70141782  1
  Hf  Hf8  1  0.79968562  0.60118906  0.60009323  1
  Hf  Hf9  1  0.40486667  0.40323770  0.80758576  1
  Hf  Hf10  1  -0.00529708  0.80718694  0.39356183  1
  Hf  Hf11  1  0.60525249  0.19369541  0.40054652  1
  Hf  Hf12  1  0.89431709  0.90166098  0.70210124  1
  Hf  Hf13  1  0.50128697  0.90413161  0.09276082  1
  Hf  Hf14  1  0.79139657  0.80479681  0.39661674  1
  Hf  Hf15  1  -0.01422205  -0.00330946  0.20422949  1
  Hf  Hf16  1  0.09918176  0.70079455  0.49655180  1
  Hf  Hf17  1  0.59243988  0.60156928  0.19086285  1
  Hf  Hf18  1  0.00944592  0.19611387  0.80176050  1
  Hf  Hf19  1  0.69749180  0.70368839  0.90373538  1
  Hf  Hf20  1  0.79732438  0.19561521  0.60120638  1
  Hf  Hf21  1  0.19581183  0.19025490  0.59587698  1
  Hf  Hf22  1  0.90022884  0.50226867  0.10569345  1
  Hf  Hf23  1  0.31310173  0.10195644  0.71235762  1
  Hf  Hf24  1  -0.01108927  0.80323300  0.00039390  1
  Hf  Hf25  1  0.50399087  0.10043206  0.29166664  1
  Hf  Hf26  1  0.10683161  0.30579976  0.49434311  1
  Hf  Hf27  1  0.01429798  0.39772844  -0.00024672  1
  Hf  Hf28  1  0.69636062  0.30602351  0.90022733  1
  Hf  Hf29  1  0.30417292  0.49176698  0.29547851  1
  Hf  Hf30  1  0.79807839  0.19362075  -0.00594513  1
  Hf  Hf31  1  0.40313519  0.59884557  0.81001794  1
  Hf  Hf32  1  0.40121730  0.00098714  0.19093582  1
  Hf  Hf33  1  0.10559273  0.10928554  0.29572157  1
  Hf  Hf34  1  -0.00355005  0.40134083  0.60320987  1
  Hf  Hf35  1  0.39992289  0.39223984  0.59693496  1
  Hf  Hf36  1  0.90545974  0.69970795  0.70798152  1
  Hf  Hf37  1  0.30594361  0.11329371  0.29237901  1
  Hf  Hf38  1  0.89582261  0.69917106  0.29226637  1
  Hf  Hf39  1  0.80505692  0.39886961  0.79720896  1
  Hf  Hf40  1  0.89232385  0.29880452  0.30824060  1
  Hf  Hf41  1  0.10259249  0.49607371  0.48982458  1
  Hf  Hf42  1  0.89686618  0.70565896  0.50526411  1
  Hf  Hf43  1  0.89424034  0.90622404  0.50446333  1
  Hf  Hf44  1  0.79536557  0.40116088  0.20662916  1
  Hf  Hf45  1  0.09903789  0.50745928  0.29470697  1
  Hf  Hf46  1  0.20192578  0.80449246  0.80110527  1
  Hf  Hf47  1  0.20343927  0.39771558  0.00483274  1
  Hf  Hf48  1  0.10262170  0.90470968  0.49571195  1
  Hf  Hf49  1  0.60081463  -0.00326979  0.80235517  1
  Zr  Zr50  1  0.50675539  0.69637234  0.69481179  1
  Zr  Zr51  1  0.20026013  0.60022902  0.59630613  1
  Zr  Zr52  1  0.30874127  0.70110988  0.50431999  1
  Zr  Zr53  1  0.48576183  0.09690505  0.90114190  1
  Zr  Zr54  1  0.49560465  0.29957268  0.29126253  1
  Zr  Zr55  1  -0.01422468  0.81163200  0.19817089  1
  Zr  Zr56  1  0.20511384  0.00481836  0.18811720  1
  Zr  Zr57  1  0.89366127  0.30044945  0.09321888  1
  Zr  Zr58  1  0.29896903  0.29749054  0.70424440  1
  Zr  Zr59  1  0.19885603  -0.00188727  0.61323251  1
  Zr  Zr60  1  0.28811962  0.49035743  0.70339870  1
  Zr  Zr61  1  0.50590403  0.09750493  0.50711605  1
  Zr  Zr62  1  0.80455920  0.40213872  0.60085055  1
  Zr  Zr63  1  0.40292205  -0.01238922  0.60861305  1
  Zr  Zr64  1  0.10088316  0.89708491  0.90751424  1
  Zr  Zr65  1  0.09538579  0.69470157  0.71255420  1
  Zr  Zr66  1  0.49996894  0.10384281  0.70727706  1
  Zr  Zr67  1  0.00481209  0.59655230  0.00355576  1
  Zr  Zr68  1  0.50247039  0.49853671  0.49126174  1
  Zr  Zr69  1  0.70081296  0.30123345  0.49450630  1
  Zr  Zr70  1  0.09631109  0.69839705  0.10596711  1
  Zr  Zr71  1  0.60217812  0.18840222  -0.00078743  1
  Zr  Zr72  1  0.01051417  0.01416598  0.60491621  1
  Zr  Zr73  1  0.40798974  -0.00044240  0.40050823  1
  Zr  Zr74  1  0.09924366  0.28418091  0.10607541  1
  Zr  Zr75  1  0.69122203  0.49028381  0.08624721  1
  Zr  Zr76  1  0.89605290  0.49499591  0.90530226  1
  Zr  Zr77  1  0.49283156  0.29779929  0.09775493  1
  Zr  Zr78  1  0.20213438  0.40220533  0.19031022  1
  Zr  Zr79  1  0.69909968  0.70387944  0.69880747  1
  Zr  Zr80  1  0.30280565  0.90320549  0.29753851  1
  Zr  Zr81  1  0.79260044  0.60715138  -0.00029830  1
  Zr  Zr82  1  0.29516914  0.48125120  0.48608158  1
  Zr  Zr83  1  0.01109398  -0.00048977  0.79981618  1
  Zr  Zr84  1  0.39713164  0.61239153  -0.00166296  1
  Zr  Zr85  1  0.09111286  0.10032536  0.09174798  1
  Zr  Zr86  1  0.69549591  0.29678452  0.70777717  1
  Zr  Zr87  1  0.68740974  0.50097249  0.70038054  1
  Zr  Zr88  1  0.59831522  0.80807807  0.59559895  1
  Zr  Zr89  1  0.39633943  0.60004854  0.19085115  1
  Zr  Zr90  1  0.80355207  0.80278232  0.80991373  1
  Zr  Zr91  1  0.40319917  0.59165036  0.60253140  1
  Zr  Zr92  1  0.20053370  0.01279094  0.40764384  1
  Zr  Zr93  1  0.78309030  0.60431130  0.20113431  1
  Zr  Zr94  1  -0.01540318  0.19713858  0.21337187  1
  Zr  Zr95  1  0.10041356  0.50021519  0.70817044  1
  Zr  Zr96  1  0.89707125  0.09168771  0.08930522  1
  Zr  Zr97  1  0.90340104  0.29678526  0.49496745  1
  Zr  Zr98  1  0.39867634  0.79274665  0.19548223  1
  Zr  Zr99  1  0.40111714  0.79253476  0.80822878  1
  Ta  Ta100  1  0.90182051  0.29342607  0.89944417  1
  Ta  Ta101  1  0.50122000  0.30055094  0.49712324  1
  Ta  Ta102  1  0.30259577  0.89841188  0.50548933  1
  Ta  Ta103  1  0.20756248  0.60552841  0.38755806  1
  Ta  Ta104  1  0.20264267  0.59329672  0.00794138  1
  Ta  Ta105  1  0.30153707  0.89368318  0.08548967  1
  Ta  Ta106  1  0.59238211  0.59731789  0.81348180  1
  Ta  Ta107  1  0.89501811  0.10338444  0.70450621  1
  Ta  Ta108  1  0.20506572  0.80631508  0.61011459  1
  Ta  Ta109  1  0.20510216  0.20522049  -0.00800399  1
  Ta  Ta110  1  0.49721630  0.90083191  0.90851330  1
  Ta  Ta111  1  0.29835833  0.69841931  0.70526664  1
  Ta  Ta112  1  0.79714033  0.59694332  0.80419785  1
  Ta  Ta113  1  0.79367418  0.60287844  0.39726055  1
  Ta  Ta114  1  0.30747680  0.10235287  0.50341731  1
  Ta  Ta115  1  0.59998212  0.39804483  0.39075540  1
  Ta  Ta116  1  0.89924724  0.10026569  0.49969632  1
  Ta  Ta117  1  0.88598665  0.70708595  0.10137932  1
  Ta  Ta118  1  0.90808466  0.50855310  0.70815532  1
  Ta  Ta119  1  0.20055575  0.19466540  0.81404065  1
  Ta  Ta120  1  0.79324748  0.00738716  0.60067406  1
  Ta  Ta121  1  0.49668886  0.30104729  0.90348446  1
  Ta  Ta122  1  0.69022368  0.49155459  0.90043991  1
  Ta  Ta123  1  0.20952751  0.20718814  0.40071819  1
  Ta  Ta124  1  0.10370087  0.89908866  0.09495428  1
  Ta  Ta125  1  0.90189467  0.50631885  0.30117912  1
  Ta  Ta126  1  0.70138651  0.90309693  0.70023209  1
  Ta  Ta127  1  0.39788202  0.20658492  0.40391174  1
  Ta  Ta128  1  0.90148681  0.50522414  0.48991368  1
  Ta  Ta129  1  0.20451555  0.59889185  0.81936493  1
  Ta  Ta130  1  0.09672599  0.69790637  0.90089425  1
  Ta  Ta131  1  0.20462632  0.00282805  0.80102739  1
  Ta  Ta132  1  0.00511002  0.39783753  0.80882366  1
  Ta  Ta133  1  0.30395605  0.49539685  0.91132011  1
  Ta  Ta134  1  0.69718362  0.90125404  0.29278361  1
  Ta  Ta135  1  0.60933762  -0.00527262  0.40359912  1
  Ta  Ta136  1  0.09942162  0.69547778  0.29194862  1
  Ta  Ta137  1  0.50424147  0.29607971  0.70551713  1
  Ta  Ta138  1  0.00118351  0.40279674  0.20263816  1
  Ta  Ta139  1  0.60334395  0.19647099  0.60020144  1
  Ta  Ta140  1  0.79128354  0.18933695  0.20559277  1
  Ta  Ta141  1  0.79543127  0.41079211  0.39480289  1
  Ta  Ta142  1  0.50782341  0.70410665  0.29856915  1
  Ta  Ta143  1  0.70275559  0.90352827  0.90735185  1
  Ta  Ta144  1  0.50777732  0.69606250  0.49492212  1
  Ta  Ta145  1  0.20655406  0.79333670  0.19381998  1
  Ta  Ta146  1  0.30949066  0.90384654  0.90468591  1
  Ta  Ta147  1  0.60449016  0.80343487  0.00241753  1
  Ta  Ta148  1  0.51504576  0.89786935  0.29444824  1
  Ta  Ta149  1  0.40140220  0.60525113  0.38843945  1
  Ti  Ti150  1  0.59736591  0.80234014  0.80849241  1
  Ti  Ti151  1  -0.00828819  0.00861523  0.39351728  1
  Ti  Ti152  1  0.49389632  0.49463949  0.29841237  1
  Ti  Ti153  1  0.59481218  0.40545325  0.20125126  1
  Ti  Ti154  1  0.69204952  0.70828923  0.29526221  1
  Ti  Ti155  1  0.69185127  0.50195416  0.30244297  1
  Ti  Ti156  1  0.20968339  0.78755183  -0.00139394  1
  Ti  Ti157  1  0.69404081  0.70013759  0.50205738  1
  Ti  Ti158  1  0.59954401  0.19868152  0.80395830  1
  Ti  Ti159  1  0.90469225  0.69828982  0.89729189  1
  Ti  Ti160  1  0.69962690  0.09817042  0.70324469  1
  Ti  Ti161  1  0.60236304  0.80502906  0.40028006  1
  Ti  Ti162  1  0.59046985  0.60316540  -0.00226170  1
  Ti  Ti163  1  0.30625459  0.30358436  0.29262402  1
  Ti  Ti164  1  0.00577666  0.19364911  0.60255134  1
  Ti  Ti165  1  0.51016396  0.49534946  0.70070872  1
  Ti  Ti166  1  0.80120321  -0.00491090  0.20903854  1
  Ti  Ti167  1  0.87651401  0.90354344  0.08978186  1
  Ti  Ti168  1  0.79598848  0.00327578  0.40010258  1
  Ti  Ti169  1  0.79521588  0.18685706  0.39706357  1
  Ti  Ti170  1  0.60941290  0.80101810  0.18937116  1
  Ti  Ti171  1  0.31363242  0.10277554  0.89922758  1
  Ti  Ti172  1  0.89645682  0.90926342  0.90675273  1
  Ti  Ti173  1  0.71014736  0.08378471  0.09858523  1
  Ti  Ti174  1  -0.00294338  0.60497968  0.39689091  1
  Ti  Ti175  1  0.60751039  0.00129198  0.00041133  1
  Ti  Ti176  1  0.49140934  0.48607802  0.08670297  1
  Ti  Ti177  1  0.80001763  0.00450170  0.80135316  1
  Ti  Ti178  1  0.49135418  0.10331958  0.09361498  1
  Ti  Ti179  1  0.69941613  0.09074334  0.29854709  1
  Ti  Ti180  1  -0.00096246  0.59711674  0.59742446  1
  Ti  Ti181  1  0.90499988  0.09527943  0.90076573  1
  Ti  Ti182  1  -0.00257983  0.40165758  0.39178266  1
  Ti  Ti183  1  0.60604467  -0.00109438  0.19240218  1
  Ti  Ti184  1  0.50216221  0.89987130  0.70840397  1
  Ti  Ti185  1  0.50270233  0.71118391  0.09213465  1
  Ti  Ti186  1  0.00420152  0.19161463  0.40327487  1
  Ti  Ti187  1  0.69682364  0.29669608  0.29693801  1
  Ti  Ti188  1  0.70100898  0.90591258  0.50803222  1
  Ti  Ti189  1  0.39901742  0.80240431  0.60612512  1
  Ti  Ti190  1  0.90286134  0.29229735  0.70620209  1
  Ti  Ti191  1  0.10682638  0.30139311  0.30216836  1
  Ti  Ti192  1  0.59859163  0.60385360  0.39168707  1
  Ti  Ti193  1  0.19483893  0.39388734  0.82542558  1
  Ti  Ti194  1  0.59546063  0.39295354  0.59798292  1
  Ti  Ti195  1  0.70639604  0.09775523  0.89099857  1
  Ti  Ti196  1  0.50330506  0.90008429  0.49999642  1
  Ti  Ti197  1  0.40290330  0.20505110  0.59624330  1
  Ti  Ti198  1  0.60853640  0.18868348  0.19279268  1
  Ti  Ti199  1  0.30774815  0.11690331  0.09552588  1
  Mo  Mo200  1  0.20079756  0.39201124  0.38825395  1
  Mo  Mo201  1  0.51018131  0.70587422  0.90464627  1
  Mo  Mo202  1  0.39424117  0.00386084  0.00218513  1
  Mo  Mo203  1  0.69255784  0.70914478  0.09750273  1
  Mo  Mo204  1  0.30350497  0.49877440  0.09779591  1
  Mo  Mo205  1  0.30384934  0.29388301  0.49624983  1
  Mo  Mo206  1  0.58937439  0.40041435  -0.00546184  1
  Mo  Mo207  1  0.09679625  0.10729150  0.48956599  1
  Mo  Mo208  1  0.10327173  0.09992444  0.90396280  1
  Mo  Mo209  1  0.00226452  0.19502934  -0.01599910  1
  Mo  Mo210  1  -0.00519712  -0.00609183  0.00115121  1
  Mo  Mo211  1  0.10075951  0.50497212  0.10669772  1
  Mo  Mo212  1  0.39929014  -0.01308275  0.80460405  1
  Mo  Mo213  1  0.70022237  0.90660350  0.10014169  1
  Mo  Mo214  1  0.29217844  0.69901465  0.90369477  1
  Mo  Mo215  1  -0.00503055  0.59935933  0.20127470  1
  Mo  Mo216  1  0.59945354  0.60152429  0.59335379  1
  Mo  Mo217  1  0.20090638  0.60290196  0.19602775  1
  Mo  Mo218  1  0.30451544  0.29895413  0.90484752  1
  Mo  Mo219  1  0.39830589  0.20042349  0.19504334  1
  Mo  Mo220  1  0.59043089  0.40340444  0.80190874  1
  Mo  Mo221  1  0.40290454  0.80095046  -0.00086269  1
  Mo  Mo222  1  0.10728257  0.10544792  0.70991081  1
  Mo  Mo223  1  0.39891586  0.40150498  0.19250353  1
  Mo  Mo224  1  0.50161925  0.49817022  0.90919110  1
  Mo  Mo225  1  0.30057440  0.69312894  0.29366150  1
  Mo  Mo226  1  0.40559503  0.39300504  0.39251218  1
  Mo  Mo227  1  0.80579550  0.19263136  0.80131638  1
  Mo  Mo228  1  0.78786574  0.80725205  0.19621260  1
  Mo  Mo229  1  0.39857014  0.21296984  0.80700234  1
  Mo  Mo230  1  0.20932464  0.20683471  0.19797903  1
  Mo  Mo231  1  0.10684339  0.49971686  0.90336729  1
  Mo  Mo232  1  0.00022795  0.59608061  0.81091759  1
  Mo  Mo233  1  0.79675037  0.00046594  -0.01258941  1
  Mo  Mo234  1  0.10162468  0.29698046  0.90276944  1
  Mo  Mo235  1  0.60714640  -0.00197643  0.60490762  1
  Mo  Mo236  1  0.10502946  0.90144385  0.70831768  1
  Mo  Mo237  1  0.79796686  0.80449502  0.00230897  1
  Mo  Mo238  1  0.30348790  0.89473189  0.70638435  1
  Mo  Mo239  1  -0.00247162  0.79771051  0.80977189  1
  Mo  Mo240  1  0.19938387  0.39161795  0.58811023  1
  Mo  Mo241  1  0.79803832  0.39277790  -0.00594582  1
  Mo  Mo242  1  0.39319026  0.20315062  -0.00163986  1
  Mo  Mo243  1  0.30420836  0.29335085  0.10251060  1
  Mo  Mo244  1  0.79394801  0.80869692  0.59647446  1
  Mo  Mo245  1  0.29286089  0.70076552  0.09703247  1
  Mo  Mo246  1  0.88932746  0.09773251  0.31225919  1
  Mo  Mo247  1  0.88513381  0.90688905  0.30572194  1
  Mo  Mo248  1  0.70311609  0.09362128  0.49971818  1
  Mo  Mo249  1  0.39481076  0.39987116  0.00151021  1
