# generated using pymatgen
data_HfZrTaTiMo
_symmetry_space_group_name_H-M   'P 1'
_cell_length_a   16.89761572
_cell_length_b   16.89716478
_cell_length_c   16.88597809
_cell_angle_alpha   89.97931910
_cell_angle_beta   89.96944195
_cell_angle_gamma   89.98389879
_symmetry_Int_Tables_number   1
_chemical_formula_structural   HfZrTaTiMo
_chemical_formula_sum   'Hf50 Zr50 Ta50 Ti50 Mo50'
_cell_volume   4821.31362104
_cell_formula_units_Z   50
loop_
 _symmetry_equiv_pos_site_id
 _symmetry_equiv_pos_as_xyz
  1  'x, y, z'
loop_
 _atom_site_type_symbol
 _atom_site_label
 _atom_site_symmetry_multiplicity
 _atom_site_fract_x
 _atom_site_fract_y
 _atom_site_fract_z
 _atom_site_occupancy
  Hf  Hf0  1  0.00336809  0.59425681  0.20503086  1
  Hf  Hf1  1  0.50783239  0.29708870  0.10395088  1
  Hf  Hf2  1  0.29320202  0.90487376  0.09384469  1
  Hf  Hf3  1  0.80210425  0.80290302  0.40349480  1
  Hf  Hf4  1  0.19651646  0.79890822  0.39450118  1
  Hf  Hf5  1  0.90514506  0.29299040  0.50457617  1
  Hf  Hf6  1  0.89102219  0.91698565  0.50735767  1
  Hf  Hf7  1  0.89954614  0.09377481  0.09394996  1
  Hf  Hf8  1  0.40270031  0.19731341  0.60247132  1
  Hf  Hf9  1  0.79878896  0.40242863  0.40581820  1
  Hf  Hf10  1  0.70309676  0.49951676  0.10038956  1
  Hf  Hf11  1  0.71060631  0.70072515  0.29435382  1
  Hf  Hf12  1  0.79894682  0.19405773  0.40096228  1
  Hf  Hf13  1  0.10523175  0.50176927  0.90431334  1
  Hf  Hf14  1  0.19524771  0.00333758  0.80493518  1
  Hf  Hf15  1  0.51192407  0.29992361  0.29119215  1
  Hf  Hf16  1  0.70755766  0.09120974  0.50522532  1
  Hf  Hf17  1  0.90410803  0.08599378  0.69694977  1
  Hf  Hf18  1  0.39888409  0.79877711  0.19735540  1
  Hf  Hf19  1  0.79515700  0.19311306  0.19273344  1
  Hf  Hf20  1  0.50260813  0.50077492  0.30369587  1
  Hf  Hf21  1  0.71236526  0.50418486  0.70146570  1
  Hf  Hf22  1  0.10251624  0.30633743  0.09426753  1
  Hf  Hf23  1  0.19955842  0.19396104  0.80157640  1
  Hf  Hf24  1  0.89513009  0.50633510  0.09805024  1
  Hf  Hf25  1  0.69724120  0.50207762  0.29838739  1
  Hf  Hf26  1  -0.00201894  0.20458182  0.79360102  1
  Hf  Hf27  1  0.40851152  0.01081020  0.39747395  1
  Hf  Hf28  1  0.29247895  0.50070254  0.90052920  1
  Hf  Hf29  1  0.00165159  0.60712802  -0.00311745  1
  Hf  Hf30  1  0.60816557  0.59958053  -0.01508139  1
  Hf  Hf31  1  0.50162011  0.90368001  0.90318327  1
  Hf  Hf32  1  0.59526940  0.80611521  0.19457771  1
  Hf  Hf33  1  0.40007911  0.19918565  0.39283394  1
  Hf  Hf34  1  0.29199044  0.30111334  0.50782177  1
  Hf  Hf35  1  0.89557887  0.69994052  0.70177188  1
  Hf  Hf36  1  0.49751632  0.50181602  0.09685886  1
  Hf  Hf37  1  0.30148333  0.49623511  0.69613153  1
  Hf  Hf38  1  0.59999983  0.60735072  0.19422439  1
  Hf  Hf39  1  0.40395931  0.00319475  0.60296645  1
  Hf  Hf40  1  0.00519292  0.40939300  0.20023560  1
  Hf  Hf41  1  0.69412384  0.30162868  0.10070232  1
  Hf  Hf42  1  0.60152214  0.80139523  0.40723472  1
  Hf  Hf43  1  0.59626744  0.40566394  -0.01395942  1
  Hf  Hf44  1  0.00486973  0.79707617  0.20088027  1
  Hf  Hf45  1  0.69969811  0.70229895  0.70243809  1
  Hf  Hf46  1  0.10136451  0.70341573  0.70795052  1
  Hf  Hf47  1  0.10655681  0.89828476  0.09308392  1
  Hf  Hf48  1  0.20675538  0.59930641  0.39830775  1
  Hf  Hf49  1  0.70144189  0.90773399  0.29958436  1
  Zr  Zr50  1  0.29380958  0.91217070  0.29487708  1
  Zr  Zr51  1  0.30260443  0.30401515  0.69932568  1
  Zr  Zr52  1  0.39478389  0.39314765  0.39765310  1
  Zr  Zr53  1  0.29906822  0.30018290  0.09556569  1
  Zr  Zr54  1  0.89947277  0.90512798  0.89547319  1
  Zr  Zr55  1  0.01080820  0.18134805  0.40041588  1
  Zr  Zr56  1  0.38950797  0.79756472  0.40228397  1
  Zr  Zr57  1  0.80270813  0.60731184  -0.01362946  1
  Zr  Zr58  1  0.49376657  0.50532764  0.69564289  1
  Zr  Zr59  1  0.38972896  0.39975794  0.19998284  1
  Zr  Zr60  1  0.19841995  0.19378010  -0.01082205  1
  Zr  Zr61  1  0.48735313  0.69598220  0.50944408  1
  Zr  Zr62  1  0.81027043  0.40299149  0.20561596  1
  Zr  Zr63  1  0.10976200  0.29145241  0.50444479  1
  Zr  Zr64  1  0.29853573  0.89674110  0.69777774  1
  Zr  Zr65  1  0.00283288  0.59357148  0.61284744  1
  Zr  Zr66  1  0.09839567  0.31428672  0.89782664  1
  Zr  Zr67  1  0.89357065  0.49644887  0.71819052  1
  Zr  Zr68  1  -0.00293477  0.80736307  0.59631698  1
  Zr  Zr69  1  0.10482438  0.29479135  0.30025478  1
  Zr  Zr70  1  -0.00076102  0.39429793  0.61295914  1
  Zr  Zr71  1  0.29369361  0.90339861  0.90780624  1
  Zr  Zr72  1  0.41633889  0.00380236  0.19365040  1
  Zr  Zr73  1  0.20072887  0.59819567  0.59933258  1
  Zr  Zr74  1  0.20002193  0.79529758  0.58804798  1
  Zr  Zr75  1  0.00736490  0.00170757  0.39843671  1
  Zr  Zr76  1  0.50659114  0.70460753  0.89446296  1
  Zr  Zr77  1  0.61210965  0.59457366  0.59227944  1
  Zr  Zr78  1  0.00079652  0.41522012  0.38932654  1
  Zr  Zr79  1  0.48930442  0.50082559  0.50130053  1
  Zr  Zr80  1  0.90400843  0.28943372  0.29840888  1
  Zr  Zr81  1  0.49946786  0.70622905  0.69719376  1
  Zr  Zr82  1  0.59964713  0.40211354  0.79764547  1
  Zr  Zr83  1  0.79861622  0.19705581  0.79923185  1
  Zr  Zr84  1  0.09372891  0.90998061  0.70228498  1
  Zr  Zr85  1  0.50381458  0.28619800  0.89130287  1
  Zr  Zr86  1  0.08452816  0.68644427  0.49113700  1
  Zr  Zr87  1  0.00159700  0.80550219  0.39529805  1
  Zr  Zr88  1  0.89293220  0.90339552  0.28952834  1
  Zr  Zr89  1  0.60304127  0.20034481  0.60945082  1
  Zr  Zr90  1  0.69038512  0.30067428  0.29535881  1
  Zr  Zr91  1  0.27655769  0.10534759  0.49853598  1
  Zr  Zr92  1  0.40713339  0.19339113  -0.00276479  1
  Zr  Zr93  1  0.29808615  0.09001826  0.09648421  1
  Zr  Zr94  1  0.49737919  0.69300030  0.30994048  1
  Zr  Zr95  1  0.38462634  0.60829700  0.19545450  1
  Zr  Zr96  1  0.29378254  0.91295011  0.49960218  1
  Zr  Zr97  1  0.39701409  0.79510214  0.00322747  1
  Zr  Zr98  1  0.89731377  0.50806728  0.50668244  1
  Zr  Zr99  1  -0.00523418  0.20007937  -0.00632845  1
  Ta  Ta100  1  0.50345983  0.69976231  0.09046914  1
  Ta  Ta101  1  0.79983945  0.80080786  -0.00589241  1
  Ta  Ta102  1  0.50181656  0.89872884  0.70273123  1
  Ta  Ta103  1  0.00059871  0.79523025  -0.00466579  1
  Ta  Ta104  1  0.89620242  0.09378915  0.89681897  1
  Ta  Ta105  1  0.69694624  0.09482368  0.29952936  1
  Ta  Ta106  1  0.60423200  0.00291333  0.80142530  1
  Ta  Ta107  1  0.60521695  0.39620788  0.59920013  1
  Ta  Ta108  1  0.40239936  0.00218422  0.80065089  1
  Ta  Ta109  1  0.80136961  0.20001710  0.60810446  1
  Ta  Ta110  1  0.50164466  0.09928797  0.70975473  1
  Ta  Ta111  1  0.39486143  0.60458439  0.80505719  1
  Ta  Ta112  1  0.10374126  0.69535061  0.09781832  1
  Ta  Ta113  1  0.39471165  0.80027398  0.80209746  1
  Ta  Ta114  1  0.70374220  0.29597520  0.90288740  1
  Ta  Ta115  1  0.69906526  0.90203122  0.69811038  1
  Ta  Ta116  1  0.39160667  0.60490318  -0.00477898  1
  Ta  Ta117  1  0.70105744  0.90609012  0.50551478  1
  Ta  Ta118  1  0.60212760  0.00196307  0.00793034  1
  Ta  Ta119  1  0.59796248  0.19421488  0.40123805  1
  Ta  Ta120  1  0.89462574  0.09026652  0.29530218  1
  Ta  Ta121  1  0.40389730  0.40350240  0.80646091  1
  Ta  Ta122  1  0.90041986  0.29885930  0.09320066  1
  Ta  Ta123  1  0.28652552  0.09998514  0.29727992  1
  Ta  Ta124  1  0.79795869  0.80377944  0.60271860  1
  Ta  Ta125  1  0.19703906  0.19745247  0.19800621  1
  Ta  Ta126  1  0.69927197  0.29559338  0.50288134  1
  Ta  Ta127  1  0.40176335  0.40514131  -0.00927269  1
  Ta  Ta128  1  0.59711999  0.00244080  0.40410372  1
  Ta  Ta129  1  0.00145843  0.80088988  0.81000493  1
  Ta  Ta130  1  0.10065928  0.09230671  0.09524340  1
  Ta  Ta131  1  0.20426905  0.78706716  0.19968556  1
  Ta  Ta132  1  0.79636107  0.39038736  0.60397819  1
  Ta  Ta133  1  0.00192029  0.19147620  0.19400285  1
  Ta  Ta134  1  0.50585100  0.90473492  0.30261346  1
  Ta  Ta135  1  0.78881860  0.00130419  0.79998277  1
  Ta  Ta136  1  0.79155755  0.00164807  -0.00294677  1
  Ta  Ta137  1  0.60931278  0.18498390  0.00248576  1
  Ta  Ta138  1  0.19915355  0.40869079  0.20324942  1
  Ta  Ta139  1  0.59793660  -0.00014621  0.60591989  1
  Ta  Ta140  1  0.70538262  0.89847394  0.09960166  1
  Ta  Ta141  1  0.20547834  0.40191432  0.39259623  1
  Ta  Ta142  1  0.30545311  0.70203031  0.69779803  1
  Ta  Ta143  1  0.89386881  0.69510883  0.50085838  1
  Ta  Ta144  1  0.10579939  0.49158552  0.49863166  1
  Ta  Ta145  1  0.79859964  0.80469673  0.80296148  1
  Ta  Ta146  1  0.70751193  0.70541386  0.09884857  1
  Ta  Ta147  1  0.89644617  0.89696311  0.09616216  1
  Ta  Ta148  1  0.89536889  0.70628458  0.10480276  1
  Ta  Ta149  1  -0.00126347  -0.00744160  -0.00388752  1
  Ti  Ti150  1  0.50694746  0.10245733  0.50391203  1
  Ti  Ti151  1  0.00016400  0.60804503  0.81267869  1
  Ti  Ti152  1  0.20337934  0.61217065  0.80821233  1
  Ti  Ti153  1  0.40217258  0.19290689  0.20535414  1
  Ti  Ti154  1  0.11041345  0.91198081  0.28902763  1
  Ti  Ti155  1  0.29574620  0.09811664  0.69725821  1
  Ti  Ti156  1  0.50219081  0.30144012  0.50414228  1
  Ti  Ti157  1  0.61056692  0.18828486  0.80244537  1
  Ti  Ti158  1  0.08500411  0.08869468  0.89620751  1
  Ti  Ti159  1  0.89621949  0.30900938  0.89549266  1
  Ti  Ti160  1  0.39395734  0.19211199  0.80151125  1
  Ti  Ti161  1  0.60696503  0.80733390  0.80218698  1
  Ti  Ti162  1  0.61161789  0.59936498  0.40915283  1
  Ti  Ti163  1  0.19864479  0.79644986  0.81116091  1
  Ti  Ti164  1  0.00716683  0.19230127  0.60721017  1
  Ti  Ti165  1  -0.00224075  0.40740746  0.00352589  1
  Ti  Ti166  1  0.79871116  0.61658534  0.81680598  1
  Ti  Ti167  1  0.60320596  0.80601630  0.59776203  1
  Ti  Ti168  1  0.00262954  0.00101683  0.19498749  1
  Ti  Ti169  1  0.30777325  0.08563951  0.90804165  1
  Ti  Ti170  1  0.20186436  0.39852269  0.79774768  1
  Ti  Ti171  1  0.80374555  0.39375687  -0.00295670  1
  Ti  Ti172  1  0.89819591  0.90502158  0.70109916  1
  Ti  Ti173  1  0.79785909  0.59700520  0.40389738  1
  Ti  Ti174  1  0.69720379  0.90236369  0.90201660  1
  Ti  Ti175  1  0.89939906  0.09369470  0.50766718  1
  Ti  Ti176  1  0.60578465  0.40116306  0.41393371  1
  Ti  Ti177  1  0.10133716  0.69094798  0.29860690  1
  Ti  Ti178  1  0.28721500  0.50151446  0.08852342  1
  Ti  Ti179  1  0.79423011  0.00247630  0.19097111  1
  Ti  Ti180  1  0.71013960  0.69983459  0.50592091  1
  Ti  Ti181  1  0.49719701  0.29938766  0.70287012  1
  Ti  Ti182  1  0.10624190  0.30266467  0.69940650  1
  Ti  Ti183  1  0.10875745  0.92303372  0.50592595  1
  Ti  Ti184  1  0.30310563  0.49363525  0.50923885  1
  Ti  Ti185  1  0.49938658  0.89891214  0.50613085  1
  Ti  Ti186  1  0.60655056  0.80335067  0.00375657  1
  Ti  Ti187  1  0.19540199  0.78316370  -0.00842649  1
  Ti  Ti188  1  0.19898744  0.59795746  0.19652469  1
  Ti  Ti189  1  0.70359101  0.30144945  0.70647560  1
  Ti  Ti190  1  0.89542923  0.69224303  0.29990629  1
  Ti  Ti191  1  0.30017396  0.30628365  0.90051293  1
  Ti  Ti192  1  0.90325883  0.48981558  0.89306007  1
  Ti  Ti193  1  0.79466121  0.19438753  -0.00279780  1
  Ti  Ti194  1  0.59894892  0.00576257  0.19465392  1
  Ti  Ti195  1  0.50205989  0.09379120  0.89950137  1
  Ti  Ti196  1  0.10236637  0.49478649  0.71253565  1
  Ti  Ti197  1  0.72121958  0.48434949  0.88796284  1
  Ti  Ti198  1  0.60431468  0.59497443  0.80834075  1
  Ti  Ti199  1  0.30215643  0.50477453  0.30185865  1
  Mo  Mo200  1  0.69942876  0.71671674  0.89691687  1
  Mo  Mo201  1  0.79562833  0.00417057  0.39923245  1
  Mo  Mo202  1  0.70211827  0.09286298  0.10042658  1
  Mo  Mo203  1  0.00103780  0.00520054  0.60036547  1
  Mo  Mo204  1  0.48822948  0.50835964  0.89835286  1
  Mo  Mo205  1  0.51103314  0.89987084  0.09727250  1
  Mo  Mo206  1  0.69958283  0.09840584  0.90254076  1
  Mo  Mo207  1  0.29618308  0.69893613  0.89448158  1
  Mo  Mo208  1  0.89032167  0.51985851  0.30374251  1
  Mo  Mo209  1  0.19414120  0.40292650  0.60075556  1
  Mo  Mo210  1  0.09862500  0.10186592  0.70245596  1
  Mo  Mo211  1  0.38245934  0.59814766  0.40649456  1
  Mo  Mo212  1  0.00137218  0.40003567  0.80363629  1
  Mo  Mo213  1  0.10207727  0.69981455  0.89950508  1
  Mo  Mo214  1  0.19492317  0.00907537  0.61059357  1
  Mo  Mo215  1  0.70282551  0.49116697  0.50177184  1
  Mo  Mo216  1  0.50667120  0.10071645  0.10198478  1
  Mo  Mo217  1  0.80008632  0.60857756  0.59687634  1
  Mo  Mo218  1  0.29401398  0.29116550  0.29572342  1
  Mo  Mo219  1  0.19343597  0.19914268  0.61934044  1
  Mo  Mo220  1  0.80244196  0.80107987  0.19371319  1
  Mo  Mo221  1  0.50962172  0.10207173  0.29956849  1
  Mo  Mo222  1  0.40988831  0.39227852  0.60297486  1
  Mo  Mo223  1  0.89940632  0.29434351  0.69699826  1
  Mo  Mo224  1  0.40229642  0.80389213  0.60566067  1
  Mo  Mo225  1  0.10667889  0.50248779  0.09890539  1
  Mo  Mo226  1  0.59893494  0.18092383  0.19883953  1
  Mo  Mo227  1  0.38877120  0.60357557  0.60317079  1
  Mo  Mo228  1  0.10094257  0.09685824  0.52017317  1
  Mo  Mo229  1  0.30495310  0.69474946  0.50268411  1
  Mo  Mo230  1  0.20065932  0.19997526  0.38582294  1
  Mo  Mo231  1  0.20571641  0.40466797  0.00425801  1
  Mo  Mo232  1  0.19417138  0.00222639  0.19455931  1
  Mo  Mo233  1  0.41964993  0.00023832  -0.00352970  1
  Mo  Mo234  1  0.11354117  0.50224850  0.30083588  1
  Mo  Mo235  1  0.09918230  0.09538268  0.28013767  1
  Mo  Mo236  1  0.59565036  0.41353355  0.19256008  1
  Mo  Mo237  1  0.18366094  0.00264735  -0.00712359  1
  Mo  Mo238  1  0.79488551  -0.00112270  0.60835103  1
  Mo  Mo239  1  0.90159085  0.70873116  0.89780003  1
  Mo  Mo240  1  0.29317414  0.69730203  0.29541775  1
  Mo  Mo241  1  0.69715039  0.09491267  0.70232023  1
  Mo  Mo242  1  0.80196786  0.60711124  0.19993156  1
  Mo  Mo243  1  0.20027054  0.60365534  0.00613574  1
  Mo  Mo244  1  0.09836060  0.89425626  0.90199939  1
  Mo  Mo245  1  -0.00434630  -0.00139983  0.80346291  1
  Mo  Mo246  1  0.29142284  0.69834593  0.09476100  1
  Mo  Mo247  1  0.18571517  0.00916089  0.39058089  1
  Mo  Mo248  1  0.80390663  0.38652714  0.80032650  1
  Mo  Mo249  1  -0.00403226  0.59926738  0.39117164  1
