# generated using pymatgen
data_HfZrTaTiMo
_symmetry_space_group_name_H-M   'P 1'
_cell_length_a   16.88782946
_cell_length_b   16.88402192
_cell_length_c   16.88802741
_cell_angle_alpha   90.01725354
_cell_angle_beta   89.97712758
_cell_angle_gamma   89.93718938
_symmetry_Int_Tables_number   1
_chemical_formula_structural   HfZrTaTiMo
_chemical_formula_sum   'Hf50 Zr50 Ta50 Ti50 Mo50'
_cell_volume   4815.35546300
_cell_formula_units_Z   50
loop_
 _symmetry_equiv_pos_site_id
 _symmetry_equiv_pos_as_xyz
  1  'x, y, z'
loop_
 _atom_site_type_symbol
 _atom_site_label
 _atom_site_symmetry_multiplicity
 _atom_site_fract_x
 _atom_site_fract_y
 _atom_site_fract_z
 _atom_site_occupancy
  Hf  Hf0  1  0.79444412  0.19644111  0.60123698  1
  Hf  Hf1  1  0.80224849  0.60112690  0.00207800  1
  Hf  Hf2  1  0.79262851  -0.01095469  0.60124367  1
  Hf  Hf3  1  0.29769671  0.50165325  0.69682720  1
  Hf  Hf4  1  0.09844753  0.09602256  0.10551678  1
  Hf  Hf5  1  0.90638653  0.69509989  0.10342109  1
  Hf  Hf6  1  0.39676104  0.19811562  0.39572049  1
  Hf  Hf7  1  0.59432441  0.59780223  0.60199048  1
  Hf  Hf8  1  0.90233255  0.09891946  0.70668408  1
  Hf  Hf9  1  0.59842187  -0.00829435  0.80451311  1
  Hf  Hf10  1  0.89305339  0.50725070  0.29041598  1
  Hf  Hf11  1  0.30461565  0.70298322  0.29377091  1
  Hf  Hf12  1  0.30100864  0.10131748  0.50874215  1
  Hf  Hf13  1  0.40358689  0.60519374  0.40617295  1
  Hf  Hf14  1  0.49731590  0.10591700  0.51456198  1
  Hf  Hf15  1  0.59377558  0.40108805  0.20894139  1
  Hf  Hf16  1  0.90003254  0.69578004  0.30007952  1
  Hf  Hf17  1  0.69867152  0.49665045  0.70166329  1
  Hf  Hf18  1  0.20119905  0.59887151  0.80531188  1
  Hf  Hf19  1  0.39829871  0.20319134  0.20554401  1
  Hf  Hf20  1  0.29717940  0.31245397  0.89676617  1
  Hf  Hf21  1  0.69425696  0.30011610  0.49960548  1
  Hf  Hf22  1  0.39794292  0.20256177  -0.00950357  1
  Hf  Hf23  1  0.59460980  -0.00899541  -0.00198274  1
  Hf  Hf24  1  0.30106391  0.30116093  0.50454557  1
  Hf  Hf25  1  0.90635470  0.69507549  0.50042777  1
  Hf  Hf26  1  0.80092896  0.19344637  0.19694037  1
  Hf  Hf27  1  0.39464120  0.80515075  0.60120867  1
  Hf  Hf28  1  0.10499835  0.89990560  0.50221739  1
  Hf  Hf29  1  0.20095151  0.79947712  0.39857841  1
  Hf  Hf30  1  0.68881132  0.29520114  0.70323994  1
  Hf  Hf31  1  0.49811368  0.30110997  0.09413154  1
  Hf  Hf32  1  0.09617826  0.10428553  0.50354608  1
  Hf  Hf33  1  0.90095763  0.49620686  0.89830621  1
  Hf  Hf34  1  0.19384229  0.20253136  0.60772165  1
  Hf  Hf35  1  0.59340748  -0.00889305  0.60519440  1
  Hf  Hf36  1  0.29985724  0.09279245  0.09224156  1
  Hf  Hf37  1  0.20099448  0.00151692  0.79313785  1
  Hf  Hf38  1  0.80015849  0.80927933  0.60308070  1
  Hf  Hf39  1  0.40459729  0.59947691  0.19889109  1
  Hf  Hf40  1  0.79973453  0.60922187  0.80284260  1
  Hf  Hf41  1  0.20107737  0.19257279  0.79959440  1
  Hf  Hf42  1  0.01080138  0.59479415  0.79794999  1
  Hf  Hf43  1  0.69222258  0.89213831  0.10917353  1
  Hf  Hf44  1  0.59820733  0.40417182  -0.01292039  1
  Hf  Hf45  1  0.19958996  0.40331313  0.20582830  1
  Hf  Hf46  1  0.90536113  0.29734583  0.29182004  1
  Hf  Hf47  1  0.69881997  0.90688547  0.31100338  1
  Hf  Hf48  1  0.79690200  0.18833408  0.39146170  1
  Hf  Hf49  1  0.20542903  0.00676886  0.39369271  1
  Zr  Zr50  1  0.20183632  0.80310460  0.19423120  1
  Zr  Zr51  1  0.60508832  0.00845782  0.20041750  1
  Zr  Zr52  1  0.59012795  0.59851909  0.80804641  1
  Zr  Zr53  1  0.59004695  0.21216926  0.40124342  1
  Zr  Zr54  1  0.00048682  -0.00182555  0.00776446  1
  Zr  Zr55  1  0.80528537  0.39077121  -0.00260445  1
  Zr  Zr56  1  0.09784435  0.89805688  0.90278362  1
  Zr  Zr57  1  0.69007735  0.29283518  0.09769711  1
  Zr  Zr58  1  0.70276393  0.50625909  0.10400867  1
  Zr  Zr59  1  0.42210029  0.38719393  0.40136699  1
  Zr  Zr60  1  0.89690766  0.09362737  0.49922644  1
  Zr  Zr61  1  0.01001104  0.41028181  0.40127712  1
  Zr  Zr62  1  0.90005643  0.49781750  0.69533596  1
  Zr  Zr63  1  0.79687368  0.00160889  0.00565762  1
  Zr  Zr64  1  0.79578598  0.20696343  0.80539705  1
  Zr  Zr65  1  0.79247692  0.78929960  0.20367710  1
  Zr  Zr66  1  0.50853891  0.11218532  0.09225784  1
  Zr  Zr67  1  0.30907075  0.90064015  0.08579106  1
  Zr  Zr68  1  0.01285951  0.40154670  0.59412660  1
  Zr  Zr69  1  0.80210747  0.40046236  0.39953697  1
  Zr  Zr70  1  0.89954683  0.90268753  0.29824466  1
  Zr  Zr71  1  -0.00178834  -0.00963104  0.60371689  1
  Zr  Zr72  1  0.69327965  0.10583336  0.89918870  1
  Zr  Zr73  1  0.09758903  0.29538962  0.29605926  1
  Zr  Zr74  1  0.79407160  0.79816895  -0.00427091  1
  Zr  Zr75  1  0.10678272  0.70098503  0.68863976  1
  Zr  Zr76  1  0.69742945  0.70435616  0.49930200  1
  Zr  Zr77  1  0.09830445  0.30385240  0.90378704  1
  Zr  Zr78  1  0.58997130  0.39687449  0.59460041  1
  Zr  Zr79  1  0.11080345  0.49031420  0.08928726  1
  Zr  Zr80  1  0.50095880  0.50606975  0.09270486  1
  Zr  Zr81  1  0.50970369  0.89447372  0.30491714  1
  Zr  Zr82  1  0.51102415  0.71534994  0.50456223  1
  Zr  Zr83  1  0.00462043  0.59324153  -0.00336787  1
  Zr  Zr84  1  0.30607119  0.49645917  0.30540476  1
  Zr  Zr85  1  0.00457594  0.79811970  0.40077017  1
  Zr  Zr86  1  0.40518741  0.00123064  0.20017132  1
  Zr  Zr87  1  0.19872597  0.19404557  -0.00504200  1
  Zr  Zr88  1  0.79036400  0.80413819  0.80257469  1
  Zr  Zr89  1  0.48729773  0.89822290  0.71118549  1
  Zr  Zr90  1  0.01481849  0.59276233  0.19986742  1
  Zr  Zr91  1  0.90830465  0.29323343  0.50522606  1
  Zr  Zr92  1  0.90678881  0.89667859  0.10514142  1
  Zr  Zr93  1  0.39956450  0.80408199  0.40539795  1
  Zr  Zr94  1  0.80016973  0.60143794  0.60033092  1
  Zr  Zr95  1  0.30323168  0.90304574  0.89882700  1
  Zr  Zr96  1  0.50430830  0.70414658  0.09328554  1
  Zr  Zr97  1  0.09197543  0.10204465  0.29299875  1
  Zr  Zr98  1  0.30048463  0.30702686  0.70465729  1
  Zr  Zr99  1  0.90397512  0.09231656  0.89066628  1
  Ta  Ta100  1  0.19709128  0.59816663  0.39843393  1
  Ta  Ta101  1  -0.00709343  0.19807767  0.00333917  1
  Ta  Ta102  1  0.80567606  0.20195408  0.00045664  1
  Ta  Ta103  1  0.79857507  0.39459720  0.80260447  1
  Ta  Ta104  1  0.40104289  0.60054080  0.60097985  1
  Ta  Ta105  1  0.80117207  0.01531437  0.20677795  1
  Ta  Ta106  1  0.20453523  0.59923279  0.19637881  1
  Ta  Ta107  1  0.39868538  0.59627328  -0.01594538  1
  Ta  Ta108  1  0.30273782  0.69470577  0.08871171  1
  Ta  Ta109  1  0.68967215  0.09820571  0.70081653  1
  Ta  Ta110  1  0.39972979  0.19356987  0.79989733  1
  Ta  Ta111  1  0.29695791  0.90531646  0.50508424  1
  Ta  Ta112  1  0.30011883  0.50170216  0.50226505  1
  Ta  Ta113  1  0.29613135  0.31013963  0.09674749  1
  Ta  Ta114  1  0.68745088  0.70868292  0.69917554  1
  Ta  Ta115  1  0.19111939  0.40468399  0.59496396  1
  Ta  Ta116  1  0.09815227  0.90828708  0.28991848  1
  Ta  Ta117  1  0.19166313  0.40315165  0.41063413  1
  Ta  Ta118  1  0.30381027  0.49874373  0.09114519  1
  Ta  Ta119  1  0.69976958  0.50071566  0.89801211  1
  Ta  Ta120  1  0.20486745  0.79957545  0.79386209  1
  Ta  Ta121  1  0.69050879  0.09065117  0.49571034  1
  Ta  Ta122  1  0.90311393  0.90006054  0.89381809  1
  Ta  Ta123  1  0.49693179  0.70292888  0.70380109  1
  Ta  Ta124  1  0.00444123  0.40295177  0.79749067  1
  Ta  Ta125  1  0.40153196  0.40241041  0.59910372  1
  Ta  Ta126  1  0.30352640  0.90404360  0.29955539  1
  Ta  Ta127  1  0.20292512  -0.00147856  0.61141627  1
  Ta  Ta128  1  0.59779049  0.80370513  0.80889838  1
  Ta  Ta129  1  0.30027573  0.70049940  0.69627222  1
  Ta  Ta130  1  0.10006116  0.29440711  0.10195171  1
  Ta  Ta131  1  0.21119497  0.19915136  0.20260934  1
  Ta  Ta132  1  0.49285979  0.49922076  0.70217736  1
  Ta  Ta133  1  0.69661208  0.30144049  0.29711091  1
  Ta  Ta134  1  0.69702792  0.49796098  0.49289971  1
  Ta  Ta135  1  0.50667484  0.09987738  0.30614043  1
  Ta  Ta136  1  0.10843432  0.70173867  0.08884905  1
  Ta  Ta137  1  0.60029876  0.59806361  0.39586193  1
  Ta  Ta138  1  0.49612711  0.29115414  0.70119363  1
  Ta  Ta139  1  0.91457399  0.71046758  0.89937220  1
  Ta  Ta140  1  0.39671978  0.60069266  0.80307053  1
  Ta  Ta141  1  -0.00711055  -0.00172917  0.39737449  1
  Ta  Ta142  1  0.50260439  0.29581496  0.88992506  1
  Ta  Ta143  1  0.90924192  0.29604191  0.70295437  1
  Ta  Ta144  1  0.10371025  0.70636040  0.90392136  1
  Ta  Ta145  1  0.40227818  0.00102769  0.40404734  1
  Ta  Ta146  1  0.90638402  0.70508113  0.70131515  1
  Ta  Ta147  1  0.80120240  0.80618220  0.40873744  1
  Ta  Ta148  1  0.60341073  0.60433474  0.21018622  1
  Ta  Ta149  1  -0.00454896  0.80364999  0.60024322  1
  Ti  Ti150  1  0.01407966  0.80166957  0.19290879  1
  Ti  Ti151  1  -0.00204517  0.19689846  0.39892706  1
  Ti  Ti152  1  0.31420531  0.09796644  0.69900560  1
  Ti  Ti153  1  0.50182392  0.50003903  0.49728996  1
  Ti  Ti154  1  0.19808985  0.80357690  0.00024540  1
  Ti  Ti155  1  0.40577004  0.40742981  0.80404535  1
  Ti  Ti156  1  0.00565747  0.80031117  0.79622027  1
  Ti  Ti157  1  0.90184414  0.90320978  0.71448474  1
  Ti  Ti158  1  0.79318969  0.60248350  0.39789718  1
  Ti  Ti159  1  0.10489835  0.69839710  0.29416312  1
  Ti  Ti160  1  0.09297005  0.29767689  0.70433484  1
  Ti  Ti161  1  0.20617616  0.59137775  -0.00998580  1
  Ti  Ti162  1  0.10338360  0.89474726  0.69889345  1
  Ti  Ti163  1  0.39654472  -0.00348948  0.60641739  1
  Ti  Ti164  1  0.70195170  0.50025552  0.30123723  1
  Ti  Ti165  1  0.09139483  0.09538594  0.89640715  1
  Ti  Ti166  1  0.80190811  0.40036083  0.19381868  1
  Ti  Ti167  1  0.39281285  0.79192917  0.80216241  1
  Ti  Ti168  1  0.10590611  0.69844110  0.50648004  1
  Ti  Ti169  1  0.80137964  0.39762237  0.59979733  1
  Ti  Ti170  1  0.68257781  0.89710814  0.49355331  1
  Ti  Ti171  1  0.20186257  0.20201688  0.39594309  1
  Ti  Ti172  1  0.00930247  0.59448687  0.59890451  1
  Ti  Ti173  1  0.08406247  0.10240329  0.70624945  1
  Ti  Ti174  1  0.29862652  0.30427503  0.30190773  1
  Ti  Ti175  1  0.28946765  0.69788066  0.50920810  1
  Ti  Ti176  1  0.69429228  0.70446494  0.30559531  1
  Ti  Ti177  1  0.50892577  0.70775417  0.29897934  1
  Ti  Ti178  1  0.68856154  0.69605732  0.90739205  1
  Ti  Ti179  1  0.00073230  0.40601610  0.19349127  1
  Ti  Ti180  1  0.69418632  0.10972189  0.09459629  1
  Ti  Ti181  1  0.89846287  0.50588469  0.49645594  1
  Ti  Ti182  1  0.39966295  0.40874534  -0.01143146  1
  Ti  Ti183  1  -0.00132863  0.39841214  0.00175129  1
  Ti  Ti184  1  0.49637330  0.70280101  0.90332634  1
  Ti  Ti185  1  0.18692681  0.41408106  0.80066037  1
  Ti  Ti186  1  0.20432544  -0.00183632  0.19934053  1
  Ti  Ti187  1  0.49945941  0.10131620  0.89448660  1
  Ti  Ti188  1  0.29818445  0.70495804  0.90462296  1
  Ti  Ti189  1  0.59634472  0.39888562  0.80187374  1
  Ti  Ti190  1  0.30701433  0.08482282  0.90309022  1
  Ti  Ti191  1  0.90969370  0.29682807  0.89382759  1
  Ti  Ti192  1  0.40161189  0.39920304  0.20129323  1
  Ti  Ti193  1  0.59587109  0.80483936  -0.00548762  1
  Ti  Ti194  1  0.40705083  0.80370590  0.19125934  1
  Ti  Ti195  1  0.90879662  0.29722629  0.10320341  1
  Ti  Ti196  1  0.68933922  0.69536290  0.10102947  1
  Ti  Ti197  1  0.01533634  0.59468172  0.39918977  1
  Ti  Ti198  1  0.48157304  0.89749816  0.90831582  1
  Ti  Ti199  1  0.50426903  0.50067890  0.30542147  1
  Mo  Mo200  1  0.69760653  0.10035559  0.30667497  1
  Mo  Mo201  1  0.49483034  0.29593908  0.51671722  1
  Mo  Mo202  1  0.90045667  0.10571763  0.10189992  1
  Mo  Mo203  1  0.90107106  0.09695754  0.29897532  1
  Mo  Mo204  1  0.60008718  0.60272956  -0.00549453  1
  Mo  Mo205  1  0.10718602  0.89864803  0.10354474  1
  Mo  Mo206  1  0.59946893  0.80600359  0.61116459  1
  Mo  Mo207  1  0.10735256  0.28849368  0.49514559  1
  Mo  Mo208  1  0.50232458  0.29654923  0.28539282  1
  Mo  Mo209  1  0.60373212  0.20063042  0.20999879  1
  Mo  Mo210  1  0.49521509  0.90878822  0.50302592  1
  Mo  Mo211  1  0.29992999  0.49897577  0.89743890  1
  Mo  Mo212  1  0.20567213  0.39901897  0.00138843  1
  Mo  Mo213  1  0.79357347  -0.00757399  0.79498704  1
  Mo  Mo214  1  0.00582472  0.79619969  0.00087252  1
  Mo  Mo215  1  0.58982113  0.19609225  0.79577748  1
  Mo  Mo216  1  0.49625862  0.49677988  0.89254359  1
  Mo  Mo217  1  0.59774274  0.19237806  0.60445169  1
  Mo  Mo218  1  0.00347136  0.20161249  0.60835189  1
  Mo  Mo219  1  0.39958140  0.78972137  -0.00731877  1
  Mo  Mo220  1  0.79389042  -0.00217951  0.40427914  1
  Mo  Mo221  1  0.20717499  0.60070961  0.59488461  1
  Mo  Mo222  1  0.39979816  0.00932155  0.80225006  1
  Mo  Mo223  1  0.89988260  0.48968266  0.10321972  1
  Mo  Mo224  1  0.00381740  -0.00924628  0.79805962  1
  Mo  Mo225  1  0.41081072  0.00351508  -0.00531768  1
  Mo  Mo226  1  0.60282943  0.40692009  0.39725465  1
  Mo  Mo227  1  0.60344210  0.80018003  0.40045083  1
  Mo  Mo228  1  0.10466902  0.49801620  0.69675721  1
  Mo  Mo229  1  0.19473107  0.00013640  -0.00322824  1
  Mo  Mo230  1  0.20191366  0.80264828  0.59963280  1
  Mo  Mo231  1  0.69529919  0.89946973  0.70718954  1
  Mo  Mo232  1  0.59411495  0.00337569  0.40850793  1
  Mo  Mo233  1  0.78759980  0.60104412  0.20323401  1
  Mo  Mo234  1  0.60028383  0.20563752  -0.01514977  1
  Mo  Mo235  1  -0.00493165  0.00247209  0.20385323  1
  Mo  Mo236  1  0.10731988  0.51707951  0.50187605  1
  Mo  Mo237  1  0.29603610  0.89814851  0.70050731  1
  Mo  Mo238  1  0.10478005  0.50370573  0.30222792  1
  Mo  Mo239  1  0.10152182  0.49607771  0.89942761  1
  Mo  Mo240  1  0.00419806  0.20419422  0.80291217  1
  Mo  Mo241  1  0.69328273  0.30339541  0.89586988  1
  Mo  Mo242  1  0.39799228  0.20472425  0.60871162  1
  Mo  Mo243  1  0.59964300  0.79169557  0.20442292  1
  Mo  Mo244  1  0.30125483  0.09764758  0.30018540  1
  Mo  Mo245  1  -0.00440197  0.19988483  0.19009214  1
  Mo  Mo246  1  0.70007587  0.89664912  0.90308009  1
  Mo  Mo247  1  0.90091490  0.89609748  0.49613548  1
  Mo  Mo248  1  0.49454485  0.09956808  0.70589382  1
  Mo  Mo249  1  0.50040367  0.88998143  0.09492530  1
