# generated using pymatgen
data_HfZrTaTiMo
_symmetry_space_group_name_H-M   'P 1'
_cell_length_a   16.88817651
_cell_length_b   16.89513484
_cell_length_c   16.88991422
_cell_angle_alpha   90.00837992
_cell_angle_beta   89.97842238
_cell_angle_gamma   90.01884248
_symmetry_Int_Tables_number   1
_chemical_formula_structural   HfZrTaTiMo
_chemical_formula_sum   'Hf50 Zr50 Ta50 Ti50 Mo50'
_cell_volume   4819.16511872
_cell_formula_units_Z   50
loop_
 _symmetry_equiv_pos_site_id
 _symmetry_equiv_pos_as_xyz
  1  'x, y, z'
loop_
 _atom_site_type_symbol
 _atom_site_label
 _atom_site_symmetry_multiplicity
 _atom_site_fract_x
 _atom_site_fract_y
 _atom_site_fract_z
 _atom_site_occupancy
  Hf  Hf0  1  0.09627753  0.89851316  0.70706450  1
  Hf  Hf1  1  0.50561750  0.29452844  0.09540742  1
  Hf  Hf2  1  0.00437946  0.01110886  0.80235982  1
  Hf  Hf3  1  0.50651455  0.50304990  0.90030825  1
  Hf  Hf4  1  0.70416918  0.89686681  0.89603497  1
  Hf  Hf5  1  0.40596284  0.00251490  0.60028904  1
  Hf  Hf6  1  0.88845091  0.69356914  0.50341843  1
  Hf  Hf7  1  0.89303992  0.90189438  0.48035439  1
  Hf  Hf8  1  0.51286366  0.89253831  0.31441231  1
  Hf  Hf9  1  0.70487653  0.70231411  0.90180827  1
  Hf  Hf10  1  0.38866615  0.39420033  0.40232367  1
  Hf  Hf11  1  0.40027141  0.59874785  0.19015948  1
  Hf  Hf12  1  0.62905817  0.19623595  -0.02119771  1
  Hf  Hf13  1  -0.00371210  0.39647879  0.79188587  1
  Hf  Hf14  1  0.50305456  0.89764728  0.89995590  1
  Hf  Hf15  1  0.39099954  0.59109569  0.40081826  1
  Hf  Hf16  1  0.40972977  -0.00144351  0.41212701  1
  Hf  Hf17  1  0.29850858  0.10174053  0.10519367  1
  Hf  Hf18  1  0.90058170  0.10037193  0.48867591  1
  Hf  Hf19  1  0.90624427  0.52075217  0.68406188  1
  Hf  Hf20  1  0.61410671  0.39141901  0.80152855  1
  Hf  Hf21  1  0.19766413  0.00773803  -0.00106137  1
  Hf  Hf22  1  0.39658102  0.00638737  0.79733683  1
  Hf  Hf23  1  0.09095520  0.89165822  0.90299954  1
  Hf  Hf24  1  0.29052034  0.89952048  0.70081459  1
  Hf  Hf25  1  0.29324030  0.30315257  0.10011675  1
  Hf  Hf26  1  0.90510654  0.90353687  0.11618997  1
  Hf  Hf27  1  0.90364094  0.50731936  0.30310826  1
  Hf  Hf28  1  0.69451014  0.89808817  0.48594985  1
  Hf  Hf29  1  0.90292940  0.89691518  0.90087482  1
  Hf  Hf30  1  0.90049774  0.08619882  0.29470355  1
  Hf  Hf31  1  0.00297219  0.40634602  0.58121985  1
  Hf  Hf32  1  0.50170299  0.49788535  0.29954707  1
  Hf  Hf33  1  0.07466652  0.90435703  0.29760153  1
  Hf  Hf34  1  0.29253353  0.89810305  0.90259309  1
  Hf  Hf35  1  0.18965247  0.78155920  0.80439708  1
  Hf  Hf36  1  0.19614789  0.59517742  0.59216410  1
  Hf  Hf37  1  0.10540001  0.50466993  0.10218970  1
  Hf  Hf38  1  0.80203545  0.60537038  0.79264298  1
  Hf  Hf39  1  0.10048070  0.30003400  0.09520141  1
  Hf  Hf40  1  0.77635617  0.20538180  0.81268336  1
  Hf  Hf41  1  0.00017160  0.39572285  0.20322426  1
  Hf  Hf42  1  0.20352816  0.39455726  0.58697330  1
  Hf  Hf43  1  0.60795665  -0.00510097  0.20708898  1
  Hf  Hf44  1  0.80702869  0.40864102  0.19025848  1
  Hf  Hf45  1  0.09230040  0.90000570  0.49245500  1
  Hf  Hf46  1  0.70669979  0.29859707  0.10276974  1
  Hf  Hf47  1  0.80571366  0.60115211  0.01005611  1
  Hf  Hf48  1  0.29315082  0.29853591  0.89541529  1
  Hf  Hf49  1  -0.00141940  0.00556850  0.60181658  1
  Zr  Zr50  1  0.90615929  0.50641608  0.89896104  1
  Zr  Zr51  1  0.19659084  0.40016888  0.39995843  1
  Zr  Zr52  1  0.79678265  0.20095048  0.39369130  1
  Zr  Zr53  1  0.38813120  -0.01865735  0.20791190  1
  Zr  Zr54  1  0.39218052  0.40118595  0.79676193  1
  Zr  Zr55  1  0.60668970  0.78974457  0.20034667  1
  Zr  Zr56  1  0.60688239  0.59798545  0.39563699  1
  Zr  Zr57  1  0.20109180  -0.00624573  0.39390294  1
  Zr  Zr58  1  0.50581967  0.29890615  0.89834668  1
  Zr  Zr59  1  0.39832383  0.79333464  0.80001046  1
  Zr  Zr60  1  0.30373259  0.70513654  0.30212918  1
  Zr  Zr61  1  0.19795983  0.21705040  0.40275166  1
  Zr  Zr62  1  0.90505127  0.29045108  0.90205988  1
  Zr  Zr63  1  0.10045563  0.29410701  0.69961673  1
  Zr  Zr64  1  0.29444517  0.10636532  0.50728276  1
  Zr  Zr65  1  0.49554450  0.89153552  0.10579773  1
  Zr  Zr66  1  -0.00888222  0.79594800  0.60375110  1
  Zr  Zr67  1  0.51901879  0.09481817  0.88299832  1
  Zr  Zr68  1  0.91517588  0.70044963  0.89410300  1
  Zr  Zr69  1  0.89715909  0.30255025  0.49634514  1
  Zr  Zr70  1  0.89920555  0.11746431  0.71312405  1
  Zr  Zr71  1  0.39801548  0.79347450  0.00863981  1
  Zr  Zr72  1  0.39103676  0.41056636  0.00154202  1
  Zr  Zr73  1  0.59971532  0.79466607  0.79367885  1
  Zr  Zr74  1  0.19178983  0.79135714  0.60258172  1
  Zr  Zr75  1  0.71297015  0.10251058  0.11902937  1
  Zr  Zr76  1  0.29366238  0.70237572  0.10279504  1
  Zr  Zr77  1  0.80140274  0.00384706  0.60190391  1
  Zr  Zr78  1  0.30062099  0.10401607  0.30114247  1
  Zr  Zr79  1  0.09427945  0.90021617  0.10394563  1
  Zr  Zr80  1  0.80394145  0.00779473  0.00327382  1
  Zr  Zr81  1  0.69995319  0.69372299  0.67887531  1
  Zr  Zr82  1  0.60480006  0.40191892  0.19957937  1
  Zr  Zr83  1  0.00470934  0.59304886  0.40846333  1
  Zr  Zr84  1  0.60331361  0.39869640  0.59719932  1
  Zr  Zr85  1  0.50984535  0.50259467  0.09575198  1
  Zr  Zr86  1  0.60962125  -0.00353667  0.00410180  1
  Zr  Zr87  1  0.50207273  0.10091016  0.10481344  1
  Zr  Zr88  1  0.09999234  0.50243096  0.70008417  1
  Zr  Zr89  1  0.80395058  0.39660394  0.78831324  1
  Zr  Zr90  1  0.39453684  0.18689547  -0.01215009  1
  Zr  Zr91  1  0.19593668  0.18859617  0.80229912  1
  Zr  Zr92  1  0.50510311  0.69433338  0.49761308  1
  Zr  Zr93  1  0.40416792  0.80232674  0.60132830  1
  Zr  Zr94  1  0.20662204  0.81435549  0.20757166  1
  Zr  Zr95  1  0.50252391  0.50095553  0.69895061  1
  Zr  Zr96  1  0.69684425  0.90560697  0.69406965  1
  Zr  Zr97  1  0.40305609  0.20703770  0.40204377  1
  Zr  Zr98  1  0.79362123  0.41146405  0.40541375  1
  Zr  Zr99  1  -0.01042690  0.40199485  0.00948748  1
  Ta  Ta100  1  0.00089642  0.20342202  0.60013073  1
  Ta  Ta101  1  0.29999550  0.29072032  0.69275043  1
  Ta  Ta102  1  0.49965449  0.49585449  0.50069344  1
  Ta  Ta103  1  0.69993481  0.29976932  0.30018759  1
  Ta  Ta104  1  0.69559029  0.09805889  0.49925130  1
  Ta  Ta105  1  0.19610496  0.19634245  -0.00112786  1
  Ta  Ta106  1  0.09584611  0.10545229  0.10674705  1
  Ta  Ta107  1  0.19623615  0.00224279  0.20177707  1
  Ta  Ta108  1  0.29856819  0.70094360  0.50028329  1
  Ta  Ta109  1  0.80306578  0.79450659  0.20445483  1
  Ta  Ta110  1  0.39973659  0.19328811  0.79116650  1
  Ta  Ta111  1  0.40119174  0.21026315  0.20727536  1
  Ta  Ta112  1  0.80827872  0.79738609  0.78650518  1
  Ta  Ta113  1  0.60224427  0.39626521  0.40269991  1
  Ta  Ta114  1  0.70377199  0.50373323  0.90194414  1
  Ta  Ta115  1  0.10053950  0.49791452  0.29733863  1
  Ta  Ta116  1  0.60501824  0.59859535  0.79946312  1
  Ta  Ta117  1  0.50548055  0.09945818  0.30251663  1
  Ta  Ta118  1  0.39475053  0.39904328  0.19964288  1
  Ta  Ta119  1  0.79497656  0.60661030  0.20101965  1
  Ta  Ta120  1  0.59489757  0.80081941  0.59022763  1
  Ta  Ta121  1  0.19281216  0.20695013  0.20676014  1
  Ta  Ta122  1  0.70191679  0.50484751  0.69351738  1
  Ta  Ta123  1  0.09530078  0.10514107  0.49652313  1
  Ta  Ta124  1  0.30183095  0.68755765  0.69984577  1
  Ta  Ta125  1  0.68319214  0.09958008  0.70310314  1
  Ta  Ta126  1  0.50244425  0.29890599  0.50308742  1
  Ta  Ta127  1  0.19912388  0.59817422  0.20523610  1
  Ta  Ta128  1  0.50010984  0.29149512  0.69754214  1
  Ta  Ta129  1  0.39326322  0.59858731  -0.00316102  1
  Ta  Ta130  1  0.40154077  0.80376014  0.40580095  1
  Ta  Ta131  1  0.50229859  0.69044168  0.90251032  1
  Ta  Ta132  1  0.39394325  0.59147302  0.59643757  1
  Ta  Ta133  1  -0.00346145  0.01173509  0.00578231  1
  Ta  Ta134  1  0.69644477  0.29380502  0.50103538  1
  Ta  Ta135  1  0.29464573  0.89515452  0.50190989  1
  Ta  Ta136  1  0.59889547  0.20027595  0.40065427  1
  Ta  Ta137  1  0.49890800  0.68811695  0.69778347  1
  Ta  Ta138  1  0.60180368  0.79116720  0.00623555  1
  Ta  Ta139  1  0.09807985  0.30209227  0.90274004  1
  Ta  Ta140  1  0.19143397  0.00458191  0.60194141  1
  Ta  Ta141  1  0.39594041  0.39735498  0.59570865  1
  Ta  Ta142  1  0.20021658  0.59604709  0.40062647  1
  Ta  Ta143  1  0.29405469  0.10303215  0.69515889  1
  Ta  Ta144  1  0.79613963  0.20204255  0.60266305  1
  Ta  Ta145  1  0.20021584  0.59868173  0.80621023  1
  Ta  Ta146  1  -0.00498764  0.20487740  0.19899190  1
  Ta  Ta147  1  -0.00043663  0.78923617  0.01122915  1
  Ta  Ta148  1  0.09226348  0.10293734  0.29915118  1
  Ta  Ta149  1  0.09751470  0.50490168  0.90169496  1
  Ti  Ti150  1  0.50376339  0.30217089  0.30020863  1
  Ti  Ti151  1  0.70476899  0.70161338  0.10013053  1
  Ti  Ti152  1  0.29861067  0.69486228  0.90181667  1
  Ti  Ti153  1  0.80913740  0.19827251  0.00530964  1
  Ti  Ti154  1  0.90325095  0.89814794  0.70729496  1
  Ti  Ti155  1  0.70362385  0.09290435  0.30654628  1
  Ti  Ti156  1  0.69918505  0.51368299  0.51119545  1
  Ti  Ti157  1  0.39346494  0.59660847  0.80380060  1
  Ti  Ti158  1  0.60618117  0.60428402  0.00446068  1
  Ti  Ti159  1  0.79907309  0.80198953  0.59817105  1
  Ti  Ti160  1  0.50649129  0.90442670  0.70145948  1
  Ti  Ti161  1  0.71029423  0.89481024  0.10540213  1
  Ti  Ti162  1  0.00594079  0.21140240  0.39436042  1
  Ti  Ti163  1  0.89540518  0.90108744  0.30124321  1
  Ti  Ti164  1  0.90035896  0.30652993  0.30477686  1
  Ti  Ti165  1  0.79996526  0.00211568  0.79881462  1
  Ti  Ti166  1  0.60791853  0.60450331  0.19516098  1
  Ti  Ti167  1  0.58708715  0.00283574  0.58957937  1
  Ti  Ti168  1  0.29279363  0.49422364  0.28890477  1
  Ti  Ti169  1  0.39340219  -0.00143923  0.00052075  1
  Ti  Ti170  1  0.70425101  0.70803265  0.31127315  1
  Ti  Ti171  1  0.20128294  0.60005060  -0.00283762  1
  Ti  Ti172  1  0.49763977  0.70299389  0.29665487  1
  Ti  Ti173  1  0.80807005  0.79652536  0.00896505  1
  Ti  Ti174  1  0.09787687  0.69859985  0.49695763  1
  Ti  Ti175  1  0.80197830  0.40172975  0.59878464  1
  Ti  Ti176  1  0.60111652  0.20016479  0.21170250  1
  Ti  Ti177  1  0.69737142  0.29462102  0.68875689  1
  Ti  Ti178  1  -0.00678837  0.78942852  0.39564302  1
  Ti  Ti179  1  0.79443814  0.60174447  0.40105542  1
  Ti  Ti180  1  0.80189316  0.40622425  0.00679492  1
  Ti  Ti181  1  0.09709408  0.69905708  0.29671030  1
  Ti  Ti182  1  0.90220407  0.10637582  0.90202159  1
  Ti  Ti183  1  0.59545230  0.19331349  0.59698922  1
  Ti  Ti184  1  0.90157227  0.69754234  0.29551099  1
  Ti  Ti185  1  0.71075131  0.89833029  0.30973127  1
  Ti  Ti186  1  0.19508837  0.00978128  0.80270117  1
  Ti  Ti187  1  0.29728555  0.49976326  0.69971428  1
  Ti  Ti188  1  0.81229917  0.20642929  0.20324816  1
  Ti  Ti189  1  0.70093592  0.50162929  0.29394232  1
  Ti  Ti190  1  0.40745008  0.19589333  0.60010149  1
  Ti  Ti191  1  0.61627299  0.40412782  0.00092399  1
  Ti  Ti192  1  0.20276425  0.40984482  -0.00586649  1
  Ti  Ti193  1  0.09223475  0.69381011  0.10915271  1
  Ti  Ti194  1  0.91730984  0.52689363  0.10982613  1
  Ti  Ti195  1  0.07773584  0.68722269  0.70834694  1
  Ti  Ti196  1  0.19322542  0.79457120  0.00389417  1
  Ti  Ti197  1  0.08662624  0.11360189  0.90748806  1
  Ti  Ti198  1  0.19845104  0.79793774  0.39944744  1
  Ti  Ti199  1  0.20075323  0.40509022  0.80180894  1
  Mo  Mo200  1  0.30601810  0.89556665  0.31393359  1
  Mo  Mo201  1  0.29112644  0.50627620  0.89873247  1
  Mo  Mo202  1  0.70190905  0.70647718  0.49401144  1
  Mo  Mo203  1  0.30086427  0.50262228  0.49973089  1
  Mo  Mo204  1  0.20004408  0.40297663  0.20134858  1
  Mo  Mo205  1  0.00284252  0.39690481  0.39479923  1
  Mo  Mo206  1  0.00717658  0.60365751  0.20681249  1
  Mo  Mo207  1  0.60195105  0.20401774  0.79007410  1
  Mo  Mo208  1  0.89458922  0.29811820  0.69133218  1
  Mo  Mo209  1  0.59678205  0.59759228  0.59790519  1
  Mo  Mo210  1  0.10260755  0.69314072  0.91267227  1
  Mo  Mo211  1  0.59941298  -0.00515664  0.78965805  1
  Mo  Mo212  1  0.89640898  0.29063727  0.10145940  1
  Mo  Mo213  1  0.00694724  0.60034088  0.80468614  1
  Mo  Mo214  1  0.79758211  0.59790265  0.59151718  1
  Mo  Mo215  1  -0.00013968  0.01078738  0.19853915  1
  Mo  Mo216  1  0.30733021  0.29722821  0.51614603  1
  Mo  Mo217  1  -0.00089064  0.79794899  0.80177554  1
  Mo  Mo218  1  0.50477592  0.89885918  0.50128221  1
  Mo  Mo219  1  0.29373049  0.90283797  0.09540332  1
  Mo  Mo220  1  0.40429837  0.79385652  0.21032259  1
  Mo  Mo221  1  0.71106621  0.31728403  0.91379712  1
  Mo  Mo222  1  0.60293149  0.01135949  0.39944126  1
  Mo  Mo223  1  0.00101819  0.00607653  0.39926453  1
  Mo  Mo224  1  0.60389126  0.79104771  0.39942675  1
  Mo  Mo225  1  0.90203172  0.70406427  0.10964196  1
  Mo  Mo226  1  0.00401128  0.60327182  0.59225298  1
  Mo  Mo227  1  0.90510772  0.10386552  0.10448862  1
  Mo  Mo228  1  0.29539744  0.09634929  0.89668838  1
  Mo  Mo229  1  0.29695475  0.30607326  0.28562306  1
  Mo  Mo230  1  -0.00525460  0.78664379  0.20656820  1
  Mo  Mo231  1  0.00238718  0.20329607  0.80178709  1
  Mo  Mo232  1  0.88957864  0.50419002  0.49820496  1
  Mo  Mo233  1  0.19300389  0.19695589  0.59941187  1
  Mo  Mo234  1  0.79316517  0.00003070  0.39509832  1
  Mo  Mo235  1  0.90056254  0.70456008  0.69496682  1
  Mo  Mo236  1  0.09380288  0.30161242  0.29614357  1
  Mo  Mo237  1  0.10068047  0.09990804  0.69283362  1
  Mo  Mo238  1  0.79804714  -0.01241690  0.20626412  1
  Mo  Mo239  1  0.29315369  0.50184551  0.09948219  1
  Mo  Mo240  1  0.09267057  0.29504388  0.49563122  1
  Mo  Mo241  1  0.70516452  0.50953884  0.09788588  1
  Mo  Mo242  1  0.00074436  0.19762733  0.00398988  1
  Mo  Mo243  1  0.50916048  0.10551454  0.49984084  1
  Mo  Mo244  1  0.50675911  0.69337999  0.09553631  1
  Mo  Mo245  1  0.50020090  0.10397971  0.69319436  1
  Mo  Mo246  1  0.01044756  0.60565926  0.00488682  1
  Mo  Mo247  1  0.80127231  0.79476842  0.39009380  1
  Mo  Mo248  1  0.10281988  0.49971129  0.49223172  1
  Mo  Mo249  1  0.70869535  0.08449098  0.88676378  1
