# generated using pymatgen
data_HfZrTaTiMo
_symmetry_space_group_name_H-M   'P 1'
_cell_length_a   16.87757067
_cell_length_b   16.89360655
_cell_length_c   16.88338886
_cell_angle_alpha   89.96015499
_cell_angle_beta   90.05469593
_cell_angle_gamma   90.05014545
_symmetry_Int_Tables_number   1
_chemical_formula_structural   HfZrTaTiMo
_chemical_formula_sum   'Hf50 Zr50 Ta50 Ti50 Mo50'
_cell_volume   4813.83793006
_cell_formula_units_Z   50
loop_
 _symmetry_equiv_pos_site_id
 _symmetry_equiv_pos_as_xyz
  1  'x, y, z'
loop_
 _atom_site_type_symbol
 _atom_site_label
 _atom_site_symmetry_multiplicity
 _atom_site_fract_x
 _atom_site_fract_y
 _atom_site_fract_z
 _atom_site_occupancy
  Hf  Hf0  1  0.69303149  0.68231351  0.90769635  1
  Hf  Hf1  1  0.60085327  0.40333417  -0.00198140  1
  Hf  Hf2  1  0.09633966  0.69443881  0.91097602  1
  Hf  Hf3  1  0.20782819  0.79882740  0.80606562  1
  Hf  Hf4  1  0.30592387  0.48801319  0.69589110  1
  Hf  Hf5  1  0.28993301  0.68739178  0.10575055  1
  Hf  Hf6  1  0.80267688  0.20160167  0.39956000  1
  Hf  Hf7  1  -0.00526978  0.19174871  0.80313034  1
  Hf  Hf8  1  0.10824953  0.50723130  0.10801346  1
  Hf  Hf9  1  0.69380746  0.50650116  0.30246980  1
  Hf  Hf10  1  0.10291656  0.09401568  0.69602451  1
  Hf  Hf11  1  0.20111154  0.20445413  0.79526729  1
  Hf  Hf12  1  0.20691911  0.01008110  0.00566121  1
  Hf  Hf13  1  0.09953068  0.49853903  0.30417949  1
  Hf  Hf14  1  0.59644304  -0.01022395  0.78581737  1
  Hf  Hf15  1  0.50494329  0.69109603  0.49507402  1
  Hf  Hf16  1  0.69831886  0.88867473  0.30727763  1
  Hf  Hf17  1  0.10580128  0.91158823  0.70005522  1
  Hf  Hf18  1  0.89432408  0.30518257  0.89632196  1
  Hf  Hf19  1  0.80232878  0.00135131  0.40663422  1
  Hf  Hf20  1  0.09871491  0.69007397  0.69498711  1
  Hf  Hf21  1  0.29814128  0.90284393  0.49985991  1
  Hf  Hf22  1  0.48805152  0.30671786  0.69113510  1
  Hf  Hf23  1  0.69542779  0.09694937  0.89307623  1
  Hf  Hf24  1  0.20343093  0.19772086  0.19866251  1
  Hf  Hf25  1  0.80684738  0.20028987  0.59253118  1
  Hf  Hf26  1  0.39262008  0.20351753  0.79477511  1
  Hf  Hf27  1  0.89465168  0.69705363  0.90669898  1
  Hf  Hf28  1  0.90464975  0.30651785  0.69629655  1
  Hf  Hf29  1  0.10629673  0.48894433  0.69001300  1
  Hf  Hf30  1  0.09944275  0.30282153  0.30560815  1
  Hf  Hf31  1  -0.00065546  0.00037914  0.20674711  1
  Hf  Hf32  1  0.41181638  0.80049474  0.60229198  1
  Hf  Hf33  1  0.29588762  0.09724609  0.68819330  1
  Hf  Hf34  1  0.30850127  0.90597639  0.10282563  1
  Hf  Hf35  1  0.70314444  0.30103382  0.09862649  1
  Hf  Hf36  1  0.39035444  0.59494675  -0.00820540  1
  Hf  Hf37  1  0.50637044  0.69312584  0.10192988  1
  Hf  Hf38  1  0.50245311  0.50291581  0.89164489  1
  Hf  Hf39  1  0.69650344  0.09916877  0.69006718  1
  Hf  Hf40  1  0.49059848  0.90842419  0.90360936  1
  Hf  Hf41  1  0.79956573  0.80949874  0.59226421  1
  Hf  Hf42  1  0.20567315  0.79838331  -0.00579208  1
  Hf  Hf43  1  0.80486918  0.60798672  0.20438851  1
  Hf  Hf44  1  0.20652747  0.00992556  0.39462931  1
  Hf  Hf45  1  0.60736995  0.40595546  0.59837569  1
  Hf  Hf46  1  0.89697663  0.89373077  0.09828896  1
  Hf  Hf47  1  0.78884327  0.80289553  0.79491487  1
  Hf  Hf48  1  0.30661809  0.91673657  0.70143081  1
  Hf  Hf49  1  0.80323187  0.39734764  0.20876328  1
  Zr  Zr50  1  0.79863957  0.79241700  0.20539419  1
  Zr  Zr51  1  0.00332930  0.39846308  0.01070561  1
  Zr  Zr52  1  0.10071847  0.30294342  0.89755073  1
  Zr  Zr53  1  -0.00556666  0.01083942  -0.00487369  1
  Zr  Zr54  1  0.59609986  0.00550295  0.20504869  1
  Zr  Zr55  1  0.49414643  0.29970516  0.30309670  1
  Zr  Zr56  1  0.30035104  0.68609807  0.69174623  1
  Zr  Zr57  1  0.10476735  0.89900872  0.30803242  1
  Zr  Zr58  1  0.69177074  0.69310203  0.69477873  1
  Zr  Zr59  1  0.00516639  0.79816879  0.80283601  1
  Zr  Zr60  1  0.70493079  0.51011592  0.08910057  1
  Zr  Zr61  1  0.80295485  0.19161116  -0.01020215  1
  Zr  Zr62  1  0.58623533  0.19688685  0.18986283  1
  Zr  Zr63  1  0.89554670  0.30050311  0.09775063  1
  Zr  Zr64  1  0.90753761  0.90594783  0.69914503  1
  Zr  Zr65  1  0.59222075  0.80084191  0.79269993  1
  Zr  Zr66  1  0.30609536  0.30346825  0.29830886  1
  Zr  Zr67  1  0.88748930  0.49592083  0.90978639  1
  Zr  Zr68  1  0.10378688  0.49558264  0.90333738  1
  Zr  Zr69  1  0.20913124  0.59335517  0.81160862  1
  Zr  Zr70  1  0.20249480  0.79971066  0.60101709  1
  Zr  Zr71  1  0.60235389  0.00655287  0.39676680  1
  Zr  Zr72  1  0.68840743  0.29757475  0.30527232  1
  Zr  Zr73  1  0.80092666  0.59242252  0.59709189  1
  Zr  Zr74  1  0.90219153  0.70295123  0.69704837  1
  Zr  Zr75  1  0.49540800  0.10916192  0.50274815  1
  Zr  Zr76  1  0.40055188  0.00246063  0.39344981  1
  Zr  Zr77  1  0.39961797  0.79271263  0.80155830  1
  Zr  Zr78  1  0.40206046  0.19365362  0.01329989  1
  Zr  Zr79  1  0.20453758  0.19964461  0.00104504  1
  Zr  Zr80  1  0.90465610  0.50135532  0.30562773  1
  Zr  Zr81  1  0.49315764  0.29720677  0.49609440  1
  Zr  Zr82  1  0.79618503  0.00237213  0.20907113  1
  Zr  Zr83  1  0.61104894  0.40663743  0.79184974  1
  Zr  Zr84  1  0.69825207  0.90067778  0.90677167  1
  Zr  Zr85  1  0.49280388  0.09760853  0.68818083  1
  Zr  Zr86  1  0.59509831  0.20073971  -0.00066255  1
  Zr  Zr87  1  0.19839100  0.79831673  0.20483057  1
  Zr  Zr88  1  0.89972019  0.89951016  0.90312712  1
  Zr  Zr89  1  0.10027573  0.69992991  0.50233922  1
  Zr  Zr90  1  0.09516334  0.89762957  0.09607146  1
  Zr  Zr91  1  -0.00588778  0.20153867  0.40031437  1
  Zr  Zr92  1  0.10649206  0.09752348  0.50757156  1
  Zr  Zr93  1  0.39595755  0.79225489  -0.00511994  1
  Zr  Zr94  1  -0.01356757  0.58426065  0.59416984  1
  Zr  Zr95  1  0.10230766  0.30280040  0.51303796  1
  Zr  Zr96  1  0.49634271  0.30342303  0.89436037  1
  Zr  Zr97  1  0.49977157  0.51031192  0.30595124  1
  Zr  Zr98  1  0.30583510  0.69583748  0.30440077  1
  Zr  Zr99  1  0.19949121  0.59813372  0.40170101  1
  Ta  Ta100  1  0.00094306  0.19443935  0.00050980  1
  Ta  Ta101  1  0.50570320  0.69876573  0.30179418  1
  Ta  Ta102  1  -0.00840654  0.58882664  0.79920207  1
  Ta  Ta103  1  0.69302379  0.89863135  0.09846074  1
  Ta  Ta104  1  -0.00363206  0.79001105  0.20729886  1
  Ta  Ta105  1  0.49932045  0.89964692  0.10151617  1
  Ta  Ta106  1  0.89870390  0.10227428  0.10405827  1
  Ta  Ta107  1  0.40501939  0.79949968  0.20282359  1
  Ta  Ta108  1  0.21165576  0.40075394  0.00501380  1
  Ta  Ta109  1  0.39240795  0.40560122  0.40657445  1
  Ta  Ta110  1  0.80430318  0.60608923  0.40417416  1
  Ta  Ta111  1  0.70224181  0.09762532  0.10099457  1
  Ta  Ta112  1  0.79861305  -0.00046737  0.59326938  1
  Ta  Ta113  1  0.80114198  0.19564303  0.79258831  1
  Ta  Ta114  1  0.30548686  0.69512601  0.49693302  1
  Ta  Ta115  1  0.59273189  0.40480738  0.19246431  1
  Ta  Ta116  1  -0.00115096  0.60658229  0.20194249  1
  Ta  Ta117  1  -0.00429676  0.20321168  0.20138710  1
  Ta  Ta118  1  0.40549008  0.00744999  0.20080352  1
  Ta  Ta119  1  0.10120201  0.49337189  0.50297741  1
  Ta  Ta120  1  0.49616766  0.09433624  0.89552629  1
  Ta  Ta121  1  0.30046868  0.50113555  0.29722506  1
  Ta  Ta122  1  0.30632836  0.31014514  0.90019482  1
  Ta  Ta123  1  0.40300993  0.79988276  0.40087239  1
  Ta  Ta124  1  0.10170038  0.90888663  0.89666080  1
  Ta  Ta125  1  0.80700647  0.40529653  0.59230693  1
  Ta  Ta126  1  0.89865118  0.89125803  0.30988816  1
  Ta  Ta127  1  0.49862352  0.89140841  0.29820606  1
  Ta  Ta128  1  0.80138194  0.19602943  0.20883954  1
  Ta  Ta129  1  0.79331854  0.58725319  0.79518192  1
  Ta  Ta130  1  0.29921183  0.50006271  0.50599881  1
  Ta  Ta131  1  0.70797794  0.29838067  0.69538269  1
  Ta  Ta132  1  0.40415999  0.59537815  0.59700294  1
  Ta  Ta133  1  -0.00276701  0.79872008  0.40146069  1
  Ta  Ta134  1  0.29765125  0.50017620  0.10807186  1
  Ta  Ta135  1  0.30900369  0.30552664  0.10533003  1
  Ta  Ta136  1  0.69910048  0.50452375  0.49205514  1
  Ta  Ta137  1  0.59876882  0.81027390  0.60136431  1
  Ta  Ta138  1  0.59566434  0.00368184  0.00593611  1
  Ta  Ta139  1  0.20611829  0.39908285  0.40690782  1
  Ta  Ta140  1  0.09659991  0.10327444  0.10654698  1
  Ta  Ta141  1  0.90335298  0.69994334  0.09446763  1
  Ta  Ta142  1  0.80382691  0.39747174  0.40719113  1
  Ta  Ta143  1  0.10062792  0.89815667  0.49881231  1
  Ta  Ta144  1  -0.00197349  0.39657770  0.20267812  1
  Ta  Ta145  1  0.49807840  0.50106074  0.49790956  1
  Ta  Ta146  1  0.69049292  0.69730971  0.30979251  1
  Ta  Ta147  1  -0.00221252  0.59760943  0.00693398  1
  Ta  Ta148  1  0.69605753  0.70190686  0.49454742  1
  Ta  Ta149  1  0.21070482  0.20378996  0.40681157  1
  Ti  Ti150  1  0.89800947  0.71105015  0.49589199  1
  Ti  Ti151  1  0.90704360  0.09709601  0.50448498  1
  Ti  Ti152  1  0.60158406  0.20346808  0.79419034  1
  Ti  Ti153  1  -0.00370354  -0.00798614  0.58974950  1
  Ti  Ti154  1  0.79046073  0.79396848  0.00592163  1
  Ti  Ti155  1  0.80093638  0.00215509  0.79293000  1
  Ti  Ti156  1  0.59967939  0.59148588  0.60032447  1
  Ti  Ti157  1  -0.00014918  0.20418517  0.60430625  1
  Ti  Ti158  1  0.60416374  0.20974315  0.59830332  1
  Ti  Ti159  1  0.30513087  0.10845229  0.50958097  1
  Ti  Ti160  1  0.59717831  0.79959873  0.00178033  1
  Ti  Ti161  1  0.59908877  0.79719848  0.19898384  1
  Ti  Ti162  1  -0.00302790  -0.00348173  0.40209343  1
  Ti  Ti163  1  0.10340387  0.29837102  0.10373513  1
  Ti  Ti164  1  0.50057237  0.90910500  0.50305702  1
  Ti  Ti165  1  0.49485034  0.50024038  0.69886983  1
  Ti  Ti166  1  0.89644266  0.50235390  0.09920394  1
  Ti  Ti167  1  0.20130301  0.39907999  0.20134353  1
  Ti  Ti168  1  -0.01008954  0.39588202  0.41067880  1
  Ti  Ti169  1  0.90143689  0.09967363  0.30032690  1
  Ti  Ti170  1  0.30344452  0.89589925  0.30006453  1
  Ti  Ti171  1  0.09969671  0.10495555  0.30086217  1
  Ti  Ti172  1  0.00224756  0.40312033  0.79209451  1
  Ti  Ti173  1  0.69126293  0.10447374  0.49972264  1
  Ti  Ti174  1  0.79495612  0.40660238  0.79010034  1
  Ti  Ti175  1  0.40302390  0.59881859  0.20126771  1
  Ti  Ti176  1  -0.00549115  0.60599877  0.40188373  1
  Ti  Ti177  1  0.69566274  0.90002438  0.49895971  1
  Ti  Ti178  1  0.39618681  0.59733589  0.80267879  1
  Ti  Ti179  1  0.50785444  0.68880196  0.89842530  1
  Ti  Ti180  1  0.40674310  0.40587357  0.19498655  1
  Ti  Ti181  1  0.69227205  0.69369096  0.09888902  1
  Ti  Ti182  1  0.70007444  0.30192917  0.49884536  1
  Ti  Ti183  1  0.50328608  0.50822929  0.09946036  1
  Ti  Ti184  1  0.09873595  0.69583637  0.09951419  1
  Ti  Ti185  1  0.50346474  0.68509412  0.70157575  1
  Ti  Ti186  1  0.20786524  0.00930816  0.20214767  1
  Ti  Ti187  1  0.30925427  0.09205405  0.89343345  1
  Ti  Ti188  1  0.90405451  0.09256605  0.69779251  1
  Ti  Ti189  1  0.10281957  0.09266705  0.89347187  1
  Ti  Ti190  1  0.70711457  0.30451002  0.89329861  1
  Ti  Ti191  1  0.20715188  0.39089080  0.79557667  1
  Ti  Ti192  1  0.59902377  0.40250087  0.40410916  1
  Ti  Ti193  1  0.79745783  0.00372291  0.00214473  1
  Ti  Ti194  1  0.31121001  0.11197558  0.29742376  1
  Ti  Ti195  1  0.59363620  0.80235223  0.40674422  1
  Ti  Ti196  1  0.40096901  0.40403471  0.00504470  1
  Ti  Ti197  1  0.30281563  0.91745386  0.89536242  1
  Ti  Ti198  1  0.49544134  0.11725845  0.30923198  1
  Ti  Ti199  1  0.10090072  0.69962397  0.30356379  1
  Mo  Mo200  1  0.89965835  0.49676486  0.49160615  1
  Mo  Mo201  1  0.90330936  0.30013934  0.30204794  1
  Mo  Mo202  1  0.70111916  0.10622518  0.30073376  1
  Mo  Mo203  1  0.49661507  0.90484381  0.69006525  1
  Mo  Mo204  1  0.20502191  0.59201638  0.59503141  1
  Mo  Mo205  1  0.60038463  0.60390546  0.19899189  1
  Mo  Mo206  1  0.20435802  0.39521850  0.59831699  1
  Mo  Mo207  1  -0.00159635  0.39738649  0.59891181  1
  Mo  Mo208  1  -0.00125041  0.80919109  0.58868130  1
  Mo  Mo209  1  0.90522164  0.69931614  0.30703679  1
  Mo  Mo210  1  0.59579063  0.59643536  0.79290402  1
  Mo  Mo211  1  0.40107492  0.00658718  0.80127969  1
  Mo  Mo212  1  0.39596046  0.40168584  0.79836440  1
  Mo  Mo213  1  0.20260975  0.80075667  0.40098167  1
  Mo  Mo214  1  0.19474044  0.59703159  0.20622366  1
  Mo  Mo215  1  0.89955384  0.49150789  0.70741092  1
  Mo  Mo216  1  0.29753560  0.68819211  0.90270244  1
  Mo  Mo217  1  0.39945429  0.59778737  0.40313274  1
  Mo  Mo218  1  0.90181877  0.30377434  0.50313095  1
  Mo  Mo219  1  0.40103145  0.00301707  0.00205135  1
  Mo  Mo220  1  0.40337805  -0.00070029  0.59457605  1
  Mo  Mo221  1  0.60290955  0.60203259  0.40394651  1
  Mo  Mo222  1  0.49556732  0.08596070  0.09400928  1
  Mo  Mo223  1  0.49338626  0.31903360  0.10286856  1
  Mo  Mo224  1  0.39970617  0.19595802  0.19836143  1
  Mo  Mo225  1  0.38728536  0.20930627  0.59730940  1
  Mo  Mo226  1  0.30454371  0.48664322  0.90096300  1
  Mo  Mo227  1  0.00504141  0.79340919  0.00771704  1
  Mo  Mo228  1  0.29558920  0.30189772  0.69149755  1
  Mo  Mo229  1  0.20132547  0.00117042  0.58872524  1
  Mo  Mo230  1  0.79800305  0.79648252  0.40575594  1
  Mo  Mo231  1  0.19948160  0.59298121  0.00638356  1
  Mo  Mo232  1  0.20226415  0.00436553  0.81052336  1
  Mo  Mo233  1  0.70430474  0.49614107  0.69098752  1
  Mo  Mo234  1  0.59417791  0.59852031  -0.00161341  1
  Mo  Mo235  1  0.79200928  0.40096133  -0.00626698  1
  Mo  Mo236  1  0.40149245  0.40502952  0.59534490  1
  Mo  Mo237  1  0.38618726  0.20293259  0.40178445  1
  Mo  Mo238  1  0.90712816  0.90307320  0.49668899  1
  Mo  Mo239  1  0.00211239  0.00527536  0.80247934  1
  Mo  Mo240  1  0.09897270  0.30048454  0.69997369  1
  Mo  Mo241  1  0.20392163  0.20687280  0.60158246  1
  Mo  Mo242  1  0.70096989  0.90675762  0.68715809  1
  Mo  Mo243  1  0.89310093  0.09699897  0.89222190  1
  Mo  Mo244  1  0.70001794  0.50101800  0.89387194  1
  Mo  Mo245  1  0.60425855  -0.00840997  0.59240375  1
  Mo  Mo246  1  0.29951873  0.30330667  0.50493971  1
  Mo  Mo247  1  0.60876427  0.20013248  0.40456198  1
  Mo  Mo248  1  0.30154875  0.10005403  0.11401552  1
  Mo  Mo249  1  0.80123663  0.60367746  0.00507949  1
