# generated using pymatgen
data_HfZrTaTiMo
_symmetry_space_group_name_H-M   'P 1'
_cell_length_a   16.88890935
_cell_length_b   16.88323234
_cell_length_c   16.89208573
_cell_angle_alpha   89.95817148
_cell_angle_beta   89.97207680
_cell_angle_gamma   89.98737360
_symmetry_Int_Tables_number   1
_chemical_formula_structural   HfZrTaTiMo
_chemical_formula_sum   'Hf50 Zr50 Ta50 Ti50 Mo50'
_cell_volume   4816.59688951
_cell_formula_units_Z   50
loop_
 _symmetry_equiv_pos_site_id
 _symmetry_equiv_pos_as_xyz
  1  'x, y, z'
loop_
 _atom_site_type_symbol
 _atom_site_label
 _atom_site_symmetry_multiplicity
 _atom_site_fract_x
 _atom_site_fract_y
 _atom_site_fract_z
 _atom_site_occupancy
  Hf  Hf0  1  0.79011768  0.21399571  0.60323363  1
  Hf  Hf1  1  0.39139066  0.40576896  0.39242277  1
  Hf  Hf2  1  0.09950957  0.90849057  0.51143132  1
  Hf  Hf3  1  0.29690090  0.09863834  0.28720053  1
  Hf  Hf4  1  0.89592048  0.50481932  0.29521074  1
  Hf  Hf5  1  0.77425095  0.58869979  0.20393927  1
  Hf  Hf6  1  0.68780721  0.11095507  0.90831265  1
  Hf  Hf7  1  0.00019834  0.39737909  0.00079139  1
  Hf  Hf8  1  0.49903264  0.10904851  0.70855777  1
  Hf  Hf9  1  0.10784186  0.49654414  0.89855600  1
  Hf  Hf10  1  0.20616732  0.59451140  0.19884923  1
  Hf  Hf11  1  0.59974571  0.79277338  0.59362887  1
  Hf  Hf12  1  0.20442863  0.00260978  0.80533765  1
  Hf  Hf13  1  0.81349115  -0.00115893  0.20671386  1
  Hf  Hf14  1  0.60421151  0.40151482  0.59094043  1
  Hf  Hf15  1  0.11175422  0.90890205  0.29301624  1
  Hf  Hf16  1  0.30905205  0.90993718  0.29648148  1
  Hf  Hf17  1  0.00794502  0.79310781  0.00171398  1
  Hf  Hf18  1  0.30595658  0.30570383  0.70514178  1
  Hf  Hf19  1  0.89506213  0.69049919  0.10311374  1
  Hf  Hf20  1  0.00159918  0.40468643  0.39960381  1
  Hf  Hf21  1  0.29655416  0.89538978  0.91152561  1
  Hf  Hf22  1  0.41371951  0.79924644  0.40271981  1
  Hf  Hf23  1  0.11341493  0.90300962  0.09589130  1
  Hf  Hf24  1  0.30881336  0.10511778  0.70651885  1
  Hf  Hf25  1  -0.00127483  0.00594362  0.38866862  1
  Hf  Hf26  1  0.79356630  0.79973934  -0.00415064  1
  Hf  Hf27  1  0.09111885  0.11051582  0.50046489  1
  Hf  Hf28  1  0.59983311  0.79149614  0.80910641  1
  Hf  Hf29  1  -0.00324709  0.00182370  -0.00262415  1
  Hf  Hf30  1  0.90789046  0.10931879  0.70423626  1
  Hf  Hf31  1  0.10096335  0.49646980  0.70957046  1
  Hf  Hf32  1  0.20713182  0.20100361  0.59455688  1
  Hf  Hf33  1  0.09959475  0.70281889  0.50835820  1
  Hf  Hf34  1  0.69115124  0.09849618  0.09998142  1
  Hf  Hf35  1  0.89625143  0.50731931  0.89945570  1
  Hf  Hf36  1  0.49042402  0.09147663  0.29736462  1
  Hf  Hf37  1  0.60081971  0.20157870  0.40309203  1
  Hf  Hf38  1  0.40707792  0.80457096  0.19903480  1
  Hf  Hf39  1  0.80168250  0.00083078  0.39396911  1
  Hf  Hf40  1  0.79819260  0.38477952  -0.01041198  1
  Hf  Hf41  1  0.29030404  0.29285174  0.29692066  1
  Hf  Hf42  1  0.69102522  0.70671462  0.10433972  1
  Hf  Hf43  1  0.20905185  0.01737093  0.40806407  1
  Hf  Hf44  1  0.87911134  0.51528725  0.49922106  1
  Hf  Hf45  1  0.38378178  0.18787888  0.41121090  1
  Hf  Hf46  1  0.49888371  0.50071723  0.29405513  1
  Hf  Hf47  1  0.89654054  0.69868954  0.29050929  1
  Hf  Hf48  1  0.20054314  0.40771571  0.59462028  1
  Hf  Hf49  1  0.20104408  0.59526266  0.60492039  1
  Zr  Zr50  1  0.60008113  0.21631581  0.59466700  1
  Zr  Zr51  1  0.90051709  0.30378590  0.49175133  1
  Zr  Zr52  1  0.48990791  0.28960419  0.29720100  1
  Zr  Zr53  1  0.90623310  0.10622507  0.50616031  1
  Zr  Zr54  1  0.69205754  0.90472223  0.70970775  1
  Zr  Zr55  1  0.50993591  0.69308263  0.29571927  1
  Zr  Zr56  1  0.79897493  0.21663316  0.80572906  1
  Zr  Zr57  1  0.68647458  0.10778247  0.70890761  1
  Zr  Zr58  1  0.79377088  0.40118831  0.60817028  1
  Zr  Zr59  1  0.79166862  0.79715795  0.60795170  1
  Zr  Zr60  1  -0.00321056  0.39273757  0.20077554  1
  Zr  Zr61  1  0.40339062  0.79863040  0.80343382  1
  Zr  Zr62  1  0.69550682  0.48941981  0.89223197  1
  Zr  Zr63  1  0.10218670  0.30205229  0.70960660  1
  Zr  Zr64  1  0.39167641  -0.00206618  0.59998724  1
  Zr  Zr65  1  0.90205891  0.69412787  0.90290926  1
  Zr  Zr66  1  0.90560648  0.89854853  0.70491072  1
  Zr  Zr67  1  0.71519111  0.66780742  0.51279634  1
  Zr  Zr68  1  0.29894385  0.09163754  0.10023782  1
  Zr  Zr69  1  0.80334531  0.00441870  0.00071200  1
  Zr  Zr70  1  0.49717251  0.09546410  0.50404900  1
  Zr  Zr71  1  0.50082087  0.90534310  0.70115720  1
  Zr  Zr72  1  0.60633653  0.79997039  0.40677380  1
  Zr  Zr73  1  0.50079642  0.49133712  0.70045067  1
  Zr  Zr74  1  0.20193565  0.58976844  0.39822844  1
  Zr  Zr75  1  -0.00240897  0.80575995  0.39402055  1
  Zr  Zr76  1  0.79812012  0.80413739  0.40168833  1
  Zr  Zr77  1  0.60386724  0.39330013  0.40303090  1
  Zr  Zr78  1  0.00119200  -0.00372757  0.80785516  1
  Zr  Zr79  1  0.30664911  0.69854038  0.49645174  1
  Zr  Zr80  1  0.59397205  0.39123106  0.19088803  1
  Zr  Zr81  1  0.00384880  0.60027110  0.40217010  1
  Zr  Zr82  1  0.10410831  0.30507119  0.89736370  1
  Zr  Zr83  1  0.29897697  0.49429962  0.08941157  1
  Zr  Zr84  1  0.08936808  0.11711322  0.90226567  1
  Zr  Zr85  1  0.62538632  0.58754756  0.38802149  1
  Zr  Zr86  1  0.89606060  0.50738692  0.09346092  1
  Zr  Zr87  1  0.09870446  0.10414383  0.69945332  1
  Zr  Zr88  1  0.20390671  0.80261415  0.40059224  1
  Zr  Zr89  1  0.80720334  0.19901997  0.19709562  1
  Zr  Zr90  1  0.69080991  0.09889812  0.29290800  1
  Zr  Zr91  1  0.39740934  0.59792983  0.60095546  1
  Zr  Zr92  1  0.78955108  0.00499781  0.60123189  1
  Zr  Zr93  1  0.89854744  0.89000600  0.10531332  1
  Zr  Zr94  1  0.79915524  0.00335262  0.81541381  1
  Zr  Zr95  1  0.50594833  0.69858973  0.10310091  1
  Zr  Zr96  1  0.90676366  0.90498797  0.51244191  1
  Zr  Zr97  1  0.59158255  0.59923419  -0.00867048  1
  Zr  Zr98  1  0.29899081  0.70204616  0.09257732  1
  Zr  Zr99  1  0.39833896  0.59561658  0.80704796  1
  Ta  Ta100  1  0.40050242  0.59742336  -0.00905413  1
  Ta  Ta101  1  0.29394841  0.30458142  0.49463304  1
  Ta  Ta102  1  0.40772736  0.79360723  -0.00397235  1
  Ta  Ta103  1  0.39115301  0.39568049  0.19118516  1
  Ta  Ta104  1  0.69515567  0.29412119  0.09112723  1
  Ta  Ta105  1  0.20567875  0.79824023  0.19906742  1
  Ta  Ta106  1  0.00262897  0.00450779  0.20218594  1
  Ta  Ta107  1  0.10056814  0.10246697  0.10448997  1
  Ta  Ta108  1  0.40320196  0.79724101  0.59774891  1
  Ta  Ta109  1  0.69297128  0.49225395  0.08839559  1
  Ta  Ta110  1  0.30834437  0.69367092  0.29869680  1
  Ta  Ta111  1  0.19447247  0.40353648  0.39395371  1
  Ta  Ta112  1  0.79331948  0.60494984  0.79635762  1
  Ta  Ta113  1  0.60132242  -0.00863759  0.39897871  1
  Ta  Ta114  1  0.39920228  0.20045660  -0.00685362  1
  Ta  Ta115  1  0.10155066  0.30082502  0.49241770  1
  Ta  Ta116  1  0.58822251  0.00406373  0.81918149  1
  Ta  Ta117  1  0.90436779  0.29240748  0.09814398  1
  Ta  Ta118  1  0.09874177  0.49952491  0.28947520  1
  Ta  Ta119  1  0.10992033  0.88733989  0.90024260  1
  Ta  Ta120  1  0.20960600  0.20393707  0.00320305  1
  Ta  Ta121  1  0.00474172  0.60258972  0.79892720  1
  Ta  Ta122  1  0.30003417  0.89977235  0.09477915  1
  Ta  Ta123  1  0.10349157  0.49796128  0.09731846  1
  Ta  Ta124  1  0.00716023  0.80003530  0.19959467  1
  Ta  Ta125  1  0.79369323  0.79226637  0.80357130  1
  Ta  Ta126  1  -0.00022569  0.40822737  0.59684513  1
  Ta  Ta127  1  0.50281303  0.69443506  0.69479964  1
  Ta  Ta128  1  0.80455044  0.19950583  -0.00309058  1
  Ta  Ta129  1  0.39614126  0.39792823  0.81429078  1
  Ta  Ta130  1  0.79783636  0.39236142  0.19319544  1
  Ta  Ta131  1  0.19745581  0.39428276  0.19838556  1
  Ta  Ta132  1  0.40218525  0.00682853  0.81757302  1
  Ta  Ta133  1  0.10483119  0.70339314  0.70609011  1
  Ta  Ta134  1  0.21954320  0.20320032  0.81493208  1
  Ta  Ta135  1  0.29815901  0.70457440  0.70344819  1
  Ta  Ta136  1  0.90100859  0.69629845  0.51160858  1
  Ta  Ta137  1  0.39783484  0.59001790  0.19675326  1
  Ta  Ta138  1  0.20954853  0.59720908  0.80048303  1
  Ta  Ta139  1  0.11213629  0.69986788  0.89628437  1
  Ta  Ta140  1  0.70141115  0.29582249  0.29156107  1
  Ta  Ta141  1  0.69190060  0.89834293  0.10342624  1
  Ta  Ta142  1  0.09442440  0.28851375  0.30185125  1
  Ta  Ta143  1  0.79997471  0.20499041  0.39456077  1
  Ta  Ta144  1  0.50076601  0.51242575  0.49428420  1
  Ta  Ta145  1  0.10081431  0.29407143  0.09876878  1
  Ta  Ta146  1  0.90329092  0.69580615  0.70084294  1
  Ta  Ta147  1  0.59697218  0.60165615  0.79780611  1
  Ta  Ta148  1  0.10387930  0.69804144  0.29082450  1
  Ta  Ta149  1  0.20775279  0.80626378  0.60691230  1
  Ti  Ti150  1  0.69948765  0.71254688  0.28768507  1
  Ti  Ti151  1  0.50204746  0.89684695  0.90912928  1
  Ti  Ti152  1  0.50171501  0.48736629  0.90281512  1
  Ti  Ti153  1  0.49920840  0.49492109  0.09384979  1
  Ti  Ti154  1  0.80204300  0.39638737  0.79807809  1
  Ti  Ti155  1  0.40162038  0.20484331  0.17734200  1
  Ti  Ti156  1  0.79035629  0.40393044  0.39108557  1
  Ti  Ti157  1  0.41287953  -0.00612586  0.18521959  1
  Ti  Ti158  1  0.58413485  0.21370508  0.81778407  1
  Ti  Ti159  1  0.00246873  0.59446490  0.60453637  1
  Ti  Ti160  1  0.68154487  0.31287917  0.72233801  1
  Ti  Ti161  1  0.91708576  0.28444731  0.90146190  1
  Ti  Ti162  1  0.58674391  0.00481805  0.00344986  1
  Ti  Ti163  1  0.30106226  0.89683233  0.70779377  1
  Ti  Ti164  1  0.60385506  -0.00094652  0.59372322  1
  Ti  Ti165  1  0.00481598  0.79932261  0.61001068  1
  Ti  Ti166  1  0.20494727  0.00073854  0.60511434  1
  Ti  Ti167  1  0.48475988  0.30735002  0.49883872  1
  Ti  Ti168  1  0.89955732  0.50431248  0.70405093  1
  Ti  Ti169  1  0.39765197  0.20588286  0.59670604  1
  Ti  Ti170  1  0.59014799  -0.00807963  0.19950983  1
  Ti  Ti171  1  0.50757377  0.89317753  0.09213619  1
  Ti  Ti172  1  0.10574140  0.69455966  0.10116765  1
  Ti  Ti173  1  0.30548004  0.50107704  0.49279006  1
  Ti  Ti174  1  0.49925253  0.90672539  0.49823466  1
  Ti  Ti175  1  0.10662513  0.89564429  0.70497925  1
  Ti  Ti176  1  0.69987788  0.10157532  0.49635579  1
  Ti  Ti177  1  0.69340941  0.51011341  0.69591675  1
  Ti  Ti178  1  0.58747881  0.19874701  0.18991329  1
  Ti  Ti179  1  -0.01489980  0.39652228  0.79610014  1
  Ti  Ti180  1  -0.00259612  0.22225194  0.60564481  1
  Ti  Ti181  1  0.20416523  0.59925495  -0.00757927  1
  Ti  Ti182  1  0.40854201  0.00523795  -0.00064365  1
  Ti  Ti183  1  0.01267585  0.60012428  -0.00054801  1
  Ti  Ti184  1  0.21046917  0.38906389  -0.00137623  1
  Ti  Ti185  1  0.30460924  0.90337365  0.49811293  1
  Ti  Ti186  1  0.91310477  0.10936856  0.09681407  1
  Ti  Ti187  1  0.00405161  0.79393989  0.80162054  1
  Ti  Ti188  1  0.91706696  0.12226506  0.29938655  1
  Ti  Ti189  1  0.49277024  0.30293871  0.70804247  1
  Ti  Ti190  1  0.70044939  0.89596535  0.29005492  1
  Ti  Ti191  1  0.19897249  0.01049377  -0.00672046  1
  Ti  Ti192  1  0.90310593  0.89009934  0.89863015  1
  Ti  Ti193  1  0.69865137  0.69347550  0.90587569  1
  Ti  Ti194  1  0.58168686  0.20955061  0.00471332  1
  Ti  Ti195  1  0.19338804  0.19945337  0.19580775  1
  Ti  Ti196  1  0.68815198  0.90118817  0.91123717  1
  Ti  Ti197  1  0.39503556  0.40464578  0.59716368  1
  Ti  Ti198  1  0.40323727  0.38698584  0.00157354  1
  Ti  Ti199  1  0.29486378  0.70434296  0.89971728  1
  Mo  Mo200  1  0.69987013  0.47987437  0.28902816  1
  Mo  Mo201  1  0.80509928  0.59593632  0.62361004  1
  Mo  Mo202  1  0.00207087  0.20119441  0.00689796  1
  Mo  Mo203  1  0.30422781  0.30046753  0.90609559  1
  Mo  Mo204  1  0.78595331  0.59914644  -0.00227568  1
  Mo  Mo205  1  0.90782446  0.89620288  0.29300245  1
  Mo  Mo206  1  0.20188339  0.79883562  0.79794804  1
  Mo  Mo207  1  0.89814000  0.11119438  0.90322931  1
  Mo  Mo208  1  0.69683357  0.69378367  0.70807817  1
  Mo  Mo209  1  0.10148527  0.10599576  0.29322693  1
  Mo  Mo210  1  0.59864264  0.81786129  0.20297584  1
  Mo  Mo211  1  0.59027731  0.40165522  0.80066414  1
  Mo  Mo212  1  0.21726625  0.40577476  0.80372675  1
  Mo  Mo213  1  0.70805909  0.29975379  0.48576084  1
  Mo  Mo214  1  0.49322918  0.29835732  0.09525911  1
  Mo  Mo215  1  0.30166316  0.49429810  0.90592181  1
  Mo  Mo216  1  0.49717856  0.10379418  0.90661342  1
  Mo  Mo217  1  0.49941805  0.09756553  0.09875165  1
  Mo  Mo218  1  0.69464044  0.91390682  0.49830471  1
  Mo  Mo219  1  0.40228137  -0.00530274  0.40214307  1
  Mo  Mo220  1  0.50327539  0.90602385  0.29973180  1
  Mo  Mo221  1  0.29694652  0.29626807  0.10044232  1
  Mo  Mo222  1  0.19488565  0.20465221  0.39907705  1
  Mo  Mo223  1  0.50495445  0.68772014  0.50327031  1
  Mo  Mo224  1  0.49450331  0.30211929  0.90303965  1
  Mo  Mo225  1  0.89509434  0.30242486  0.29652922  1
  Mo  Mo226  1  0.01363092  -0.00527144  0.61008715  1
  Mo  Mo227  1  0.70217434  0.49323875  0.50145022  1
  Mo  Mo228  1  0.79575091  0.80346116  0.20002790  1
  Mo  Mo229  1  0.29757902  0.49495028  0.29281117  1
  Mo  Mo230  1  0.40090186  0.59776005  0.39432428  1
  Mo  Mo231  1  0.20346671  0.79216146  0.00174663  1
  Mo  Mo232  1  0.00545325  0.19776754  0.19925342  1
  Mo  Mo233  1  0.09802965  0.49573357  0.50250305  1
  Mo  Mo234  1  0.19939222  -0.00071470  0.19431642  1
  Mo  Mo235  1  -0.00153104  0.20604529  0.39599440  1
  Mo  Mo236  1  0.59336985  0.39167008  -0.00308531  1
  Mo  Mo237  1  0.40460845  0.20597773  0.80765377  1
  Mo  Mo238  1  0.59570064  0.58072021  0.19119248  1
  Mo  Mo239  1  -0.00540319  0.20809555  0.79475985  1
  Mo  Mo240  1  0.68461200  0.29901196  0.90555190  1
  Mo  Mo241  1  0.01511237  0.60401838  0.19145324  1
  Mo  Mo242  1  0.30074769  0.49584285  0.70778826  1
  Mo  Mo243  1  0.59843510  0.80626897  -0.00369724  1
  Mo  Mo244  1  0.30410638  0.09896249  0.90559807  1
  Mo  Mo245  1  0.49788789  0.69757447  0.89889154  1
  Mo  Mo246  1  0.29500349  0.10283431  0.50839885  1
  Mo  Mo247  1  0.80187813  0.60235451  0.38271866  1
  Mo  Mo248  1  0.59742997  0.59596412  0.60102984  1
  Mo  Mo249  1  0.90437435  0.30965230  0.70060178  1
