# generated using pymatgen
data_HfZrTaTiMo
_symmetry_space_group_name_H-M   'P 1'
_cell_length_a   16.88198974
_cell_length_b   16.87580091
_cell_length_c   16.87805369
_cell_angle_alpha   89.99672668
_cell_angle_beta   89.99340807
_cell_angle_gamma   89.90157367
_symmetry_Int_Tables_number   1
_chemical_formula_structural   HfZrTaTiMo
_chemical_formula_sum   'Hf50 Zr50 Ta50 Ti50 Mo50'
_cell_volume   4808.50137845
_cell_formula_units_Z   50
loop_
 _symmetry_equiv_pos_site_id
 _symmetry_equiv_pos_as_xyz
  1  'x, y, z'
loop_
 _atom_site_type_symbol
 _atom_site_label
 _atom_site_symmetry_multiplicity
 _atom_site_fract_x
 _atom_site_fract_y
 _atom_site_fract_z
 _atom_site_occupancy
  Hf  Hf0  1  0.78220603  0.01278325  0.40100363  1
  Hf  Hf1  1  0.20494538  0.79878283  0.39462808  1
  Hf  Hf2  1  0.61278781  0.18742516  0.40177148  1
  Hf  Hf3  1  0.00814760  0.19132339  0.00234913  1
  Hf  Hf4  1  0.40703681  0.79186124  0.80243920  1
  Hf  Hf5  1  0.19307079  0.00788567  -0.00720381  1
  Hf  Hf6  1  0.50653012  0.09582120  0.50168204  1
  Hf  Hf7  1  0.29568310  0.69678599  0.90104616  1
  Hf  Hf8  1  0.89869142  0.70146989  0.90535059  1
  Hf  Hf9  1  0.20129530  0.58661100  0.40174796  1
  Hf  Hf10  1  0.09893168  0.89368775  0.28739825  1
  Hf  Hf11  1  0.29752586  0.89946652  0.29177356  1
  Hf  Hf12  1  0.89787254  0.90146408  0.49807986  1
  Hf  Hf13  1  0.00342556  0.39666403  0.20853825  1
  Hf  Hf14  1  0.09441716  0.69871681  0.49778801  1
  Hf  Hf15  1  0.60632286  0.39902642  0.20382797  1
  Hf  Hf16  1  0.90041071  0.50007618  0.70500891  1
  Hf  Hf17  1  0.09538108  0.49954318  0.70029573  1
  Hf  Hf18  1  0.70348352  0.30536147  0.90217247  1
  Hf  Hf19  1  0.10748049  0.29811403  0.90609543  1
  Hf  Hf20  1  0.89219555  0.29990977  0.10224381  1
  Hf  Hf21  1  0.20975688  0.18355554  0.80261493  1
  Hf  Hf22  1  0.78488200  0.00312118  0.19256484  1
  Hf  Hf23  1  0.00213106  0.20654741  0.59769611  1
  Hf  Hf24  1  0.80284024  0.39860898  0.39937194  1
  Hf  Hf25  1  0.69085635  0.70737604  0.50385958  1
  Hf  Hf26  1  0.58824406  0.40101846  -0.00656548  1
  Hf  Hf27  1  0.39196381  0.01901813  0.79566064  1
  Hf  Hf28  1  0.89935539  0.50738730  0.89999255  1
  Hf  Hf29  1  0.69976198  0.09743390  0.90016353  1
  Hf  Hf30  1  0.10295040  0.69864117  0.28919302  1
  Hf  Hf31  1  0.29677867  0.10219802  0.49349199  1
  Hf  Hf32  1  0.40432034  0.79892115  0.60015213  1
  Hf  Hf33  1  0.59415852  0.60155042  -0.01035287  1
  Hf  Hf34  1  0.40161701  0.79581459  0.19820142  1
  Hf  Hf35  1  0.79171639  0.80320133  0.18868938  1
  Hf  Hf36  1  0.19753616  0.80481300  0.60417910  1
  Hf  Hf37  1  0.49813789  0.90565631  0.89842251  1
  Hf  Hf38  1  0.20281613  0.00877086  0.61455425  1
  Hf  Hf39  1  0.29847467  0.69538304  0.70797171  1
  Hf  Hf40  1  0.30255662  0.70276365  0.49662804  1
  Hf  Hf41  1  0.30521546  0.49574175  0.70503197  1
  Hf  Hf42  1  0.89727457  0.09920033  0.10257079  1
  Hf  Hf43  1  0.40166135  0.19851013  0.60782279  1
  Hf  Hf44  1  0.70243241  0.49811450  0.09648016  1
  Hf  Hf45  1  0.90686410  0.69871813  0.29133197  1
  Hf  Hf46  1  0.71029733  0.49394655  0.89519193  1
  Hf  Hf47  1  0.50409456  0.90064180  0.69780882  1
  Hf  Hf48  1  0.10066277  0.90408330  0.49488962  1
  Hf  Hf49  1  0.40298898  0.79361205  0.00261362  1
  Zr  Zr50  1  0.39412507  0.39207063  0.20054877  1
  Zr  Zr51  1  0.90078698  0.90285175  0.29086994  1
  Zr  Zr52  1  0.60981547  0.18940205  0.19737583  1
  Zr  Zr53  1  0.39894002  0.59781206  0.00373716  1
  Zr  Zr54  1  0.68137073  0.90463972  0.30669902  1
  Zr  Zr55  1  0.50358559  0.49788186  0.29979420  1
  Zr  Zr56  1  -0.00636735  0.81276263  0.79579383  1
  Zr  Zr57  1  0.59487896  0.20383681  0.79431900  1
  Zr  Zr58  1  0.89195141  0.30863135  0.90394456  1
  Zr  Zr59  1  0.00374581  -0.00275936  0.61320431  1
  Zr  Zr60  1  0.08890563  0.70156830  0.90988551  1
  Zr  Zr61  1  0.59543401  0.79855515  0.19670715  1
  Zr  Zr62  1  0.59666467  0.79352428  0.00183008  1
  Zr  Zr63  1  0.69493810  0.89533156  0.69646363  1
  Zr  Zr64  1  0.70448672  0.89029665  0.89959643  1
  Zr  Zr65  1  0.49635561  0.49767623  0.70388634  1
  Zr  Zr66  1  0.90127676  0.09760044  0.50055887  1
  Zr  Zr67  1  0.10579951  0.30166734  0.69715522  1
  Zr  Zr68  1  0.09472370  0.88859649  0.09725023  1
  Zr  Zr69  1  0.20026579  0.58945430  0.59386602  1
  Zr  Zr70  1  0.89446936  0.50551554  0.09607024  1
  Zr  Zr71  1  0.19676484  0.59258139  0.01403436  1
  Zr  Zr72  1  0.79588941  0.79738698  0.39751094  1
  Zr  Zr73  1  0.30606001  0.30412908  0.70344693  1
  Zr  Zr74  1  0.60297176  0.00365553  0.00687418  1
  Zr  Zr75  1  0.39888416  0.00274813  0.60373541  1
  Zr  Zr76  1  0.01070712  0.40757707  0.00686823  1
  Zr  Zr77  1  0.40657160  0.59896735  0.59779032  1
  Zr  Zr78  1  0.20061225  0.40149660  0.81185409  1
  Zr  Zr79  1  0.40275876  0.20486659  0.40067334  1
  Zr  Zr80  1  0.90086414  0.50662652  0.30038395  1
  Zr  Zr81  1  0.80052057  0.19796418  0.79778245  1
  Zr  Zr82  1  0.10523237  0.10558309  0.49387360  1
  Zr  Zr83  1  0.80614127  0.79732719  0.60879303  1
  Zr  Zr84  1  -0.00189991  0.22067154  0.39767414  1
  Zr  Zr85  1  0.00484087  0.19127007  0.80183773  1
  Zr  Zr86  1  0.79516570  0.20435995  0.59839670  1
  Zr  Zr87  1  0.29836002  0.90307490  0.09799413  1
  Zr  Zr88  1  0.09509556  0.69309265  0.70718589  1
  Zr  Zr89  1  0.79656415  0.60087568  0.60292863  1
  Zr  Zr90  1  0.40274754  0.60138109  0.39855128  1
  Zr  Zr91  1  -0.00066647  0.39752827  0.58153829  1
  Zr  Zr92  1  0.69353115  0.50217766  0.49608042  1
  Zr  Zr93  1  0.19987539  0.20183130  0.20109178  1
  Zr  Zr94  1  0.00474203  0.20367181  0.20602848  1
  Zr  Zr95  1  0.30073609  0.09994297  0.29976079  1
  Zr  Zr96  1  0.39058019  0.39759507  0.40629828  1
  Zr  Zr97  1  0.79991850  0.20358079  0.39739360  1
  Zr  Zr98  1  0.81013344  -0.00630392  0.79556586  1
  Zr  Zr99  1  0.49609739  0.29000702  0.09718774  1
  Ta  Ta100  1  -0.00359010  0.80070833  0.60096239  1
  Ta  Ta101  1  0.30700842  0.49812201  0.90116355  1
  Ta  Ta102  1  0.60072056  0.60226923  0.39431108  1
  Ta  Ta103  1  0.59706150  0.78389416  0.79509859  1
  Ta  Ta104  1  0.01330184  0.59330807  0.18784671  1
  Ta  Ta105  1  0.40638573  0.80212615  0.39305244  1
  Ta  Ta106  1  0.78986031  0.60659548  0.79208325  1
  Ta  Ta107  1  0.79614555  0.39579947  0.20818157  1
  Ta  Ta108  1  0.69357118  0.30516271  0.50185192  1
  Ta  Ta109  1  0.89487228  0.10434586  0.29303640  1
  Ta  Ta110  1  0.30802262  0.10346932  0.09859319  1
  Ta  Ta111  1  0.50936992  0.49580315  0.49974035  1
  Ta  Ta112  1  0.49562104  0.90983363  0.10248252  1
  Ta  Ta113  1  0.19257334  0.00979544  0.19164760  1
  Ta  Ta114  1  0.11142776  0.30357637  0.10301451  1
  Ta  Ta115  1  0.40734018  -0.00814587  0.39508520  1
  Ta  Ta116  1  0.90751911  0.70208999  0.09504169  1
  Ta  Ta117  1  0.20460967  0.40229167  0.57686781  1
  Ta  Ta118  1  0.00011319  0.00455721  0.38675577  1
  Ta  Ta119  1  0.90313550  0.09891745  0.70033160  1
  Ta  Ta120  1  0.49872176  0.30496122  0.70140385  1
  Ta  Ta121  1  0.51129186  0.29811879  0.30693252  1
  Ta  Ta122  1  0.90552126  0.69492602  0.49349102  1
  Ta  Ta123  1  0.90149263  0.89501309  0.91180047  1
  Ta  Ta124  1  0.40061686  0.40094872  0.00149844  1
  Ta  Ta125  1  0.29748023  0.90156672  0.89606079  1
  Ta  Ta126  1  0.79733112  0.40207420  0.59963917  1
  Ta  Ta127  1  0.29754715  0.69112389  0.28574136  1
  Ta  Ta128  1  0.20524649  0.19428282  0.00102074  1
  Ta  Ta129  1  0.59749573  0.60222898  0.80010905  1
  Ta  Ta130  1  0.68450321  0.90241538  0.50434898  1
  Ta  Ta131  1  0.89846072  0.30712053  0.70202653  1
  Ta  Ta132  1  0.50626150  0.89877515  0.49662752  1
  Ta  Ta133  1  0.19838558  0.59395429  0.80871651  1
  Ta  Ta134  1  0.79258841  0.19135581  0.00664041  1
  Ta  Ta135  1  0.59283410  0.00991754  0.79731294  1
  Ta  Ta136  1  -0.00100471  0.80097826  0.39839487  1
  Ta  Ta137  1  0.49074950  0.09990636  0.09781672  1
  Ta  Ta138  1  0.00639766  0.00848510  0.19426777  1
  Ta  Ta139  1  0.60129471  0.39990734  0.60532163  1
  Ta  Ta140  1  0.31160150  0.29259693  0.90750223  1
  Ta  Ta141  1  0.21156747  0.40200182  0.00834072  1
  Ta  Ta142  1  0.00293590  -0.00041775  -0.00407861  1
  Ta  Ta143  1  0.49144720  0.11293493  0.90480806  1
  Ta  Ta144  1  0.29677361  0.89845889  0.71009153  1
  Ta  Ta145  1  0.29432554  0.50052766  0.28929662  1
  Ta  Ta146  1  0.49680529  0.50284995  0.10601520  1
  Ta  Ta147  1  0.79893072  -0.00738457  0.00766936  1
  Ta  Ta148  1  0.00001686  0.40007738  0.80430812  1
  Ta  Ta149  1  0.30346607  0.90338353  0.49623537  1
  Ti  Ti150  1  0.79375657  0.60101104  0.20199037  1
  Ti  Ti151  1  0.69964454  0.09754340  0.69773295  1
  Ti  Ti152  1  0.10282108  0.90254552  0.70802352  1
  Ti  Ti153  1  0.59661832  0.40348028  0.80110711  1
  Ti  Ti154  1  0.90868334  0.69098740  0.70241692  1
  Ti  Ti155  1  0.60069919  0.60453737  0.61259986  1
  Ti  Ti156  1  0.79748474  0.00004165  0.60210933  1
  Ti  Ti157  1  0.40255702  0.19991391  0.20796595  1
  Ti  Ti158  1  0.19662853  0.00497993  0.80316624  1
  Ti  Ti159  1  0.60140433  0.20307340  0.60650367  1
  Ti  Ti160  1  0.19470723  0.80669136  0.80807212  1
  Ti  Ti161  1  0.30057954  0.29543044  0.09789860  1
  Ti  Ti162  1  0.50790162  0.70171360  0.50206322  1
  Ti  Ti163  1  0.80255475  0.79476709  0.79281581  1
  Ti  Ti164  1  0.90542854  0.89275605  0.09562368  1
  Ti  Ti165  1  0.00759217  0.59263323  0.39666893  1
  Ti  Ti166  1  0.58700705  0.79777423  0.39411897  1
  Ti  Ti167  1  0.60129033  0.00741924  0.60359582  1
  Ti  Ti168  1  0.70428187  0.29830433  0.09749691  1
  Ti  Ti169  1  0.49795600  0.69193303  0.29407048  1
  Ti  Ti170  1  0.20267961  0.20308464  0.59992890  1
  Ti  Ti171  1  0.19942333  -0.00091438  0.39197964  1
  Ti  Ti172  1  0.09804862  0.70416341  0.10237730  1
  Ti  Ti173  1  0.39933187  0.39641423  0.58964771  1
  Ti  Ti174  1  0.28437130  0.30471388  0.30723245  1
  Ti  Ti175  1  0.69555805  0.69838837  0.29981644  1
  Ti  Ti176  1  0.59926205  0.19946749  -0.00085951  1
  Ti  Ti177  1  0.09525197  0.50677050  0.90397057  1
  Ti  Ti178  1  0.70014516  0.29876051  0.30168776  1
  Ti  Ti179  1  0.49688314  0.68665575  0.10948232  1
  Ti  Ti180  1  0.50628613  0.09281910  0.30065644  1
  Ti  Ti181  1  0.41162569  0.39611007  0.81777215  1
  Ti  Ti182  1  0.89985543  0.50530433  0.49393371  1
  Ti  Ti183  1  0.79522518  0.60715551  -0.00059009  1
  Ti  Ti184  1  0.00857774  0.00175615  0.80781535  1
  Ti  Ti185  1  0.89883363  0.09307185  0.90482202  1
  Ti  Ti186  1  0.10217151  0.10436433  0.30428905  1
  Ti  Ti187  1  0.70370525  0.69837720  0.09453895  1
  Ti  Ti188  1  0.20166502  0.80129029  -0.00097910  1
  Ti  Ti189  1  0.40523567  0.00198632  0.20262299  1
  Ti  Ti190  1  0.70470951  0.70254510  0.89748014  1
  Ti  Ti191  1  0.70215435  0.31437663  0.70377559  1
  Ti  Ti192  1  0.60785497  0.59838395  0.20293560  1
  Ti  Ti193  1  0.59806642  0.00136806  0.19663660  1
  Ti  Ti194  1  0.11161425  0.49238889  0.29356635  1
  Ti  Ti195  1  -0.00107270  0.59681165  0.59203174  1
  Ti  Ti196  1  0.39447178  0.00577302  -0.00564661  1
  Ti  Ti197  1  0.51210869  0.30427973  0.50015494  1
  Ti  Ti198  1  0.00642387  0.39794923  0.39960300  1
  Ti  Ti199  1  0.79361680  0.60199482  0.39492260  1
  Mo  Mo200  1  0.69602817  0.69758436  0.70355205  1
  Mo  Mo201  1  0.09933297  0.09536392  0.90143526  1
  Mo  Mo202  1  0.69785523  0.10106467  0.09462591  1
  Mo  Mo203  1  0.60209869  0.39485324  0.40185832  1
  Mo  Mo204  1  0.49890449  0.29909148  0.89765655  1
  Mo  Mo205  1  0.19897786  0.21075063  0.39929198  1
  Mo  Mo206  1  0.30313594  0.09888598  0.90572374  1
  Mo  Mo207  1  0.79993220  0.79846472  0.00583262  1
  Mo  Mo208  1  0.29054711  0.70033481  0.10443749  1
  Mo  Mo209  1  0.69558684  0.09828813  0.51989462  1
  Mo  Mo210  1  -0.00271553  0.80384164  0.00226768  1
  Mo  Mo211  1  0.19760869  0.40080443  0.39640066  1
  Mo  Mo212  1  0.49492117  0.90475791  0.29784327  1
  Mo  Mo213  1  0.10730539  0.49521064  0.10793314  1
  Mo  Mo214  1  0.20338194  0.39949760  0.19707787  1
  Mo  Mo215  1  0.69973124  0.09957352  0.29019481  1
  Mo  Mo216  1  0.59478479  0.00159096  0.40397482  1
  Mo  Mo217  1  0.49794225  0.49833639  0.89788685  1
  Mo  Mo218  1  0.90173595  0.90359966  0.70178166  1
  Mo  Mo219  1  0.50390226  0.69510509  0.69846292  1
  Mo  Mo220  1  0.09237866  0.49864949  0.48909495  1
  Mo  Mo221  1  0.70280702  0.50957009  0.29661099  1
  Mo  Mo222  1  0.79645321  0.20290114  0.20134996  1
  Mo  Mo223  1  0.30921737  0.49595105  0.49663662  1
  Mo  Mo224  1  0.39754699  0.59858738  0.19663325  1
  Mo  Mo225  1  0.89005652  0.31119670  0.50172134  1
  Mo  Mo226  1  -0.00390089  0.79261151  0.19718662  1
  Mo  Mo227  1  0.40335664  0.20585475  0.80413115  1
  Mo  Mo228  1  0.00228176  0.60362211  0.00637610  1
  Mo  Mo229  1  0.69523817  0.49824206  0.70307641  1
  Mo  Mo230  1  0.10218547  0.90162602  0.89801879  1
  Mo  Mo231  1  0.79205371  0.39440104  0.01002759  1
  Mo  Mo232  1  0.89338187  0.30321502  0.29916942  1
  Mo  Mo233  1  0.09843252  0.09944383  0.70551412  1
  Mo  Mo234  1  0.20035518  0.59463811  0.19635898  1
  Mo  Mo235  1  0.79917538  0.40458362  0.78888428  1
  Mo  Mo236  1  0.50621946  0.10722392  0.70100163  1
  Mo  Mo237  1  0.39731546  0.19942070  0.00107650  1
  Mo  Mo238  1  0.40066464  0.59773959  0.80778746  1
  Mo  Mo239  1  0.49918347  0.69219731  0.89427146  1
  Mo  Mo240  1  0.29611733  0.29749978  0.50247998  1
  Mo  Mo241  1  0.30289518  0.49579746  0.10329528  1
  Mo  Mo242  1  0.20459913  0.79123200  0.19298677  1
  Mo  Mo243  1  0.11026184  0.30994197  0.30159893  1
  Mo  Mo244  1  0.11377340  0.30278189  0.49105013  1
  Mo  Mo245  1  0.59432070  0.79597165  0.59765701  1
  Mo  Mo246  1  -0.00214842  0.59477118  0.80531382  1
  Mo  Mo247  1  0.10066009  0.10187388  0.09966639  1
  Mo  Mo248  1  0.69199049  0.89921717  0.09778374  1
  Mo  Mo249  1  0.29615353  0.10177060  0.69999590  1
