# generated using pymatgen
data_HfZrTaTiMo
_symmetry_space_group_name_H-M   'P 1'
_cell_length_a   16.88855950
_cell_length_b   16.88473974
_cell_length_c   16.88432060
_cell_angle_alpha   90.05742348
_cell_angle_beta   89.97423539
_cell_angle_gamma   89.97818515
_symmetry_Int_Tables_number   1
_chemical_formula_structural   HfZrTaTiMo
_chemical_formula_sum   'Hf50 Zr50 Ta50 Ti50 Mo50'
_cell_volume   4814.71157052
_cell_formula_units_Z   50
loop_
 _symmetry_equiv_pos_site_id
 _symmetry_equiv_pos_as_xyz
  1  'x, y, z'
loop_
 _atom_site_type_symbol
 _atom_site_label
 _atom_site_symmetry_multiplicity
 _atom_site_fract_x
 _atom_site_fract_y
 _atom_site_fract_z
 _atom_site_occupancy
  Hf  Hf0  1  0.39650018  -0.00454873  0.39704995  1
  Hf  Hf1  1  0.19775351  -0.01660919  0.41349373  1
  Hf  Hf2  1  0.69353254  0.51240458  0.50138256  1
  Hf  Hf3  1  0.09187478  0.89327707  0.89619298  1
  Hf  Hf4  1  -0.00345727  0.00499952  0.00681172  1
  Hf  Hf5  1  0.49758628  0.09864026  0.50201303  1
  Hf  Hf6  1  0.79292315  0.39864410  0.38847561  1
  Hf  Hf7  1  -0.00497409  0.19884853  0.19911148  1
  Hf  Hf8  1  0.60973056  0.60747999  -0.00717509  1
  Hf  Hf9  1  0.40299461  0.60453728  -0.00700191  1
  Hf  Hf10  1  0.39899869  0.00738441  0.81460247  1
  Hf  Hf11  1  0.61106303  0.38425650  -0.01003429  1
  Hf  Hf12  1  0.10035479  0.89083499  0.70431876  1
  Hf  Hf13  1  0.89423422  0.88764814  0.09999852  1
  Hf  Hf14  1  0.50096587  0.09950218  0.70162575  1
  Hf  Hf15  1  0.09994758  0.70315706  0.68984894  1
  Hf  Hf16  1  0.10409733  0.47777814  0.88697044  1
  Hf  Hf17  1  0.20437218  -0.00070256  0.00170043  1
  Hf  Hf18  1  0.20543692  0.20184109  0.81320476  1
  Hf  Hf19  1  0.09753953  0.32164494  0.72126894  1
  Hf  Hf20  1  0.10413128  0.29481283  0.09833025  1
  Hf  Hf21  1  0.20355140  0.79887296  -0.00589622  1
  Hf  Hf22  1  0.90015263  0.49602292  0.29509367  1
  Hf  Hf23  1  0.60935088  -0.00675262  0.40325399  1
  Hf  Hf24  1  0.79137278  0.39717939  0.80403495  1
  Hf  Hf25  1  0.40577973  0.41016165  0.39518850  1
  Hf  Hf26  1  0.20548777  -0.00102527  0.80650580  1
  Hf  Hf27  1  0.09036809  0.70286760  0.08905930  1
  Hf  Hf28  1  0.90024979  0.09977239  0.70495283  1
  Hf  Hf29  1  0.20146036  0.42124850  0.61120573  1
  Hf  Hf30  1  0.60196629  0.20054620  0.59837183  1
  Hf  Hf31  1  0.30352007  0.30480367  0.70640773  1
  Hf  Hf32  1  0.20723737  0.80459640  0.57424768  1
  Hf  Hf33  1  0.79846803  0.40677386  0.60906230  1
  Hf  Hf34  1  0.50835457  0.50058662  0.09596968  1
  Hf  Hf35  1  0.90014843  0.49233208  0.90216134  1
  Hf  Hf36  1  0.89762632  0.89592246  0.50113168  1
  Hf  Hf37  1  0.29974797  0.30531010  0.50066378  1
  Hf  Hf38  1  0.89990739  0.50712366  0.50619296  1
  Hf  Hf39  1  0.79882954  0.20619011  0.00637716  1
  Hf  Hf40  1  0.60414660  -0.00771067  0.19785939  1
  Hf  Hf41  1  0.49956872  0.30262892  0.70757029  1
  Hf  Hf42  1  0.70126968  0.09695709  0.91168522  1
  Hf  Hf43  1  0.40374227  0.39345262  -0.00534274  1
  Hf  Hf44  1  0.09151487  0.30864792  0.50752706  1
  Hf  Hf45  1  0.40180713  0.79730270  0.19918080  1
  Hf  Hf46  1  0.19425360  0.79960786  0.19457937  1
  Hf  Hf47  1  0.18957695  0.41369123  0.39936523  1
  Hf  Hf48  1  0.50910779  0.10454941  0.09575348  1
  Hf  Hf49  1  -0.00168198  0.58980419  0.78860158  1
  Zr  Zr50  1  0.68750479  0.70326654  0.29545885  1
  Zr  Zr51  1  0.59750486  0.40178567  0.60231721  1
  Zr  Zr52  1  0.20328923  0.59063837  0.78663469  1
  Zr  Zr53  1  0.29073331  0.51562662  0.29002642  1
  Zr  Zr54  1  0.19879840  0.19602277  0.40198643  1
  Zr  Zr55  1  0.40134365  0.41269724  0.60058791  1
  Zr  Zr56  1  0.30597314  0.70765920  0.69942896  1
  Zr  Zr57  1  0.19514357  0.20295832  0.60648119  1
  Zr  Zr58  1  0.00300093  0.38733091  0.00102060  1
  Zr  Zr59  1  0.69764720  0.90028254  0.90919393  1
  Zr  Zr60  1  -0.00362362  -0.00636447  0.20079503  1
  Zr  Zr61  1  0.39907476  0.19674550  -0.00725986  1
  Zr  Zr62  1  -0.02498264  0.79807890  0.78419602  1
  Zr  Zr63  1  0.39423889  0.19699795  0.38910478  1
  Zr  Zr64  1  0.79927873  0.60085308  0.19323269  1
  Zr  Zr65  1  0.68617528  0.89874043  0.70553632  1
  Zr  Zr66  1  0.61131438  0.20500729  0.39455495  1
  Zr  Zr67  1  0.80247091  0.80663946  0.61283445  1
  Zr  Zr68  1  -0.00249518  -0.00869455  0.60576912  1
  Zr  Zr69  1  0.62418544  0.40059478  0.19771121  1
  Zr  Zr70  1  0.89676987  0.11099018  0.50263435  1
  Zr  Zr71  1  0.10602220  0.50418052  0.09162385  1
  Zr  Zr72  1  0.29764740  0.31016448  0.29556282  1
  Zr  Zr73  1  0.29195007  0.68597764  0.10193921  1
  Zr  Zr74  1  0.50967297  0.10371474  0.29251232  1
  Zr  Zr75  1  0.70833988  0.29926831  0.50052030  1
  Zr  Zr76  1  0.20763107  0.19149494  0.20291774  1
  Zr  Zr77  1  0.50821112  0.50261119  0.88721860  1
  Zr  Zr78  1  0.79875828  0.60316098  0.38851498  1
  Zr  Zr79  1  0.10375633  0.09166207  0.30045948  1
  Zr  Zr80  1  0.50125114  0.89925695  0.90701398  1
  Zr  Zr81  1  0.89923628  0.90515041  0.90407091  1
  Zr  Zr82  1  0.40149097  0.61004174  0.39950978  1
  Zr  Zr83  1  0.80281966  -0.00500575  0.79517425  1
  Zr  Zr84  1  -0.00071283  0.60171915  0.19921078  1
  Zr  Zr85  1  0.40642032  0.40544997  0.19681018  1
  Zr  Zr86  1  0.79893143  0.60721108  0.80711461  1
  Zr  Zr87  1  0.90965673  0.69672614  0.50384786  1
  Zr  Zr88  1  0.00314360  0.20286527  0.81505170  1
  Zr  Zr89  1  0.30822672  0.10080215  0.69757191  1
  Zr  Zr90  1  0.49273316  0.89587830  0.69994794  1
  Zr  Zr91  1  0.80293426  0.80250877  0.38986254  1
  Zr  Zr92  1  -0.00488632  -0.00321881  0.39980049  1
  Zr  Zr93  1  0.79893821  0.78513178  -0.00223315  1
  Zr  Zr94  1  0.39392424  0.00034550  0.19999216  1
  Zr  Zr95  1  0.59824267  0.20893058  0.82256500  1
  Zr  Zr96  1  0.90171648  0.29949600  0.70090564  1
  Zr  Zr97  1  0.20217308  -0.00831031  0.59857298  1
  Zr  Zr98  1  0.39733005  0.79999450  0.40467227  1
  Zr  Zr99  1  0.69627630  0.70005031  0.50767103  1
  Ta  Ta100  1  0.10351525  0.69842257  0.30043741  1
  Ta  Ta101  1  0.59562382  0.80547591  0.40596636  1
  Ta  Ta102  1  -0.00314276  0.20626144  0.39838651  1
  Ta  Ta103  1  0.59817886  0.78329644  0.80974150  1
  Ta  Ta104  1  0.40078020  0.40381239  0.80342150  1
  Ta  Ta105  1  0.50024254  0.30481081  0.49106523  1
  Ta  Ta106  1  0.09524783  0.30379735  0.29973951  1
  Ta  Ta107  1  0.30344897  0.09524564  0.50490751  1
  Ta  Ta108  1  -0.00206374  0.40153672  0.39789491  1
  Ta  Ta109  1  0.09098111  0.51147704  0.50207318  1
  Ta  Ta110  1  0.40009435  0.79424436  0.00085385  1
  Ta  Ta111  1  0.69837203  0.70535241  0.10234109  1
  Ta  Ta112  1  0.60453592  0.40414479  0.39114334  1
  Ta  Ta113  1  0.40764454  0.60344228  0.19840162  1
  Ta  Ta114  1  0.09622497  0.09868567  0.90613348  1
  Ta  Ta115  1  0.29982812  0.49807434  0.89812466  1
  Ta  Ta116  1  0.68932297  0.51009401  0.70535172  1
  Ta  Ta117  1  0.29430166  0.49882785  0.09321576  1
  Ta  Ta118  1  0.51048385  0.29150094  0.10204798  1
  Ta  Ta119  1  0.00281618  0.40022244  0.20267058  1
  Ta  Ta120  1  0.90378791  0.30453393  0.50208453  1
  Ta  Ta121  1  0.79645059  -0.00218255  0.39730749  1
  Ta  Ta122  1  0.09787167  0.70442327  0.89069701  1
  Ta  Ta123  1  0.28678145  0.89697338  0.29792674  1
  Ta  Ta124  1  0.20169148  0.20012956  -0.00430840  1
  Ta  Ta125  1  0.28902172  0.70326259  0.30034991  1
  Ta  Ta126  1  0.70246392  0.10314178  0.10727223  1
  Ta  Ta127  1  0.09530355  0.09486089  0.70966492  1
  Ta  Ta128  1  0.79055386  -0.00047535  0.59738403  1
  Ta  Ta129  1  0.89763698  0.49385979  0.09706224  1
  Ta  Ta130  1  0.20251946  0.60328697  0.59166540  1
  Ta  Ta131  1  0.09943598  0.88931585  0.30041686  1
  Ta  Ta132  1  0.69769076  0.10232158  0.70206080  1
  Ta  Ta133  1  0.50691238  0.70112697  0.10124513  1
  Ta  Ta134  1  0.39865196  0.20190299  0.19634520  1
  Ta  Ta135  1  0.70381886  0.89633223  0.29440613  1
  Ta  Ta136  1  0.09581450  0.10299022  0.50578525  1
  Ta  Ta137  1  0.40297714  0.20437327  0.59402647  1
  Ta  Ta138  1  0.79892569  0.59783443  0.00241624  1
  Ta  Ta139  1  0.29649445  0.30545032  0.09784128  1
  Ta  Ta140  1  0.89975274  0.29881927  0.90623279  1
  Ta  Ta141  1  0.51390158  0.51019972  0.29972373  1
  Ta  Ta142  1  0.50782294  0.51001142  0.49583365  1
  Ta  Ta143  1  0.71033940  0.10174878  0.29128604  1
  Ta  Ta144  1  0.50906252  0.30185650  0.29259698  1
  Ta  Ta145  1  0.89116832  0.10182665  0.29875526  1
  Ta  Ta146  1  0.79375916  0.79163025  0.80038655  1
  Ta  Ta147  1  0.69033438  0.69308741  0.69853077  1
  Ta  Ta148  1  0.60540763  -0.00060281  0.59653059  1
  Ta  Ta149  1  0.19071400  0.40724895  0.19829875  1
  Ti  Ti150  1  0.39600976  0.00046540  -0.00165907  1
  Ti  Ti151  1  0.09281064  0.89447212  0.09841709  1
  Ti  Ti152  1  0.89599686  0.68392420  0.68378094  1
  Ti  Ti153  1  0.89771033  0.29963967  0.29591428  1
  Ti  Ti154  1  0.69443552  0.29855037  0.70849134  1
  Ti  Ti155  1  0.79147503  0.40007883  0.00959245  1
  Ti  Ti156  1  0.59768817  0.79406053  -0.00041828  1
  Ti  Ti157  1  0.49774329  0.90567242  0.50918423  1
  Ti  Ti158  1  0.30049042  0.89927822  0.10041883  1
  Ti  Ti159  1  0.79650965  0.20036158  0.60686900  1
  Ti  Ti160  1  -0.00324004  0.41881322  0.61469569  1
  Ti  Ti161  1  0.49832290  0.89603046  0.09403079  1
  Ti  Ti162  1  0.69685336  0.50031151  0.89521805  1
  Ti  Ti163  1  0.91023862  0.69961242  0.90729109  1
  Ti  Ti164  1  0.60782111  0.59496828  0.19463616  1
  Ti  Ti165  1  0.09460094  0.70301017  0.49470736  1
  Ti  Ti166  1  0.40050227  0.20154243  0.81754155  1
  Ti  Ti167  1  0.89965130  0.10009419  0.90744891  1
  Ti  Ti168  1  0.50351711  0.51151212  0.70328648  1
  Ti  Ti169  1  -0.01246090  0.79299234  0.20468357  1
  Ti  Ti170  1  0.30276611  0.88985276  0.89667533  1
  Ti  Ti171  1  0.00416033  0.20111936  0.60504375  1
  Ti  Ti172  1  0.19550270  0.60758239  0.40375791  1
  Ti  Ti173  1  0.39842229  0.60322854  0.59991443  1
  Ti  Ti174  1  0.50397765  0.89491886  0.29969792  1
  Ti  Ti175  1  0.39994204  0.79738809  0.58947467  1
  Ti  Ti176  1  0.80399697  0.20357460  0.39413495  1
  Ti  Ti177  1  0.00374508  0.59987221  0.39162023  1
  Ti  Ti178  1  0.70692807  0.10045532  0.49943606  1
  Ti  Ti179  1  0.59919088  0.80491412  0.19415250  1
  Ti  Ti180  1  -0.00165406  0.79784851  0.39063808  1
  Ti  Ti181  1  0.10234657  0.10037959  0.09882886  1
  Ti  Ti182  1  0.29928017  0.69720326  0.89072763  1
  Ti  Ti183  1  0.70696753  0.89811607  0.09974498  1
  Ti  Ti184  1  0.79589867  0.20119317  0.80750570  1
  Ti  Ti185  1  0.50185055  0.69268015  0.70238672  1
  Ti  Ti186  1  0.60108357  0.00043609  0.00568832  1
  Ti  Ti187  1  0.30063304  0.51119650  0.49771329  1
  Ti  Ti188  1  0.59556130  0.00513201  0.80663030  1
  Ti  Ti189  1  0.80241244  -0.00769836  0.20341136  1
  Ti  Ti190  1  0.50736706  0.69852798  0.29613946  1
  Ti  Ti191  1  0.88815768  0.10013240  0.10497976  1
  Ti  Ti192  1  0.29796704  0.09779830  0.10209822  1
  Ti  Ti193  1  0.89492273  0.30404056  0.10641232  1
  Ti  Ti194  1  0.59634678  0.80265153  0.59813711  1
  Ti  Ti195  1  0.40719747  0.79021627  0.81038218  1
  Ti  Ti196  1  0.50733169  0.69394572  0.50651401  1
  Ti  Ti197  1  0.19748949  0.59858637  -0.01583244  1
  Ti  Ti198  1  -0.00299742  0.59880311  -0.00525161  1
  Ti  Ti199  1  0.30795662  0.89472565  0.70011756  1
  Mo  Mo200  1  0.90896605  0.70203437  0.29627099  1
  Mo  Mo201  1  0.00105830  0.79617495  0.59458359  1
  Mo  Mo202  1  0.09555038  0.50305004  0.30594994  1
  Mo  Mo203  1  0.00141612  0.00590716  0.80437330  1
  Mo  Mo204  1  0.29751513  0.09782602  0.90872585  1
  Mo  Mo205  1  0.59520097  0.60618463  0.39856638  1
  Mo  Mo206  1  0.09748917  0.50355085  0.69521759  1
  Mo  Mo207  1  0.60881527  0.20341439  0.19827973  1
  Mo  Mo208  1  0.21825815  0.39985685  0.80351088  1
  Mo  Mo209  1  0.70671412  0.50230431  0.09227589  1
  Mo  Mo210  1  0.49728552  0.70238678  0.90204975  1
  Mo  Mo211  1  0.59829147  0.60425783  0.79760326  1
  Mo  Mo212  1  0.70486530  0.29430301  0.10195661  1
  Mo  Mo213  1  0.08297867  0.88430609  0.49461441  1
  Mo  Mo214  1  0.80042215  0.00789525  0.01476860  1
  Mo  Mo215  1  0.89253527  0.50439984  0.69929884  1
  Mo  Mo216  1  0.00097627  0.79333464  -0.00274388  1
  Mo  Mo217  1  0.58979714  0.60448583  0.60340429  1
  Mo  Mo218  1  0.80769485  0.39773522  0.19326989  1
  Mo  Mo219  1  0.29910781  0.30566337  0.90228454  1
  Mo  Mo220  1  0.89996046  0.69390171  0.09496165  1
  Mo  Mo221  1  0.20745914  0.39413413  -0.00133451  1
  Mo  Mo222  1  0.69830377  0.50209315  0.29753574  1
  Mo  Mo223  1  0.29669925  0.08384992  0.29633473  1
  Mo  Mo224  1  0.69777134  0.69965758  0.89903611  1
  Mo  Mo225  1  0.89708023  0.89801648  0.29699771  1
  Mo  Mo226  1  0.49525444  0.30132294  0.89993150  1
  Mo  Mo227  1  0.70905978  0.29438735  0.29438523  1
  Mo  Mo228  1  0.31777014  0.89854870  0.50062947  1
  Mo  Mo229  1  0.60083357  0.40298482  0.79819272  1
  Mo  Mo230  1  0.19799209  -0.01050836  0.19280988  1
  Mo  Mo231  1  0.60416416  0.20099776  0.00692175  1
  Mo  Mo232  1  0.40390731  -0.00152244  0.59940720  1
  Mo  Mo233  1  0.00777694  0.59985999  0.59899119  1
  Mo  Mo234  1  -0.01624026  0.39914528  0.80155668  1
  Mo  Mo235  1  0.19538143  0.79601400  0.39525797  1
  Mo  Mo236  1  0.21078872  0.80007968  0.80526178  1
  Mo  Mo237  1  0.40130703  0.59984762  0.79719907  1
  Mo  Mo238  1  0.79341706  0.59780139  0.60900987  1
  Mo  Mo239  1  0.79855725  0.79782439  0.19611663  1
  Mo  Mo240  1  0.31424073  0.50899211  0.70268759  1
  Mo  Mo241  1  0.89462014  0.90530345  0.69797015  1
  Mo  Mo242  1  0.50301189  0.09662742  0.90817098  1
  Mo  Mo243  1  0.19552633  0.60187881  0.20046533  1
  Mo  Mo244  1  0.71154946  0.29800474  0.90286251  1
  Mo  Mo245  1  0.80220557  0.20446377  0.20220024  1
  Mo  Mo246  1  0.30017471  0.69407727  0.49796531  1
  Mo  Mo247  1  0.69643805  0.90059148  0.49821163  1
  Mo  Mo248  1  -0.00494748  0.19373652  0.00690445  1
  Mo  Mo249  1  0.10239553  0.29418127  0.90674598  1
