# generated using pymatgen
data_HfZrTaTiMo
_symmetry_space_group_name_H-M   'P 1'
_cell_length_a   16.89337998
_cell_length_b   16.88844764
_cell_length_c   16.89052941
_cell_angle_alpha   89.99088049
_cell_angle_beta   90.00854553
_cell_angle_gamma   90.03092817
_symmetry_Int_Tables_number   1
_chemical_formula_structural   HfZrTaTiMo
_chemical_formula_sum   'Hf50 Zr50 Ta50 Ti50 Mo50'
_cell_volume   4818.91727493
_cell_formula_units_Z   50
loop_
 _symmetry_equiv_pos_site_id
 _symmetry_equiv_pos_as_xyz
  1  'x, y, z'
loop_
 _atom_site_type_symbol
 _atom_site_label
 _atom_site_symmetry_multiplicity
 _atom_site_fract_x
 _atom_site_fract_y
 _atom_site_fract_z
 _atom_site_occupancy
  Hf  Hf0  1  0.00565419  0.81017394  0.79944715  1
  Hf  Hf1  1  0.79884170  0.40733043  0.19640115  1
  Hf  Hf2  1  0.49870166  0.89641297  0.70213871  1
  Hf  Hf3  1  0.39715372  0.60118077  0.00100358  1
  Hf  Hf4  1  0.27592693  0.88505224  0.10355364  1
  Hf  Hf5  1  0.00110974  0.40305650  0.81170215  1
  Hf  Hf6  1  0.89614152  0.50551414  0.49152327  1
  Hf  Hf7  1  0.39794286  0.60473694  0.39234012  1
  Hf  Hf8  1  0.10153482  0.69816362  0.29439851  1
  Hf  Hf9  1  0.00574112  0.59726562  0.59591183  1
  Hf  Hf10  1  0.60203514  0.59966437  0.79694245  1
  Hf  Hf11  1  0.29547493  0.89237562  0.29777504  1
  Hf  Hf12  1  0.30693473  0.71127748  0.89654672  1
  Hf  Hf13  1  0.19472571  0.19193153  -0.00092693  1
  Hf  Hf14  1  0.70294953  0.29688944  0.29656615  1
  Hf  Hf15  1  0.69724835  0.70222468  0.69720466  1
  Hf  Hf16  1  0.89441344  0.50562696  0.71839229  1
  Hf  Hf17  1  0.59915474  0.41275359  0.61195207  1
  Hf  Hf18  1  0.39959377  -0.00153850  0.59236449  1
  Hf  Hf19  1  0.40482406  0.80092782  0.39880324  1
  Hf  Hf20  1  0.29873108  0.49994806  0.28971823  1
  Hf  Hf21  1  0.89871645  0.10988480  0.29797266  1
  Hf  Hf22  1  0.69638530  0.51627838  0.49796671  1
  Hf  Hf23  1  0.79609937  0.39886321  0.60856123  1
  Hf  Hf24  1  0.49673958  0.09541685  0.30192696  1
  Hf  Hf25  1  -0.00229964  0.40044286  0.59824492  1
  Hf  Hf26  1  0.50657980  0.29605849  0.89617965  1
  Hf  Hf27  1  0.30682229  0.09065577  0.90627717  1
  Hf  Hf28  1  0.50540462  0.50340802  0.09644837  1
  Hf  Hf29  1  0.20116604  0.39767356  0.40130354  1
  Hf  Hf30  1  0.00324406  -0.00148554  0.60508618  1
  Hf  Hf31  1  0.69774471  0.69999401  0.49857269  1
  Hf  Hf32  1  0.49037118  0.30472707  0.29782851  1
  Hf  Hf33  1  0.50420490  0.69865898  0.50936465  1
  Hf  Hf34  1  0.19838263  0.59371623  0.40506699  1
  Hf  Hf35  1  0.39500698  0.20060837  0.19680933  1
  Hf  Hf36  1  0.10622947  0.69508203  0.70794948  1
  Hf  Hf37  1  0.90182598  0.30463566  0.10069056  1
  Hf  Hf38  1  0.90055447  0.69281620  0.29638188  1
  Hf  Hf39  1  0.20642266  0.39168061  0.59528270  1
  Hf  Hf40  1  0.19764315  -0.00217384  0.79531654  1
  Hf  Hf41  1  0.49449637  0.09401142  0.09206725  1
  Hf  Hf42  1  0.61475494  0.19684171  0.00429869  1
  Hf  Hf43  1  0.20971478  0.59849657  0.00759306  1
  Hf  Hf44  1  0.10713922  0.70956087  0.10113296  1
  Hf  Hf45  1  0.60362526  0.40125139  0.19495468  1
  Hf  Hf46  1  0.50615156  0.49898559  0.90397907  1
  Hf  Hf47  1  0.79776009  0.19090470  0.81657828  1
  Hf  Hf48  1  0.20171180  0.41492480  -0.00734087  1
  Hf  Hf49  1  0.79775054  0.20158924  0.40647963  1
  Zr  Zr50  1  0.79351365  -0.00194722  0.39510010  1
  Zr  Zr51  1  0.29312375  0.30125905  0.09852989  1
  Zr  Zr52  1  0.20029097  0.19182856  0.20200745  1
  Zr  Zr53  1  0.49582516  0.50430522  0.50249874  1
  Zr  Zr54  1  0.09149057  0.30162290  0.29457683  1
  Zr  Zr55  1  0.49632005  0.89889325  0.90192958  1
  Zr  Zr56  1  0.48071105  0.31144508  0.50413842  1
  Zr  Zr57  1  -0.00360170  0.00208588  0.00204125  1
  Zr  Zr58  1  0.80102222  0.39950233  0.39970948  1
  Zr  Zr59  1  0.40245490  0.20350724  -0.00044142  1
  Zr  Zr60  1  0.20780682  0.19878694  0.79667676  1
  Zr  Zr61  1  0.10082677  0.29810488  0.90191795  1
  Zr  Zr62  1  0.50313983  0.10491628  0.70044069  1
  Zr  Zr63  1  0.70680784  0.30618380  0.90509034  1
  Zr  Zr64  1  0.90826529  0.69822359  0.89596785  1
  Zr  Zr65  1  0.10042130  0.29482847  0.70187206  1
  Zr  Zr66  1  0.40880856  -0.02499509  0.18576031  1
  Zr  Zr67  1  0.89629863  0.91271577  0.89033761  1
  Zr  Zr68  1  0.80298186  0.80162105  0.39704372  1
  Zr  Zr69  1  0.89769521  0.09649619  0.50486850  1
  Zr  Zr70  1  0.79173839  0.80030393  0.00249750  1
  Zr  Zr71  1  0.60456919  0.40721727  0.79632191  1
  Zr  Zr72  1  0.30130144  0.90032902  0.90552675  1
  Zr  Zr73  1  0.79966414  0.61141139  0.00434018  1
  Zr  Zr74  1  0.60205926  0.20585661  0.59870809  1
  Zr  Zr75  1  0.89825865  0.09203635  0.70909196  1
  Zr  Zr76  1  0.20202893  0.19933951  0.40166667  1
  Zr  Zr77  1  0.19662404  0.00256650  0.40637434  1
  Zr  Zr78  1  0.60676024  -0.00311551  0.19691175  1
  Zr  Zr79  1  0.59939431  0.20084697  0.39992745  1
  Zr  Zr80  1  0.69957079  0.90563511  0.88947633  1
  Zr  Zr81  1  -0.00423364  0.79637950  0.60609128  1
  Zr  Zr82  1  0.10333290  0.49799431  0.70990783  1
  Zr  Zr83  1  0.59885768  0.40800160  0.39406882  1
  Zr  Zr84  1  0.30643948  0.70334175  0.51383119  1
  Zr  Zr85  1  0.30642067  0.08104086  0.29824001  1
  Zr  Zr86  1  0.20923821  0.58930258  0.81571835  1
  Zr  Zr87  1  0.79846432  -0.00134286  0.18952068  1
  Zr  Zr88  1  0.80103882  0.60283311  0.60769324  1
  Zr  Zr89  1  0.10220827  0.89291274  0.50510776  1
  Zr  Zr90  1  0.60872483  -0.00465573  0.00651724  1
  Zr  Zr91  1  0.40335734  0.79981516  0.02192462  1
  Zr  Zr92  1  0.49021066  0.70212728  0.69911647  1
  Zr  Zr93  1  0.69684429  0.70071883  0.29936574  1
  Zr  Zr94  1  0.00154024  0.19101319  0.18942499  1
  Zr  Zr95  1  0.69629731  0.09094481  0.70879411  1
  Zr  Zr96  1  0.00014215  -0.00680144  0.39451479  1
  Zr  Zr97  1  0.20432160  0.58789548  0.59471813  1
  Zr  Zr98  1  0.39713991  0.61049370  0.19046932  1
  Zr  Zr99  1  0.49147092  0.09990791  0.49318458  1
  Ta  Ta100  1  -0.00356639  0.19754798  -0.00361632  1
  Ta  Ta101  1  0.89528845  0.29779586  0.71063289  1
  Ta  Ta102  1  0.59864519  -0.00759134  0.59557155  1
  Ta  Ta103  1  0.49424637  0.29945390  0.70225037  1
  Ta  Ta104  1  0.90430338  0.30233767  0.29780240  1
  Ta  Ta105  1  0.09287297  0.29435103  0.49799123  1
  Ta  Ta106  1  0.00257985  0.40376872  0.39863647  1
  Ta  Ta107  1  0.70056362  0.50535586  0.09284887  1
  Ta  Ta108  1  0.10278946  0.70420852  0.90418048  1
  Ta  Ta109  1  0.71111588  0.50464462  0.89928919  1
  Ta  Ta110  1  0.79805309  0.80057616  0.19117335  1
  Ta  Ta111  1  0.89494903  0.89672530  0.50588147  1
  Ta  Ta112  1  0.89772154  0.30278733  0.90685791  1
  Ta  Ta113  1  0.70248633  0.29642167  0.71077549  1
  Ta  Ta114  1  0.69481591  0.89361185  0.29744775  1
  Ta  Ta115  1  0.60047056  0.79636103  0.80396371  1
  Ta  Ta116  1  0.89662349  0.50225460  0.90424940  1
  Ta  Ta117  1  0.19779787  0.40477989  0.19420169  1
  Ta  Ta118  1  0.60521280  0.59911142  0.19805643  1
  Ta  Ta119  1  0.39908571  0.20057049  0.79756635  1
  Ta  Ta120  1  0.30584017  0.10141893  0.69416444  1
  Ta  Ta121  1  0.09576260  0.30688570  0.09808217  1
  Ta  Ta122  1  -0.00002266  -0.00540120  0.19650709  1
  Ta  Ta123  1  0.19735680  0.79701215  0.39949366  1
  Ta  Ta124  1  0.20326755  0.00786909  0.59916307  1
  Ta  Ta125  1  0.50898867  0.09457608  0.89156866  1
  Ta  Ta126  1  0.00091031  0.79916740  0.39591586  1
  Ta  Ta127  1  -0.00133599  0.81151350  0.19905098  1
  Ta  Ta128  1  0.30357041  0.89905991  0.49982658  1
  Ta  Ta129  1  0.30381133  0.89469762  0.69682327  1
  Ta  Ta130  1  0.39997635  0.40110913  0.00175442  1
  Ta  Ta131  1  -0.00367086  0.20246326  0.60300160  1
  Ta  Ta132  1  0.90492880  0.50557746  0.10087701  1
  Ta  Ta133  1  0.70112829  0.89919154  0.50536857  1
  Ta  Ta134  1  0.70020638  0.09202812  0.50703609  1
  Ta  Ta135  1  0.51691134  0.70649094  0.10285070  1
  Ta  Ta136  1  0.39925343  0.00126511  0.79595783  1
  Ta  Ta137  1  0.30721528  0.49053973  0.70437838  1
  Ta  Ta138  1  0.79954599  0.20410293  0.60316121  1
  Ta  Ta139  1  0.90232561  0.69945919  0.49385727  1
  Ta  Ta140  1  0.90640807  0.50294487  0.29377468  1
  Ta  Ta141  1  0.29498416  0.07728948  0.09381700  1
  Ta  Ta142  1  0.08927109  0.09297404  0.89150673  1
  Ta  Ta143  1  0.19917646  0.80507490  0.80084150  1
  Ta  Ta144  1  0.38199676  0.20709729  0.40123555  1
  Ta  Ta145  1  0.00050596  0.40753330  0.00282117  1
  Ta  Ta146  1  0.00720930  0.59729121  0.40051180  1
  Ta  Ta147  1  0.60010176  0.20405618  0.18900196  1
  Ta  Ta148  1  0.70171877  0.90018103  0.69933216  1
  Ta  Ta149  1  0.20655305  0.19716150  0.59395058  1
  Ti  Ti150  1  0.31951897  0.48243931  0.49911774  1
  Ti  Ti151  1  0.79705363  0.79396352  0.79839552  1
  Ti  Ti152  1  0.10114627  0.70274179  0.50002700  1
  Ti  Ti153  1  0.88690956  0.90700818  0.70230125  1
  Ti  Ti154  1  0.79251583  0.01822289  -0.00586807  1
  Ti  Ti155  1  0.79754466  0.60503215  0.19072458  1
  Ti  Ti156  1  0.39718125  0.39905019  0.18860038  1
  Ti  Ti157  1  0.39932817  0.39722668  0.80069263  1
  Ti  Ti158  1  0.80116330  0.40518904  0.00562729  1
  Ti  Ti159  1  -0.00637852  0.19636432  0.80515110  1
  Ti  Ti160  1  0.78864946  0.20115346  0.18594329  1
  Ti  Ti161  1  0.50066314  0.70672091  0.90112618  1
  Ti  Ti162  1  0.60353220  0.39385480  0.00878591  1
  Ti  Ti163  1  0.90480867  0.29669414  0.49828382  1
  Ti  Ti164  1  0.49220266  0.49887808  0.29408294  1
  Ti  Ti165  1  0.50409270  0.89464523  0.29770045  1
  Ti  Ti166  1  0.69838028  0.30392170  0.50430217  1
  Ti  Ti167  1  0.18351027  -0.01192606  -0.00436349  1
  Ti  Ti168  1  0.90223985  0.69477869  0.70986467  1
  Ti  Ti169  1  0.00983486  0.81356751  0.00100776  1
  Ti  Ti170  1  0.71028828  0.51279603  0.30222417  1
  Ti  Ti171  1  0.10637781  0.90146385  0.69917684  1
  Ti  Ti172  1  0.89734117  0.89837462  0.29585627  1
  Ti  Ti173  1  0.59627700  0.80679779  0.40238979  1
  Ti  Ti174  1  0.40050736  0.58754963  0.61099103  1
  Ti  Ti175  1  0.89191343  0.10505043  0.09286231  1
  Ti  Ti176  1  0.40177927  0.59395067  0.80208306  1
  Ti  Ti177  1  0.50474837  0.71051196  0.28833622  1
  Ti  Ti178  1  0.09905715  0.10325285  0.70093646  1
  Ti  Ti179  1  0.30442261  0.30128262  0.89814761  1
  Ti  Ti180  1  0.29038390  0.70568583  0.28398432  1
  Ti  Ti181  1  0.09774545  0.50076724  0.29171547  1
  Ti  Ti182  1  0.20367894  0.80094511  0.60443906  1
  Ti  Ti183  1  0.69605061  0.10158278  0.29771240  1
  Ti  Ti184  1  0.00269470  0.59921638  0.19530641  1
  Ti  Ti185  1  0.09836641  0.50126699  0.10616463  1
  Ti  Ti186  1  0.09069091  0.10120522  0.30454224  1
  Ti  Ti187  1  0.59593688  -0.00925280  0.40520420  1
  Ti  Ti188  1  0.10232355  0.09344312  0.09649256  1
  Ti  Ti189  1  0.00726308  0.59605008  -0.00169060  1
  Ti  Ti190  1  0.91124688  0.70467292  0.10006210  1
  Ti  Ti191  1  0.58980184  0.60237602  0.38739073  1
  Ti  Ti192  1  0.20935801  0.40058224  0.80520995  1
  Ti  Ti193  1  0.61030250  0.61556649  -0.00458814  1
  Ti  Ti194  1  0.80467533  0.79906046  0.60265670  1
  Ti  Ti195  1  0.89656406  0.90025042  0.09447906  1
  Ti  Ti196  1  0.17913460  -0.01026650  0.20374837  1
  Ti  Ti197  1  0.09190042  0.10834897  0.50109239  1
  Ti  Ti198  1  0.30619857  0.70539685  0.70409738  1
  Ti  Ti199  1  0.59803416  0.80731685  0.59748031  1
  Mo  Mo200  1  0.80325923  0.39862824  0.80656444  1
  Mo  Mo201  1  0.39745433  0.79925553  0.79577125  1
  Mo  Mo202  1  0.69579877  0.69876151  0.10373245  1
  Mo  Mo203  1  0.50565174  0.89780502  0.49592220  1
  Mo  Mo204  1  0.60421176  0.80232083  0.19794245  1
  Mo  Mo205  1  0.59790772  0.20088659  0.80402693  1
  Mo  Mo206  1  0.70609354  0.89441586  0.09956603  1
  Mo  Mo207  1  0.79760591  -0.00033141  0.80058358  1
  Mo  Mo208  1  0.40716419  0.79481830  0.20417088  1
  Mo  Mo209  1  0.39035619  0.40019773  0.38551606  1
  Mo  Mo210  1  0.80633389  0.19757965  0.00488776  1
  Mo  Mo211  1  0.48961776  0.50100794  0.70611160  1
  Mo  Mo212  1  0.29803336  0.29818920  0.50314937  1
  Mo  Mo213  1  0.08963646  0.50852438  0.90758141  1
  Mo  Mo214  1  0.10038924  0.89920448  0.89888188  1
  Mo  Mo215  1  0.59837566  0.60084973  0.60695912  1
  Mo  Mo216  1  0.38892452  0.20503094  0.60092092  1
  Mo  Mo217  1  0.60313957  0.79403374  -0.00111600  1
  Mo  Mo218  1  0.40436359  -0.00986273  0.40067473  1
  Mo  Mo219  1  0.09462497  0.49278907  0.49267068  1
  Mo  Mo220  1  0.30576488  0.29756300  0.70083396  1
  Mo  Mo221  1  -0.00447279  0.20705698  0.40514435  1
  Mo  Mo222  1  0.79518614  -0.00825126  0.60167342  1
  Mo  Mo223  1  0.79646327  0.60200115  0.80633864  1
  Mo  Mo224  1  0.19228421  0.79744981  -0.00631283  1
  Mo  Mo225  1  0.70514824  0.30545007  0.10121237  1
  Mo  Mo226  1  0.30010958  0.31081817  0.29654005  1
  Mo  Mo227  1  0.30106783  0.09858801  0.50320305  1
  Mo  Mo228  1  0.19752116  0.59736428  0.19681777  1
  Mo  Mo229  1  0.00143862  0.60269993  0.81050554  1
  Mo  Mo230  1  0.19003084  0.79950647  0.20605423  1
  Mo  Mo231  1  0.40247498  -0.00364303  -0.00051730  1
  Mo  Mo232  1  0.00125886  0.40986367  0.19799814  1
  Mo  Mo233  1  0.50353310  0.30431608  0.10030033  1
  Mo  Mo234  1  0.00463319  -0.00062079  0.79400954  1
  Mo  Mo235  1  0.39784751  0.39795674  0.61590321  1
  Mo  Mo236  1  0.09707322  0.89497656  0.29854983  1
  Mo  Mo237  1  0.69627040  0.70252805  0.89464578  1
  Mo  Mo238  1  0.69859764  0.09802977  0.90101285  1
  Mo  Mo239  1  0.80973922  0.60121464  0.39268986  1
  Mo  Mo240  1  0.29155875  0.70028291  0.10921614  1
  Mo  Mo241  1  0.39656805  0.80569657  0.59831399  1
  Mo  Mo242  1  0.09309787  0.90107932  0.10021941  1
  Mo  Mo243  1  0.90184387  0.10442043  0.90405867  1
  Mo  Mo244  1  0.70470043  0.50230047  0.70689247  1
  Mo  Mo245  1  0.70476090  0.10583989  0.10033946  1
  Mo  Mo246  1  0.59740981  -0.00395101  0.79637932  1
  Mo  Mo247  1  0.31702392  0.49192818  0.89618321  1
  Mo  Mo248  1  0.30328274  0.49652717  0.10025475  1
  Mo  Mo249  1  0.51675995  0.88821812  0.09977286  1
