# generated using pymatgen
data_HfZrTaTiMo
_symmetry_space_group_name_H-M   'P 1'
_cell_length_a   16.88775903
_cell_length_b   16.89047829
_cell_length_c   16.89228429
_cell_angle_alpha   90.00818826
_cell_angle_beta   90.05761229
_cell_angle_gamma   89.96083927
_symmetry_Int_Tables_number   1
_chemical_formula_structural   HfZrTaTiMo
_chemical_formula_sum   'Hf50 Zr50 Ta50 Ti50 Mo50'
_cell_volume   4818.39087334
_cell_formula_units_Z   50
loop_
 _symmetry_equiv_pos_site_id
 _symmetry_equiv_pos_as_xyz
  1  'x, y, z'
loop_
 _atom_site_type_symbol
 _atom_site_label
 _atom_site_symmetry_multiplicity
 _atom_site_fract_x
 _atom_site_fract_y
 _atom_site_fract_z
 _atom_site_occupancy
  Hf  Hf0  1  -0.00168953  0.39733500  -0.00664153  1
  Hf  Hf1  1  0.29336599  0.70678632  0.70409186  1
  Hf  Hf2  1  0.01387646  -0.01382736  0.19684042  1
  Hf  Hf3  1  0.40740877  0.40227862  0.39525452  1
  Hf  Hf4  1  0.39945505  0.20743087  -0.00694472  1
  Hf  Hf5  1  0.00361667  0.19415342  0.40557388  1
  Hf  Hf6  1  0.20535650  0.39874151  0.80912331  1
  Hf  Hf7  1  0.79589284  0.79197119  -0.00154992  1
  Hf  Hf8  1  0.39905460  0.80823352  0.80184297  1
  Hf  Hf9  1  0.01378281  0.79493667  0.41339358  1
  Hf  Hf10  1  0.09120101  0.30302089  0.50591936  1
  Hf  Hf11  1  0.30417907  0.50964797  0.30488411  1
  Hf  Hf12  1  0.39323118  0.40348283  -0.01318650  1
  Hf  Hf13  1  0.01155747  0.57821319  0.60328144  1
  Hf  Hf14  1  0.59963068  0.40393952  0.59931355  1
  Hf  Hf15  1  0.90539375  0.88613953  0.30796440  1
  Hf  Hf16  1  0.39634193  0.19446346  0.59868561  1
  Hf  Hf17  1  0.80722068  0.20019984  0.40553504  1
  Hf  Hf18  1  0.40012602  0.20583530  0.20242852  1
  Hf  Hf19  1  0.40338904  0.60992660  0.59165997  1
  Hf  Hf20  1  0.19772150  -0.00623804  0.79380335  1
  Hf  Hf21  1  0.01370568  -0.00349637  0.41372814  1
  Hf  Hf22  1  -0.00061643  0.20197082  -0.00444657  1
  Hf  Hf23  1  0.59919444  0.60262279  0.79959407  1
  Hf  Hf24  1  0.40073765  0.20303779  0.79692948  1
  Hf  Hf25  1  0.70276983  0.10051942  0.69867628  1
  Hf  Hf26  1  0.80087969  0.78631117  0.20160237  1
  Hf  Hf27  1  0.49481751  0.09726344  0.09628028  1
  Hf  Hf28  1  0.51602615  0.30454763  0.89428882  1
  Hf  Hf29  1  0.00145977  -0.00001465  0.60159469  1
  Hf  Hf30  1  0.10919485  0.09346342  0.08844329  1
  Hf  Hf31  1  0.69766365  0.89653248  0.89252003  1
  Hf  Hf32  1  0.91020279  0.69192800  0.09909645  1
  Hf  Hf33  1  0.29503536  0.31298191  0.09727512  1
  Hf  Hf34  1  -0.00406739  0.00060259  0.79344140  1
  Hf  Hf35  1  0.50407315  0.50230580  0.70053830  1
  Hf  Hf36  1  0.10192588  0.70556147  0.10123733  1
  Hf  Hf37  1  0.70099007  0.29842686  0.10080985  1
  Hf  Hf38  1  0.09133126  0.11618096  0.70025921  1
  Hf  Hf39  1  0.30282744  0.50165313  0.70175489  1
  Hf  Hf40  1  0.79562000  0.79747306  0.59742849  1
  Hf  Hf41  1  0.29521347  0.30378826  0.49773943  1
  Hf  Hf42  1  0.29429443  0.89734731  0.48857680  1
  Hf  Hf43  1  0.29469202  0.50905837  0.08724139  1
  Hf  Hf44  1  0.70997304  0.51054835  0.50275259  1
  Hf  Hf45  1  0.80902711  -0.00060068  0.60812271  1
  Hf  Hf46  1  0.69989884  0.89695004  0.09825749  1
  Hf  Hf47  1  0.80604319  0.40895740  0.20482601  1
  Hf  Hf48  1  0.49696777  0.89758720  0.50663155  1
  Hf  Hf49  1  0.20161565  0.60260102  0.20371268  1
  Zr  Zr50  1  0.79086666  0.59945886  0.00053652  1
  Zr  Zr51  1  0.79952834  0.20222362  -0.00407222  1
  Zr  Zr52  1  0.70276928  0.09938799  0.29839620  1
  Zr  Zr53  1  0.39950559  0.80831768  -0.00324772  1
  Zr  Zr54  1  -0.01162075  0.59042514  0.21191802  1
  Zr  Zr55  1  0.70131625  0.10372444  0.88888504  1
  Zr  Zr56  1  0.90780190  0.89486276  0.09954086  1
  Zr  Zr57  1  0.68714823  0.89490741  0.69888626  1
  Zr  Zr58  1  0.90472240  0.69703569  0.69523069  1
  Zr  Zr59  1  0.00188943  0.80174259  -0.00621500  1
  Zr  Zr60  1  0.19429200  0.60532390  0.59936360  1
  Zr  Zr61  1  0.29484561  0.09729915  0.69613065  1
  Zr  Zr62  1  0.30521673  0.50370462  0.49550647  1
  Zr  Zr63  1  0.59356017  0.19193017  0.39994308  1
  Zr  Zr64  1  0.10302876  0.69864858  0.90084542  1
  Zr  Zr65  1  0.29706226  0.08227417  0.29324878  1
  Zr  Zr66  1  0.49475507  0.69995056  0.30798448  1
  Zr  Zr67  1  0.59662347  0.40462328  0.20504541  1
  Zr  Zr68  1  0.59929504  0.40518368  0.40428535  1
  Zr  Zr69  1  0.80726499  0.00080472  0.41679437  1
  Zr  Zr70  1  0.80001779  -0.00031836  0.19389628  1
  Zr  Zr71  1  0.90004175  0.68879815  0.50080923  1
  Zr  Zr72  1  0.59574913  -0.00561346  0.20644184  1
  Zr  Zr73  1  0.71168806  0.29593103  0.51268234  1
  Zr  Zr74  1  0.60461891  0.60762674  0.00097957  1
  Zr  Zr75  1  0.11017697  0.08996610  0.29681603  1
  Zr  Zr76  1  0.00068324  0.59311437  0.79878834  1
  Zr  Zr77  1  0.90715422  0.09386752  0.29745397  1
  Zr  Zr78  1  0.59714136  0.80029198  0.20215550  1
  Zr  Zr79  1  0.69520789  0.69701705  0.69271654  1
  Zr  Zr80  1  0.49591008  0.50735012  0.09864465  1
  Zr  Zr81  1  0.09801120  0.50475922  0.09482394  1
  Zr  Zr82  1  0.59972846  0.79763400  0.40810816  1
  Zr  Zr83  1  0.49415682  0.29436883  0.50006899  1
  Zr  Zr84  1  0.60579523  0.00541540  0.00124484  1
  Zr  Zr85  1  0.29603574  0.09117376  0.90269047  1
  Zr  Zr86  1  0.10301701  0.31001870  0.09813959  1
  Zr  Zr87  1  0.39996460  0.60520780  0.80562381  1
  Zr  Zr88  1  0.29281974  0.30183734  0.69106961  1
  Zr  Zr89  1  0.20167508  0.20471451  0.20090524  1
  Zr  Zr90  1  0.70115438  0.29695772  0.29854184  1
  Zr  Zr91  1  0.30284231  0.08654511  0.09229543  1
  Zr  Zr92  1  0.61192852  0.40397864  -0.00428564  1
  Zr  Zr93  1  0.17765196  0.41850618  0.60088005  1
  Zr  Zr94  1  0.09663759  0.70540802  0.29824088  1
  Zr  Zr95  1  0.89895729  0.50077129  0.90346274  1
  Zr  Zr96  1  0.59871207  -0.00387744  0.40127053  1
  Zr  Zr97  1  0.59361814  0.19600768  0.60753334  1
  Zr  Zr98  1  0.09672436  0.30594119  0.30045366  1
  Zr  Zr99  1  0.29716936  0.71331057  0.31109727  1
  Ta  Ta100  1  0.39395768  0.19091052  0.39626930  1
  Ta  Ta101  1  0.49943150  0.50226679  0.89683716  1
  Ta  Ta102  1  0.50616440  0.71468675  0.69412174  1
  Ta  Ta103  1  0.39832410  0.39968534  0.80410228  1
  Ta  Ta104  1  0.80580941  0.79576982  0.80012144  1
  Ta  Ta105  1  0.19300251  0.79986574  0.59248762  1
  Ta  Ta106  1  0.70496613  0.50039100  0.69624670  1
  Ta  Ta107  1  0.79942995  0.59758742  0.79592399  1
  Ta  Ta108  1  0.89909894  0.49799405  0.50126956  1
  Ta  Ta109  1  0.09695860  0.70901747  0.70416323  1
  Ta  Ta110  1  0.80559266  0.00391422  -0.00434046  1
  Ta  Ta111  1  0.19448149  0.40521407  0.39894641  1
  Ta  Ta112  1  0.90607296  0.09830985  0.09408021  1
  Ta  Ta113  1  0.09923432  0.90360900  0.89782187  1
  Ta  Ta114  1  0.20160225  0.19514343  0.40503043  1
  Ta  Ta115  1  0.40096982  -0.00835410  0.80022999  1
  Ta  Ta116  1  0.18920993  -0.00440975  0.59391771  1
  Ta  Ta117  1  0.90468732  0.88717723  0.50700407  1
  Ta  Ta118  1  0.90050213  0.30372196  0.10209526  1
  Ta  Ta119  1  0.40102558  0.40407221  0.20327719  1
  Ta  Ta120  1  0.20500024  0.81254673  0.00284360  1
  Ta  Ta121  1  0.50233924  0.51631234  0.30380877  1
  Ta  Ta122  1  0.50188097  0.30180476  0.09957666  1
  Ta  Ta123  1  0.80781341  0.19732604  0.19333769  1
  Ta  Ta124  1  0.90407489  0.30598582  0.51006830  1
  Ta  Ta125  1  0.90419551  0.09872795  0.89339969  1
  Ta  Ta126  1  0.79693585  0.59957889  0.20373841  1
  Ta  Ta127  1  0.58979141  -0.00109232  0.79537615  1
  Ta  Ta128  1  0.71322654  0.88939804  0.31123608  1
  Ta  Ta129  1  0.10871339  0.50255350  0.90880269  1
  Ta  Ta130  1  0.80194444  0.39825528  0.79675687  1
  Ta  Ta131  1  0.49791484  0.09635545  0.89692914  1
  Ta  Ta132  1  0.39365903  0.79654573  0.59488390  1
  Ta  Ta133  1  0.70205731  0.69230280  0.30958083  1
  Ta  Ta134  1  0.69566956  0.70701822  0.88842455  1
  Ta  Ta135  1  0.49024254  0.08719285  0.50296787  1
  Ta  Ta136  1  0.49481078  0.70127516  0.10213517  1
  Ta  Ta137  1  0.18931648  0.60667342  0.41094861  1
  Ta  Ta138  1  0.89999602  0.90031338  0.89448569  1
  Ta  Ta139  1  0.80702748  0.40283664  0.39859965  1
  Ta  Ta140  1  0.39857860  0.60682530  0.19894583  1
  Ta  Ta141  1  -0.00283409  0.19917057  0.19401460  1
  Ta  Ta142  1  0.29447623  0.69694504  0.90967807  1
  Ta  Ta143  1  0.39345883  0.81155566  0.20078570  1
  Ta  Ta144  1  0.09059732  0.30026618  0.70157555  1
  Ta  Ta145  1  0.30070267  0.70421297  0.09899553  1
  Ta  Ta146  1  0.70125156  0.30262186  0.70836277  1
  Ta  Ta147  1  0.69878566  0.51349019  0.30756283  1
  Ta  Ta148  1  0.39948370  -0.00691160  0.39174731  1
  Ta  Ta149  1  0.09896276  0.10054295  0.89702725  1
  Ti  Ti150  1  0.50142343  0.70458246  0.90177430  1
  Ti  Ti151  1  0.90563699  0.29139951  0.69393119  1
  Ti  Ti152  1  0.20624391  -0.02738169  0.18399593  1
  Ti  Ti153  1  0.39224207  -0.00522889  0.60166957  1
  Ti  Ti154  1  0.50300494  0.30869764  0.70484825  1
  Ti  Ti155  1  -0.00646118  0.40742069  0.39991684  1
  Ti  Ti156  1  0.29539326  0.09061974  0.49446463  1
  Ti  Ti157  1  0.69817914  0.49485908  0.88632839  1
  Ti  Ti158  1  0.69646573  0.50770643  0.11160919  1
  Ti  Ti159  1  0.20220490  0.40859765  0.20963891  1
  Ti  Ti160  1  0.20190335  0.21217241  -0.01226396  1
  Ti  Ti161  1  0.49837909  0.08702100  0.69651341  1
  Ti  Ti162  1  -0.00259634  0.40299268  0.79167664  1
  Ti  Ti163  1  0.69689859  0.09693457  0.51270581  1
  Ti  Ti164  1  0.59835531  0.19886821  0.79616402  1
  Ti  Ti165  1  0.70479724  0.69289165  0.49513727  1
  Ti  Ti166  1  0.59236305  0.60562963  0.58742197  1
  Ti  Ti167  1  0.00277279  -0.00269421  -0.00420963  1
  Ti  Ti168  1  0.89898229  0.49984213  0.09386815  1
  Ti  Ti169  1  0.50474578  0.90468197  0.90124694  1
  Ti  Ti170  1  0.50141395  0.29639265  0.29577639  1
  Ti  Ti171  1  0.49150905  0.90621304  0.09866414  1
  Ti  Ti172  1  0.40794001  0.40505698  0.59701077  1
  Ti  Ti173  1  0.60156092  0.19317781  0.19338663  1
  Ti  Ti174  1  0.49225739  0.09337605  0.29657211  1
  Ti  Ti175  1  0.90693206  0.88499789  0.70231530  1
  Ti  Ti176  1  0.89663013  0.69542043  0.31354541  1
  Ti  Ti177  1  0.09423059  0.88685529  0.69944687  1
  Ti  Ti178  1  0.09457877  0.50208323  0.30842305  1
  Ti  Ti179  1  0.20153246  0.80670402  0.80621651  1
  Ti  Ti180  1  0.90341179  0.29978416  0.29911669  1
  Ti  Ti181  1  0.89933157  0.29886673  0.89082374  1
  Ti  Ti182  1  0.80929951  0.40248277  0.60969587  1
  Ti  Ti183  1  0.12185367  0.89038810  0.30718301  1
  Ti  Ti184  1  0.80614494  -0.00420233  0.79620394  1
  Ti  Ti185  1  0.19950397  0.59542695  0.80266181  1
  Ti  Ti186  1  0.60508641  0.19823160  -0.00040441  1
  Ti  Ti187  1  0.90213659  0.69825030  0.89655159  1
  Ti  Ti188  1  0.20006879  0.20524689  0.80385868  1
  Ti  Ti189  1  0.29554891  0.89669959  0.69367730  1
  Ti  Ti190  1  0.79673860  0.39612707  -0.00653170  1
  Ti  Ti191  1  0.69816022  0.89979274  0.50529145  1
  Ti  Ti192  1  0.80714558  0.20385585  0.79388506  1
  Ti  Ti193  1  0.19345384  0.19408159  0.59017846  1
  Ti  Ti194  1  0.90322421  0.11632090  0.52330407  1
  Ti  Ti195  1  0.09668419  0.29895865  0.89118065  1
  Ti  Ti196  1  0.50329157  0.89758472  0.69279113  1
  Ti  Ti197  1  0.59906191  0.79644235  0.00261212  1
  Ti  Ti198  1  -0.00723861  0.40349473  0.20426132  1
  Ti  Ti199  1  0.29788167  0.30430647  0.30443884  1
  Mo  Mo200  1  0.60568561  0.40475774  0.79535714  1
  Mo  Mo201  1  0.29773484  0.70673757  0.49799431  1
  Mo  Mo202  1  0.19813914  0.40103946  -0.01276306  1
  Mo  Mo203  1  0.30149441  0.50831912  0.89939296  1
  Mo  Mo204  1  0.50406183  0.51004291  0.49617035  1
  Mo  Mo205  1  0.80350944  0.20294159  0.60695886  1
  Mo  Mo206  1  0.20235714  -0.00109664  0.40583971  1
  Mo  Mo207  1  0.08986257  0.49821059  0.48264631  1
  Mo  Mo208  1  0.40369228  -0.00373846  -0.00845151  1
  Mo  Mo209  1  0.00535136  0.80137798  0.60350830  1
  Mo  Mo210  1  0.89469670  0.49879074  0.30905266  1
  Mo  Mo211  1  0.20298888  0.80396258  0.19324771  1
  Mo  Mo212  1  0.10227538  0.89915430  0.50631238  1
  Mo  Mo213  1  0.00363090  0.80094125  0.21026397  1
  Mo  Mo214  1  0.48786522  0.89784100  0.30350347  1
  Mo  Mo215  1  0.80425055  0.59848566  0.39762717  1
  Mo  Mo216  1  0.29449741  0.89828306  0.89639150  1
  Mo  Mo217  1  -0.00119148  0.80377336  0.80019733  1
  Mo  Mo218  1  0.80126659  0.59340202  0.60205903  1
  Mo  Mo219  1  0.40450851  0.60488770  0.40387638  1
  Mo  Mo220  1  0.09946824  0.49501469  0.72143800  1
  Mo  Mo221  1  0.19849911  0.79848262  0.40861522  1
  Mo  Mo222  1  0.30363860  0.89829516  0.09530357  1
  Mo  Mo223  1  0.10533412  0.10238976  0.50485867  1
  Mo  Mo224  1  0.59671777  0.79653775  0.59489936  1
  Mo  Mo225  1  0.60179935  0.60591767  0.20266913  1
  Mo  Mo226  1  0.49636476  0.70409020  0.50177319  1
  Mo  Mo227  1  -0.00859840  0.39875071  0.60812626  1
  Mo  Mo228  1  0.70689548  0.10420085  0.09802967  1
  Mo  Mo229  1  0.19599188  -0.01008721  -0.00848766  1
  Mo  Mo230  1  -0.00397493  0.20602025  0.80447769  1
  Mo  Mo231  1  -0.00004104  0.59448242  0.40447705  1
  Mo  Mo232  1  0.89674593  0.10915129  0.70546244  1
  Mo  Mo233  1  0.89595138  0.49275105  0.69949088  1
  Mo  Mo234  1  0.09884339  0.69762305  0.50734473  1
  Mo  Mo235  1  -0.00167493  0.20362410  0.60425274  1
  Mo  Mo236  1  0.29614688  0.89665706  0.29702232  1
  Mo  Mo237  1  0.69116119  0.69727586  0.10964763  1
  Mo  Mo238  1  0.59520194  -0.00116281  0.60265782  1
  Mo  Mo239  1  0.58937450  0.80247991  0.80350564  1
  Mo  Mo240  1  0.79854313  0.79578257  0.40653734  1
  Mo  Mo241  1  0.10490437  0.89817976  0.09233253  1
  Mo  Mo242  1  0.00182224  0.59644985  -0.00137244  1
  Mo  Mo243  1  0.20346150  0.60691145  -0.00061215  1
  Mo  Mo244  1  0.60088114  0.60295390  0.40624527  1
  Mo  Mo245  1  0.70503839  0.30052253  0.88849656  1
  Mo  Mo246  1  0.29585830  0.29680686  0.89658035  1
  Mo  Mo247  1  0.40103689  0.60933745  -0.00010934  1
  Mo  Mo248  1  0.40202918  -0.01101959  0.19822783  1
  Mo  Mo249  1  0.39852846  0.80291599  0.40140752  1
