# generated using pymatgen
data_HfZrTaTiMo
_symmetry_space_group_name_H-M   'P 1'
_cell_length_a   16.88269381
_cell_length_b   16.88686136
_cell_length_c   16.88270093
_cell_angle_alpha   89.98575246
_cell_angle_beta   89.97767866
_cell_angle_gamma   89.99834735
_symmetry_Int_Tables_number   1
_chemical_formula_structural   HfZrTaTiMo
_chemical_formula_sum   'Hf50 Zr50 Ta50 Ti50 Mo50'
_cell_volume   4813.18508666
_cell_formula_units_Z   50
loop_
 _symmetry_equiv_pos_site_id
 _symmetry_equiv_pos_as_xyz
  1  'x, y, z'
loop_
 _atom_site_type_symbol
 _atom_site_label
 _atom_site_symmetry_multiplicity
 _atom_site_fract_x
 _atom_site_fract_y
 _atom_site_fract_z
 _atom_site_occupancy
  Hf  Hf0  1  0.70218023  0.49963117  0.09795205  1
  Hf  Hf1  1  0.20790216  0.41052663  -0.01041477  1
  Hf  Hf2  1  0.30285733  0.70536157  0.70728829  1
  Hf  Hf3  1  0.29804461  0.69704098  0.28366424  1
  Hf  Hf4  1  0.89469959  0.49913582  0.30393743  1
  Hf  Hf5  1  0.89417051  0.09807862  0.09483375  1
  Hf  Hf6  1  0.59596299  0.60707686  -0.00041119  1
  Hf  Hf7  1  0.48799246  0.71545379  0.89118441  1
  Hf  Hf8  1  0.80134140  0.59872605  0.79667639  1
  Hf  Hf9  1  0.40067861  -0.00408219  0.39359113  1
  Hf  Hf10  1  0.49981718  0.49899628  0.90061875  1
  Hf  Hf11  1  0.50180887  0.10649686  0.50336257  1
  Hf  Hf12  1  0.10061958  0.29737785  0.29832838  1
  Hf  Hf13  1  0.79387559  0.60417886  0.59624852  1
  Hf  Hf14  1  -0.00131332  0.20204885  0.79946307  1
  Hf  Hf15  1  0.39353555  0.60422237  -0.00312346  1
  Hf  Hf16  1  0.89948770  0.89656955  0.30163464  1
  Hf  Hf17  1  0.70371229  0.48973774  0.91148840  1
  Hf  Hf18  1  0.29954145  0.49914976  0.70372768  1
  Hf  Hf19  1  0.70150386  0.91069619  0.09513956  1
  Hf  Hf20  1  -0.00336985  0.39634957  0.40391682  1
  Hf  Hf21  1  0.90164421  0.90284132  0.09462071  1
  Hf  Hf22  1  0.00384594  0.58819463  -0.00841574  1
  Hf  Hf23  1  0.38908517  0.60031647  0.39905876  1
  Hf  Hf24  1  0.20751756  0.19852021  0.39731017  1
  Hf  Hf25  1  0.10276288  0.30291132  0.89923774  1
  Hf  Hf26  1  0.60095634  0.39773188  0.20396171  1
  Hf  Hf27  1  0.10574984  0.90499128  0.89563561  1
  Hf  Hf28  1  0.40500863  0.19538409  0.39096843  1
  Hf  Hf29  1  0.49945960  0.50482911  0.70238000  1
  Hf  Hf30  1  0.49716996  0.88772675  0.29448079  1
  Hf  Hf31  1  0.01043769  0.79938324  -0.00849399  1
  Hf  Hf32  1  0.59623368  0.00182805  0.80080896  1
  Hf  Hf33  1  0.00870173  -0.00503201  0.20360488  1
  Hf  Hf34  1  0.78966640  0.19329997  -0.00838381  1
  Hf  Hf35  1  0.50326749  0.29558258  0.70614485  1
  Hf  Hf36  1  0.60163025  0.19945825  0.19843716  1
  Hf  Hf37  1  0.01445830  0.60806920  0.80191637  1
  Hf  Hf38  1  0.50358396  0.50100191  0.49686586  1
  Hf  Hf39  1  0.78932613  0.00344588  0.59385186  1
  Hf  Hf40  1  -0.00929179  0.39760743  0.19622806  1
  Hf  Hf41  1  0.59712789  0.81227025  -0.01110663  1
  Hf  Hf42  1  0.00242490  0.79971860  0.40338945  1
  Hf  Hf43  1  0.69945285  0.89393861  0.69836259  1
  Hf  Hf44  1  0.30058986  0.09337341  0.50739477  1
  Hf  Hf45  1  0.59999112  -0.00017860  0.60510324  1
  Hf  Hf46  1  0.00053528  0.40544326  0.80630756  1
  Hf  Hf47  1  0.10983345  0.49314737  0.69442541  1
  Hf  Hf48  1  0.79555333  0.80742626  -0.00861938  1
  Hf  Hf49  1  0.80100333  0.79337175  0.41495284  1
  Zr  Zr50  1  0.09793890  0.09825178  0.50104562  1
  Zr  Zr51  1  0.90315143  0.70720945  0.89245261  1
  Zr  Zr52  1  0.29945166  0.49422816  0.50115164  1
  Zr  Zr53  1  0.19564912  0.60223031  -0.00762541  1
  Zr  Zr54  1  0.10256465  0.09615178  0.70884344  1
  Zr  Zr55  1  0.59209138  0.00787942  0.20025420  1
  Zr  Zr56  1  0.10116853  0.10254462  0.09707358  1
  Zr  Zr57  1  0.20456127  0.40234166  0.19792514  1
  Zr  Zr58  1  0.49403021  0.30247324  0.09041437  1
  Zr  Zr59  1  0.70590041  0.28677586  0.70836707  1
  Zr  Zr60  1  0.50274824  0.30038607  0.50352161  1
  Zr  Zr61  1  0.50493394  0.29718100  0.90749415  1
  Zr  Zr62  1  0.79552988  0.00875897  0.20201151  1
  Zr  Zr63  1  0.91031939  0.50648874  0.69125363  1
  Zr  Zr64  1  0.48737956  0.70812478  0.10788548  1
  Zr  Zr65  1  0.20469612  0.60875861  0.59512079  1
  Zr  Zr66  1  0.90318571  0.69984259  0.10013435  1
  Zr  Zr67  1  0.30983318  0.50903442  0.11018277  1
  Zr  Zr68  1  0.70246845  0.69976959  0.09767824  1
  Zr  Zr69  1  0.21955073  0.19736111  -0.00740090  1
  Zr  Zr70  1  0.69655571  0.29896537  0.49490335  1
  Zr  Zr71  1  0.80279084  0.60256307  0.40601280  1
  Zr  Zr72  1  0.21384484  0.19703732  0.19438732  1
  Zr  Zr73  1  0.09724776  0.10117221  0.29852094  1
  Zr  Zr74  1  0.19979588  -0.01539270  0.39051764  1
  Zr  Zr75  1  0.60358503  0.00107888  0.40864891  1
  Zr  Zr76  1  0.40463785  0.19071236  0.19961300  1
  Zr  Zr77  1  0.30907012  0.30451044  0.50173629  1
  Zr  Zr78  1  0.10518925  0.30629806  0.50496534  1
  Zr  Zr79  1  0.10149841  0.50632396  0.30794114  1
  Zr  Zr80  1  0.10969511  0.70568121  0.10429256  1
  Zr  Zr81  1  0.29676742  0.89946149  0.71143201  1
  Zr  Zr82  1  0.19808346  0.20144514  0.60965709  1
  Zr  Zr83  1  0.39351764  0.19763288  0.80874096  1
  Zr  Zr84  1  0.69395197  0.31078514  0.07724068  1
  Zr  Zr85  1  0.09498258  0.29967822  0.09316139  1
  Zr  Zr86  1  0.80262240  0.40044504  0.80047775  1
  Zr  Zr87  1  0.79825384  0.00011180  0.41332689  1
  Zr  Zr88  1  0.60512947  0.60476230  0.79250247  1
  Zr  Zr89  1  0.90755702  0.71599154  0.68709066  1
  Zr  Zr90  1  0.29008427  0.31130541  0.70335003  1
  Zr  Zr91  1  0.90050928  0.89873859  0.70135619  1
  Zr  Zr92  1  0.79929522  0.19681765  0.40108418  1
  Zr  Zr93  1  0.61103299  0.41134643  0.61106184  1
  Zr  Zr94  1  0.39127856  0.79597130  0.39990718  1
  Zr  Zr95  1  0.69322120  0.69926838  0.30125949  1
  Zr  Zr96  1  0.80046336  0.40434940  0.59919186  1
  Zr  Zr97  1  0.40756532  0.00030830  0.61067830  1
  Zr  Zr98  1  0.10414244  0.69985739  0.29951690  1
  Zr  Zr99  1  0.69570167  0.89246445  0.30547988  1
  Ta  Ta100  1  0.80192103  0.59580993  0.19937748  1
  Ta  Ta101  1  0.79151503  0.00513848  0.80280473  1
  Ta  Ta102  1  0.39531175  -0.00560111  -0.00248991  1
  Ta  Ta103  1  0.20751158  -0.00749293  0.19478297  1
  Ta  Ta104  1  0.10786484  0.70352833  0.49745873  1
  Ta  Ta105  1  -0.00873638  0.19948233  0.40005654  1
  Ta  Ta106  1  0.90786285  0.49939908  0.50095708  1
  Ta  Ta107  1  0.20836413  -0.00449345  0.00296068  1
  Ta  Ta108  1  0.68132675  0.69866507  0.50290569  1
  Ta  Ta109  1  0.89459419  0.30145313  0.90591669  1
  Ta  Ta110  1  0.40338994  0.60990059  0.60115896  1
  Ta  Ta111  1  0.90487993  0.88689477  0.51727264  1
  Ta  Ta112  1  0.79977290  0.19069098  0.59950279  1
  Ta  Ta113  1  0.39383912  -0.00535439  0.19385636  1
  Ta  Ta114  1  0.00241872  0.00420498  -0.00675607  1
  Ta  Ta115  1  0.49211671  0.89970803  0.09395982  1
  Ta  Ta116  1  0.89612477  0.09948993  0.70250358  1
  Ta  Ta117  1  -0.00605957  0.19741437  -0.00529365  1
  Ta  Ta118  1  0.80155509  0.79706176  0.20039984  1
  Ta  Ta119  1  0.49495336  0.09509324  0.90325610  1
  Ta  Ta120  1  0.89948840  0.29866955  0.50492159  1
  Ta  Ta121  1  0.79145813  0.80307637  0.80169144  1
  Ta  Ta122  1  0.29814994  0.89381506  0.50931444  1
  Ta  Ta123  1  0.29777690  0.09042846  0.71244657  1
  Ta  Ta124  1  0.49186252  0.88860152  0.71285462  1
  Ta  Ta125  1  0.18917220  0.79284903  0.80284316  1
  Ta  Ta126  1  0.10203599  0.89608476  0.50429676  1
  Ta  Ta127  1  0.58993547  0.79484370  0.60667495  1
  Ta  Ta128  1  0.59710722  0.59624564  0.20335241  1
  Ta  Ta129  1  -0.00181328  0.00182457  0.80029536  1
  Ta  Ta130  1  0.00101338  -0.00321915  0.60141247  1
  Ta  Ta131  1  0.50007645  0.88934720  0.50336991  1
  Ta  Ta132  1  0.49639758  0.09492515  0.08706857  1
  Ta  Ta133  1  0.89690849  0.09827072  0.89577025  1
  Ta  Ta134  1  0.79632864  0.39330183  0.20240275  1
  Ta  Ta135  1  0.89889477  0.90723679  0.89526136  1
  Ta  Ta136  1  0.49517910  0.50268862  0.29884340  1
  Ta  Ta137  1  0.60798495  0.39780034  0.80456287  1
  Ta  Ta138  1  0.30868262  0.31147029  0.30333785  1
  Ta  Ta139  1  0.70170853  0.49617081  0.30254056  1
  Ta  Ta140  1  0.90352929  0.69739498  0.29498190  1
  Ta  Ta141  1  0.19663468  -0.00871343  0.60614173  1
  Ta  Ta142  1  0.49913227  0.49985323  0.10278498  1
  Ta  Ta143  1  0.69909648  0.10598491  0.30261332  1
  Ta  Ta144  1  -0.00289793  -0.00601234  0.40589771  1
  Ta  Ta145  1  -0.00387696  0.59402090  0.19466698  1
  Ta  Ta146  1  0.79162943  0.20572684  0.19769958  1
  Ta  Ta147  1  0.50095479  0.69798125  0.50059385  1
  Ta  Ta148  1  -0.01872676  0.20323970  0.20115819  1
  Ta  Ta149  1  0.29696937  0.71074887  0.90155096  1
  Ti  Ti150  1  0.19782288  0.59202993  0.19944868  1
  Ti  Ti151  1  0.29998526  0.71571814  0.09765591  1
  Ti  Ti152  1  0.30201672  0.09217220  0.29411010  1
  Ti  Ti153  1  0.10265815  0.50287828  0.49978922  1
  Ti  Ti154  1  0.20708244  0.40768451  0.39494387  1
  Ti  Ti155  1  0.39209667  0.39889672  0.81117161  1
  Ti  Ti156  1  0.20451544  0.81868964  0.20255083  1
  Ti  Ti157  1  0.30349630  0.89344324  0.90016813  1
  Ti  Ti158  1  0.40541332  0.40136901  0.60476317  1
  Ti  Ti159  1  0.09562911  0.89441440  0.70317908  1
  Ti  Ti160  1  0.60211370  0.80002843  0.19308683  1
  Ti  Ti161  1  0.31224034  0.30078407  0.09474316  1
  Ti  Ti162  1  0.19675782  0.60054951  0.80707210  1
  Ti  Ti163  1  0.40106517  0.79383772  0.60160976  1
  Ti  Ti164  1  0.09547599  0.49416881  0.09688170  1
  Ti  Ti165  1  0.39194188  0.40576230  -0.00759891  1
  Ti  Ti166  1  0.89940745  0.09989554  0.30149718  1
  Ti  Ti167  1  0.59527114  0.59985538  0.39460365  1
  Ti  Ti168  1  0.70071731  0.70063112  0.89738157  1
  Ti  Ti169  1  0.88830314  0.30226978  0.30590701  1
  Ti  Ti170  1  0.69578856  0.70292940  0.69369474  1
  Ti  Ti171  1  0.89492431  0.30135363  0.09063486  1
  Ti  Ti172  1  0.60348173  0.39950105  0.39203497  1
  Ti  Ti173  1  0.19757606  0.79878822  0.60268402  1
  Ti  Ti174  1  0.49637436  0.30767862  0.30389980  1
  Ti  Ti175  1  0.00797774  0.61202668  0.59266306  1
  Ti  Ti176  1  0.80862282  0.59814730  -0.00597823  1
  Ti  Ti177  1  0.30002844  0.08291161  0.89394002  1
  Ti  Ti178  1  0.40156267  0.19395777  0.61447010  1
  Ti  Ti179  1  0.61007249  0.18784523  0.80834432  1
  Ti  Ti180  1  0.89915174  0.29352960  0.69895665  1
  Ti  Ti181  1  0.20514682  0.79938309  0.39948597  1
  Ti  Ti182  1  0.49833914  0.69953141  0.29611883  1
  Ti  Ti183  1  0.90765369  0.10009599  0.50667676  1
  Ti  Ti184  1  0.10541801  0.09776453  0.89903658  1
  Ti  Ti185  1  0.00514010  0.80345768  0.20169878  1
  Ti  Ti186  1  0.39979813  0.40569234  0.20721695  1
  Ti  Ti187  1  0.39727399  0.60410223  0.80067543  1
  Ti  Ti188  1  -0.00103675  0.20180754  0.60463570  1
  Ti  Ti189  1  0.69684950  0.50283614  0.49190582  1
  Ti  Ti190  1  0.10626506  0.89984061  0.09454701  1
  Ti  Ti191  1  0.59780611  0.19912683  0.38859928  1
  Ti  Ti192  1  0.59987987  0.80296721  0.80145610  1
  Ti  Ti193  1  0.60515022  0.00201742  -0.01002073  1
  Ti  Ti194  1  0.00384025  0.39191327  0.60390124  1
  Ti  Ti195  1  0.89404686  0.49148517  0.09127039  1
  Ti  Ti196  1  -0.00075342  0.60602826  0.40680620  1
  Ti  Ti197  1  0.60491374  0.18522015  -0.00561126  1
  Ti  Ti198  1  0.20346551  0.20529519  0.80436300  1
  Ti  Ti199  1  0.60690692  0.18475197  0.61289050  1
  Mo  Mo200  1  0.69847532  0.09722167  0.89907941  1
  Mo  Mo201  1  0.30190303  0.50163028  0.30151563  1
  Mo  Mo202  1  0.70102558  0.90343441  0.89446477  1
  Mo  Mo203  1  0.50172499  0.09579038  0.29668034  1
  Mo  Mo204  1  0.69204127  0.11330859  0.50127427  1
  Mo  Mo205  1  0.39579454  0.80430124  0.19759723  1
  Mo  Mo206  1  0.10453553  0.70329535  0.89661327  1
  Mo  Mo207  1  0.02035483  0.80203119  0.59944905  1
  Mo  Mo208  1  0.78368776  0.79657061  0.59755774  1
  Mo  Mo209  1  0.30021094  0.89539107  0.09624699  1
  Mo  Mo210  1  0.69429184  0.10177782  0.09583081  1
  Mo  Mo211  1  0.10189592  0.89648139  0.30323557  1
  Mo  Mo212  1  0.80049022  0.00210975  -0.01047474  1
  Mo  Mo213  1  0.59794979  0.60375685  0.59792010  1
  Mo  Mo214  1  0.79991279  0.40122721  0.40178386  1
  Mo  Mo215  1  0.49897644  0.10423790  0.70886352  1
  Mo  Mo216  1  0.90124393  0.49663034  0.90848488  1
  Mo  Mo217  1  0.49544901  0.90533218  0.90043127  1
  Mo  Mo218  1  0.09520906  0.30184639  0.70321475  1
  Mo  Mo219  1  0.91400613  0.69709984  0.50226216  1
  Mo  Mo220  1  0.00406234  0.80765801  0.79642912  1
  Mo  Mo221  1  0.39318718  0.80272217  0.80370403  1
  Mo  Mo222  1  0.39841415  0.18607955  -0.00201337  1
  Mo  Mo223  1  0.19442130  0.40312328  0.59797972  1
  Mo  Mo224  1  0.40549443  0.60248274  0.20416683  1
  Mo  Mo225  1  0.10518703  0.70463931  0.69750417  1
  Mo  Mo226  1  0.19900250  0.60343146  0.40197860  1
  Mo  Mo227  1  0.39361427  0.80815106  -0.00067036  1
  Mo  Mo228  1  0.49510593  0.70313251  0.69919708  1
  Mo  Mo229  1  0.20009246  -0.00504657  0.80428630  1
  Mo  Mo230  1  0.40739649  0.40109757  0.39314636  1
  Mo  Mo231  1  0.10383560  0.49770783  0.89421196  1
  Mo  Mo232  1  0.59045408  0.79312577  0.40666030  1
  Mo  Mo233  1  0.30245148  0.30855480  0.90017652  1
  Mo  Mo234  1  0.59026145  0.41026578  -0.00192711  1
  Mo  Mo235  1  0.20497388  0.80502709  -0.00163911  1
  Mo  Mo236  1  0.69811597  0.50674354  0.70469062  1
  Mo  Mo237  1  0.30617565  0.08943097  0.09517849  1
  Mo  Mo238  1  0.80883429  0.39685038  0.00179450  1
  Mo  Mo239  1  0.29999496  0.89615143  0.29363379  1
  Mo  Mo240  1  0.69718488  0.29565419  0.89597136  1
  Mo  Mo241  1  0.40132180  -0.00289597  0.80905957  1
  Mo  Mo242  1  0.29920824  0.70849075  0.50490370  1
  Mo  Mo243  1  0.70006383  0.30147414  0.29968419  1
  Mo  Mo244  1  0.19853593  0.40462859  0.80518405  1
  Mo  Mo245  1  -0.00383051  0.39784670  -0.00058034  1
  Mo  Mo246  1  0.69122508  0.88008694  0.50808056  1
  Mo  Mo247  1  0.80497874  0.19651443  0.79980485  1
  Mo  Mo248  1  0.30364856  0.50716565  0.88908491  1
  Mo  Mo249  1  0.70241635  0.09865848  0.70301104  1
