# generated using pymatgen
data_HfZrTaTiMo
_symmetry_space_group_name_H-M   'P 1'
_cell_length_a   16.88261864
_cell_length_b   16.87730525
_cell_length_c   16.87939981
_cell_angle_alpha   89.97302171
_cell_angle_beta   89.97068847
_cell_angle_gamma   89.98134825
_symmetry_Int_Tables_number   1
_chemical_formula_structural   HfZrTaTiMo
_chemical_formula_sum   'Hf50 Zr50 Ta50 Ti50 Mo50'
_cell_volume   4809.49843489
_cell_formula_units_Z   50
loop_
 _symmetry_equiv_pos_site_id
 _symmetry_equiv_pos_as_xyz
  1  'x, y, z'
loop_
 _atom_site_type_symbol
 _atom_site_label
 _atom_site_symmetry_multiplicity
 _atom_site_fract_x
 _atom_site_fract_y
 _atom_site_fract_z
 _atom_site_occupancy
  Hf  Hf0  1  0.40094953  0.40448688  0.39615834  1
  Hf  Hf1  1  0.00019763  0.39868742  0.79847703  1
  Hf  Hf2  1  0.29879160  0.29734674  0.29463230  1
  Hf  Hf3  1  -0.00087960  0.79919606  0.79610692  1
  Hf  Hf4  1  0.89904482  0.29853584  0.69525434  1
  Hf  Hf5  1  0.49593407  0.29764922  0.29936210  1
  Hf  Hf6  1  0.39328831  -0.00088961  -0.01003185  1
  Hf  Hf7  1  0.30269015  0.88527695  0.70427118  1
  Hf  Hf8  1  0.29348338  0.29858030  0.49238762  1
  Hf  Hf9  1  0.39823701  -0.00821719  0.79779175  1
  Hf  Hf10  1  0.59109621  0.40515443  0.20446918  1
  Hf  Hf11  1  0.40423792  0.80402118  0.39627432  1
  Hf  Hf12  1  0.60625315  0.40063899  0.39550006  1
  Hf  Hf13  1  0.30716268  0.10131322  0.29290642  1
  Hf  Hf14  1  0.70192651  0.89216863  0.91104082  1
  Hf  Hf15  1  0.09469310  0.09474643  0.49083650  1
  Hf  Hf16  1  0.70250192  0.70667119  0.28984597  1
  Hf  Hf17  1  0.09519986  0.30126966  0.49806052  1
  Hf  Hf18  1  0.40208418  0.60406068  0.39662995  1
  Hf  Hf19  1  0.69447926  0.09218937  0.10543261  1
  Hf  Hf20  1  0.20194090  0.19680357  0.60653213  1
  Hf  Hf21  1  0.18744372  0.41332832  0.39493425  1
  Hf  Hf22  1  0.10352566  0.90508921  0.90052573  1
  Hf  Hf23  1  0.69769262  0.50508452  0.09801979  1
  Hf  Hf24  1  0.80018918  0.39166651  -0.00117889  1
  Hf  Hf25  1  0.40884349  0.59745387  0.18874250  1
  Hf  Hf26  1  0.49390928  0.30693360  0.89478600  1
  Hf  Hf27  1  0.20166029  0.40627631  0.19254163  1
  Hf  Hf28  1  0.01147274  0.60737199  0.79942732  1
  Hf  Hf29  1  -0.00157002  0.79037042  0.00520075  1
  Hf  Hf30  1  0.79722534  0.39103743  0.80768534  1
  Hf  Hf31  1  0.19606968  0.00564925  0.19637786  1
  Hf  Hf32  1  0.60036566  0.20399977  -0.00162131  1
  Hf  Hf33  1  0.59586509  0.59475185  0.60382982  1
  Hf  Hf34  1  0.09625558  0.29551559  0.09760558  1
  Hf  Hf35  1  0.50724900  0.30219376  0.69751801  1
  Hf  Hf36  1  0.39293905  0.19487949  0.60229148  1
  Hf  Hf37  1  0.80739277  0.59943419  0.39247059  1
  Hf  Hf38  1  0.89534209  0.50225462  0.69820907  1
  Hf  Hf39  1  0.89352772  0.31983279  0.30724178  1
  Hf  Hf40  1  0.10043508  0.50106165  0.89793883  1
  Hf  Hf41  1  0.20747068  0.19601989  -0.00655822  1
  Hf  Hf42  1  0.58699966  0.61148617  -0.00510451  1
  Hf  Hf43  1  0.72252819  0.49437523  0.27944382  1
  Hf  Hf44  1  0.39779407  0.58651099  0.61541623  1
  Hf  Hf45  1  0.70152815  0.29734949  0.50866992  1
  Hf  Hf46  1  0.21168595  0.00492193  0.60618752  1
  Hf  Hf47  1  -0.00371921  0.19925769  0.20299535  1
  Hf  Hf48  1  0.48939061  0.70317709  0.70967783  1
  Hf  Hf49  1  0.30679218  0.89455079  0.10492732  1
  Zr  Zr50  1  0.70519684  0.08740556  0.90340667  1
  Zr  Zr51  1  0.49556865  0.09455156  0.10028963  1
  Zr  Zr52  1  0.00115390  0.00318033  0.61257899  1
  Zr  Zr53  1  0.59047894  -0.00765259  0.80142384  1
  Zr  Zr54  1  0.60421931  0.19024862  0.39853651  1
  Zr  Zr55  1  0.10509611  0.89316104  0.50261870  1
  Zr  Zr56  1  0.70103720  0.70196513  0.50320229  1
  Zr  Zr57  1  0.69482215  0.90001716  0.10530698  1
  Zr  Zr58  1  0.60085828  0.59173796  0.38965718  1
  Zr  Zr59  1  0.41198425  0.00078119  0.39442796  1
  Zr  Zr60  1  0.88751353  0.50108997  0.11747655  1
  Zr  Zr61  1  -0.00676008  0.78619332  0.40022840  1
  Zr  Zr62  1  0.49874378  0.49559538  0.50211316  1
  Zr  Zr63  1  0.08673707  0.50318973  0.09740467  1
  Zr  Zr64  1  0.09568684  0.90149030  0.30055375  1
  Zr  Zr65  1  0.20393752  0.60676004  -0.00778070  1
  Zr  Zr66  1  0.10286625  0.28726372  0.89170345  1
  Zr  Zr67  1  -0.01373964  0.39109916  0.00201567  1
  Zr  Zr68  1  0.20095016  0.00359059  -0.00057984  1
  Zr  Zr69  1  0.79918549  0.61127641  0.00572370  1
  Zr  Zr70  1  0.29839569  0.70028313  0.51210443  1
  Zr  Zr71  1  0.39392904  0.41087457  -0.00486555  1
  Zr  Zr72  1  0.90148008  0.91650603  0.49406967  1
  Zr  Zr73  1  0.38987486  0.19927276  0.79748652  1
  Zr  Zr74  1  0.29962778  0.50840034  0.29537853  1
  Zr  Zr75  1  0.19666289  0.60404089  0.18562664  1
  Zr  Zr76  1  0.89998159  0.90102595  0.29913645  1
  Zr  Zr77  1  0.69683356  0.30467521  0.11288009  1
  Zr  Zr78  1  0.11308655  0.89332232  0.70204066  1
  Zr  Zr79  1  0.60736104  0.20468243  0.80521718  1
  Zr  Zr80  1  0.90479867  0.68502637  0.51040523  1
  Zr  Zr81  1  -0.00165903  0.20158857  0.39266919  1
  Zr  Zr82  1  0.70141999  0.90695084  0.69620101  1
  Zr  Zr83  1  0.69855876  0.50607707  0.89518189  1
  Zr  Zr84  1  0.70324601  0.69676270  0.70321886  1
  Zr  Zr85  1  0.69863895  0.09987969  0.69072768  1
  Zr  Zr86  1  0.10551530  0.70866297  0.29121941  1
  Zr  Zr87  1  0.80487065  0.20263746  0.00217478  1
  Zr  Zr88  1  0.59728814  0.80454356  0.40060550  1
  Zr  Zr89  1  -0.00208517  0.00642022  0.80015676  1
  Zr  Zr90  1  0.19773596  0.79267279  0.00264073  1
  Zr  Zr91  1  0.80270592  0.19604436  0.21051437  1
  Zr  Zr92  1  0.88719832  0.70105142  0.89761657  1
  Zr  Zr93  1  0.89599726  0.90310798  0.90734506  1
  Zr  Zr94  1  0.39023611  0.39833696  0.60694777  1
  Zr  Zr95  1  0.20765860  -0.00197568  0.39511146  1
  Zr  Zr96  1  0.90760635  0.48970671  0.50187098  1
  Zr  Zr97  1  0.89314778  0.68875392  0.69518053  1
  Zr  Zr98  1  0.10503115  0.69228828  0.50771046  1
  Zr  Zr99  1  0.21056823  0.40045988  -0.00496487  1
  Ta  Ta100  1  0.89685416  0.10192785  0.49982485  1
  Ta  Ta101  1  0.59614753  0.80584607  0.60433006  1
  Ta  Ta102  1  0.59585995  0.60512732  0.19356371  1
  Ta  Ta103  1  0.79832120  0.80518307  0.79450474  1
  Ta  Ta104  1  0.80768525  0.00176005  0.19949828  1
  Ta  Ta105  1  0.50335007  0.29446913  0.50477683  1
  Ta  Ta106  1  0.00992297  0.39898569  0.60433179  1
  Ta  Ta107  1  0.40648955  0.19656265  0.19837445  1
  Ta  Ta108  1  0.30249137  0.70877605  0.28843872  1
  Ta  Ta109  1  0.30009082  0.69409073  0.71182720  1
  Ta  Ta110  1  0.20453011  0.78648277  0.81519384  1
  Ta  Ta111  1  0.30772817  0.29306951  0.10177780  1
  Ta  Ta112  1  0.49577827  0.10084705  0.89852279  1
  Ta  Ta113  1  -0.00406374  0.79979437  0.60769636  1
  Ta  Ta114  1  0.59759116  0.19721590  0.20901741  1
  Ta  Ta115  1  0.80880417  -0.00046847  0.01106434  1
  Ta  Ta116  1  0.70264614  0.90867981  0.49907455  1
  Ta  Ta117  1  0.80610478  0.81274706  0.59859597  1
  Ta  Ta118  1  0.21287008  0.80063801  0.39815018  1
  Ta  Ta119  1  0.89768296  0.50923197  0.89559330  1
  Ta  Ta120  1  0.50180550  0.90233153  0.50464129  1
  Ta  Ta121  1  0.49522929  0.29917990  0.09798977  1
  Ta  Ta122  1  0.60433220  0.40402257  0.60265793  1
  Ta  Ta123  1  0.59369231  0.79889786  0.80318607  1
  Ta  Ta124  1  0.00019556  0.00895052  0.19837608  1
  Ta  Ta125  1  0.00236822  0.19589165  0.60752556  1
  Ta  Ta126  1  0.79786497  0.19998277  0.40239546  1
  Ta  Ta127  1  0.40569431  0.19510160  0.40112493  1
  Ta  Ta128  1  0.59903341  0.39776657  -0.00933094  1
  Ta  Ta129  1  0.50269933  0.09987745  0.69602692  1
  Ta  Ta130  1  0.30602391  0.89595070  0.50680543  1
  Ta  Ta131  1  0.00388747  0.58862288  0.38467240  1
  Ta  Ta132  1  0.49488630  0.89742198  0.10255494  1
  Ta  Ta133  1  0.59949329  -0.00071382  0.39959561  1
  Ta  Ta134  1  0.40360676  -0.00006427  0.60312390  1
  Ta  Ta135  1  0.80265126  0.19872212  0.59846648  1
  Ta  Ta136  1  0.09414318  0.89486324  0.10890977  1
  Ta  Ta137  1  0.70179032  0.30120668  0.69692246  1
  Ta  Ta138  1  0.39780649  0.60333463  -0.00672303  1
  Ta  Ta139  1  0.80045901  0.80107054  0.40238978  1
  Ta  Ta140  1  0.59301451  0.60197791  0.80029022  1
  Ta  Ta141  1  0.70580576  0.90473528  0.30130372  1
  Ta  Ta142  1  0.19710405  0.40307339  0.60477370  1
  Ta  Ta143  1  0.49807577  0.70426847  0.29025004  1
  Ta  Ta144  1  0.90094284  0.30126005  0.50528235  1
  Ta  Ta145  1  0.69927133  0.49462454  0.70491613  1
  Ta  Ta146  1  0.69554360  0.71388843  0.09788726  1
  Ta  Ta147  1  0.30986255  0.70692886  0.10189540  1
  Ta  Ta148  1  -0.01185047  0.61400534  0.20389563  1
  Ta  Ta149  1  0.80229471  0.19802207  0.80220456  1
  Ti  Ti150  1  0.39304187  0.20031649  -0.00698219  1
  Ti  Ti151  1  0.90647542  0.28555935  0.89835932  1
  Ti  Ti152  1  0.59228974  0.80742375  0.20307210  1
  Ti  Ti153  1  0.90319853  0.89799637  0.10262051  1
  Ti  Ti154  1  0.78544331  0.58199379  0.59221428  1
  Ti  Ti155  1  0.89073095  0.09977824  0.69537401  1
  Ti  Ti156  1  0.49750569  0.50157739  0.88676598  1
  Ti  Ti157  1  0.19610638  0.19666295  0.19810280  1
  Ti  Ti158  1  0.49769233  0.88798360  0.90425749  1
  Ti  Ti159  1  0.59344865  -0.00257084  0.59766040  1
  Ti  Ti160  1  0.29235115  0.50283186  0.50077640  1
  Ti  Ti161  1  0.90486578  0.10178876  0.09711093  1
  Ti  Ti162  1  0.30215125  0.09950423  0.49427374  1
  Ti  Ti163  1  0.28574238  0.09616075  0.88072176  1
  Ti  Ti164  1  0.00141768  0.00352527  0.00523813  1
  Ti  Ti165  1  0.00014339  0.18984841  0.79648437  1
  Ti  Ti166  1  0.19616503  0.19557821  0.38992710  1
  Ti  Ti167  1  0.50004943  0.70168353  0.50355752  1
  Ti  Ti168  1  0.70687861  0.09163626  0.50378697  1
  Ti  Ti169  1  0.30724709  0.89565800  0.28787833  1
  Ti  Ti170  1  0.69663302  0.70970110  0.90122215  1
  Ti  Ti171  1  0.30695287  0.10220069  0.10396864  1
  Ti  Ti172  1  0.10261156  0.29663552  0.70388366  1
  Ti  Ti173  1  -0.00036309  0.40874607  0.21154935  1
  Ti  Ti174  1  0.50574591  0.10237205  0.50729628  1
  Ti  Ti175  1  0.11928139  0.10083557  0.72245265  1
  Ti  Ti176  1  0.19660720  0.60180617  0.39351590  1
  Ti  Ti177  1  0.58713530  -0.00023208  0.21498507  1
  Ti  Ti178  1  0.20309905  0.59153406  0.61168505  1
  Ti  Ti179  1  0.50221877  0.49592862  0.09094365  1
  Ti  Ti180  1  -0.00302041  0.60954373  0.00439984  1
  Ti  Ti181  1  0.80748624  -0.00109605  0.79792174  1
  Ti  Ti182  1  0.09963014  0.30499042  0.29851717  1
  Ti  Ti183  1  0.79251355  0.40391581  0.40876951  1
  Ti  Ti184  1  0.40718568  0.80355415  0.60243975  1
  Ti  Ti185  1  0.29512172  0.50776083  0.87857149  1
  Ti  Ti186  1  0.39211287  0.40852781  0.79327121  1
  Ti  Ti187  1  0.81159672  0.79744418  0.19736466  1
  Ti  Ti188  1  0.70319783  0.09094709  0.30187285  1
  Ti  Ti189  1  0.09641718  0.50556297  0.50621507  1
  Ti  Ti190  1  0.28519917  0.30510313  0.71414446  1
  Ti  Ti191  1  0.40011416  0.40636601  0.19315393  1
  Ti  Ti192  1  0.49925130  0.71664371  0.09550501  1
  Ti  Ti193  1  0.39751254  0.79494827  -0.01232953  1
  Ti  Ti194  1  0.59068323  -0.00460896  -0.00253802  1
  Ti  Ti195  1  0.10954829  0.49856909  0.70622856  1
  Ti  Ti196  1  0.11216814  0.70148869  0.69488606  1
  Ti  Ti197  1  0.09355519  0.10424696  0.09284423  1
  Ti  Ti198  1  0.89958055  0.08741144  0.31466658  1
  Ti  Ti199  1  0.90626862  0.10238729  0.90653854  1
  Mo  Mo200  1  0.20443043  0.80335490  0.19912962  1
  Mo  Mo201  1  0.50529615  0.49553965  0.71191096  1
  Mo  Mo202  1  0.28931222  0.49945518  0.70580786  1
  Mo  Mo203  1  0.09683672  0.69804610  0.89984214  1
  Mo  Mo204  1  0.89690887  0.70246283  0.29831055  1
  Mo  Mo205  1  0.79622129  0.80550510  0.00723142  1
  Mo  Mo206  1  0.30148705  0.89211410  0.89926042  1
  Mo  Mo207  1  0.59923823  0.40443725  0.79712290  1
  Mo  Mo208  1  0.40569876  0.79956255  0.19990821  1
  Mo  Mo209  1  0.31079214  0.50455136  0.09590820  1
  Mo  Mo210  1  0.20154304  0.60275063  0.79697430  1
  Mo  Mo211  1  0.70198119  0.49264413  0.50503469  1
  Mo  Mo212  1  0.90544261  0.30009522  0.10973341  1
  Mo  Mo213  1  0.49953144  0.89598537  0.69489240  1
  Mo  Mo214  1  0.30133685  0.09288365  0.70086242  1
  Mo  Mo215  1  0.00587348  0.40546501  0.40333100  1
  Mo  Mo216  1  0.19877126  0.40049034  0.79642524  1
  Mo  Mo217  1  0.89443015  0.89933575  0.69807639  1
  Mo  Mo218  1  0.40206009  -0.00118120  0.19694423  1
  Mo  Mo219  1  0.90210050  0.50217263  0.30058679  1
  Mo  Mo220  1  0.50625677  0.90111480  0.29720714  1
  Mo  Mo221  1  -0.00281182  0.80234031  0.19297933  1
  Mo  Mo222  1  0.30163037  0.30191345  0.89548411  1
  Mo  Mo223  1  0.09188808  0.70325790  0.10185447  1
  Mo  Mo224  1  0.79735601  0.62067266  0.19831955  1
  Mo  Mo225  1  0.59138299  0.80056778  0.00036445  1
  Mo  Mo226  1  0.50253534  0.09921810  0.29929156  1
  Mo  Mo227  1  0.70275943  0.29940303  0.30771805  1
  Mo  Mo228  1  0.50117983  0.50613017  0.29249388  1
  Mo  Mo229  1  0.39923934  0.79678583  0.81001589  1
  Mo  Mo230  1  0.20097415  0.20032961  0.79977191  1
  Mo  Mo231  1  0.00203506  0.00863040  0.39326657  1
  Mo  Mo232  1  -0.00059169  0.18991445  0.00104668  1
  Mo  Mo233  1  0.79246264  0.00616323  0.39674678  1
  Mo  Mo234  1  0.09548819  0.50539927  0.29407537  1
  Mo  Mo235  1  0.20856654  0.79447477  0.60188287  1
  Mo  Mo236  1  0.80366755  0.38701857  0.19621917  1
  Mo  Mo237  1  0.30895004  0.69702091  0.89894250  1
  Mo  Mo238  1  0.10186583  0.10300996  0.29348269  1
  Mo  Mo239  1  0.20489696  -0.00554348  0.80245936  1
  Mo  Mo240  1  0.60006588  0.19740458  0.59776233  1
  Mo  Mo241  1  0.79809014  0.39591959  0.60376079  1
  Mo  Mo242  1  0.79003719  0.59957393  0.80143075  1
  Mo  Mo243  1  0.09576822  0.09801386  0.89917030  1
  Mo  Mo244  1  0.80137394  0.00665604  0.59447045  1
  Mo  Mo245  1  0.49808139  0.70338528  0.89921497  1
  Mo  Mo246  1  0.01951023  0.59214308  0.61038934  1
  Mo  Mo247  1  0.69912950  0.30071036  0.89584915  1
  Mo  Mo248  1  0.89524554  0.70562215  0.10542240  1
  Mo  Mo249  1  0.39920732  0.59619149  0.80624651  1
