# generated using pymatgen
data_HfZrTaTiMo
_symmetry_space_group_name_H-M   'P 1'
_cell_length_a   16.89171189
_cell_length_b   16.89309657
_cell_length_c   16.89327412
_cell_angle_alpha   89.95826207
_cell_angle_beta   89.99987548
_cell_angle_gamma   89.97263899
_symmetry_Int_Tables_number   1
_chemical_formula_structural   HfZrTaTiMo
_chemical_formula_sum   'Hf50 Zr50 Ta50 Ti50 Mo50'
_cell_volume   4820.55003143
_cell_formula_units_Z   50
loop_
 _symmetry_equiv_pos_site_id
 _symmetry_equiv_pos_as_xyz
  1  'x, y, z'
loop_
 _atom_site_type_symbol
 _atom_site_label
 _atom_site_symmetry_multiplicity
 _atom_site_fract_x
 _atom_site_fract_y
 _atom_site_fract_z
 _atom_site_occupancy
  Hf  Hf0  1  0.59413938  -0.00696506  0.39917844  1
  Hf  Hf1  1  -0.00584657  0.20010260  0.80571149  1
  Hf  Hf2  1  0.59555964  0.39967663  0.19721465  1
  Hf  Hf3  1  0.70562512  0.30116784  0.29683947  1
  Hf  Hf4  1  0.49827630  0.30429774  0.89281813  1
  Hf  Hf5  1  0.10157196  0.69711448  0.51139635  1
  Hf  Hf6  1  0.30140413  0.30177585  0.70773230  1
  Hf  Hf7  1  0.89708923  0.50111621  0.29698507  1
  Hf  Hf8  1  0.70422684  0.10369996  0.30312811  1
  Hf  Hf9  1  0.80170483  0.60386866  0.40801616  1
  Hf  Hf10  1  -0.00343026  0.79785711  0.41038567  1
  Hf  Hf11  1  0.39979438  0.79915649  0.40438408  1
  Hf  Hf12  1  0.80611440  0.19142185  0.80270980  1
  Hf  Hf13  1  0.79278843  0.59782986  0.60175164  1
  Hf  Hf14  1  0.29270982  0.49916941  0.10237762  1
  Hf  Hf15  1  0.79445516  0.40667655  0.40535528  1
  Hf  Hf16  1  0.00464985  0.20053357  0.40122738  1
  Hf  Hf17  1  0.80275106  0.39662962  0.80824595  1
  Hf  Hf18  1  0.81887505  0.19992429  0.40205588  1
  Hf  Hf19  1  0.60822396  0.60108356  0.80321958  1
  Hf  Hf20  1  0.89762033  0.70373295  0.89526169  1
  Hf  Hf21  1  -0.00346437  0.20270536  0.20270718  1
  Hf  Hf22  1  0.69774664  0.29436310  0.70316915  1
  Hf  Hf23  1  0.59031354  0.80811556  0.19727867  1
  Hf  Hf24  1  0.38662841  0.60674445  0.40353302  1
  Hf  Hf25  1  0.60885771  0.41133351  0.00170604  1
  Hf  Hf26  1  0.00570846  -0.00920678  -0.00765478  1
  Hf  Hf27  1  0.39750615  0.39626811  0.00615782  1
  Hf  Hf28  1  0.58682658  0.20502519  0.19956421  1
  Hf  Hf29  1  0.81574585  0.00924688  0.20858620  1
  Hf  Hf30  1  0.70532868  0.89756228  0.30598695  1
  Hf  Hf31  1  0.20953243  -0.00095676  0.79616125  1
  Hf  Hf32  1  0.00668651  0.39231901  0.81113350  1
  Hf  Hf33  1  0.28919412  0.49206849  0.29454218  1
  Hf  Hf34  1  0.90025842  0.49328279  0.91117179  1
  Hf  Hf35  1  0.10352504  0.30329244  0.69805429  1
  Hf  Hf36  1  0.90856583  0.10000193  0.08825088  1
  Hf  Hf37  1  0.00260605  0.59575033  0.80068511  1
  Hf  Hf38  1  0.49992857  0.51526926  0.10388850  1
  Hf  Hf39  1  0.20024678  0.81531545  0.60294351  1
  Hf  Hf40  1  0.30452391  0.89256590  0.29152088  1
  Hf  Hf41  1  0.19645212  -0.00603678  0.19033396  1
  Hf  Hf42  1  0.58564241  0.20910958  0.39914233  1
  Hf  Hf43  1  0.49620671  0.70125338  0.29217603  1
  Hf  Hf44  1  0.09597807  0.69962237  0.70058376  1
  Hf  Hf45  1  0.60507966  0.59482403  0.40342247  1
  Hf  Hf46  1  0.29988441  0.10415363  0.09563530  1
  Hf  Hf47  1  0.10152260  0.69893413  0.09619804  1
  Hf  Hf48  1  -0.00188627  0.60077299  0.40416637  1
  Hf  Hf49  1  0.50152355  0.50054250  0.89361118  1
  Zr  Zr50  1  0.19806000  0.20762558  0.40289042  1
  Zr  Zr51  1  0.69914532  0.70083152  0.29563071  1
  Zr  Zr52  1  0.60880749  0.80657366  0.80172599  1
  Zr  Zr53  1  0.39818305  0.40659556  0.60722211  1
  Zr  Zr54  1  0.81149908  0.20066422  -0.01234946  1
  Zr  Zr55  1  0.90813098  0.89166083  0.29538982  1
  Zr  Zr56  1  0.11495240  0.30661288  0.28322227  1
  Zr  Zr57  1  0.89860262  0.70401493  0.10326128  1
  Zr  Zr58  1  0.38842715  0.60630088  -0.00762816  1
  Zr  Zr59  1  0.39149896  0.79706980  0.60254390  1
  Zr  Zr60  1  0.70466981  0.09726278  0.09666437  1
  Zr  Zr61  1  0.49497064  0.50742599  0.29394324  1
  Zr  Zr62  1  0.29943750  0.08760094  0.50548679  1
  Zr  Zr63  1  0.00799250  0.80502041  -0.00701352  1
  Zr  Zr64  1  0.49434629  0.70667699  0.90139708  1
  Zr  Zr65  1  0.39918351  0.39162193  0.39838962  1
  Zr  Zr66  1  0.89654166  0.89243935  0.70009598  1
  Zr  Zr67  1  -0.00395117  0.59712002  0.19900263  1
  Zr  Zr68  1  -0.00058376  0.20271119  0.58838151  1
  Zr  Zr69  1  0.19985568  -0.00992855  -0.00907128  1
  Zr  Zr70  1  0.20586894  0.80021044  0.40876559  1
  Zr  Zr71  1  0.50839510  0.70199563  0.69489618  1
  Zr  Zr72  1  0.20146766  0.80294958  0.79902025  1
  Zr  Zr73  1  0.70323898  0.09430557  0.49957308  1
  Zr  Zr74  1  0.48938086  0.09823295  0.70266020  1
  Zr  Zr75  1  0.20105158  0.19893114  0.59777709  1
  Zr  Zr76  1  0.39632736  0.20950494  0.39772880  1
  Zr  Zr77  1  0.40305570  -0.00019973  -0.00877990  1
  Zr  Zr78  1  0.59055121  -0.00197671  0.20004200  1
  Zr  Zr79  1  0.09740879  0.70317329  0.29624579  1
  Zr  Zr80  1  0.79104381  0.59125554  0.00250617  1
  Zr  Zr81  1  0.59587401  0.19958465  0.59604444  1
  Zr  Zr82  1  0.59380478  0.39592031  0.58820979  1
  Zr  Zr83  1  -0.00062521  -0.00263006  0.80360087  1
  Zr  Zr84  1  0.68633108  0.71063178  0.51128506  1
  Zr  Zr85  1  0.59685071  0.19456923  -0.00310530  1
  Zr  Zr86  1  0.69069721  0.48962560  0.70563710  1
  Zr  Zr87  1  0.00350188  0.39390767  0.40632372  1
  Zr  Zr88  1  0.70806862  0.30020915  0.09647460  1
  Zr  Zr89  1  0.48888507  0.08862367  0.50392493  1
  Zr  Zr90  1  0.10391561  0.11382626  0.09765927  1
  Zr  Zr91  1  0.49398967  0.50863761  0.50129609  1
  Zr  Zr92  1  0.29285819  0.09894971  0.29550735  1
  Zr  Zr93  1  0.10350985  0.11106057  0.90232835  1
  Zr  Zr94  1  0.70942812  0.90410138  0.09989638  1
  Zr  Zr95  1  0.90433020  0.49548511  0.69914394  1
  Zr  Zr96  1  0.60612882  0.18946191  0.80594167  1
  Zr  Zr97  1  0.80109231  0.39383650  0.59032915  1
  Zr  Zr98  1  0.09787385  0.89955142  0.29991991  1
  Zr  Zr99  1  0.60168703  -0.00369451  0.80789773  1
  Ta  Ta100  1  0.39778209  0.20635066  0.60303850  1
  Ta  Ta101  1  0.80557859  0.40707438  0.18549858  1
  Ta  Ta102  1  0.79644045  -0.00016208  0.80752821  1
  Ta  Ta103  1  -0.00136686  0.59730758  0.60299162  1
  Ta  Ta104  1  0.00293440  0.59542328  0.00005315  1
  Ta  Ta105  1  0.30262062  0.30085983  0.89458482  1
  Ta  Ta106  1  0.10388663  0.09596413  0.69388460  1
  Ta  Ta107  1  0.80839174  0.19686843  0.59848187  1
  Ta  Ta108  1  0.59785954  -0.00441231  -0.00949285  1
  Ta  Ta109  1  0.70834692  0.09194689  0.69571051  1
  Ta  Ta110  1  0.90335853  0.29985400  0.69596377  1
  Ta  Ta111  1  0.39976789  0.38683995  0.19755879  1
  Ta  Ta112  1  0.80703186  0.79660718  0.40786452  1
  Ta  Ta113  1  0.10409560  0.69477217  0.89782019  1
  Ta  Ta114  1  0.20222098  0.60096824  -0.00691337  1
  Ta  Ta115  1  0.79411017  0.80325263  -0.00208378  1
  Ta  Ta116  1  0.10382052  0.08301247  0.50005261  1
  Ta  Ta117  1  0.19610342  0.59449516  0.40032712  1
  Ta  Ta118  1  0.49951807  0.89741415  0.51013306  1
  Ta  Ta119  1  0.10374019  0.49656930  0.51137606  1
  Ta  Ta120  1  0.59807472  0.80734990  -0.00257469  1
  Ta  Ta121  1  0.20386592  0.40710127  0.80454049  1
  Ta  Ta122  1  -0.00424290  0.40029238  0.18740188  1
  Ta  Ta123  1  0.49718290  0.30435109  0.71056404  1
  Ta  Ta124  1  0.81589668  0.20347593  0.20041123  1
  Ta  Ta125  1  0.89819915  0.70543754  0.70256897  1
  Ta  Ta126  1  0.90330083  0.89890917  0.09913146  1
  Ta  Ta127  1  0.19823316  0.80067582  0.18877185  1
  Ta  Ta128  1  0.59846630  0.39761441  0.39935084  1
  Ta  Ta129  1  0.81319445  -0.00471803  0.40533790  1
  Ta  Ta130  1  0.70103971  0.30858009  0.89982857  1
  Ta  Ta131  1  0.60623791  0.60500484  -0.00005877  1
  Ta  Ta132  1  0.79408014  0.60334084  0.80034143  1
  Ta  Ta133  1  0.39317349  0.59808253  0.61031345  1
  Ta  Ta134  1  0.00284577  -0.00552704  0.59713331  1
  Ta  Ta135  1  0.60288374  -0.00875743  0.60632577  1
  Ta  Ta136  1  0.39760214  0.20646422  0.00083452  1
  Ta  Ta137  1  0.09791410  0.30294874  0.08855188  1
  Ta  Ta138  1  0.30580599  0.88984123  0.09569005  1
  Ta  Ta139  1  0.49411843  0.90205697  0.70017289  1
  Ta  Ta140  1  0.20111498  0.39845493  -0.00791348  1
  Ta  Ta141  1  0.49317803  0.10005284  0.09740616  1
  Ta  Ta142  1  0.40396720  -0.00554138  0.19600129  1
  Ta  Ta143  1  0.69380385  0.70364716  0.10129761  1
  Ta  Ta144  1  0.10330004  0.49917766  0.90507528  1
  Ta  Ta145  1  0.30912951  0.88678966  0.90372600  1
  Ta  Ta146  1  0.39927232  0.20737332  0.19765735  1
  Ta  Ta147  1  0.28880869  0.50021258  0.50577318  1
  Ta  Ta148  1  0.10092541  0.49457033  0.09446992  1
  Ta  Ta149  1  0.39645633  0.80231509  0.79883707  1
  Ti  Ti150  1  0.49038674  0.09779696  0.29629060  1
  Ti  Ti151  1  0.80553180  0.79573822  0.20318286  1
  Ti  Ti152  1  0.29376031  0.70258028  0.29139471  1
  Ti  Ti153  1  0.10321092  0.09700364  0.30017398  1
  Ti  Ti154  1  0.70231243  0.29330712  0.49587400  1
  Ti  Ti155  1  0.40425715  -0.01105641  0.39178944  1
  Ti  Ti156  1  0.59946011  0.59303753  0.60526281  1
  Ti  Ti157  1  0.79677486  0.59772632  0.19576852  1
  Ti  Ti158  1  0.89923600  0.31002633  0.29595393  1
  Ti  Ti159  1  0.29318057  0.31095560  0.51018912  1
  Ti  Ti160  1  0.20541158  0.21011971  -0.00920253  1
  Ti  Ti161  1  0.00506406  0.80590130  0.80479433  1
  Ti  Ti162  1  0.28571699  0.29844252  0.10756193  1
  Ti  Ti163  1  0.29051996  0.69084135  0.50985880  1
  Ti  Ti164  1  0.90896538  0.49602491  0.50751259  1
  Ti  Ti165  1  0.20238992  0.79613096  -0.00490789  1
  Ti  Ti166  1  0.70112925  0.89760980  0.50329695  1
  Ti  Ti167  1  0.90530848  0.09083022  0.50249003  1
  Ti  Ti168  1  0.90178253  0.09419039  0.69571553  1
  Ti  Ti169  1  0.29574172  0.69673256  0.70473364  1
  Ti  Ti170  1  0.80230225  -0.00206739  0.59922757  1
  Ti  Ti171  1  -0.00181830  -0.00033204  0.40264838  1
  Ti  Ti172  1  0.20950852  0.59318089  0.80669869  1
  Ti  Ti173  1  0.69812548  0.50205751  0.29068866  1
  Ti  Ti174  1  0.20306734  0.59307596  0.61069371  1
  Ti  Ti175  1  0.00573667  -0.00101738  0.19522169  1
  Ti  Ti176  1  0.70500696  0.89722780  0.69842419  1
  Ti  Ti177  1  0.70433315  0.70770958  0.90115578  1
  Ti  Ti178  1  0.39412140  0.41560299  0.79785872  1
  Ti  Ti179  1  0.19653175  -0.01021713  0.40441657  1
  Ti  Ti180  1  0.90204118  0.89545322  0.50982614  1
  Ti  Ti181  1  0.19808345  0.39871380  0.40587392  1
  Ti  Ti182  1  0.88698031  0.89660664  0.89980514  1
  Ti  Ti183  1  0.50223744  0.70288438  0.50738144  1
  Ti  Ti184  1  0.48919124  0.89397496  0.09138588  1
  Ti  Ti185  1  0.30608004  0.91397731  0.51018669  1
  Ti  Ti186  1  0.09468485  0.90365255  0.69577019  1
  Ti  Ti187  1  0.38955978  0.60845053  0.19766571  1
  Ti  Ti188  1  0.10311974  0.49539209  0.29466590  1
  Ti  Ti189  1  0.39158351  0.59847954  0.79496926  1
  Ti  Ti190  1  0.59210898  0.80575359  0.40250039  1
  Ti  Ti191  1  0.20680261  0.19605251  0.80101791  1
  Ti  Ti192  1  0.39093281  0.00002200  0.80154206  1
  Ti  Ti193  1  0.79415699  0.79612151  0.60564037  1
  Ti  Ti194  1  0.19724839  0.60196844  0.19832988  1
  Ti  Ti195  1  0.48772001  0.10428306  0.89674304  1
  Ti  Ti196  1  0.30265059  0.70791228  0.09734255  1
  Ti  Ti197  1  0.10458049  0.49567198  0.69767648  1
  Ti  Ti198  1  0.49794656  0.70352311  0.09948036  1
  Ti  Ti199  1  0.90256609  0.70382366  0.51758831  1
  Mo  Mo200  1  0.49331745  0.30131700  0.50371727  1
  Mo  Mo201  1  0.90105970  0.49845325  0.09932156  1
  Mo  Mo202  1  -0.00050396  0.21546958  -0.00658644  1
  Mo  Mo203  1  0.70370187  0.89884427  0.90569466  1
  Mo  Mo204  1  0.29503165  0.50670208  0.70394063  1
  Mo  Mo205  1  0.40161105  0.79889495  -0.00092101  1
  Mo  Mo206  1  0.50024706  0.30319411  0.29744548  1
  Mo  Mo207  1  0.69325625  0.50108669  0.49593193  1
  Mo  Mo208  1  0.30823421  0.90805879  0.70403454  1
  Mo  Mo209  1  0.70004442  0.50878829  0.10680536  1
  Mo  Mo210  1  0.49575839  0.90067913  0.89732762  1
  Mo  Mo211  1  0.29632491  0.69865424  0.89428226  1
  Mo  Mo212  1  0.29765388  0.49849345  0.89715268  1
  Mo  Mo213  1  0.19973617  0.40608304  0.60624393  1
  Mo  Mo214  1  0.90218590  0.09010044  0.89899461  1
  Mo  Mo215  1  0.59845789  0.39901026  0.80365809  1
  Mo  Mo216  1  0.49422854  0.50311310  0.70582560  1
  Mo  Mo217  1  0.39522229  0.20041870  0.80217207  1
  Mo  Mo218  1  0.20041474  0.20100932  0.19390562  1
  Mo  Mo219  1  0.70786234  0.70286215  0.70287096  1
  Mo  Mo220  1  0.90587992  0.30397373  0.09408964  1
  Mo  Mo221  1  0.49566286  0.29575343  0.09643859  1
  Mo  Mo222  1  0.90130739  0.30094165  0.50279639  1
  Mo  Mo223  1  0.60106182  0.81303492  0.60232218  1
  Mo  Mo224  1  0.29797101  0.30255813  0.28721541  1
  Mo  Mo225  1  0.30528387  0.11366370  0.89557901  1
  Mo  Mo226  1  0.10089169  0.89227437  0.09889384  1
  Mo  Mo227  1  0.19772955  -0.00166936  0.60678553  1
  Mo  Mo228  1  0.80672536  -0.00465376  -0.00781868  1
  Mo  Mo229  1  0.80341805  0.39845763  0.00291832  1
  Mo  Mo230  1  0.49351991  0.89682187  0.30496744  1
  Mo  Mo231  1  0.91102194  0.09411131  0.30368229  1
  Mo  Mo232  1  0.09508261  0.90493732  0.50313399  1
  Mo  Mo233  1  0.90297343  0.30221595  0.90392636  1
  Mo  Mo234  1  0.11215523  0.89207058  0.89565209  1
  Mo  Mo235  1  0.10951694  0.30192519  0.89904854  1
  Mo  Mo236  1  0.70083938  0.50016078  0.90274001  1
  Mo  Mo237  1  0.79699516  0.79835633  0.80132408  1
  Mo  Mo238  1  0.30027404  0.10311096  0.70424958  1
  Mo  Mo239  1  0.00397987  0.39880001  0.00231740  1
  Mo  Mo240  1  0.39596622  0.79592443  0.19133479  1
  Mo  Mo241  1  0.60381392  0.60627446  0.19334479  1
  Mo  Mo242  1  0.10407196  0.31458829  0.50396959  1
  Mo  Mo243  1  -0.00226325  0.79964542  0.60358179  1
  Mo  Mo244  1  0.00453976  0.40212462  0.60185473  1
  Mo  Mo245  1  0.00255505  0.80366531  0.19172820  1
  Mo  Mo246  1  0.39707603  -0.00404905  0.61059265  1
  Mo  Mo247  1  0.89190831  0.69982154  0.30381225  1
  Mo  Mo248  1  0.70653712  0.08962285  0.90099193  1
  Mo  Mo249  1  0.19752564  0.40179047  0.18661928  1
