# generated using pymatgen
data_HfZrTaTiMo
_symmetry_space_group_name_H-M   'P 1'
_cell_length_a   16.88038652
_cell_length_b   16.88403039
_cell_length_c   16.89654999
_cell_angle_alpha   90.00641304
_cell_angle_beta   89.98015390
_cell_angle_gamma   89.97786063
_symmetry_Int_Tables_number   1
_chemical_formula_structural   HfZrTaTiMo
_chemical_formula_sum   'Hf50 Zr50 Ta50 Ti50 Mo50'
_cell_volume   4815.66744701
_cell_formula_units_Z   50
loop_
 _symmetry_equiv_pos_site_id
 _symmetry_equiv_pos_as_xyz
  1  'x, y, z'
loop_
 _atom_site_type_symbol
 _atom_site_label
 _atom_site_symmetry_multiplicity
 _atom_site_fract_x
 _atom_site_fract_y
 _atom_site_fract_z
 _atom_site_occupancy
  Hf  Hf0  1  0.59130916  -0.00970225  -0.00335917  1
  Hf  Hf1  1  0.90040101  0.09839355  0.50512927  1
  Hf  Hf2  1  0.20480651  0.58757528  -0.00105459  1
  Hf  Hf3  1  0.00438659  -0.00481334  0.20253842  1
  Hf  Hf4  1  0.60234080  0.21121266  0.40831427  1
  Hf  Hf5  1  0.90977919  0.29236994  0.50546954  1
  Hf  Hf6  1  0.00967136  0.79259412  0.40356379  1
  Hf  Hf7  1  0.91041373  0.30206939  0.70226999  1
  Hf  Hf8  1  0.80757618  0.20151759  0.00379719  1
  Hf  Hf9  1  0.79672835  -0.00389906  0.19852151  1
  Hf  Hf10  1  0.10299817  0.09764895  0.70316519  1
  Hf  Hf11  1  0.19307799  0.40817933  0.59234976  1
  Hf  Hf12  1  0.49878491  0.89918100  0.69954355  1
  Hf  Hf13  1  0.19439904  0.40242116  0.40152128  1
  Hf  Hf14  1  0.50432491  0.29144412  0.89862243  1
  Hf  Hf15  1  0.29790465  0.70607544  0.48254580  1
  Hf  Hf16  1  0.79955768  0.59624795  -0.00044999  1
  Hf  Hf17  1  0.70249183  0.09904922  0.30239193  1
  Hf  Hf18  1  0.79599377  0.80613838  0.20210277  1
  Hf  Hf19  1  0.69941317  0.09855993  0.50600413  1
  Hf  Hf20  1  0.69827405  0.70855586  0.90414444  1
  Hf  Hf21  1  0.50340342  0.09893531  0.30091910  1
  Hf  Hf22  1  0.37743419  0.39610532  0.00284090  1
  Hf  Hf23  1  0.29702269  0.51777360  0.28727167  1
  Hf  Hf24  1  0.90371828  0.68415477  0.69318649  1
  Hf  Hf25  1  0.70008690  0.49217804  0.10232769  1
  Hf  Hf26  1  0.00029741  -0.00508841  0.00361482  1
  Hf  Hf27  1  -0.00109264  0.59049182  -0.00081942  1
  Hf  Hf28  1  0.79737302  0.00071603  0.79805429  1
  Hf  Hf29  1  0.80181990  0.59302087  0.80261945  1
  Hf  Hf30  1  -0.00132421  0.79761642  0.20311201  1
  Hf  Hf31  1  0.38878610  0.39518015  0.19515609  1
  Hf  Hf32  1  0.30468819  0.70075978  0.89623714  1
  Hf  Hf33  1  0.40465757  0.60192231  0.59195405  1
  Hf  Hf34  1  0.01481451  0.19505701  0.82121614  1
  Hf  Hf35  1  0.09700438  0.91563454  0.69482005  1
  Hf  Hf36  1  0.30057844  0.09252316  0.10263698  1
  Hf  Hf37  1  0.00281034  0.19923093  0.19879460  1
  Hf  Hf38  1  0.69883551  0.49398271  0.30015013  1
  Hf  Hf39  1  0.39925784  0.39981730  0.39983754  1
  Hf  Hf40  1  0.40857302  0.01276870  0.59656221  1
  Hf  Hf41  1  0.40076630  0.19677542  0.40342131  1
  Hf  Hf42  1  0.30157832  0.69272062  0.11059853  1
  Hf  Hf43  1  0.70414051  0.49890434  0.69256144  1
  Hf  Hf44  1  0.89710737  0.90041277  0.30673773  1
  Hf  Hf45  1  0.60102730  0.60220927  0.59464120  1
  Hf  Hf46  1  0.50386523  0.70680267  0.30098504  1
  Hf  Hf47  1  0.80878875  0.39536977  -0.00032566  1
  Hf  Hf48  1  0.68758882  0.71441632  0.09531178  1
  Hf  Hf49  1  0.19554386  0.79438054  0.59948575  1
  Zr  Zr50  1  0.40629464  0.79467011  0.59367911  1
  Zr  Zr51  1  0.00769375  -0.00298019  0.39514519  1
  Zr  Zr52  1  0.79557100  0.39301087  0.41086641  1
  Zr  Zr53  1  0.50312613  0.88755587  0.10969361  1
  Zr  Zr54  1  0.20185422  -0.00139609  0.38545388  1
  Zr  Zr55  1  0.38413874  0.20229136  -0.00291529  1
  Zr  Zr56  1  0.59605432  0.39355231  0.78716742  1
  Zr  Zr57  1  0.59812466  0.60110627  0.80015028  1
  Zr  Zr58  1  0.10391239  0.70190793  0.90517236  1
  Zr  Zr59  1  0.80578827  0.20766307  0.19685498  1
  Zr  Zr60  1  0.30234819  0.89436029  0.10309111  1
  Zr  Zr61  1  0.12056714  0.88963067  0.10099966  1
  Zr  Zr62  1  0.00158780  0.79434404  0.58904031  1
  Zr  Zr63  1  0.89471017  0.70625575  0.89896089  1
  Zr  Zr64  1  0.19632537  0.21392658  0.59940554  1
  Zr  Zr65  1  0.60224881  0.20289108  0.20144409  1
  Zr  Zr66  1  0.29957552  0.90045086  0.49783711  1
  Zr  Zr67  1  0.80017127  0.60011464  0.40995088  1
  Zr  Zr68  1  -0.00100094  0.80273839  0.79731045  1
  Zr  Zr69  1  0.09957400  0.50520158  0.29129669  1
  Zr  Zr70  1  -0.00470947  0.80426158  0.00893856  1
  Zr  Zr71  1  0.09913974  0.30529763  0.71321527  1
  Zr  Zr72  1  0.90016266  0.49338540  0.29709104  1
  Zr  Zr73  1  0.49646697  0.09432649  0.09759510  1
  Zr  Zr74  1  0.80393634  0.20392840  0.80168580  1
  Zr  Zr75  1  0.80248361  0.60606136  0.19951078  1
  Zr  Zr76  1  0.00280531  0.20752878  0.00761972  1
  Zr  Zr77  1  0.59749699  -0.00229374  0.79814693  1
  Zr  Zr78  1  0.49061960  0.50430469  0.10298312  1
  Zr  Zr79  1  0.11131207  0.09122247  0.09952930  1
  Zr  Zr80  1  0.19528754  0.20419172  -0.00978765  1
  Zr  Zr81  1  0.80345785  0.79316231  0.59601671  1
  Zr  Zr82  1  0.09502634  0.10145350  0.50960953  1
  Zr  Zr83  1  0.50127946  0.29292284  0.09587029  1
  Zr  Zr84  1  0.50218115  0.49954765  0.30271668  1
  Zr  Zr85  1  0.40439369  0.79820951  -0.00867886  1
  Zr  Zr86  1  0.30659766  0.90790293  0.70713577  1
  Zr  Zr87  1  0.69123776  0.29699670  0.90359869  1
  Zr  Zr88  1  0.59952178  0.60528750  0.19818830  1
  Zr  Zr89  1  0.20031988  0.78800198  0.23622294  1
  Zr  Zr90  1  0.91288277  0.09983651  0.69382617  1
  Zr  Zr91  1  0.29459060  0.10214647  0.50562648  1
  Zr  Zr92  1  0.20245771  0.80591333  0.80190947  1
  Zr  Zr93  1  0.69409944  0.10167110  0.90460859  1
  Zr  Zr94  1  0.29601635  0.51186117  0.48919441  1
  Zr  Zr95  1  0.39644703  0.20937090  0.79077524  1
  Zr  Zr96  1  0.09881320  0.30540915  0.29582835  1
  Zr  Zr97  1  0.49226762  0.49566178  0.89744086  1
  Zr  Zr98  1  0.30000230  0.50213047  0.70053389  1
  Zr  Zr99  1  0.90133607  0.91180479  0.69437194  1
  Ta  Ta100  1  0.19637428  0.59656756  0.80005070  1
  Ta  Ta101  1  0.49781110  0.10378665  0.89471186  1
  Ta  Ta102  1  0.70146638  0.89164346  0.90188938  1
  Ta  Ta103  1  0.29502224  0.29931215  0.30004514  1
  Ta  Ta104  1  0.40002941  0.39528977  0.59684694  1
  Ta  Ta105  1  0.79546536  0.20527281  0.60033006  1
  Ta  Ta106  1  0.88998770  0.90088678  0.90283707  1
  Ta  Ta107  1  0.90569598  0.49577263  0.69765244  1
  Ta  Ta108  1  0.50507469  0.49595227  0.49923566  1
  Ta  Ta109  1  0.69600175  0.10301958  0.69444460  1
  Ta  Ta110  1  0.39426831  -0.00454943  0.21724415  1
  Ta  Ta111  1  0.60516549  0.80147415  0.40758968  1
  Ta  Ta112  1  0.49708831  0.49652380  0.69097430  1
  Ta  Ta113  1  0.00757256  0.40350279  0.59419402  1
  Ta  Ta114  1  0.69725250  0.49487792  0.90295390  1
  Ta  Ta115  1  0.59724596  0.79819857  0.79847022  1
  Ta  Ta116  1  0.60614512  -0.01111598  0.20558070  1
  Ta  Ta117  1  0.21010008  -0.00778593  -0.01603441  1
  Ta  Ta118  1  0.79896592  0.20261219  0.40222633  1
  Ta  Ta119  1  0.90008177  0.10362361  0.30705296  1
  Ta  Ta120  1  0.30020564  0.69521346  0.70224257  1
  Ta  Ta121  1  0.69534871  0.09644899  0.09620896  1
  Ta  Ta122  1  0.90327630  0.08999555  0.90350749  1
  Ta  Ta123  1  0.80212930  0.80017711  0.40724920  1
  Ta  Ta124  1  0.09958030  0.68875034  0.69971166  1
  Ta  Ta125  1  0.90282183  0.49263636  0.10060318  1
  Ta  Ta126  1  -0.00084384  0.60126147  0.19143555  1
  Ta  Ta127  1  0.50382612  0.10999598  0.70075886  1
  Ta  Ta128  1  0.00282484  0.40497967  0.41052576  1
  Ta  Ta129  1  0.40386481  0.00145518  0.39912890  1
  Ta  Ta130  1  0.79816250  0.39620019  0.60134717  1
  Ta  Ta131  1  0.50539980  0.90123700  0.49611660  1
  Ta  Ta132  1  0.29804105  0.30033338  0.49637098  1
  Ta  Ta133  1  0.69864257  0.70811649  0.30699268  1
  Ta  Ta134  1  0.79586587  -0.00296108  0.40317368  1
  Ta  Ta135  1  0.10531713  0.49041762  0.09763053  1
  Ta  Ta136  1  0.69658480  0.90053234  0.69300886  1
  Ta  Ta137  1  0.50375984  0.89784288  0.30693551  1
  Ta  Ta138  1  0.89766375  0.50121472  0.51276118  1
  Ta  Ta139  1  0.49719499  0.70012249  0.70396242  1
  Ta  Ta140  1  0.10957919  0.69330982  0.10459513  1
  Ta  Ta141  1  0.20206470  0.20018111  0.20113262  1
  Ta  Ta142  1  0.69935435  0.90130738  0.50621894  1
  Ta  Ta143  1  0.29458802  0.10168476  0.70306758  1
  Ta  Ta144  1  -0.00087032  0.39282633  0.18787072  1
  Ta  Ta145  1  0.70249721  0.69961880  0.50221725  1
  Ta  Ta146  1  0.09205751  0.50618617  0.69979414  1
  Ta  Ta147  1  0.59134569  0.60448186  -0.00483537  1
  Ta  Ta148  1  0.19616210  0.19837746  0.39124319  1
  Ta  Ta149  1  0.80434575  0.40206114  0.80119155  1
  Ti  Ti150  1  0.00611220  0.20197240  0.39628116  1
  Ti  Ti151  1  0.40087361  0.39639595  0.79012808  1
  Ti  Ti152  1  0.18597171  0.62428410  0.38380080  1
  Ti  Ti153  1  0.79631847  0.80265933  0.79188869  1
  Ti  Ti154  1  0.60013059  -0.00177402  0.40301405  1
  Ti  Ti155  1  0.90094113  0.30222660  0.30096562  1
  Ti  Ti156  1  0.90054641  0.69693261  0.30581546  1
  Ti  Ti157  1  0.89710178  0.91050703  0.50509251  1
  Ti  Ti158  1  0.41279023  0.60857727  0.40042656  1
  Ti  Ti159  1  0.10055892  0.32550721  0.90730263  1
  Ti  Ti160  1  0.69746885  0.29958265  0.09783874  1
  Ti  Ti161  1  0.10911697  0.90518125  0.50267141  1
  Ti  Ti162  1  0.91388289  0.31201114  0.89900083  1
  Ti  Ti163  1  0.28370968  0.30680025  0.88401422  1
  Ti  Ti164  1  0.19134291  0.41450942  0.80241147  1
  Ti  Ti165  1  0.20616114  -0.00163250  0.21709655  1
  Ti  Ti166  1  0.00116206  0.59995107  0.40782125  1
  Ti  Ti167  1  0.70036258  0.70081100  0.69692615  1
  Ti  Ti168  1  0.00655456  0.59870023  0.58693225  1
  Ti  Ti169  1  0.59614832  0.40333204  0.00174860  1
  Ti  Ti170  1  0.70424428  0.30654186  0.29598133  1
  Ti  Ti171  1  0.10077602  0.90078519  0.90038685  1
  Ti  Ti172  1  0.49805308  0.30158144  0.29943318  1
  Ti  Ti173  1  0.60568636  0.39651084  0.41114585  1
  Ti  Ti174  1  0.48985073  0.89561123  0.88574211  1
  Ti  Ti175  1  0.00197690  0.58920955  0.80928727  1
  Ti  Ti176  1  0.79924956  -0.00706156  0.00633224  1
  Ti  Ti177  1  0.89765991  0.09400109  0.10116531  1
  Ti  Ti178  1  0.40341191  0.20708321  0.60036413  1
  Ti  Ti179  1  0.49839190  0.30351085  0.50468735  1
  Ti  Ti180  1  0.29364366  0.30474570  0.70014776  1
  Ti  Ti181  1  0.59469263  0.20671562  0.59974593  1
  Ti  Ti182  1  0.40253829  0.60080726  0.79866661  1
  Ti  Ti183  1  0.39015988  0.19863871  0.20595407  1
  Ti  Ti184  1  0.40038748  0.59840474  0.00025983  1
  Ti  Ti185  1  0.69691640  0.29442577  0.69833661  1
  Ti  Ti186  1  0.39559504  0.80009844  0.21503777  1
  Ti  Ti187  1  0.59551145  0.00422160  0.59734072  1
  Ti  Ti188  1  0.20076771  0.00243840  0.80759149  1
  Ti  Ti189  1  0.60309878  0.39534419  0.59287514  1
  Ti  Ti190  1  0.49951757  0.70486836  0.10107034  1
  Ti  Ti191  1  0.30106964  0.09722292  0.88730667  1
  Ti  Ti192  1  0.29903722  0.49684822  0.89352871  1
  Ti  Ti193  1  0.19309994  0.60262358  0.59532395  1
  Ti  Ti194  1  0.89491499  0.70391725  0.09693289  1
  Ti  Ti195  1  0.39563751  -0.00533561  -0.01531967  1
  Ti  Ti196  1  0.60265537  0.60207050  0.40836356  1
  Ti  Ti197  1  0.69370789  0.89319613  0.09177188  1
  Ti  Ti198  1  0.59918227  0.79446917  0.59760796  1
  Ti  Ti199  1  0.59717527  0.39441043  0.19948065  1
  Mo  Mo200  1  0.09501740  0.50789232  0.49699196  1
  Mo  Mo201  1  0.69601579  0.49467493  0.50247016  1
  Mo  Mo202  1  0.49948835  0.69712205  0.89623004  1
  Mo  Mo203  1  0.00579801  -0.00165822  0.58929555  1
  Mo  Mo204  1  0.69965489  0.29707298  0.51107830  1
  Mo  Mo205  1  0.79740467  0.80851354  0.00585266  1
  Mo  Mo206  1  0.19393353  0.59940099  0.19698801  1
  Mo  Mo207  1  0.50977636  0.70215904  0.49646000  1
  Mo  Mo208  1  0.09868680  0.49813581  0.89665486  1
  Mo  Mo209  1  0.60557131  0.80826553  0.21381587  1
  Mo  Mo210  1  0.09732908  0.30044685  0.49348464  1
  Mo  Mo211  1  0.31657805  0.69707967  0.30480706  1
  Mo  Mo212  1  0.79872653  0.59394316  0.60225366  1
  Mo  Mo213  1  0.59747510  0.19776344  0.78966789  1
  Mo  Mo214  1  0.29505930  0.50124405  0.09998289  1
  Mo  Mo215  1  0.40170518  0.01267446  0.80009635  1
  Mo  Mo216  1  0.49840674  0.30196832  0.68647181  1
  Mo  Mo217  1  0.89982973  0.49461083  0.89717510  1
  Mo  Mo218  1  0.10419264  0.69223469  0.49946107  1
  Mo  Mo219  1  0.19094987  0.79929893  0.40400596  1
  Mo  Mo220  1  0.40948953  0.80578714  0.39861898  1
  Mo  Mo221  1  0.89968742  0.68856941  0.49785816  1
  Mo  Mo222  1  0.30331541  0.10515164  0.29762664  1
  Mo  Mo223  1  0.88896121  0.90103620  0.09932070  1
  Mo  Mo224  1  0.20043657  0.40108571  -0.00268575  1
  Mo  Mo225  1  0.30564907  0.90380524  0.89637778  1
  Mo  Mo226  1  0.40500910  0.79099056  0.79592497  1
  Mo  Mo227  1  0.50672064  0.09982018  0.50377334  1
  Mo  Mo228  1  0.20383256  0.20116698  0.80362192  1
  Mo  Mo229  1  0.79107495  0.00244895  0.59850264  1
  Mo  Mo230  1  0.28983871  0.29660843  0.11064765  1
  Mo  Mo231  1  0.40085394  0.60803432  0.19877620  1
  Mo  Mo232  1  0.20272870  0.79986983  -0.00503789  1
  Mo  Mo233  1  -0.00006878  0.20487305  0.60294463  1
  Mo  Mo234  1  0.80490173  0.39133833  0.19642097  1
  Mo  Mo235  1  0.07849444  0.69235256  0.29864537  1
  Mo  Mo236  1  0.10037210  0.89641695  0.30249069  1
  Mo  Mo237  1  0.90441145  0.30367487  0.09957082  1
  Mo  Mo238  1  0.09981343  0.10606694  0.29672060  1
  Mo  Mo239  1  -0.00149029  0.41085106  0.80395886  1
  Mo  Mo240  1  0.59337304  0.80075163  -0.01501070  1
  Mo  Mo241  1  0.69834368  0.90056601  0.31427619  1
  Mo  Mo242  1  0.20382960  0.00039273  0.60616812  1
  Mo  Mo243  1  0.00050832  -0.00068725  0.81729122  1
  Mo  Mo244  1  0.10634342  0.30764984  0.09836995  1
  Mo  Mo245  1  0.00356150  0.40312576  -0.00020808  1
  Mo  Mo246  1  0.60101723  0.19145000  0.00234950  1
  Mo  Mo247  1  0.31061409  0.89517941  0.30823590  1
  Mo  Mo248  1  0.10235726  0.08424555  0.89897259  1
  Mo  Mo249  1  0.20057081  0.39683215  0.19107687  1
