# generated using pymatgen
data_HfZrTaTiMo
_symmetry_space_group_name_H-M   'P 1'
_cell_length_a   16.88840671
_cell_length_b   16.88764420
_cell_length_c   16.88434255
_cell_angle_alpha   90.00988166
_cell_angle_beta   89.96786284
_cell_angle_gamma   90.00871190
_symmetry_Int_Tables_number   1
_chemical_formula_structural   HfZrTaTiMo
_chemical_formula_sum   'Hf50 Zr50 Ta50 Ti50 Mo50'
_cell_volume   4815.50484972
_cell_formula_units_Z   50
loop_
 _symmetry_equiv_pos_site_id
 _symmetry_equiv_pos_as_xyz
  1  'x, y, z'
loop_
 _atom_site_type_symbol
 _atom_site_label
 _atom_site_symmetry_multiplicity
 _atom_site_fract_x
 _atom_site_fract_y
 _atom_site_fract_z
 _atom_site_occupancy
  Hf  Hf0  1  0.40272538  0.00583675  0.79838281  1
  Hf  Hf1  1  0.40260121  0.19825669  0.59848017  1
  Hf  Hf2  1  0.40274312  0.79688167  0.00170226  1
  Hf  Hf3  1  0.39471658  0.20043968  0.40131028  1
  Hf  Hf4  1  0.20131130  0.19374105  0.40022274  1
  Hf  Hf5  1  0.79554712  0.80292522  0.18775324  1
  Hf  Hf6  1  0.59640266  0.81112482  0.59660901  1
  Hf  Hf7  1  -0.01031114  0.79703201  0.80682888  1
  Hf  Hf8  1  0.89791882  0.70453258  0.29074479  1
  Hf  Hf9  1  -0.01723614  0.59814763  0.79581970  1
  Hf  Hf10  1  0.40629684  0.80716573  0.20335227  1
  Hf  Hf11  1  0.70461012  0.30150234  0.89751976  1
  Hf  Hf12  1  0.69849289  0.71373745  0.70514384  1
  Hf  Hf13  1  0.08939015  0.91140310  0.49984565  1
  Hf  Hf14  1  0.49574646  0.30383814  0.10263512  1
  Hf  Hf15  1  0.40179515  0.40157420  -0.00566645  1
  Hf  Hf16  1  0.38189136  0.20696542  0.20269241  1
  Hf  Hf17  1  0.29336907  0.90131057  0.10228153  1
  Hf  Hf18  1  0.89572802  0.90188239  0.69666504  1
  Hf  Hf19  1  0.20544954  0.40046328  0.60466186  1
  Hf  Hf20  1  0.20827252  0.59585410  0.59562167  1
  Hf  Hf21  1  0.10132166  0.48982547  0.29337475  1
  Hf  Hf22  1  0.69842526  0.29763803  0.69572386  1
  Hf  Hf23  1  0.59077775  0.59877012  0.80454410  1
  Hf  Hf24  1  0.09047500  0.89054603  0.10852484  1
  Hf  Hf25  1  0.09738498  0.69318387  0.89734762  1
  Hf  Hf26  1  0.19844269  0.78460218  0.00839848  1
  Hf  Hf27  1  0.89341023  0.28825426  0.30547900  1
  Hf  Hf28  1  0.29952697  0.90041414  0.90085567  1
  Hf  Hf29  1  0.89560921  0.90713167  0.29673137  1
  Hf  Hf30  1  0.09428201  0.49001146  0.90061604  1
  Hf  Hf31  1  0.20020170  0.80491077  0.39403681  1
  Hf  Hf32  1  0.09799810  0.48720385  0.09212290  1
  Hf  Hf33  1  0.20862506  0.00766861  0.39209840  1
  Hf  Hf34  1  0.09704503  0.08155382  0.09960537  1
  Hf  Hf35  1  0.70137071  0.29601510  0.10092288  1
  Hf  Hf36  1  0.70416089  0.91045746  0.29472682  1
  Hf  Hf37  1  0.19876545  0.80050619  0.79704131  1
  Hf  Hf38  1  0.38897470  0.00640640  0.21018565  1
  Hf  Hf39  1  0.40609755  0.79877839  0.80261734  1
  Hf  Hf40  1  0.69584141  0.90700575  0.09203019  1
  Hf  Hf41  1  -0.00140301  -0.00048551  0.80800593  1
  Hf  Hf42  1  0.50153946  0.29679038  0.89820875  1
  Hf  Hf43  1  0.60047591  0.00798742  0.60713733  1
  Hf  Hf44  1  0.60151944  0.60237348  0.60308728  1
  Hf  Hf45  1  0.69867087  0.50195248  0.90352912  1
  Hf  Hf46  1  0.09435576  0.90932891  0.69497046  1
  Hf  Hf47  1  0.59767985  0.20369814  0.40343394  1
  Hf  Hf48  1  0.21942163  0.37831807  0.20021940  1
  Hf  Hf49  1  0.79882278  0.59923169  0.39767733  1
  Zr  Zr50  1  0.60997776  0.19229883  -0.00502038  1
  Zr  Zr51  1  0.49404117  0.49919686  0.70186057  1
  Zr  Zr52  1  0.09629000  0.29626831  0.89846813  1
  Zr  Zr53  1  0.90317833  0.50116713  0.29582858  1
  Zr  Zr54  1  0.51221031  0.90559125  0.91019912  1
  Zr  Zr55  1  0.20617252  0.59506409  -0.00279802  1
  Zr  Zr56  1  0.09133413  0.49500411  0.70671305  1
  Zr  Zr57  1  0.09223011  0.50035988  0.50513179  1
  Zr  Zr58  1  0.39443155  0.39720644  0.39797799  1
  Zr  Zr59  1  0.90002435  0.10030319  0.90760103  1
  Zr  Zr60  1  0.79939319  0.39970724  0.00629601  1
  Zr  Zr61  1  0.79163002  0.18843325  0.80124125  1
  Zr  Zr62  1  0.60691630  0.00938273  0.79964275  1
  Zr  Zr63  1  -0.00018911  0.19212728  0.01298850  1
  Zr  Zr64  1  0.00145167  0.80399655  0.40119473  1
  Zr  Zr65  1  0.39333191  0.59711708  0.40028603  1
  Zr  Zr66  1  0.89980687  0.69708991  0.50893334  1
  Zr  Zr67  1  0.60610790  0.19411768  0.20463728  1
  Zr  Zr68  1  0.19597064  0.79651319  0.59383996  1
  Zr  Zr69  1  0.49776931  0.09615895  0.09769676  1
  Zr  Zr70  1  0.20045891  0.20054229  0.59563271  1
  Zr  Zr71  1  0.90280987  0.09784737  0.70049665  1
  Zr  Zr72  1  0.80061896  0.60268308  0.80000582  1
  Zr  Zr73  1  0.00200731  0.37477288  0.19562185  1
  Zr  Zr74  1  0.50214401  0.50409754  0.49711718  1
  Zr  Zr75  1  0.09717937  0.90473407  0.91545243  1
  Zr  Zr76  1  0.79676380  0.40085880  0.20005150  1
  Zr  Zr77  1  0.59799296  0.80858223  0.40145268  1
  Zr  Zr78  1  0.60284348  0.00391611  0.40629012  1
  Zr  Zr79  1  0.69915429  0.71260935  0.90166789  1
  Zr  Zr80  1  0.09145551  0.69294303  0.69236704  1
  Zr  Zr81  1  0.49973535  0.30003815  0.69716914  1
  Zr  Zr82  1  0.31586745  0.49701190  0.10714580  1
  Zr  Zr83  1  0.20592517  0.01044485  0.59644828  1
  Zr  Zr84  1  0.19855311  0.19082987  0.20357919  1
  Zr  Zr85  1  -0.01643219  0.39248902  0.60877598  1
  Zr  Zr86  1  0.69367780  0.69806974  0.30005260  1
  Zr  Zr87  1  0.20041014  0.60499180  0.40069991  1
  Zr  Zr88  1  0.31316386  0.90279177  0.50167282  1
  Zr  Zr89  1  0.70497394  0.50131809  0.50134831  1
  Zr  Zr90  1  0.40789102  0.81149420  0.39662374  1
  Zr  Zr91  1  0.59958625  0.39701836  0.39922836  1
  Zr  Zr92  1  0.00872983  0.60861494  0.40015135  1
  Zr  Zr93  1  0.19856333  0.60181638  0.19401323  1
  Zr  Zr94  1  -0.00527652  0.39184837  0.40471280  1
  Zr  Zr95  1  -0.00363261  0.20211487  0.59667033  1
  Zr  Zr96  1  0.41317276  0.59736731  -0.01467445  1
  Zr  Zr97  1  0.09833988  0.72102846  0.27135392  1
  Zr  Zr98  1  0.90574127  0.48840282  0.90303724  1
  Zr  Zr99  1  0.91094532  0.49887304  0.09665816  1
  Ta  Ta100  1  0.20396185  0.00485703  0.80019348  1
  Ta  Ta101  1  0.09967784  0.10403176  0.70768477  1
  Ta  Ta102  1  0.89748391  0.91345528  0.50145981  1
  Ta  Ta103  1  0.59836207  0.18930226  0.79312814  1
  Ta  Ta104  1  0.80264881  0.18289570  0.20241701  1
  Ta  Ta105  1  0.49696884  0.10098793  0.30495592  1
  Ta  Ta106  1  0.69856847  0.70137894  0.50029554  1
  Ta  Ta107  1  0.59732183  0.40937631  0.00208173  1
  Ta  Ta108  1  0.20813604  0.19430801  0.00162214  1
  Ta  Ta109  1  0.50373153  0.69047038  0.29832158  1
  Ta  Ta110  1  0.40190343  0.19490535  0.80077433  1
  Ta  Ta111  1  0.70495757  0.29553344  0.50203155  1
  Ta  Ta112  1  0.69064012  0.50521095  0.29474289  1
  Ta  Ta113  1  0.20750966  0.39801882  0.80051716  1
  Ta  Ta114  1  0.10201390  0.10052440  0.90023760  1
  Ta  Ta115  1  0.20993492  0.39007091  -0.00365159  1
  Ta  Ta116  1  0.50794880  0.50815635  0.10528638  1
  Ta  Ta117  1  0.79599873  0.80748913  0.59553752  1
  Ta  Ta118  1  0.70749977  0.90119158  0.70989345  1
  Ta  Ta119  1  0.79856157  0.80589012  0.40681854  1
  Ta  Ta120  1  0.30898531  0.69992843  0.69961440  1
  Ta  Ta121  1  0.30095161  0.29781252  0.70589645  1
  Ta  Ta122  1  0.40884625  0.00170233  0.60366478  1
  Ta  Ta123  1  0.90712486  0.70782995  0.09784889  1
  Ta  Ta124  1  0.90454270  0.29562007  0.89617516  1
  Ta  Ta125  1  0.70692798  0.90022217  0.89757884  1
  Ta  Ta126  1  0.50223657  0.50348468  0.28850318  1
  Ta  Ta127  1  0.49891145  0.10051555  0.50164945  1
  Ta  Ta128  1  0.31103733  0.69709654  0.10853889  1
  Ta  Ta129  1  0.39572944  0.40307778  0.80139574  1
  Ta  Ta130  1  0.49983142  0.10006696  0.90427054  1
  Ta  Ta131  1  0.39579875  0.59978127  0.60129264  1
  Ta  Ta132  1  0.49798336  0.30498532  0.29267039  1
  Ta  Ta133  1  0.09676626  0.29446228  0.71296360  1
  Ta  Ta134  1  0.30169333  0.10185344  0.70173186  1
  Ta  Ta135  1  0.30471389  0.70469011  0.29265961  1
  Ta  Ta136  1  0.80368271  0.00164921  0.00096106  1
  Ta  Ta137  1  0.79413019  0.59972572  0.18751681  1
  Ta  Ta138  1  0.31018302  0.70562691  0.50301892  1
  Ta  Ta139  1  0.79401996  0.00638019  0.60077359  1
  Ta  Ta140  1  0.49913444  0.70210073  0.50157401  1
  Ta  Ta141  1  0.30227126  0.29377099  0.89448131  1
  Ta  Ta142  1  0.59968524  0.39308574  0.59462107  1
  Ta  Ta143  1  0.50517156  0.69481773  0.10468396  1
  Ta  Ta144  1  0.50448660  0.90782566  0.10105457  1
  Ta  Ta145  1  0.88396104  0.28989332  0.49735679  1
  Ta  Ta146  1  0.59508495  0.80312647  0.19833592  1
  Ta  Ta147  1  0.30625377  0.89864490  0.69759825  1
  Ta  Ta148  1  0.80112133  0.60649395  0.00628861  1
  Ta  Ta149  1  0.70278969  0.29879448  0.30133501  1
  Ti  Ti150  1  -0.00321502  0.79970008  0.59560191  1
  Ti  Ti151  1  0.21046807  0.01184653  -0.00427482  1
  Ti  Ti152  1  0.20498718  0.00384612  0.20985443  1
  Ti  Ti153  1  0.89810905  0.50142369  0.50683007  1
  Ti  Ti154  1  0.59634507  0.40219413  0.80179839  1
  Ti  Ti155  1  0.50161704  0.89630763  0.70299116  1
  Ti  Ti156  1  0.30619455  0.49828037  0.29214333  1
  Ti  Ti157  1  0.79773389  0.40197568  0.39984031  1
  Ti  Ti158  1  0.21007774  0.59229205  0.79004187  1
  Ti  Ti159  1  0.30339629  0.69295399  0.88996712  1
  Ti  Ti160  1  0.70861876  0.09485786  0.09620756  1
  Ti  Ti161  1  0.39440134  0.40390728  0.59722015  1
  Ti  Ti162  1  0.79815871  0.01176339  0.39906506  1
  Ti  Ti163  1  0.79317650  0.18786858  0.39536548  1
  Ti  Ti164  1  0.20593523  0.19313488  0.80403373  1
  Ti  Ti165  1  0.80755537  0.79956251  0.00038054  1
  Ti  Ti166  1  0.80170482  0.39688542  0.60267962  1
  Ti  Ti167  1  0.00299881  0.60567023  0.18982008  1
  Ti  Ti168  1  -0.00199254  0.01270938  0.38980926  1
  Ti  Ti169  1  0.89856836  0.09824222  0.49780757  1
  Ti  Ti170  1  -0.00256071  0.61091806  -0.00013215  1
  Ti  Ti171  1  0.09829151  0.30069573  0.49854886  1
  Ti  Ti172  1  0.60349708  0.00866122  0.20090575  1
  Ti  Ti173  1  0.70060144  0.49310634  0.70023337  1
  Ti  Ti174  1  0.08839268  0.09576916  0.50218646  1
  Ti  Ti175  1  0.09550647  0.90724069  0.28858943  1
  Ti  Ti176  1  0.59802986  0.79932936  0.00747010  1
  Ti  Ti177  1  0.69938676  0.10841669  0.50686843  1
  Ti  Ti178  1  0.00069246  0.19085472  0.39618988  1
  Ti  Ti179  1  0.70724763  0.90628972  0.50212040  1
  Ti  Ti180  1  -0.01640277  0.00564329  0.19754163  1
  Ti  Ti181  1  0.39225058  0.00790816  0.00245196  1
  Ti  Ti182  1  0.60416910  0.40377670  0.19657347  1
  Ti  Ti183  1  0.69113006  0.69434041  0.09671087  1
  Ti  Ti184  1  0.20716241  0.40085412  0.40355061  1
  Ti  Ti185  1  0.89280235  0.28558218  0.09578009  1
  Ti  Ti186  1  0.30273724  0.50125992  0.88925609  1
  Ti  Ti187  1  0.51077193  0.70321796  0.90057857  1
  Ti  Ti188  1  0.80077247  0.59830013  0.60781338  1
  Ti  Ti189  1  0.38853023  0.19274405  -0.00144576  1
  Ti  Ti190  1  0.81251197  0.39771306  0.78661147  1
  Ti  Ti191  1  0.89393743  0.89753438  0.90668308  1
  Ti  Ti192  1  0.89142228  0.70726563  0.69592671  1
  Ti  Ti193  1  0.79819500  0.19611081  0.60298757  1
  Ti  Ti194  1  0.30012634  0.30287321  0.50330085  1
  Ti  Ti195  1  -0.00253255  0.18507597  0.20836236  1
  Ti  Ti196  1  0.49554966  0.70462946  0.69842161  1
  Ti  Ti197  1  0.10589306  0.29453785  0.09351378  1
  Ti  Ti198  1  0.50305216  0.91418380  0.29921255  1
  Ti  Ti199  1  0.10242406  0.29476733  0.30735427  1
  Mo  Mo200  1  0.29667124  0.90003541  0.29741707  1
  Mo  Mo201  1  -0.01597444  0.59820579  0.60416087  1
  Mo  Mo202  1  0.80276262  0.80572189  0.80191714  1
  Mo  Mo203  1  0.40524033  0.60335606  0.20363854  1
  Mo  Mo204  1  0.30024328  0.10077244  0.89757861  1
  Mo  Mo205  1  0.89690187  0.70470289  0.91189348  1
  Mo  Mo206  1  0.89882970  0.09705581  0.30374324  1
  Mo  Mo207  1  -0.00807456  0.38969800  0.79782503  1
  Mo  Mo208  1  0.30338484  0.49900803  0.70485549  1
  Mo  Mo209  1  0.49831706  0.10418917  0.70077351  1
  Mo  Mo210  1  0.09149335  0.69970787  0.09344754  1
  Mo  Mo211  1  0.60321368  0.60251323  0.00242949  1
  Mo  Mo212  1  0.40541491  0.00661029  0.40324505  1
  Mo  Mo213  1  0.50253674  0.90737733  0.50845757  1
  Mo  Mo214  1  0.50383952  0.49513416  0.89864461  1
  Mo  Mo215  1  0.09058628  0.09430777  0.29699705  1
  Mo  Mo216  1  0.00338180  0.19729011  0.80031262  1
  Mo  Mo217  1  0.60784750  0.00127237  -0.00053940  1
  Mo  Mo218  1  0.79899698  0.00580928  0.19292229  1
  Mo  Mo219  1  0.59679830  0.80448723  0.79614835  1
  Mo  Mo220  1  0.30119775  0.49820448  0.50610679  1
  Mo  Mo221  1  0.70165930  0.09215345  0.90472701  1
  Mo  Mo222  1  0.50387867  0.29992914  0.50350780  1
  Mo  Mo223  1  -0.01385293  0.81183094  0.19504898  1
  Mo  Mo224  1  -0.00660462  0.00722638  0.59448028  1
  Mo  Mo225  1  0.21179840  0.80562769  0.19934277  1
  Mo  Mo226  1  0.60136663  0.20084004  0.59572307  1
  Mo  Mo227  1  0.00375301  0.37989464  0.00114089  1
  Mo  Mo228  1  0.29514059  0.09546066  0.09725730  1
  Mo  Mo229  1  0.59710493  0.60356769  0.39948981  1
  Mo  Mo230  1  0.39942382  0.60445034  0.79775601  1
  Mo  Mo231  1  0.10213209  0.70423245  0.50642523  1
  Mo  Mo232  1  0.60156571  0.60186245  0.19765285  1
  Mo  Mo233  1  0.70180668  0.10000003  0.69474539  1
  Mo  Mo234  1  0.30095318  0.10004525  0.30413493  1
  Mo  Mo235  1  0.31177976  0.09735396  0.50222578  1
  Mo  Mo236  1  0.89692663  0.09367015  0.10555935  1
  Mo  Mo237  1  0.30386969  0.29509083  0.08306897  1
  Mo  Mo238  1  0.89388622  0.29653133  0.70147527  1
  Mo  Mo239  1  0.69411894  0.50907888  0.09946840  1
  Mo  Mo240  1  0.88819959  0.49765787  0.69458185  1
  Mo  Mo241  1  0.40796022  0.40019372  0.20205733  1
  Mo  Mo242  1  0.40633791  0.79893713  0.60575895  1
  Mo  Mo243  1  0.29711964  0.30244083  0.31371489  1
  Mo  Mo244  1  0.89785156  0.90314545  0.09342949  1
  Mo  Mo245  1  -0.00619368  0.79735370  -0.00065335  1
  Mo  Mo246  1  -0.00694679  -0.00650268  0.00258607  1
  Mo  Mo247  1  0.70148625  0.10110075  0.30195110  1
  Mo  Mo248  1  0.79949218  -0.00494561  0.80485770  1
  Mo  Mo249  1  0.80134150  0.19622268  0.00535956  1
