# generated using pymatgen
data_HfZrTaTiMo
_symmetry_space_group_name_H-M   'P 1'
_cell_length_a   16.89244072
_cell_length_b   16.89377102
_cell_length_c   16.89457179
_cell_angle_alpha   90.00495902
_cell_angle_beta   89.99708593
_cell_angle_gamma   90.00474357
_symmetry_Int_Tables_number   1
_chemical_formula_structural   HfZrTaTiMo
_chemical_formula_sum   'Hf50 Zr50 Ta50 Ti50 Mo50'
_cell_volume   4821.32260522
_cell_formula_units_Z   50
loop_
 _symmetry_equiv_pos_site_id
 _symmetry_equiv_pos_as_xyz
  1  'x, y, z'
loop_
 _atom_site_type_symbol
 _atom_site_label
 _atom_site_symmetry_multiplicity
 _atom_site_fract_x
 _atom_site_fract_y
 _atom_site_fract_z
 _atom_site_occupancy
  Hf  Hf0  1  0.79527576  0.40607630  -0.00349302  1
  Hf  Hf1  1  0.50195970  0.10425076  0.10198594  1
  Hf  Hf2  1  0.19814877  0.20089502  0.59533771  1
  Hf  Hf3  1  0.90146302  0.50048714  0.09719104  1
  Hf  Hf4  1  0.50361363  0.50152197  0.90131328  1
  Hf  Hf5  1  0.39992705  0.80390097  0.20483504  1
  Hf  Hf6  1  0.60547951  0.80286398  0.39069421  1
  Hf  Hf7  1  0.21059812  -0.01584161  0.40692116  1
  Hf  Hf8  1  0.79046547  0.59802933  0.20616668  1
  Hf  Hf9  1  -0.00706683  0.60672548  0.20011688  1
  Hf  Hf10  1  0.50040250  0.49189138  0.30484620  1
  Hf  Hf11  1  0.70579242  0.69459495  0.49611004  1
  Hf  Hf12  1  0.39665991  0.39544008  0.19368161  1
  Hf  Hf13  1  0.10018807  0.50278995  0.89480656  1
  Hf  Hf14  1  0.79332991  0.40691802  0.20250961  1
  Hf  Hf15  1  0.79945989  -0.00191787  0.39693927  1
  Hf  Hf16  1  0.39477290  0.80072380  0.39408488  1
  Hf  Hf17  1  0.60270260  -0.00879495  0.39577647  1
  Hf  Hf18  1  0.30098751  0.50010556  0.30879145  1
  Hf  Hf19  1  0.69934319  0.09879570  0.29406621  1
  Hf  Hf20  1  0.90184809  0.31239233  0.49748338  1
  Hf  Hf21  1  0.19822226  0.60214517  -0.00141399  1
  Hf  Hf22  1  0.00087353  0.58332232  0.42271464  1
  Hf  Hf23  1  0.40325449  0.59356768  0.60048860  1
  Hf  Hf24  1  0.01576294  0.19440338  -0.00579350  1
  Hf  Hf25  1  0.40027971  0.00094212  0.80013566  1
  Hf  Hf26  1  0.39912424  0.40431025  0.59521462  1
  Hf  Hf27  1  0.80328739  -0.00317259  0.79549834  1
  Hf  Hf28  1  0.39420995  0.20480414  0.60020611  1
  Hf  Hf29  1  0.69754015  0.50795634  0.70462004  1
  Hf  Hf30  1  0.00675222  0.39589827  0.20679098  1
  Hf  Hf31  1  0.39900822  -0.00364027  0.20555318  1
  Hf  Hf32  1  -0.00014819  0.41354361  0.79197042  1
  Hf  Hf33  1  0.79710026  0.19063283  0.58814985  1
  Hf  Hf34  1  0.20526245  0.19845594  0.00311662  1
  Hf  Hf35  1  0.00885810  0.19744111  0.20632088  1
  Hf  Hf36  1  0.90263005  0.69763944  0.89483410  1
  Hf  Hf37  1  0.69864499  0.69676794  0.89294978  1
  Hf  Hf38  1  0.59941710  0.39879653  0.79967612  1
  Hf  Hf39  1  0.50034621  0.68975694  0.30442924  1
  Hf  Hf40  1  0.60493852  0.19946893  0.40916828  1
  Hf  Hf41  1  0.69718961  0.89356443  0.09483914  1
  Hf  Hf42  1  0.90003538  0.70046541  0.50780754  1
  Hf  Hf43  1  0.49471718  0.09415876  0.50487217  1
  Hf  Hf44  1  0.09558606  0.08449459  0.50079753  1
  Hf  Hf45  1  0.30349197  0.29999871  0.30505571  1
  Hf  Hf46  1  0.19191337  0.40057283  0.40591999  1
  Hf  Hf47  1  0.00831404  0.79739449  0.40549300  1
  Hf  Hf48  1  0.89956756  0.89674474  0.50251969  1
  Hf  Hf49  1  0.90393190  0.29968901  0.09471331  1
  Zr  Zr50  1  0.69942228  0.29987941  0.89579417  1
  Zr  Zr51  1  0.09926903  0.70057130  0.11102655  1
  Zr  Zr52  1  0.69442827  0.30699932  0.30403133  1
  Zr  Zr53  1  0.90023921  0.89681552  0.90195288  1
  Zr  Zr54  1  0.00839808  0.19893939  0.79524538  1
  Zr  Zr55  1  0.49735063  0.10862015  0.29928162  1
  Zr  Zr56  1  0.31060031  0.88582198  0.53564410  1
  Zr  Zr57  1  0.19441250  0.19909119  0.40154713  1
  Zr  Zr58  1  0.29963858  0.50258631  0.09869919  1
  Zr  Zr59  1  0.60791998  0.59591449  0.19837377  1
  Zr  Zr60  1  0.19458779  0.81077645  0.79337655  1
  Zr  Zr61  1  0.09913026  0.89701726  0.30068991  1
  Zr  Zr62  1  0.90349800  0.30195707  0.68925319  1
  Zr  Zr63  1  0.00074638  0.19863491  0.39186034  1
  Zr  Zr64  1  0.90625442  0.30286864  0.89879171  1
  Zr  Zr65  1  0.19717926  0.60503879  0.79918789  1
  Zr  Zr66  1  0.09569246  0.91097116  0.91291696  1
  Zr  Zr67  1  0.80654504  0.79257874  0.19321264  1
  Zr  Zr68  1  0.29654558  0.71237961  0.68613253  1
  Zr  Zr69  1  0.29527926  0.29897600  0.89282863  1
  Zr  Zr70  1  0.27947870  0.49629903  0.69216313  1
  Zr  Zr71  1  0.70691421  0.30363206  0.69886860  1
  Zr  Zr72  1  0.00747137  0.42752845  0.58821414  1
  Zr  Zr73  1  0.40300264  0.80110381  0.79692891  1
  Zr  Zr74  1  0.49777566  0.89678678  0.50484971  1
  Zr  Zr75  1  0.40065713  0.00557875  -0.00283406  1
  Zr  Zr76  1  0.19821208  0.20169487  0.19763652  1
  Zr  Zr77  1  0.48705048  0.90270781  0.68612757  1
  Zr  Zr78  1  0.49957136  0.69452165  0.89715495  1
  Zr  Zr79  1  0.49803931  0.69937271  0.09416007  1
  Zr  Zr80  1  0.80445478  0.19665633  0.40001275  1
  Zr  Zr81  1  0.79910691  -0.00212163  -0.00474974  1
  Zr  Zr82  1  0.39220362  0.40819411  0.80063392  1
  Zr  Zr83  1  0.90599931  0.09469177  0.09505397  1
  Zr  Zr84  1  0.20925293  0.79717251  0.21327961  1
  Zr  Zr85  1  0.70078475  0.09865656  0.70282149  1
  Zr  Zr86  1  0.11582442  0.07028902  0.09466579  1
  Zr  Zr87  1  0.19778634  0.80146386  0.00308474  1
  Zr  Zr88  1  0.09966504  0.50321655  0.30419387  1
  Zr  Zr89  1  0.59366776  -0.00006075  -0.01250247  1
  Zr  Zr90  1  0.50352151  0.30364092  0.09335046  1
  Zr  Zr91  1  0.60765090  0.79137511  0.60666533  1
  Zr  Zr92  1  0.60285047  0.20465443  0.59622056  1
  Zr  Zr93  1  0.00447454  0.00339034  0.79505118  1
  Zr  Zr94  1  0.28219948  0.91817507  0.10101366  1
  Zr  Zr95  1  0.80900800  0.20222471  0.20468909  1
  Zr  Zr96  1  -0.01096874  0.80286061  0.02546219  1
  Zr  Zr97  1  0.29396147  0.69021259  0.50088297  1
  Zr  Zr98  1  0.69809324  0.10196607  0.10124174  1
  Zr  Zr99  1  0.89743527  0.69623787  0.31452628  1
  Ta  Ta100  1  0.81030462  0.41369290  0.80031900  1
  Ta  Ta101  1  0.79831825  0.60325559  0.60478776  1
  Ta  Ta102  1  -0.00347455  -0.01289457  0.19673204  1
  Ta  Ta103  1  -0.00027007  -0.01026801  0.60635641  1
  Ta  Ta104  1  0.90370725  0.89446251  0.30078158  1
  Ta  Ta105  1  0.50215645  0.49759539  0.09213747  1
  Ta  Ta106  1  0.30145599  0.70251291  0.90356068  1
  Ta  Ta107  1  0.90602054  0.08719921  0.50125556  1
  Ta  Ta108  1  0.19832189  0.39549865  0.19799172  1
  Ta  Ta109  1  0.69419817  0.89077383  0.89116391  1
  Ta  Ta110  1  0.60744853  0.00376183  0.60067891  1
  Ta  Ta111  1  0.79721477  0.79826794  0.79146474  1
  Ta  Ta112  1  0.59636936  0.40643596  0.59647983  1
  Ta  Ta113  1  0.79680316  0.19862174  -0.00758343  1
  Ta  Ta114  1  0.50416262  0.89477999  0.09848721  1
  Ta  Ta115  1  0.30661362  0.69770594  0.09900449  1
  Ta  Ta116  1  0.70145723  0.50517636  0.89721732  1
  Ta  Ta117  1  0.29939487  0.09790783  0.30137103  1
  Ta  Ta118  1  0.80411832  -0.00833434  0.20374082  1
  Ta  Ta119  1  0.49816234  0.30746782  0.49394530  1
  Ta  Ta120  1  0.39529964  0.20014637  0.40578064  1
  Ta  Ta121  1  0.59846353  -0.01381866  0.20562293  1
  Ta  Ta122  1  0.49935731  0.10347377  0.70076879  1
  Ta  Ta123  1  0.29041135  0.30246029  0.69984852  1
  Ta  Ta124  1  0.08785282  0.70484772  0.89430515  1
  Ta  Ta125  1  0.08864938  0.70006200  0.69338726  1
  Ta  Ta126  1  0.49683676  0.30082968  0.70065372  1
  Ta  Ta127  1  0.49772959  0.30318689  0.30676103  1
  Ta  Ta128  1  0.69952500  0.90188804  0.70160437  1
  Ta  Ta129  1  0.39498323  0.40011135  -0.00439858  1
  Ta  Ta130  1  0.59891369  0.21073984  0.19835874  1
  Ta  Ta131  1  0.20622276  0.60220056  0.20581235  1
  Ta  Ta132  1  0.49726438  0.29681364  0.89973865  1
  Ta  Ta133  1  0.90057011  0.09688650  0.68935981  1
  Ta  Ta134  1  0.50524525  0.69088318  0.49564005  1
  Ta  Ta135  1  0.50555683  0.50491113  0.70334815  1
  Ta  Ta136  1  0.80069379  0.80024059  0.61156495  1
  Ta  Ta137  1  0.10306884  0.69718499  0.50997647  1
  Ta  Ta138  1  0.60210925  0.20205679  -0.00558678  1
  Ta  Ta139  1  0.90509047  0.70142154  0.70057578  1
  Ta  Ta140  1  0.39736809  -0.00616167  0.39839864  1
  Ta  Ta141  1  0.20516985  0.79438899  0.40474107  1
  Ta  Ta142  1  0.29968317  0.90292747  0.89864777  1
  Ta  Ta143  1  0.59171931  -0.00559431  0.80100394  1
  Ta  Ta144  1  0.29661754  0.10157882  0.89530594  1
  Ta  Ta145  1  0.10833063  0.31347297  0.69429637  1
  Ta  Ta146  1  -0.00256212  0.60044084  -0.00222208  1
  Ta  Ta147  1  0.60960528  0.59377075  0.00249788  1
  Ta  Ta148  1  0.80937814  0.19384947  0.80215789  1
  Ta  Ta149  1  0.79356327  0.41734675  0.40623226  1
  Ti  Ti150  1  0.09984661  0.08292654  0.30301480  1
  Ti  Ti151  1  0.90375816  0.31493084  0.31020238  1
  Ti  Ti152  1  0.10682468  0.30916449  0.89215776  1
  Ti  Ti153  1  0.60060623  0.60239936  0.60466123  1
  Ti  Ti154  1  0.39570823  0.59324931  0.40579952  1
  Ti  Ti155  1  0.89833191  0.49898964  0.31069648  1
  Ti  Ti156  1  0.39889830  0.80730084  -0.00144933  1
  Ti  Ti157  1  0.39800852  0.20161529  0.79424581  1
  Ti  Ti158  1  0.00348105  0.19617693  0.59674104  1
  Ti  Ti159  1  0.39215912  0.20202164  0.19416541  1
  Ti  Ti160  1  0.79812760  0.41683970  0.59852459  1
  Ti  Ti161  1  0.69826821  0.10025819  0.89362931  1
  Ti  Ti162  1  0.60501429  0.40511823  0.19400399  1
  Ti  Ti163  1  0.60462358  0.40599397  0.40767432  1
  Ti  Ti164  1  0.69694429  0.30256030  0.09437744  1
  Ti  Ti165  1  0.10158577  0.09870175  0.69418088  1
  Ti  Ti166  1  0.39387216  0.59550194  -0.00701761  1
  Ti  Ti167  1  0.10451885  0.69329709  0.31057691  1
  Ti  Ti168  1  0.20024729  -0.00958535  0.61369842  1
  Ti  Ti169  1  0.00191626  0.40734488  -0.00549947  1
  Ti  Ti170  1  0.20766123  0.40292201  -0.00305256  1
  Ti  Ti171  1  0.70271259  0.31337072  0.50244716  1
  Ti  Ti172  1  0.80135844  0.79506389  0.00014328  1
  Ti  Ti173  1  0.80508189  0.60062098  0.79733646  1
  Ti  Ti174  1  0.30205207  0.09178421  0.50390909  1
  Ti  Ti175  1  0.60480550  0.79922364  0.20870058  1
  Ti  Ti176  1  0.59717026  0.19888840  0.79997183  1
  Ti  Ti177  1  0.10082424  0.50016472  0.09937376  1
  Ti  Ti178  1  0.59653167  0.79823920  0.79262417  1
  Ti  Ti179  1  0.70690094  0.90303947  0.51004298  1
  Ti  Ti180  1  0.09995613  0.89331597  0.51107994  1
  Ti  Ti181  1  0.10355526  0.31094983  0.09236743  1
  Ti  Ti182  1  0.19868140  0.00134700  0.79658764  1
  Ti  Ti183  1  0.78952990  0.80465580  0.39243328  1
  Ti  Ti184  1  0.09171347  0.30666144  0.50189744  1
  Ti  Ti185  1  0.80026249  0.60004783  0.00329331  1
  Ti  Ti186  1  0.90564790  0.51725443  0.69689336  1
  Ti  Ti187  1  0.29862190  0.09853095  0.70048207  1
  Ti  Ti188  1  0.19390720  0.19677978  0.79620976  1
  Ti  Ti189  1  -0.00303393  0.80989782  0.78683780  1
  Ti  Ti190  1  0.50417595  0.50150066  0.49579160  1
  Ti  Ti191  1  0.59455412  0.79997779  -0.00910474  1
  Ti  Ti192  1  0.49645849  0.11295010  0.89536591  1
  Ti  Ti193  1  0.39269100  0.20281708  0.00445424  1
  Ti  Ti194  1  0.39723505  0.60040309  0.20028693  1
  Ti  Ti195  1  0.69744065  0.70100418  0.09291186  1
  Ti  Ti196  1  0.61568694  0.59121088  0.39587202  1
  Ti  Ti197  1  0.30046169  0.30926939  0.49883877  1
  Ti  Ti198  1  0.39396313  0.60043001  0.79696959  1
  Ti  Ti199  1  0.90750814  0.09796119  0.90101531  1
  Mo  Mo200  1  0.50033207  0.89598180  0.29542123  1
  Mo  Mo201  1  0.91148191  0.08116811  0.30219881  1
  Mo  Mo202  1  0.50098279  0.89173983  0.90170476  1
  Mo  Mo203  1  0.29892090  0.30349306  0.09671661  1
  Mo  Mo204  1  0.89856033  0.89754961  0.69673621  1
  Mo  Mo205  1  0.09890705  0.30511029  0.29996048  1
  Mo  Mo206  1  0.29272238  0.90873641  0.70621336  1
  Mo  Mo207  1  0.88066788  0.50793769  0.50448971  1
  Mo  Mo208  1  0.89543391  0.89917425  0.10515859  1
  Mo  Mo209  1  0.19001629  0.59910782  0.60098182  1
  Mo  Mo210  1  0.69200431  0.50412895  0.50805187  1
  Mo  Mo211  1  0.79483952  0.59352314  0.40441910  1
  Mo  Mo212  1  0.19878944  0.60219138  0.40062861  1
  Mo  Mo213  1  0.18238064  0.80097280  0.60060887  1
  Mo  Mo214  1  0.70399794  0.69934276  0.70392192  1
  Mo  Mo215  1  0.69429956  0.49832470  0.30571915  1
  Mo  Mo216  1  0.20213138  0.00234370  0.22017060  1
  Mo  Mo217  1  0.42342032  0.77090978  0.59927057  1
  Mo  Mo218  1  0.09517494  0.90008535  0.10791508  1
  Mo  Mo219  1  0.50653439  0.68678387  0.70206121  1
  Mo  Mo220  1  -0.00190081  0.79891037  0.20813797  1
  Mo  Mo221  1  0.19191046  0.39809421  0.79795683  1
  Mo  Mo222  1  0.69755832  0.49637761  0.09111054  1
  Mo  Mo223  1  0.11195825  0.10218497  0.89309097  1
  Mo  Mo224  1  0.30220589  0.68975173  0.30140781  1
  Mo  Mo225  1  0.39294601  0.01942733  0.60569439  1
  Mo  Mo226  1  0.30635004  0.10673147  0.10270670  1
  Mo  Mo227  1  0.69833778  0.69895951  0.30493996  1
  Mo  Mo228  1  0.09716516  0.50825875  0.69634161  1
  Mo  Mo229  1  0.19882832  0.39716048  0.59363944  1
  Mo  Mo230  1  0.20528860  0.00531181  -0.01974096  1
  Mo  Mo231  1  0.30010990  0.49904903  0.49765326  1
  Mo  Mo232  1  0.40241271  0.39830790  0.40532185  1
  Mo  Mo233  1  0.59928690  0.40111610  -0.00336918  1
  Mo  Mo234  1  0.89079297  0.69015815  0.09445517  1
  Mo  Mo235  1  -0.00264665  -0.00621715  0.40165644  1
  Mo  Mo236  1  0.80040707  -0.00465156  0.59864336  1
  Mo  Mo237  1  0.09928545  0.90141537  0.69548464  1
  Mo  Mo238  1  0.70301301  0.08544957  0.49878101  1
  Mo  Mo239  1  0.29970660  0.90230167  0.30498873  1
  Mo  Mo240  1  -0.00194962  0.80166156  0.60407405  1
  Mo  Mo241  1  0.29993124  0.50639409  0.90067987  1
  Mo  Mo242  1  0.12115896  0.50892564  0.50448335  1
  Mo  Mo243  1  0.89866405  0.50750983  0.89963717  1
  Mo  Mo244  1  -0.00045683  0.00057248  0.00298218  1
  Mo  Mo245  1  -0.00221972  0.60631973  0.80069403  1
  Mo  Mo246  1  -0.00459312  0.40205829  0.40261553  1
  Mo  Mo247  1  -0.00225901  0.60320311  0.60599408  1
  Mo  Mo248  1  0.60233785  0.59894674  0.80069421  1
  Mo  Mo249  1  0.70496982  0.89592112  0.29093217  1
