# generated using pymatgen
data_HfZrTaTiMo
_symmetry_space_group_name_H-M   'P 1'
_cell_length_a   16.88639384
_cell_length_b   16.88395396
_cell_length_c   16.89198929
_cell_angle_alpha   90.05528457
_cell_angle_beta   89.98553193
_cell_angle_gamma   90.00898828
_symmetry_Int_Tables_number   1
_chemical_formula_structural   HfZrTaTiMo
_chemical_formula_sum   'Hf50 Zr50 Ta50 Ti50 Mo50'
_cell_volume   4816.05734421
_cell_formula_units_Z   50
loop_
 _symmetry_equiv_pos_site_id
 _symmetry_equiv_pos_as_xyz
  1  'x, y, z'
loop_
 _atom_site_type_symbol
 _atom_site_label
 _atom_site_symmetry_multiplicity
 _atom_site_fract_x
 _atom_site_fract_y
 _atom_site_fract_z
 _atom_site_occupancy
  Hf  Hf0  1  0.29275472  0.49819814  0.89777334  1
  Hf  Hf1  1  -0.00170863  0.00185686  0.79846962  1
  Hf  Hf2  1  0.39980598  0.41046391  0.40301087  1
  Hf  Hf3  1  0.19448931  0.60179951  0.39888506  1
  Hf  Hf4  1  0.09123301  0.49283476  0.29689931  1
  Hf  Hf5  1  0.39624595  -0.00516395  0.40947233  1
  Hf  Hf6  1  -0.00031382  0.60503392  -0.00520688  1
  Hf  Hf7  1  -0.00725037  -0.00318976  0.40779942  1
  Hf  Hf8  1  0.80443026  0.41127246  0.59608390  1
  Hf  Hf9  1  0.61405930  0.79536668  0.19085309  1
  Hf  Hf10  1  0.60936965  0.60507835  0.59906772  1
  Hf  Hf11  1  0.10651635  0.49912130  0.88918451  1
  Hf  Hf12  1  0.89769677  0.10954821  0.50961398  1
  Hf  Hf13  1  0.09741500  0.90446837  0.30747402  1
  Hf  Hf14  1  0.09544931  0.10805551  0.90422692  1
  Hf  Hf15  1  0.39813531  0.79401147  0.20960612  1
  Hf  Hf16  1  0.28532063  0.50226547  0.70743250  1
  Hf  Hf17  1  0.09148126  0.10037256  0.10146549  1
  Hf  Hf18  1  0.30545334  0.90409612  0.10081403  1
  Hf  Hf19  1  0.50096781  0.49900943  0.69130331  1
  Hf  Hf20  1  0.29425604  0.29851597  0.50351283  1
  Hf  Hf21  1  0.19500184  0.79527844  0.39989399  1
  Hf  Hf22  1  0.89211228  0.50460180  0.29361987  1
  Hf  Hf23  1  0.29630341  0.30148316  0.70091954  1
  Hf  Hf24  1  0.29549116  0.09649874  0.69895167  1
  Hf  Hf25  1  0.80571143  0.60482360  -0.00009119  1
  Hf  Hf26  1  0.60445929  0.19903975  0.60225887  1
  Hf  Hf27  1  0.00369802  0.40566998  0.78200663  1
  Hf  Hf28  1  0.50435210  0.89853321  0.09972409  1
  Hf  Hf29  1  0.69777533  0.30464600  0.89273887  1
  Hf  Hf30  1  0.20152830  0.80024810  0.20866215  1
  Hf  Hf31  1  0.80010788  0.19608544  0.39398304  1
  Hf  Hf32  1  0.20067133  0.38426157  0.19629831  1
  Hf  Hf33  1  0.70529830  0.89471408  0.69987794  1
  Hf  Hf34  1  0.39983642  0.19984165  0.00412976  1
  Hf  Hf35  1  0.38251201  0.19157078  0.18970111  1
  Hf  Hf36  1  0.49647212  0.69693391  0.49984786  1
  Hf  Hf37  1  0.19903316  0.00441805  0.20189273  1
  Hf  Hf38  1  0.19237142  0.19463651  0.39909789  1
  Hf  Hf39  1  0.89539190  0.89605536  0.30227737  1
  Hf  Hf40  1  0.80402917  0.40637001  0.78722807  1
  Hf  Hf41  1  0.90536388  0.89905646  0.09928680  1
  Hf  Hf42  1  0.20439601  0.20793961  0.01569869  1
  Hf  Hf43  1  0.39050667  0.60306897  0.39347524  1
  Hf  Hf44  1  0.10039826  0.30967161  0.90341907  1
  Hf  Hf45  1  0.40844450  0.60756909  0.80406884  1
  Hf  Hf46  1  0.70711677  0.50215589  0.10515999  1
  Hf  Hf47  1  0.60631583  0.60683543  0.79376786  1
  Hf  Hf48  1  0.80288018  0.60569242  0.79358006  1
  Hf  Hf49  1  0.50020322  0.89072346  0.89783856  1
  Zr  Zr50  1  0.60958542  0.00052488  0.00334878  1
  Zr  Zr51  1  0.60692874  0.19023414  0.40600102  1
  Zr  Zr52  1  0.59791885  -0.00048604  0.79612608  1
  Zr  Zr53  1  0.59735901  0.78660543  0.79540649  1
  Zr  Zr54  1  0.60511710  0.19962687  0.78689816  1
  Zr  Zr55  1  0.29644031  0.30724213  0.89441603  1
  Zr  Zr56  1  0.69812322  0.90582915  0.30120858  1
  Zr  Zr57  1  0.29166670  0.49784757  0.09109755  1
  Zr  Zr58  1  0.80213908  0.19855558  0.00623187  1
  Zr  Zr59  1  0.50705729  0.29477227  0.30745363  1
  Zr  Zr60  1  0.39903221  0.01121071  0.00025477  1
  Zr  Zr61  1  0.09688408  0.49130609  0.08966303  1
  Zr  Zr62  1  0.38976384  0.80259702  0.39482774  1
  Zr  Zr63  1  0.80960837  0.39615683  -0.00014894  1
  Zr  Zr64  1  0.40574560  0.39378300  0.01194446  1
  Zr  Zr65  1  0.69941665  0.30954328  0.50443327  1
  Zr  Zr66  1  -0.01067401  0.79614534  0.58390923  1
  Zr  Zr67  1  0.40923642  0.59606562  0.20120043  1
  Zr  Zr68  1  0.59804813  0.19109959  0.00333522  1
  Zr  Zr69  1  0.71052004  0.30092624  0.11574540  1
  Zr  Zr70  1  0.90818023  0.29795970  0.88828375  1
  Zr  Zr71  1  0.00017800  0.60820934  0.19873329  1
  Zr  Zr72  1  0.10805296  0.89029779  0.69578255  1
  Zr  Zr73  1  0.29445166  0.70433353  0.69779659  1
  Zr  Zr74  1  0.70986028  0.09851150  0.89226644  1
  Zr  Zr75  1  0.49793291  0.30630091  0.69554577  1
  Zr  Zr76  1  0.08535073  0.89064214  0.90234730  1
  Zr  Zr77  1  0.30238462  0.69996495  0.09576225  1
  Zr  Zr78  1  0.00140817  -0.00201765  0.60430053  1
  Zr  Zr79  1  0.51698317  0.28700596  0.12199675  1
  Zr  Zr80  1  0.50752202  0.09291410  0.29902055  1
  Zr  Zr81  1  0.89924150  0.88597074  0.70896873  1
  Zr  Zr82  1  0.19634838  0.61008450  0.20644010  1
  Zr  Zr83  1  0.40699950  0.40462932  0.20231719  1
  Zr  Zr84  1  0.71770025  0.08706985  0.69143134  1
  Zr  Zr85  1  -0.00766193  0.40208607  0.40311245  1
  Zr  Zr86  1  0.00358223  0.79740738  0.20614018  1
  Zr  Zr87  1  0.09909741  0.10091322  0.50697165  1
  Zr  Zr88  1  0.30219974  0.29751322  0.30868472  1
  Zr  Zr89  1  0.60066517  0.80251336  0.40472850  1
  Zr  Zr90  1  0.09386181  0.69496980  0.69959972  1
  Zr  Zr91  1  0.51035358  0.49478319  0.89718333  1
  Zr  Zr92  1  0.48680746  0.89562042  0.69487864  1
  Zr  Zr93  1  0.30054691  0.89734657  0.89227160  1
  Zr  Zr94  1  0.50490290  0.91480566  0.29031615  1
  Zr  Zr95  1  0.70166739  0.30850701  0.29507757  1
  Zr  Zr96  1  0.40154785  0.19316100  0.59216789  1
  Zr  Zr97  1  0.29772493  0.89235250  0.69988820  1
  Zr  Zr98  1  0.59850157  0.40085475  0.00748017  1
  Zr  Zr99  1  0.30134194  0.09220218  0.30687377  1
  Ta  Ta100  1  0.19823985  0.00226686  -0.00258376  1
  Ta  Ta101  1  0.89221771  0.70203526  0.30832429  1
  Ta  Ta102  1  0.60764547  0.41592975  0.40530183  1
  Ta  Ta103  1  0.50924294  0.70071755  0.09476204  1
  Ta  Ta104  1  0.70371753  0.89060476  0.90185848  1
  Ta  Ta105  1  0.40572160  0.79044805  -0.00512872  1
  Ta  Ta106  1  0.79941561  0.80095502  0.00301648  1
  Ta  Ta107  1  0.19188045  0.19917601  0.79435049  1
  Ta  Ta108  1  0.79902899  0.00624169  0.19874004  1
  Ta  Ta109  1  0.09058139  0.29767427  0.50237879  1
  Ta  Ta110  1  0.89893836  0.30243373  0.29165710  1
  Ta  Ta111  1  0.09793965  0.71183373  0.08788459  1
  Ta  Ta112  1  0.50339161  0.31319117  0.50165509  1
  Ta  Ta113  1  0.80496676  0.80119484  0.41157868  1
  Ta  Ta114  1  0.60654267  0.60468593  0.19980690  1
  Ta  Ta115  1  0.90659221  0.71254658  0.89758988  1
  Ta  Ta116  1  0.90412041  0.48953102  0.10333548  1
  Ta  Ta117  1  0.90317991  0.29733313  0.50007415  1
  Ta  Ta118  1  0.70404803  0.50376100  0.89832506  1
  Ta  Ta119  1  0.39279402  0.40920510  0.59341267  1
  Ta  Ta120  1  0.90473156  0.29522331  0.68754421  1
  Ta  Ta121  1  0.41025584  0.60015219  -0.00174472  1
  Ta  Ta122  1  0.19979401  0.80124655  -0.00298555  1
  Ta  Ta123  1  0.60686032  0.79383385  0.59937862  1
  Ta  Ta124  1  0.80028519  0.40865369  0.40260925  1
  Ta  Ta125  1  0.28777342  0.89707681  0.51184784  1
  Ta  Ta126  1  0.70789226  0.69562976  0.30558361  1
  Ta  Ta127  1  -0.00323322  0.61001558  0.40341050  1
  Ta  Ta128  1  0.90307425  0.09973202  0.10188177  1
  Ta  Ta129  1  -0.00424833  0.00985674  0.21023433  1
  Ta  Ta130  1  0.29463684  0.70168852  0.51038085  1
  Ta  Ta131  1  0.90774658  0.50098984  0.89885130  1
  Ta  Ta132  1  0.49761531  0.29660926  0.88623505  1
  Ta  Ta133  1  0.19529460  0.61064590  -0.00938527  1
  Ta  Ta134  1  0.19135225  0.00670393  0.80051697  1
  Ta  Ta135  1  0.80417495  -0.00518665  0.00040659  1
  Ta  Ta136  1  0.09698049  0.90313322  0.09551862  1
  Ta  Ta137  1  0.09208219  0.50343653  0.50407310  1
  Ta  Ta138  1  0.08876071  0.29555680  0.29906482  1
  Ta  Ta139  1  0.19037223  0.19735916  0.20285725  1
  Ta  Ta140  1  0.69977775  0.70226289  0.90816933  1
  Ta  Ta141  1  0.18771784  0.40258516  0.59841748  1
  Ta  Ta142  1  0.30143324  0.69999374  0.89689815  1
  Ta  Ta143  1  0.29517382  0.10672662  0.89375916  1
  Ta  Ta144  1  0.90285907  0.10268733  0.89927655  1
  Ta  Ta145  1  0.50589809  0.50448989  0.50169769  1
  Ta  Ta146  1  0.19049738  0.40002477  0.40606401  1
  Ta  Ta147  1  0.70661292  0.69380194  0.49415250  1
  Ta  Ta148  1  -0.00766870  0.20748507  0.00828498  1
  Ta  Ta149  1  0.80070657  0.00196841  0.40199711  1
  Ti  Ti150  1  0.91251001  0.51621475  0.68997528  1
  Ti  Ti151  1  0.60902498  0.40047911  0.78756164  1
  Ti  Ti152  1  0.51283643  0.69607665  0.30346229  1
  Ti  Ti153  1  0.59847119  0.41844319  0.20650375  1
  Ti  Ti154  1  0.29007452  0.50249289  0.50323453  1
  Ti  Ti155  1  0.60346180  0.60368242  0.00352941  1
  Ti  Ti156  1  0.19130514  0.78819474  0.81065342  1
  Ti  Ti157  1  0.08350508  0.30473668  0.10330314  1
  Ti  Ti158  1  0.81078766  -0.00788328  0.81014743  1
  Ti  Ti159  1  0.40206603  0.19225675  0.41128464  1
  Ti  Ti160  1  0.49133455  0.09728025  0.70023859  1
  Ti  Ti161  1  0.70381044  0.08803284  0.50391158  1
  Ti  Ti162  1  0.09560675  0.69871048  0.50115769  1
  Ti  Ti163  1  0.39578976  0.00442242  0.80171438  1
  Ti  Ti164  1  0.79596609  0.79770446  0.19381341  1
  Ti  Ti165  1  0.48572733  0.70773205  0.68710442  1
  Ti  Ti166  1  0.09796696  0.29741130  0.69027937  1
  Ti  Ti167  1  0.49686366  0.89504292  0.50983285  1
  Ti  Ti168  1  -0.00539397  0.19340743  0.38881932  1
  Ti  Ti169  1  -0.00078719  0.40526712  0.59696807  1
  Ti  Ti170  1  -0.00817907  0.00142398  -0.00329858  1
  Ti  Ti171  1  0.29040629  0.49671521  0.29919700  1
  Ti  Ti172  1  0.79944031  0.78908025  0.59750140  1
  Ti  Ti173  1  0.62690372  0.17083029  0.20213672  1
  Ti  Ti174  1  0.00536036  0.19612543  0.78711410  1
  Ti  Ti175  1  0.69958871  0.50055540  0.69169993  1
  Ti  Ti176  1  0.79517985  0.20867203  0.60368067  1
  Ti  Ti177  1  0.50613232  0.09053893  0.50231015  1
  Ti  Ti178  1  0.79900501  0.61222334  0.19367299  1
  Ti  Ti179  1  0.70125238  0.89960409  0.50363426  1
  Ti  Ti180  1  0.90233904  0.70752182  0.09722500  1
  Ti  Ti181  1  0.51349904  0.51067214  0.30969734  1
  Ti  Ti182  1  0.80206913  0.20554274  0.78885201  1
  Ti  Ti183  1  0.89972023  0.10526908  0.69838789  1
  Ti  Ti184  1  0.80473651  0.60823124  0.59903281  1
  Ti  Ti185  1  0.49262910  0.10899714  0.88621117  1
  Ti  Ti186  1  -0.00046357  0.60552942  0.79895089  1
  Ti  Ti187  1  0.19921923  -0.00308004  0.41014788  1
  Ti  Ti188  1  0.81262469  -0.01479032  0.59219162  1
  Ti  Ti189  1  0.59809928  -0.00481608  0.59900592  1
  Ti  Ti190  1  0.80007281  0.79061286  0.80268459  1
  Ti  Ti191  1  0.40072008  0.40283902  0.79645371  1
  Ti  Ti192  1  0.50092525  0.08436493  0.11868961  1
  Ti  Ti193  1  0.19437659  0.19521457  0.60247108  1
  Ti  Ti194  1  0.81040431  0.18752809  0.20715705  1
  Ti  Ti195  1  0.18880868  0.59634714  0.59951896  1
  Ti  Ti196  1  0.89936199  0.51449014  0.49842492  1
  Ti  Ti197  1  0.39311463  0.59626025  0.59635440  1
  Ti  Ti198  1  0.39175769  0.00148109  0.59246709  1
  Ti  Ti199  1  0.70592915  0.51116063  0.30568510  1
  Mo  Mo200  1  0.20035878  -0.00147025  0.59959641  1
  Mo  Mo201  1  0.29472949  0.69583068  0.30599091  1
  Mo  Mo202  1  0.40066762  0.79088012  0.80415342  1
  Mo  Mo203  1  0.89322428  0.89712926  0.49943270  1
  Mo  Mo204  1  0.60436628  0.60069641  0.39744328  1
  Mo  Mo205  1  0.61980519  -0.00067148  0.18396982  1
  Mo  Mo206  1  0.80161943  0.60187425  0.40174163  1
  Mo  Mo207  1  0.29498442  0.90193800  0.30740005  1
  Mo  Mo208  1  0.29619850  0.29759674  0.10552604  1
  Mo  Mo209  1  0.10404557  0.89872117  0.49982976  1
  Mo  Mo210  1  0.19287622  0.39428190  0.78453621  1
  Mo  Mo211  1  0.70977118  0.89843203  0.09634610  1
  Mo  Mo212  1  0.51054547  0.51418717  0.10589010  1
  Mo  Mo213  1  0.60475960  0.79506530  -0.00089245  1
  Mo  Mo214  1  0.89840587  0.69595478  0.70150915  1
  Mo  Mo215  1  0.09680718  0.50375807  0.69225335  1
  Mo  Mo216  1  0.09457194  0.10248683  0.30135467  1
  Mo  Mo217  1  0.39058258  -0.00337728  0.20006074  1
  Mo  Mo218  1  0.80180507  0.40937027  0.20729410  1
  Mo  Mo219  1  0.71461502  0.09626300  0.10118579  1
  Mo  Mo220  1  0.89937944  0.09980212  0.30068723  1
  Mo  Mo221  1  0.70578949  0.50820260  0.49708688  1
  Mo  Mo222  1  0.71053449  0.70385827  0.69130025  1
  Mo  Mo223  1  0.19492524  0.39877365  0.00566553  1
  Mo  Mo224  1  0.70614132  0.69846838  0.09988318  1
  Mo  Mo225  1  0.09998807  0.69904523  0.89754987  1
  Mo  Mo226  1  0.29409176  0.09266199  0.50570546  1
  Mo  Mo227  1  0.29061069  0.09707788  0.09586638  1
  Mo  Mo228  1  0.90582134  0.29715330  0.11443320  1
  Mo  Mo229  1  -0.00311580  0.80041642  0.00167549  1
  Mo  Mo230  1  -0.00306437  0.40003305  0.00058237  1
  Mo  Mo231  1  -0.00506930  0.79397623  0.80146681  1
  Mo  Mo232  1  -0.00280097  0.79551821  0.40228163  1
  Mo  Mo233  1  -0.00383803  0.39420974  0.19909289  1
  Mo  Mo234  1  0.70638574  0.09031430  0.30359496  1
  Mo  Mo235  1  0.89483441  0.69735130  0.49887173  1
  Mo  Mo236  1  0.09023018  0.70246458  0.30898774  1
  Mo  Mo237  1  0.60438398  -0.00400038  0.42659510  1
  Mo  Mo238  1  -0.00284397  0.20080936  0.20239315  1
  Mo  Mo239  1  0.60067125  0.40905513  0.59591335  1
  Mo  Mo240  1  0.10247420  0.10369233  0.70373404  1
  Mo  Mo241  1  0.50486656  0.69684404  0.90951240  1
  Mo  Mo242  1  -0.00086801  0.20502939  0.60356606  1
  Mo  Mo243  1  0.19692313  0.60515425  0.80407594  1
  Mo  Mo244  1  0.39911419  0.79789335  0.59233032  1
  Mo  Mo245  1  -0.00434796  0.59908732  0.59298069  1
  Mo  Mo246  1  0.71064054  0.30892100  0.69677641  1
  Mo  Mo247  1  0.19157992  0.79548394  0.59021743  1
  Mo  Mo248  1  0.39665291  0.19608324  0.80075525  1
  Mo  Mo249  1  0.89255460  0.89873741  0.90293231  1
