# generated using pymatgen
data_HfZrTaTiMo
_symmetry_space_group_name_H-M   'P 1'
_cell_length_a   16.88544442
_cell_length_b   16.88180465
_cell_length_c   16.88007118
_cell_angle_alpha   89.96911249
_cell_angle_beta   89.99047246
_cell_angle_gamma   89.99470616
_symmetry_Int_Tables_number   1
_chemical_formula_structural   HfZrTaTiMo
_chemical_formula_sum   'Hf50 Zr50 Ta50 Ti50 Mo50'
_cell_volume   4811.77785204
_cell_formula_units_Z   50
loop_
 _symmetry_equiv_pos_site_id
 _symmetry_equiv_pos_as_xyz
  1  'x, y, z'
loop_
 _atom_site_type_symbol
 _atom_site_label
 _atom_site_symmetry_multiplicity
 _atom_site_fract_x
 _atom_site_fract_y
 _atom_site_fract_z
 _atom_site_occupancy
  Hf  Hf0  1  0.30799423  0.29834471  0.49731133  1
  Hf  Hf1  1  0.09957794  0.48704377  0.10102732  1
  Hf  Hf2  1  -0.00884952  0.40183017  0.80496090  1
  Hf  Hf3  1  0.79346188  0.20799917  -0.00108814  1
  Hf  Hf4  1  0.09805719  0.30160821  0.90569357  1
  Hf  Hf5  1  0.21531584  0.80450410  -0.00230960  1
  Hf  Hf6  1  0.10545590  0.50038020  0.30385966  1
  Hf  Hf7  1  0.31357501  0.50054249  0.69269364  1
  Hf  Hf8  1  0.50691066  0.09784834  0.29630511  1
  Hf  Hf9  1  0.89659187  0.69891997  0.70025653  1
  Hf  Hf10  1  0.09764352  0.69424408  0.09593568  1
  Hf  Hf11  1  0.80431433  0.00265307  0.41277882  1
  Hf  Hf12  1  0.20898729  0.79780243  0.80154005  1
  Hf  Hf13  1  0.40308402  0.00072606  0.18713964  1
  Hf  Hf14  1  0.69176747  0.10335743  0.69481115  1
  Hf  Hf15  1  0.59811378  0.80134838  0.18968494  1
  Hf  Hf16  1  0.00008932  0.20979521  0.19707945  1
  Hf  Hf17  1  0.40105016  0.80556677  0.18601985  1
  Hf  Hf18  1  0.20167133  0.19349709  -0.00013712  1
  Hf  Hf19  1  0.09704685  0.69928873  0.31533675  1
  Hf  Hf20  1  0.00197898  0.59936830  0.80478520  1
  Hf  Hf21  1  0.41572649  0.39469607  0.80166959  1
  Hf  Hf22  1  0.30147295  0.50212125  0.89440296  1
  Hf  Hf23  1  0.69982886  0.69321227  0.30637705  1
  Hf  Hf24  1  0.90121947  0.10532921  0.10341973  1
  Hf  Hf25  1  0.68948185  0.69572564  0.50573884  1
  Hf  Hf26  1  0.20241885  0.20089775  0.59780524  1
  Hf  Hf27  1  0.90419050  0.10505333  0.90581984  1
  Hf  Hf28  1  0.40643548  -0.00185883  0.40491535  1
  Hf  Hf29  1  0.10034742  0.30193131  0.69727683  1
  Hf  Hf30  1  0.29390488  0.30430134  0.10976877  1
  Hf  Hf31  1  0.21689155  0.00215138  0.80732950  1
  Hf  Hf32  1  0.50683166  0.49902056  0.29774108  1
  Hf  Hf33  1  0.60019168  -0.00430166  0.41817061  1
  Hf  Hf34  1  0.29989217  0.69370544  0.30941989  1
  Hf  Hf35  1  0.40936399  0.18305010  0.00364363  1
  Hf  Hf36  1  0.69308847  0.90203707  0.29825608  1
  Hf  Hf37  1  0.89748902  0.50262357  0.69711446  1
  Hf  Hf38  1  0.89264726  0.69875887  0.10141374  1
  Hf  Hf39  1  0.29975944  0.49126512  0.29992643  1
  Hf  Hf40  1  0.30900282  0.69321099  0.69602156  1
  Hf  Hf41  1  -0.00102929  0.40433001  0.58977373  1
  Hf  Hf42  1  0.40333781  0.19296239  0.80534842  1
  Hf  Hf43  1  0.10305678  0.90116084  0.30214480  1
  Hf  Hf44  1  0.69545701  0.90101831  0.90365132  1
  Hf  Hf45  1  0.59513111  0.39990577  -0.00863655  1
  Hf  Hf46  1  0.00066366  0.80117105  0.19646790  1
  Hf  Hf47  1  -0.00413419  0.20036910  0.58865986  1
  Hf  Hf48  1  0.88001856  0.29823713  0.49266668  1
  Hf  Hf49  1  0.30716389  0.69375277  0.50583917  1
  Zr  Zr50  1  0.50744304  0.30564458  0.69149985  1
  Zr  Zr51  1  0.10857078  0.90801206  0.90648645  1
  Zr  Zr52  1  0.10380347  0.09579863  0.69481644  1
  Zr  Zr53  1  0.10230998  0.89452711  0.49457070  1
  Zr  Zr54  1  0.88508633  0.10898042  0.68696722  1
  Zr  Zr55  1  0.20696080  0.80060758  0.19311391  1
  Zr  Zr56  1  -0.01591416  -0.00575970  0.59302368  1
  Zr  Zr57  1  0.30720017  0.10201682  0.49757377  1
  Zr  Zr58  1  0.40749370  0.59803842  -0.00517970  1
  Zr  Zr59  1  0.79515625  0.20827673  0.80635188  1
  Zr  Zr60  1  0.59824147  0.79256725  -0.00578817  1
  Zr  Zr61  1  0.10850412  0.09583336  0.29538746  1
  Zr  Zr62  1  0.79940147  -0.00131787  -0.00023094  1
  Zr  Zr63  1  0.80075156  -0.00118143  0.20001600  1
  Zr  Zr64  1  0.89485693  0.69699557  0.30500036  1
  Zr  Zr65  1  -0.00457165  0.19805995  0.39786071  1
  Zr  Zr66  1  -0.00530627  0.80590802  0.79839109  1
  Zr  Zr67  1  0.20144002  0.39974333  0.79547100  1
  Zr  Zr68  1  0.40328846  0.59789881  0.19712212  1
  Zr  Zr69  1  -0.00149350  0.80990956  -0.00185220  1
  Zr  Zr70  1  -0.00379555  0.40282248  0.39964657  1
  Zr  Zr71  1  0.30258463  0.29889781  0.90459995  1
  Zr  Zr72  1  0.29852378  0.90429649  0.30074657  1
  Zr  Zr73  1  0.88558772  0.70625677  0.90395105  1
  Zr  Zr74  1  0.68385379  0.10727431  0.10638495  1
  Zr  Zr75  1  0.90530344  0.89493167  0.30382288  1
  Zr  Zr76  1  0.11138136  0.89890169  0.69444834  1
  Zr  Zr77  1  0.41229892  0.80144083  0.40896181  1
  Zr  Zr78  1  0.79529907  0.60036232  0.60062824  1
  Zr  Zr79  1  0.80008310  -0.00640380  0.79594508  1
  Zr  Zr80  1  0.79665493  0.80744436  0.41465957  1
  Zr  Zr81  1  -0.00561088  0.58715504  -0.00159322  1
  Zr  Zr82  1  0.40528305  0.79878364  0.79840811  1
  Zr  Zr83  1  -0.00122871  0.20357503  0.80195497  1
  Zr  Zr84  1  0.50805163  0.69869219  0.29906760  1
  Zr  Zr85  1  -0.00463165  0.79517018  0.59282569  1
  Zr  Zr86  1  0.50666308  0.29589117  0.10424245  1
  Zr  Zr87  1  0.79165722  0.81024486  0.60771738  1
  Zr  Zr88  1  0.69763056  0.49741070  0.88885063  1
  Zr  Zr89  1  0.60210281  0.79056334  0.78996459  1
  Zr  Zr90  1  0.59342747  0.20569580  0.81181723  1
  Zr  Zr91  1  0.19923574  0.59917653  0.19631128  1
  Zr  Zr92  1  0.59524809  0.39896874  0.40540754  1
  Zr  Zr93  1  0.11656165  0.30334790  0.29443414  1
  Zr  Zr94  1  -0.00850919  -0.00549347  0.80002510  1
  Zr  Zr95  1  0.70023592  0.49342886  0.10738824  1
  Zr  Zr96  1  0.50276594  0.90679681  0.89273051  1
  Zr  Zr97  1  0.79568337  0.59077497  -0.00422899  1
  Zr  Zr98  1  0.69730785  0.10438597  0.30426456  1
  Zr  Zr99  1  0.40937086  0.40137598  -0.00052948  1
  Ta  Ta100  1  0.30399738  0.49871722  0.50062496  1
  Ta  Ta101  1  0.49871798  0.68604309  0.68605746  1
  Ta  Ta102  1  0.20247887  0.59587753  -0.00536813  1
  Ta  Ta103  1  0.20891390  0.39595319  0.40314823  1
  Ta  Ta104  1  0.59582439  0.80674061  0.41445212  1
  Ta  Ta105  1  0.58201047  0.00956262  0.00642601  1
  Ta  Ta106  1  0.79093882  0.80261501  0.79841207  1
  Ta  Ta107  1  0.10212378  0.49737836  0.90099408  1
  Ta  Ta108  1  0.39707405  0.19719169  0.20496717  1
  Ta  Ta109  1  -0.00447468  0.59614589  0.40912534  1
  Ta  Ta110  1  0.20549780  0.00046822  0.40362336  1
  Ta  Ta111  1  0.70126254  0.30624509  0.10493863  1
  Ta  Ta112  1  0.00002560  0.00080734  0.00453603  1
  Ta  Ta113  1  0.70204051  0.50276744  0.49468940  1
  Ta  Ta114  1  -0.00648078  0.40001247  0.19992529  1
  Ta  Ta115  1  0.10586740  0.09941921  0.49290157  1
  Ta  Ta116  1  0.30745083  0.29860969  0.69328776  1
  Ta  Ta117  1  0.40171617  0.00240778  0.80026541  1
  Ta  Ta118  1  0.80150346  0.40018488  0.79972435  1
  Ta  Ta119  1  0.19734437  0.59871666  0.59951506  1
  Ta  Ta120  1  0.40725197  0.59308771  0.40742973  1
  Ta  Ta121  1  0.79208026  0.80114955  0.19142751  1
  Ta  Ta122  1  0.50435060  0.09093441  0.69775851  1
  Ta  Ta123  1  0.50159134  0.69754814  0.09289693  1
  Ta  Ta124  1  0.10101236  0.50310749  0.69563523  1
  Ta  Ta125  1  0.70503143  0.11015599  0.50764801  1
  Ta  Ta126  1  0.20751577  0.19353442  0.80104732  1
  Ta  Ta127  1  -0.00579006  0.00348697  0.40549111  1
  Ta  Ta128  1  0.88484775  0.30747935  0.29920679  1
  Ta  Ta129  1  0.10199347  0.09725646  0.10059490  1
  Ta  Ta130  1  0.89159059  0.30929668  0.10156033  1
  Ta  Ta131  1  0.11180634  0.91687950  0.10394621  1
  Ta  Ta132  1  0.89073677  0.30359505  0.69172611  1
  Ta  Ta133  1  0.10883216  0.50250381  0.49675406  1
  Ta  Ta134  1  0.40825745  0.19779839  0.60174155  1
  Ta  Ta135  1  0.69949327  0.30811865  0.69684635  1
  Ta  Ta136  1  0.40105420  0.80274655  -0.00314975  1
  Ta  Ta137  1  0.20243470  0.40145298  0.59498073  1
  Ta  Ta138  1  0.30880191  0.09901460  0.69528466  1
  Ta  Ta139  1  0.70299768  0.30465256  0.30537183  1
  Ta  Ta140  1  0.79466466  0.40675780  0.59769416  1
  Ta  Ta141  1  0.79672502  0.20810192  0.20233543  1
  Ta  Ta142  1  0.29769552  0.49113259  0.10208653  1
  Ta  Ta143  1  0.59646194  0.20495757  0.40829487  1
  Ta  Ta144  1  0.59926763  0.60334756  -0.00772437  1
  Ta  Ta145  1  -0.00866837  0.58933633  0.20660935  1
  Ta  Ta146  1  0.19715262  0.60097603  0.79842934  1
  Ta  Ta147  1  0.59070264  0.80613083  0.59976285  1
  Ta  Ta148  1  0.30512689  0.89738288  0.51033739  1
  Ta  Ta149  1  0.40484869  0.39752989  0.39906117  1
  Ti  Ti150  1  0.60530448  0.60509005  0.79030831  1
  Ti  Ti151  1  0.89482896  0.10724001  0.30222889  1
  Ti  Ti152  1  0.60233847  0.39527953  0.20754095  1
  Ti  Ti153  1  0.50653808  0.50916754  0.88307693  1
  Ti  Ti154  1  0.68648068  0.09601073  0.90301296  1
  Ti  Ti155  1  0.10221744  0.69515633  0.69627546  1
  Ti  Ti156  1  -0.01348180  0.39786635  -0.00216174  1
  Ti  Ti157  1  0.59891057  0.20320393  0.59412954  1
  Ti  Ti158  1  0.20816140  0.00038435  0.59560330  1
  Ti  Ti159  1  0.29003912  0.09018155  0.10194884  1
  Ti  Ti160  1  0.70044556  0.30128638  0.50071781  1
  Ti  Ti161  1  0.60807134  0.41177682  0.60160315  1
  Ti  Ti162  1  0.78959896  0.60357451  0.79636057  1
  Ti  Ti163  1  0.88632494  0.49743869  0.30831725  1
  Ti  Ti164  1  0.50265462  0.09922659  0.51032904  1
  Ti  Ti165  1  0.70521704  0.50054679  0.30739979  1
  Ti  Ti166  1  0.10797238  0.29800407  0.49133800  1
  Ti  Ti167  1  0.79696768  -0.00745418  0.59335209  1
  Ti  Ti168  1  0.50536777  0.50275213  0.69647231  1
  Ti  Ti169  1  0.70470171  0.69966156  0.09309409  1
  Ti  Ti170  1  0.89601619  0.89860581  0.09587443  1
  Ti  Ti171  1  0.20472320  0.19981645  0.19836613  1
  Ti  Ti172  1  0.59111056  0.59944296  0.41123901  1
  Ti  Ti173  1  -0.00226697  0.00074797  0.19999847  1
  Ti  Ti174  1  0.00219207  0.20845936  0.00703942  1
  Ti  Ti175  1  0.59575148  0.20913008  0.20886748  1
  Ti  Ti176  1  0.30486441  0.69173946  0.09270048  1
  Ti  Ti177  1  0.10456136  0.69745509  0.90305709  1
  Ti  Ti178  1  0.39234110  -0.00336113  -0.00303569  1
  Ti  Ti179  1  0.50658386  0.90385716  0.29399521  1
  Ti  Ti180  1  0.20185712  0.79192239  0.59834923  1
  Ti  Ti181  1  0.20325774  0.79594109  0.41018422  1
  Ti  Ti182  1  0.69286844  0.90444915  0.09677500  1
  Ti  Ti183  1  0.68170489  0.91446608  0.69847948  1
  Ti  Ti184  1  0.60511604  0.60257592  0.19262683  1
  Ti  Ti185  1  0.50444934  0.49960460  0.10609254  1
  Ti  Ti186  1  0.41068455  0.20768393  0.39146188  1
  Ti  Ti187  1  0.00504336  0.60066119  0.59039979  1
  Ti  Ti188  1  0.10059751  0.09792937  0.90577012  1
  Ti  Ti189  1  0.69629258  0.30840137  0.90125918  1
  Ti  Ti190  1  0.19769112  0.39849268  0.00293386  1
  Ti  Ti191  1  0.89028977  0.49035880  0.10604878  1
  Ti  Ti192  1  0.79857108  0.59671509  0.20362640  1
  Ti  Ti193  1  0.30939399  0.69079031  0.89441988  1
  Ti  Ti194  1  0.89960474  0.69636446  0.49445428  1
  Ti  Ti195  1  0.40442653  0.38764233  0.21071351  1
  Ti  Ti196  1  0.29782751  0.10598864  0.30381441  1
  Ti  Ti197  1  0.49610628  0.50269774  0.51459885  1
  Ti  Ti198  1  0.31363498  0.90187540  0.68874306  1
  Ti  Ti199  1  0.49633276  0.30507103  0.50594565  1
  Mo  Mo200  1  0.59160673  -0.00766305  0.19035738  1
  Mo  Mo201  1  0.60430805  0.40365547  0.79481001  1
  Mo  Mo202  1  0.89666066  0.30524269  0.90928079  1
  Mo  Mo203  1  0.89570627  0.49603754  0.89307819  1
  Mo  Mo204  1  0.20413732  0.00497862  0.00306533  1
  Mo  Mo205  1  0.50704506  0.29532533  0.90575599  1
  Mo  Mo206  1  0.69666583  0.49744473  0.69783069  1
  Mo  Mo207  1  0.79177224  0.80364821  0.00382998  1
  Mo  Mo208  1  0.50221569  0.29643468  0.30223175  1
  Mo  Mo209  1  0.89754902  0.50412138  0.49896943  1
  Mo  Mo210  1  0.69391975  0.69555413  0.69970817  1
  Mo  Mo211  1  0.78947696  0.20137689  0.39725184  1
  Mo  Mo212  1  0.59828677  0.00212507  0.60114770  1
  Mo  Mo213  1  0.40413360  0.39896515  0.59468275  1
  Mo  Mo214  1  0.59859957  0.59251708  0.60171801  1
  Mo  Mo215  1  0.80137095  0.39563420  -0.00387097  1
  Mo  Mo216  1  0.49593056  0.90163862  0.51403357  1
  Mo  Mo217  1  0.30951496  0.90163457  0.90133716  1
  Mo  Mo218  1  0.20058108  0.39689343  0.19879555  1
  Mo  Mo219  1  0.30348013  0.09642880  0.89896766  1
  Mo  Mo220  1  0.49639073  0.89840661  0.09077767  1
  Mo  Mo221  1  0.41005058  0.59769598  0.79666181  1
  Mo  Mo222  1  0.20555876  0.00748240  0.20160205  1
  Mo  Mo223  1  0.49783970  0.10092454  0.10533380  1
  Mo  Mo224  1  0.40584156  0.80320960  0.60314124  1
  Mo  Mo225  1  0.20661939  0.19786358  0.39992601  1
  Mo  Mo226  1  0.50127705  0.68887081  0.89259856  1
  Mo  Mo227  1  0.80050972  0.59612153  0.40314838  1
  Mo  Mo228  1  0.78806243  0.21159293  0.59644865  1
  Mo  Mo229  1  0.89238438  0.10242286  0.49586467  1
  Mo  Mo230  1  0.10547603  0.69175949  0.50156225  1
  Mo  Mo231  1  0.50190986  0.69707251  0.50558205  1
  Mo  Mo232  1  0.69252476  0.90663906  0.51038233  1
  Mo  Mo233  1  0.09352354  0.29887888  0.09830096  1
  Mo  Mo234  1  0.89259564  0.90139328  0.90422655  1
  Mo  Mo235  1  0.69776484  0.69611108  0.89344692  1
  Mo  Mo236  1  0.40373593  -0.00005019  0.60357575  1
  Mo  Mo237  1  0.30056775  0.90841350  0.09011826  1
  Mo  Mo238  1  0.88823057  0.89618769  0.70030317  1
  Mo  Mo239  1  0.49877990  0.09522519  0.90166385  1
  Mo  Mo240  1  0.20484576  0.59387241  0.40864924  1
  Mo  Mo241  1  0.49823090  0.90711247  0.69548233  1
  Mo  Mo242  1  0.30811725  0.29448324  0.30164364  1
  Mo  Mo243  1  0.59656590  0.00674037  0.80188962  1
  Mo  Mo244  1  0.00187789  0.79396690  0.40400487  1
  Mo  Mo245  1  0.79133716  0.40595251  0.40111307  1
  Mo  Mo246  1  0.40459824  0.59391534  0.59649346  1
  Mo  Mo247  1  0.90069235  0.89859962  0.49956688  1
  Mo  Mo248  1  0.79889015  0.40221382  0.20605735  1
  Mo  Mo249  1  0.60232185  0.20245803  -0.00091020  1
