# generated using pymatgen
data_HfZrTaTiMo
_symmetry_space_group_name_H-M   'P 1'
_cell_length_a   16.87963713
_cell_length_b   16.87308149
_cell_length_c   16.87800808
_cell_angle_alpha   89.99876970
_cell_angle_beta   90.05290456
_cell_angle_gamma   90.03238444
_symmetry_Int_Tables_number   1
_chemical_formula_structural   HfZrTaTiMo
_chemical_formula_sum   'Hf50 Zr50 Ta50 Ti50 Mo50'
_cell_volume   4807.04785931
_cell_formula_units_Z   50
loop_
 _symmetry_equiv_pos_site_id
 _symmetry_equiv_pos_as_xyz
  1  'x, y, z'
loop_
 _atom_site_type_symbol
 _atom_site_label
 _atom_site_symmetry_multiplicity
 _atom_site_fract_x
 _atom_site_fract_y
 _atom_site_fract_z
 _atom_site_occupancy
  Hf  Hf0  1  0.10025699  0.29798032  0.89722731  1
  Hf  Hf1  1  0.70264513  0.89437360  0.50161551  1
  Hf  Hf2  1  0.59970844  0.39891551  0.59754757  1
  Hf  Hf3  1  0.50238759  0.49717160  0.49699450  1
  Hf  Hf4  1  0.10085203  0.69938420  0.50503860  1
  Hf  Hf5  1  -0.01236404  0.00795187  0.80380632  1
  Hf  Hf6  1  0.40455252  0.19956245  0.80029703  1
  Hf  Hf7  1  0.79630261  0.00019577  0.39824485  1
  Hf  Hf8  1  0.19772925  0.61038890  -0.01077792  1
  Hf  Hf9  1  0.70351279  0.90028623  0.09298864  1
  Hf  Hf10  1  0.59989668  0.59748282  0.39523407  1
  Hf  Hf11  1  0.20487336  0.80579590  0.60690344  1
  Hf  Hf12  1  0.29937323  0.49719798  0.09559573  1
  Hf  Hf13  1  0.70053640  0.29587188  0.70460928  1
  Hf  Hf14  1  0.00662863  0.39853734  0.20229641  1
  Hf  Hf15  1  0.70153155  0.50809995  0.70635442  1
  Hf  Hf16  1  0.78805121  0.39314154  0.19755139  1
  Hf  Hf17  1  0.40398087  0.61265697  -0.00795792  1
  Hf  Hf18  1  -0.00907345  0.00333686  0.60356813  1
  Hf  Hf19  1  0.90281728  0.50092077  0.89475489  1
  Hf  Hf20  1  0.40961466  0.59589042  0.21019959  1
  Hf  Hf21  1  0.40312373  0.20010372  0.59159744  1
  Hf  Hf22  1  0.88624779  0.89722890  0.90992349  1
  Hf  Hf23  1  -0.00242500  0.60046474  0.60243696  1
  Hf  Hf24  1  0.11070692  0.50594378  0.69222069  1
  Hf  Hf25  1  0.90237636  0.29927138  0.09551166  1
  Hf  Hf26  1  0.01632403  0.39686492  0.40110824  1
  Hf  Hf27  1  -0.00359392  0.79258035  0.62010991  1
  Hf  Hf28  1  0.91239146  0.29259576  0.89571215  1
  Hf  Hf29  1  0.60662231  0.61386722  -0.01621546  1
  Hf  Hf30  1  0.80721791  0.00445264  0.60457492  1
  Hf  Hf31  1  0.41605665  0.00306686  0.79633449  1
  Hf  Hf32  1  0.59677535  0.19839300  0.59578599  1
  Hf  Hf33  1  0.21475362  0.20389063  0.00955344  1
  Hf  Hf34  1  0.29768543  0.30123984  0.69281070  1
  Hf  Hf35  1  0.38700453  0.19761298  0.19013260  1
  Hf  Hf36  1  0.09850523  0.49792068  0.89682253  1
  Hf  Hf37  1  0.21031322  0.40311075  0.79711492  1
  Hf  Hf38  1  0.00150606  0.40124122  0.59289261  1
  Hf  Hf39  1  0.39680489  0.40015448  0.20404954  1
  Hf  Hf40  1  0.79340837  0.19810581  0.20063897  1
  Hf  Hf41  1  0.70263871  0.71016532  0.30440992  1
  Hf  Hf42  1  0.59512846  0.80377461  0.40729955  1
  Hf  Hf43  1  0.20797281  -0.00545905  0.59845631  1
  Hf  Hf44  1  0.19719828  0.79412476  0.80100959  1
  Hf  Hf45  1  0.40578502  0.80013905  0.20434213  1
  Hf  Hf46  1  0.30435743  0.90064932  0.89764770  1
  Hf  Hf47  1  0.09704030  0.90263779  0.89758286  1
  Hf  Hf48  1  0.21212489  -0.00161127  0.40669493  1
  Hf  Hf49  1  0.29690850  0.69960729  0.29998411  1
  Zr  Zr50  1  0.49421651  0.29999785  0.09414126  1
  Zr  Zr51  1  0.30354689  0.69631211  0.69586857  1
  Zr  Zr52  1  0.79703325  0.60427760  0.20678201  1
  Zr  Zr53  1  0.59319379  -0.00598740  0.60214950  1
  Zr  Zr54  1  0.10503935  0.29704626  0.69226221  1
  Zr  Zr55  1  0.89595445  0.49595444  0.30433344  1
  Zr  Zr56  1  0.79993635  0.39921498  0.80232732  1
  Zr  Zr57  1  0.10514402  0.10799255  0.70093115  1
  Zr  Zr58  1  0.59793433  0.60973897  0.60213636  1
  Zr  Zr59  1  0.00139666  0.79921742  0.20276572  1
  Zr  Zr60  1  0.50297133  0.89951008  0.09846979  1
  Zr  Zr61  1  0.80495943  0.19466533  0.80395908  1
  Zr  Zr62  1  0.89239801  0.70709146  0.10112966  1
  Zr  Zr63  1  0.90298161  0.89280699  0.48905369  1
  Zr  Zr64  1  0.00194718  0.79554845  -0.00329485  1
  Zr  Zr65  1  0.89220679  0.70281674  0.48970501  1
  Zr  Zr66  1  0.79652743  0.60300345  -0.01094431  1
  Zr  Zr67  1  0.39271322  0.40135521  0.40780889  1
  Zr  Zr68  1  0.69590467  0.50813213  0.10363539  1
  Zr  Zr69  1  0.69783147  0.09269091  0.70524811  1
  Zr  Zr70  1  0.10256655  0.09674670  0.30022590  1
  Zr  Zr71  1  0.89567356  0.08997657  0.09923921  1
  Zr  Zr72  1  0.49976403  0.50341872  0.09437504  1
  Zr  Zr73  1  0.39522418  0.00746962  0.20466631  1
  Zr  Zr74  1  0.00331614  0.59566448  0.39710177  1
  Zr  Zr75  1  0.89531392  0.30652676  0.49194415  1
  Zr  Zr76  1  0.79848337  0.19679818  0.40304239  1
  Zr  Zr77  1  0.60606843  0.40205135  -0.00144631  1
  Zr  Zr78  1  0.20491146  0.58914996  0.41158654  1
  Zr  Zr79  1  0.09938689  0.10671053  0.89333643  1
  Zr  Zr80  1  0.49805151  0.29162682  0.30447781  1
  Zr  Zr81  1  0.19946952  0.00470428  0.00579226  1
  Zr  Zr82  1  0.30620709  0.10172158  0.90127192  1
  Zr  Zr83  1  0.08820669  0.89688608  0.49462493  1
  Zr  Zr84  1  0.40025618  -0.00411080  0.40413565  1
  Zr  Zr85  1  0.50400601  0.30135076  0.70375765  1
  Zr  Zr86  1  0.09487477  0.10127412  0.49426191  1
  Zr  Zr87  1  0.90240518  0.50058588  0.09749700  1
  Zr  Zr88  1  0.79285650  0.19848108  -0.00057943  1
  Zr  Zr89  1  0.59520310  0.79416391  0.81390991  1
  Zr  Zr90  1  0.30729310  0.50262023  0.89762062  1
  Zr  Zr91  1  0.79853939  0.79632857  0.61422688  1
  Zr  Zr92  1  0.39682393  -0.00584258  0.59821009  1
  Zr  Zr93  1  0.29963129  0.70293350  0.10552041  1
  Zr  Zr94  1  0.59290603  -0.00314265  -0.01519471  1
  Zr  Zr95  1  0.00566017  0.20096040  0.20106642  1
  Zr  Zr96  1  0.29758012  0.90175283  0.10186746  1
  Zr  Zr97  1  0.28664120  0.29323691  0.30986460  1
  Zr  Zr98  1  0.39779475  0.59296667  0.59918343  1
  Zr  Zr99  1  0.20403908  0.80290672  0.39985814  1
  Ta  Ta100  1  0.49925791  0.10256728  0.09652957  1
  Ta  Ta101  1  0.50385986  0.89986422  0.30308724  1
  Ta  Ta102  1  0.59902885  -0.00068690  0.39864175  1
  Ta  Ta103  1  0.59840635  0.40622175  0.80626774  1
  Ta  Ta104  1  0.19995939  0.79549922  -0.00524803  1
  Ta  Ta105  1  0.50180690  0.09810581  0.49462434  1
  Ta  Ta106  1  0.40177980  0.80225663  0.40665438  1
  Ta  Ta107  1  0.09531552  0.90123170  0.70878698  1
  Ta  Ta108  1  0.51397756  0.70616512  0.09966028  1
  Ta  Ta109  1  0.10025056  0.90239241  0.10399216  1
  Ta  Ta110  1  0.69826434  0.09848674  0.50001946  1
  Ta  Ta111  1  0.69238729  0.09474077  0.10037872  1
  Ta  Ta112  1  0.89817958  0.89967324  0.30149772  1
  Ta  Ta113  1  0.29985910  0.10403280  0.69641617  1
  Ta  Ta114  1  -0.00342881  0.00147568  0.00219693  1
  Ta  Ta115  1  0.11073648  0.49656847  0.29718372  1
  Ta  Ta116  1  0.69250360  0.10056194  0.29965737  1
  Ta  Ta117  1  0.69407733  0.29637161  0.30169354  1
  Ta  Ta118  1  0.39644260  0.40096763  0.59923144  1
  Ta  Ta119  1  0.79366596  -0.00161980  0.20565856  1
  Ta  Ta120  1  0.00792777  0.60136058  0.19966018  1
  Ta  Ta121  1  0.89871851  0.29760534  0.30169255  1
  Ta  Ta122  1  0.10423653  0.69966992  0.10240697  1
  Ta  Ta123  1  0.69030836  0.29634491  0.89792785  1
  Ta  Ta124  1  0.40243054  0.79758930  0.79933361  1
  Ta  Ta125  1  0.40239713  0.40459388  0.79681904  1
  Ta  Ta126  1  0.50408238  0.89380189  0.70414588  1
  Ta  Ta127  1  0.19860564  0.39429370  0.19834045  1
  Ta  Ta128  1  0.49598276  0.30164915  0.90299979  1
  Ta  Ta129  1  0.10256568  0.30265820  0.09536297  1
  Ta  Ta130  1  0.59818819  0.19632682  -0.00253216  1
  Ta  Ta131  1  0.80407413  0.20091767  0.59772492  1
  Ta  Ta132  1  0.10439625  0.50107304  0.09729272  1
  Ta  Ta133  1  0.80126481  0.39924927  0.60208814  1
  Ta  Ta134  1  -0.00793250  0.20519654  0.59323571  1
  Ta  Ta135  1  0.19972486  0.60813794  0.79731629  1
  Ta  Ta136  1  0.79356420  0.39592461  -0.00506589  1
  Ta  Ta137  1  0.00237546  0.61127554  0.79866771  1
  Ta  Ta138  1  0.40203890  0.60061863  0.39982564  1
  Ta  Ta139  1  0.59962849  0.00107270  0.20494098  1
  Ta  Ta140  1  0.00329192  0.60572663  -0.00403187  1
  Ta  Ta141  1  0.89870786  0.50268588  0.70089531  1
  Ta  Ta142  1  0.70636135  0.49974477  0.50092212  1
  Ta  Ta143  1  0.59882043  0.40267820  0.20980542  1
  Ta  Ta144  1  0.90491164  0.09490243  0.30516856  1
  Ta  Ta145  1  0.59183922  0.18474556  0.80942419  1
  Ta  Ta146  1  0.00465371  0.40160375  -0.00020073  1
  Ta  Ta147  1  0.59803668  0.19942368  0.40461346  1
  Ta  Ta148  1  0.70157840  0.69635191  0.71381306  1
  Ta  Ta149  1  0.40939329  0.79801506  -0.01174722  1
  Ti  Ti150  1  0.89850194  0.70874691  0.30658297  1
  Ti  Ti151  1  0.29877221  0.89917855  0.29626602  1
  Ti  Ti152  1  0.00437450  0.20598154  0.40025618  1
  Ti  Ti153  1  0.09375172  0.90593718  0.30157792  1
  Ti  Ti154  1  0.59596787  0.79576503  0.60735866  1
  Ti  Ti155  1  0.79219946  0.59624688  0.39808073  1
  Ti  Ti156  1  0.39223168  0.19553461  0.41074790  1
  Ti  Ti157  1  0.78770111  0.40194410  0.39485674  1
  Ti  Ti158  1  0.00440544  0.19050413  0.00215275  1
  Ti  Ti159  1  0.49387779  0.70413457  0.50444110  1
  Ti  Ti160  1  0.20943519  -0.00428468  0.78877478  1
  Ti  Ti161  1  0.20911080  0.40952439  0.57972333  1
  Ti  Ti162  1  0.89349324  0.89244877  0.71720528  1
  Ti  Ti163  1  0.88999647  0.50024109  0.49968977  1
  Ti  Ti164  1  0.60112885  0.39874458  0.39626482  1
  Ti  Ti165  1  0.69783117  0.89829918  0.71364948  1
  Ti  Ti166  1  -0.00548365  0.78828549  0.80382000  1
  Ti  Ti167  1  0.50343303  0.70455446  0.30126617  1
  Ti  Ti168  1  0.28921462  0.10385450  0.30109668  1
  Ti  Ti169  1  0.70168740  0.09109282  0.90119953  1
  Ti  Ti170  1  0.89267468  0.90128978  0.09836567  1
  Ti  Ti171  1  0.70193284  0.89798596  0.89763258  1
  Ti  Ti172  1  0.70564417  0.70059722  0.50127354  1
  Ti  Ti173  1  0.60067722  0.20061256  0.19495843  1
  Ti  Ti174  1  0.79533678  0.80892354  0.20486474  1
  Ti  Ti175  1  0.40300941  0.00588894  0.00000931  1
  Ti  Ti176  1  0.77872132  0.78302367  -0.00875870  1
  Ti  Ti177  1  0.50335854  0.10253028  0.30103899  1
  Ti  Ti178  1  0.50087922  0.50217487  0.89594489  1
  Ti  Ti179  1  0.80319383  0.60164140  0.60472085  1
  Ti  Ti180  1  0.80176092  0.00233015  0.80602570  1
  Ti  Ti181  1  0.19699406  0.59549818  0.19982760  1
  Ti  Ti182  1  0.10467732  0.09289046  0.10793630  1
  Ti  Ti183  1  0.30315581  0.69951976  0.50375306  1
  Ti  Ti184  1  0.20000499  0.20215952  0.19327866  1
  Ti  Ti185  1  0.20627571  0.39259548  -0.00066886  1
  Ti  Ti186  1  0.90382167  0.11487127  0.70212358  1
  Ti  Ti187  1  0.29437815  0.49720990  0.30316475  1
  Ti  Ti188  1  0.40375311  0.80773353  0.60071236  1
  Ti  Ti189  1  0.60015382  0.59919416  0.20887212  1
  Ti  Ti190  1  0.60529394  0.80578639  0.20146050  1
  Ti  Ti191  1  0.19361335  0.80574572  0.20060786  1
  Ti  Ti192  1  0.20832466  0.20121689  0.57927584  1
  Ti  Ti193  1  0.10263950  0.69757609  0.29916311  1
  Ti  Ti194  1  0.50099403  0.50479241  0.70588994  1
  Ti  Ti195  1  0.40805879  0.60811797  0.79890321  1
  Ti  Ti196  1  -0.00039007  0.39813722  0.78877311  1
  Ti  Ti197  1  -0.00373423  -0.00538743  0.19854265  1
  Ti  Ti198  1  0.21279675  0.20610364  0.80522471  1
  Ti  Ti199  1  0.69845265  0.30281868  0.49780441  1
  Mo  Mo200  1  0.09695846  0.69963372  0.90005081  1
  Mo  Mo201  1  0.89457379  0.69342544  0.70833111  1
  Mo  Mo202  1  0.30232995  0.10454962  0.49861625  1
  Mo  Mo203  1  0.49922349  0.69934010  0.89611355  1
  Mo  Mo204  1  0.30368506  0.49982288  0.69809100  1
  Mo  Mo205  1  0.69713533  0.90387013  0.29640020  1
  Mo  Mo206  1  0.69124255  0.29372747  0.10113903  1
  Mo  Mo207  1  0.68958715  0.70978113  0.11002858  1
  Mo  Mo208  1  0.89944872  0.10635686  0.49957343  1
  Mo  Mo209  1  0.79573314  0.80151730  0.39257018  1
  Mo  Mo210  1  0.30514584  0.90105865  0.70357763  1
  Mo  Mo211  1  0.59251535  0.59719607  0.79854629  1
  Mo  Mo212  1  0.40439575  0.20174069  -0.00040907  1
  Mo  Mo213  1  0.50224097  0.50073080  0.30292602  1
  Mo  Mo214  1  0.89672902  0.70128630  0.89551973  1
  Mo  Mo215  1  0.19805976  0.20153326  0.40621550  1
  Mo  Mo216  1  0.30350545  0.70410018  0.89307552  1
  Mo  Mo217  1  0.20274276  0.59873838  0.60170157  1
  Mo  Mo218  1  0.30718582  0.89002351  0.50364749  1
  Mo  Mo219  1  0.30930097  0.30520681  0.90059907  1
  Mo  Mo220  1  0.50113249  0.29806567  0.49501857  1
  Mo  Mo221  1  -0.00743433  -0.00034704  0.39285902  1
  Mo  Mo222  1  0.90264118  0.30187552  0.69443412  1
  Mo  Mo223  1  0.70205336  0.69646042  0.88593401  1
  Mo  Mo224  1  0.29879372  0.30229656  0.50116690  1
  Mo  Mo225  1  0.10286268  0.29826009  0.29674913  1
  Mo  Mo226  1  0.50305430  0.89476830  0.50306569  1
  Mo  Mo227  1  0.69380458  0.49282430  0.30693926  1
  Mo  Mo228  1  0.90010310  0.09652583  0.90402254  1
  Mo  Mo229  1  0.10827139  0.29893333  0.49524328  1
  Mo  Mo230  1  0.79596093  0.79830992  0.80591850  1
  Mo  Mo231  1  0.80640535  0.60375613  0.79835422  1
  Mo  Mo232  1  0.10728333  0.49833183  0.50130824  1
  Mo  Mo233  1  0.00011053  0.79672254  0.38402068  1
  Mo  Mo234  1  0.60252229  0.79714841  -0.00076326  1
  Mo  Mo235  1  0.19652942  -0.00311715  0.20565379  1
  Mo  Mo236  1  0.29588597  0.30648314  0.09815257  1
  Mo  Mo237  1  0.39743770  0.39719669  -0.01113795  1
  Mo  Mo238  1  0.09937364  0.70067535  0.70304119  1
  Mo  Mo239  1  0.49596609  0.89870915  0.90006218  1
  Mo  Mo240  1  -0.00083908  0.20364156  0.78944701  1
  Mo  Mo241  1  0.70045092  0.49785624  0.89286813  1
  Mo  Mo242  1  0.19808600  0.39673357  0.40186699  1
  Mo  Mo243  1  0.60313000  -0.00674966  0.80088860  1
  Mo  Mo244  1  0.49999490  0.70625931  0.69919230  1
  Mo  Mo245  1  0.79476128  -0.00046915  0.00039067  1
  Mo  Mo246  1  0.30377945  0.50020908  0.50108811  1
  Mo  Mo247  1  0.49956692  0.10367827  0.90571386  1
  Mo  Mo248  1  0.50096511  0.09628799  0.69927494  1
  Mo  Mo249  1  0.30125702  0.10002531  0.10285826  1
