# generated using pymatgen
data_HfZrTaTiMo
_symmetry_space_group_name_H-M   'P 1'
_cell_length_a   16.89054916
_cell_length_b   16.89277100
_cell_length_c   16.88364697
_cell_angle_alpha   89.98827281
_cell_angle_beta   89.99784718
_cell_angle_gamma   89.99765968
_symmetry_Int_Tables_number   1
_chemical_formula_structural   HfZrTaTiMo
_chemical_formula_sum   'Hf50 Zr50 Ta50 Ti50 Mo50'
_cell_volume   4817.38014015
_cell_formula_units_Z   50
loop_
 _symmetry_equiv_pos_site_id
 _symmetry_equiv_pos_as_xyz
  1  'x, y, z'
loop_
 _atom_site_type_symbol
 _atom_site_label
 _atom_site_symmetry_multiplicity
 _atom_site_fract_x
 _atom_site_fract_y
 _atom_site_fract_z
 _atom_site_occupancy
  Hf  Hf0  1  0.39635671  0.59173981  0.59087976  1
  Hf  Hf1  1  0.38801511  0.00149912  0.40265130  1
  Hf  Hf2  1  -0.00904512  0.19760956  0.61116213  1
  Hf  Hf3  1  0.50015622  0.68596193  0.91289886  1
  Hf  Hf4  1  0.89676545  0.50535454  0.69754943  1
  Hf  Hf5  1  0.69692779  0.68913410  0.49660690  1
  Hf  Hf6  1  0.00978841  0.60094035  0.20289086  1
  Hf  Hf7  1  0.40241564  0.59009184  0.79509343  1
  Hf  Hf8  1  0.59537182  0.00507637  -0.01094390  1
  Hf  Hf9  1  0.69451867  0.09975672  0.10786812  1
  Hf  Hf10  1  0.90482435  0.90304824  0.70342732  1
  Hf  Hf11  1  0.29624004  0.90466360  0.69602633  1
  Hf  Hf12  1  0.10022145  0.71144614  0.31325655  1
  Hf  Hf13  1  0.79680760  0.00396656  -0.00699084  1
  Hf  Hf14  1  0.21084618  0.40428543  0.39956392  1
  Hf  Hf15  1  0.29362223  0.29559920  0.69655364  1
  Hf  Hf16  1  0.60032099  0.00000562  0.40414515  1
  Hf  Hf17  1  0.80023884  0.20112958  0.20010074  1
  Hf  Hf18  1  0.19517151  0.59534736  0.59188226  1
  Hf  Hf19  1  0.90469625  0.29926877  0.09501157  1
  Hf  Hf20  1  0.01118470  0.59683920  0.80250986  1
  Hf  Hf21  1  0.10497035  0.10644129  0.09751865  1
  Hf  Hf22  1  0.60738720  0.79507046  0.60448914  1
  Hf  Hf23  1  0.41425532  0.39514884  0.79003251  1
  Hf  Hf24  1  0.20054754  0.60703627  0.19543255  1
  Hf  Hf25  1  0.00406800  0.01352034  0.79651902  1
  Hf  Hf26  1  0.09676953  0.09543816  0.31085148  1
  Hf  Hf27  1  0.79635501  0.79273912  0.79992669  1
  Hf  Hf28  1  0.40468485  0.39675513  -0.00309933  1
  Hf  Hf29  1  0.39746692  0.79818516  0.59460387  1
  Hf  Hf30  1  0.39472355  0.21006744  0.20603679  1
  Hf  Hf31  1  0.59905693  0.19115600  -0.00759365  1
  Hf  Hf32  1  0.19845014  0.80267192  0.19282767  1
  Hf  Hf33  1  0.90315396  0.69580504  0.70272959  1
  Hf  Hf34  1  0.69756703  0.91358463  0.71003522  1
  Hf  Hf35  1  0.49781148  0.90866197  0.69982365  1
  Hf  Hf36  1  0.09031213  0.49008883  0.49566554  1
  Hf  Hf37  1  0.09644637  0.89819768  0.49826853  1
  Hf  Hf38  1  0.19791499  -0.00178961  0.81118259  1
  Hf  Hf39  1  0.29220730  0.69946860  0.69772192  1
  Hf  Hf40  1  0.41709576  0.39875485  0.59436469  1
  Hf  Hf41  1  0.80089768  0.79880232  0.60250108  1
  Hf  Hf42  1  0.20448121  0.21135389  0.20676537  1
  Hf  Hf43  1  0.89980689  0.51072183  0.09919422  1
  Hf  Hf44  1  0.00505057  0.20680499  0.20665567  1
  Hf  Hf45  1  0.49633598  0.89742712  0.90153877  1
  Hf  Hf46  1  0.60582031  0.20036573  0.59957786  1
  Hf  Hf47  1  0.80699987  0.39681749  0.79823451  1
  Hf  Hf48  1  0.00465873  -0.01122127  0.19948426  1
  Hf  Hf49  1  0.40628410  0.60494765  0.39544917  1
  Zr  Zr50  1  0.59557244  0.78927048  0.38771147  1
  Zr  Zr51  1  0.60156969  0.39628662  0.60029868  1
  Zr  Zr52  1  0.90165437  0.69469831  0.49606196  1
  Zr  Zr53  1  0.70077551  0.29572382  0.89193644  1
  Zr  Zr54  1  0.89845606  0.50156773  0.30388240  1
  Zr  Zr55  1  0.80056001  0.39916115  -0.00152136  1
  Zr  Zr56  1  0.09917772  0.29982932  0.50445185  1
  Zr  Zr57  1  0.49046454  0.09870976  0.50330946  1
  Zr  Zr58  1  0.70900799  0.89799778  0.49500521  1
  Zr  Zr59  1  0.67887423  0.29751582  0.29034491  1
  Zr  Zr60  1  0.49945246  0.69525584  0.69609072  1
  Zr  Zr61  1  0.00916062  -0.00419704  -0.00596774  1
  Zr  Zr62  1  0.69731174  0.10006162  0.30386989  1
  Zr  Zr63  1  0.49672025  0.89945625  0.50086084  1
  Zr  Zr64  1  0.49080244  0.89909371  0.10375853  1
  Zr  Zr65  1  0.31178622  0.50547924  0.29432585  1
  Zr  Zr66  1  0.60410827  0.40245328  -0.00251890  1
  Zr  Zr67  1  0.90134893  0.09440656  0.30900297  1
  Zr  Zr68  1  0.20749132  0.21005575  -0.00135670  1
  Zr  Zr69  1  0.70108886  0.89500620  0.29673077  1
  Zr  Zr70  1  0.90499386  0.10225296  0.09647964  1
  Zr  Zr71  1  0.91090520  0.69923648  0.91085950  1
  Zr  Zr72  1  0.59987778  0.40287596  0.78552945  1
  Zr  Zr73  1  0.40164659  0.20104470  -0.00438959  1
  Zr  Zr74  1  0.00006257  0.40131619  0.80200887  1
  Zr  Zr75  1  0.10179964  0.89691425  0.69623775  1
  Zr  Zr76  1  0.69378573  0.89863544  0.10408105  1
  Zr  Zr77  1  0.19867664  0.40752489  0.20046318  1
  Zr  Zr78  1  0.59359588  0.39727888  0.40277154  1
  Zr  Zr79  1  0.20106445  0.59767121  0.39907381  1
  Zr  Zr80  1  0.79496590  0.79543491  0.00185439  1
  Zr  Zr81  1  0.29969111  0.49722402  0.90143312  1
  Zr  Zr82  1  0.19692835  0.19574747  0.80039962  1
  Zr  Zr83  1  -0.00114952  0.20973310  0.80358383  1
  Zr  Zr84  1  0.38941946  0.79992756  0.80938084  1
  Zr  Zr85  1  0.60086106  0.79244917  0.80059726  1
  Zr  Zr86  1  0.49616648  0.09086402  0.69935783  1
  Zr  Zr87  1  0.79199894  0.40604529  0.20233085  1
  Zr  Zr88  1  0.20832240  0.19459857  0.40170667  1
  Zr  Zr89  1  0.51631462  0.29897614  0.11623438  1
  Zr  Zr90  1  0.80644186  0.78881678  0.20307913  1
  Zr  Zr91  1  0.80462989  0.01643965  0.60310795  1
  Zr  Zr92  1  0.20017014  -0.00585124  0.20262765  1
  Zr  Zr93  1  0.00156037  0.39919181  -0.01181900  1
  Zr  Zr94  1  0.49947439  0.10360778  0.29518859  1
  Zr  Zr95  1  0.29648488  0.30219896  0.51197596  1
  Zr  Zr96  1  0.90600123  0.89126905  0.09158399  1
  Zr  Zr97  1  0.28709251  0.48650672  0.69424288  1
  Zr  Zr98  1  0.50286196  0.51295499  0.09503095  1
  Zr  Zr99  1  0.89914730  0.30476679  0.31342471  1
  Ta  Ta100  1  0.29864363  0.09338192  0.69234873  1
  Ta  Ta101  1  0.79481868  0.59563259  0.39195617  1
  Ta  Ta102  1  0.29764589  0.70892112  0.48925967  1
  Ta  Ta103  1  0.19352562  0.60163339  0.80154158  1
  Ta  Ta104  1  0.30576774  0.89943974  0.09977739  1
  Ta  Ta105  1  0.50676748  0.50350422  0.29444543  1
  Ta  Ta106  1  0.60817783  0.59429826  0.79141866  1
  Ta  Ta107  1  0.60026215  0.79302715  0.00218785  1
  Ta  Ta108  1  0.89498218  0.49743701  0.49926702  1
  Ta  Ta109  1  0.48408743  0.89300734  0.29553089  1
  Ta  Ta110  1  0.40168072  0.19635232  0.79941588  1
  Ta  Ta111  1  0.20124517  0.60714293  0.00068815  1
  Ta  Ta112  1  0.69868139  0.69107917  0.89999649  1
  Ta  Ta113  1  0.89947960  0.10392266  0.49876231  1
  Ta  Ta114  1  0.20360766  -0.00897543  0.00001708  1
  Ta  Ta115  1  0.60167847  0.18708845  0.79651877  1
  Ta  Ta116  1  0.09836580  0.30427943  0.09546075  1
  Ta  Ta117  1  0.00805057  0.40564065  0.20239771  1
  Ta  Ta118  1  0.69786680  0.90180637  0.89606500  1
  Ta  Ta119  1  0.10607754  0.30664430  0.69350389  1
  Ta  Ta120  1  0.39340583  0.00398685  0.80996807  1
  Ta  Ta121  1  -0.00807497  0.39893128  0.60522163  1
  Ta  Ta122  1  0.30594366  0.50697821  0.09452823  1
  Ta  Ta123  1  0.40405463  0.61871012  0.19195150  1
  Ta  Ta124  1  0.80684096  -0.00595988  0.20382064  1
  Ta  Ta125  1  0.00152350  0.20024854  0.41130520  1
  Ta  Ta126  1  0.70287804  0.50234236  0.49771796  1
  Ta  Ta127  1  0.09366443  0.70506598  0.08553331  1
  Ta  Ta128  1  0.69763429  0.51297980  0.10650736  1
  Ta  Ta129  1  0.79875605  0.39856462  0.60047425  1
  Ta  Ta130  1  0.39704621  0.21145390  0.39849883  1
  Ta  Ta131  1  0.20153660  0.00246834  0.41049412  1
  Ta  Ta132  1  0.90174158  0.89820569  0.89404602  1
  Ta  Ta133  1  0.61396984  0.01062784  0.59768674  1
  Ta  Ta134  1  0.40510950  0.40164149  0.20462114  1
  Ta  Ta135  1  0.80642758  0.19230025  0.79013129  1
  Ta  Ta136  1  0.79852822  0.19786840  -0.01005702  1
  Ta  Ta137  1  0.20454631  0.80096475  -0.00223458  1
  Ta  Ta138  1  0.49054232  0.09302249  0.10463815  1
  Ta  Ta139  1  0.00519544  0.80024060  0.19958122  1
  Ta  Ta140  1  0.09617001  0.31101109  0.31100523  1
  Ta  Ta141  1  0.30651914  0.71506072  0.29991695  1
  Ta  Ta142  1  0.10055062  0.70193807  0.69738234  1
  Ta  Ta143  1  0.09678227  0.89735704  0.31505539  1
  Ta  Ta144  1  0.70475456  0.50979348  0.89889044  1
  Ta  Ta145  1  0.00608718  0.01328006  0.59882101  1
  Ta  Ta146  1  0.00539993  0.59760489  0.59925139  1
  Ta  Ta147  1  0.50283757  0.69658784  0.49389717  1
  Ta  Ta148  1  0.30578457  0.09211763  0.10308745  1
  Ta  Ta149  1  0.19723615  0.79543060  0.81092008  1
  Ti  Ti150  1  0.79991796  0.01266240  0.80436588  1
  Ti  Ti151  1  0.29819501  0.30634876  0.89061857  1
  Ti  Ti152  1  0.90359969  0.69686791  0.30178480  1
  Ti  Ti153  1  0.90825374  0.90387929  0.49269894  1
  Ti  Ti154  1  0.09653988  0.88800202  0.90610264  1
  Ti  Ti155  1  0.09928877  0.11147718  0.91120924  1
  Ti  Ti156  1  0.18498363  0.40299272  0.80233300  1
  Ti  Ti157  1  0.18790626  0.17895628  0.59863550  1
  Ti  Ti158  1  0.90752576  0.89619402  0.31136997  1
  Ti  Ti159  1  0.70686979  0.29797329  0.50020370  1
  Ti  Ti160  1  0.80482827  0.79234292  0.39631818  1
  Ti  Ti161  1  0.89445817  0.30257942  0.50251185  1
  Ti  Ti162  1  0.60414010  0.59213381  0.60781910  1
  Ti  Ti163  1  0.71064119  0.29114462  0.69709778  1
  Ti  Ti164  1  0.00742675  0.79654333  0.80501419  1
  Ti  Ti165  1  0.58513197  0.78623637  0.19763372  1
  Ti  Ti166  1  0.50822705  0.50601485  0.90231388  1
  Ti  Ti167  1  0.79021646  0.40378258  0.40105942  1
  Ti  Ti168  1  0.79175556  0.59758425  0.60562034  1
  Ti  Ti169  1  0.00049835  0.59671521  0.39967862  1
  Ti  Ti170  1  0.59053207  0.20609387  0.40873013  1
  Ti  Ti171  1  0.30018595  0.09929429  0.90387669  1
  Ti  Ti172  1  0.10558657  0.50715475  0.90898309  1
  Ti  Ti173  1  0.30157399  0.09587934  0.29565384  1
  Ti  Ti174  1  0.19711087  0.79645808  0.59549889  1
  Ti  Ti175  1  0.19930116  0.40074955  -0.00153807  1
  Ti  Ti176  1  0.90974804  0.69472384  0.09832318  1
  Ti  Ti177  1  0.29321973  0.89927302  0.50205791  1
  Ti  Ti178  1  0.79516324  0.60431896  0.00467842  1
  Ti  Ti179  1  0.51051050  0.51063088  0.49342305  1
  Ti  Ti180  1  0.30008506  0.31161558  0.10194732  1
  Ti  Ti181  1  0.70065784  0.68682271  0.29413129  1
  Ti  Ti182  1  0.10182207  0.50409448  0.09135635  1
  Ti  Ti183  1  0.09727192  0.70818706  0.49558334  1
  Ti  Ti184  1  0.30011780  0.89442591  0.30347668  1
  Ti  Ti185  1  0.39349919  0.00014730  -0.00494141  1
  Ti  Ti186  1  0.69087389  0.69235567  0.10103839  1
  Ti  Ti187  1  0.80184534  0.00153575  0.40324254  1
  Ti  Ti188  1  0.89381822  0.51466640  0.90279770  1
  Ti  Ti189  1  0.69531203  0.29864505  0.10254328  1
  Ti  Ti190  1  0.40035640  0.19958474  0.60021684  1
  Ti  Ti191  1  0.79505208  0.19811930  0.40966440  1
  Ti  Ti192  1  0.59369463  -0.00420069  0.20356613  1
  Ti  Ti193  1  0.50444404  0.29287620  0.89091673  1
  Ti  Ti194  1  0.59592640  0.60671136  0.20480762  1
  Ti  Ti195  1  0.39332242  0.78766440  0.01031254  1
  Ti  Ti196  1  0.40551802  0.39633851  0.40051566  1
  Ti  Ti197  1  -0.00212328  0.79704597  0.59695086  1
  Ti  Ti198  1  0.29984326  0.69311437  0.90521810  1
  Ti  Ti199  1  0.90281265  0.10628421  0.90253394  1
  Mo  Mo200  1  0.18996851  0.40476773  0.60098939  1
  Mo  Mo201  1  0.39710677  0.80221656  0.39974938  1
  Mo  Mo202  1  0.39396078  0.80109844  0.20003322  1
  Mo  Mo203  1  0.49178127  0.09796015  0.89807695  1
  Mo  Mo204  1  0.49547337  0.30620134  0.30564098  1
  Mo  Mo205  1  0.09670290  0.09646804  0.50157676  1
  Mo  Mo206  1  0.09304834  0.49804254  0.30394834  1
  Mo  Mo207  1  0.30379042  0.30752275  0.30130457  1
  Mo  Mo208  1  0.89949090  0.10100708  0.70043612  1
  Mo  Mo209  1  0.70650434  0.49982023  0.69498100  1
  Mo  Mo210  1  0.89608629  0.30296891  0.69627250  1
  Mo  Mo211  1  0.80117887  0.20802404  0.59701050  1
  Mo  Mo212  1  0.89724882  0.28707760  0.90013678  1
  Mo  Mo213  1  -0.00730400  0.80145208  0.39868816  1
  Mo  Mo214  1  0.70547127  0.10872718  0.49524322  1
  Mo  Mo215  1  0.39199986  -0.00066595  0.20465672  1
  Mo  Mo216  1  0.79783681  0.60809470  0.19919702  1
  Mo  Mo217  1  0.09667756  0.50037382  0.69436892  1
  Mo  Mo218  1  0.49553411  0.29095446  0.49940064  1
  Mo  Mo219  1  0.10746412  0.70059830  0.89834927  1
  Mo  Mo220  1  0.70231294  0.10375417  0.70257796  1
  Mo  Mo221  1  0.00582171  0.79909796  -0.00213610  1
  Mo  Mo222  1  0.10737662  0.89249788  0.09606233  1
  Mo  Mo223  1  -0.00805183  0.39645645  0.40535866  1
  Mo  Mo224  1  0.10836872  0.30857798  0.90179481  1
  Mo  Mo225  1  0.70271465  0.09742305  0.89158352  1
  Mo  Mo226  1  0.30811287  0.50064356  0.49613626  1
  Mo  Mo227  1  0.10377325  0.09934907  0.69917686  1
  Mo  Mo228  1  0.00120694  0.20567546  -0.00505314  1
  Mo  Mo229  1  0.29735442  0.09810784  0.50859921  1
  Mo  Mo230  1  0.38596768  -0.00133898  0.59934355  1
  Mo  Mo231  1  0.59892111  0.41751312  0.20148187  1
  Mo  Mo232  1  0.50050797  0.70330332  0.10047352  1
  Mo  Mo233  1  -0.00331139  -0.00061842  0.40873074  1
  Mo  Mo234  1  0.61005057  0.60210698  -0.00140590  1
  Mo  Mo235  1  0.19785093  0.00396781  0.59506575  1
  Mo  Mo236  1  0.79892926  0.59868814  0.80263393  1
  Mo  Mo237  1  0.29832906  0.70176884  0.09648381  1
  Mo  Mo238  1  0.50818624  0.50423096  0.69471687  1
  Mo  Mo239  1  0.60176912  0.59587545  0.39479285  1
  Mo  Mo240  1  0.59484109  0.18797999  0.19472738  1
  Mo  Mo241  1  0.00832493  0.59655454  0.00086864  1
  Mo  Mo242  1  0.59947161  0.00370281  0.80221046  1
  Mo  Mo243  1  0.20505508  0.80792966  0.40294555  1
  Mo  Mo244  1  0.70591506  0.68791004  0.70107635  1
  Mo  Mo245  1  0.29992065  0.89783383  0.90843830  1
  Mo  Mo246  1  0.39317432  0.59989965  0.00111729  1
  Mo  Mo247  1  0.69350731  0.50836492  0.30038311  1
  Mo  Mo248  1  0.49727472  0.28373968  0.70048371  1
  Mo  Mo249  1  0.49781234  0.69989488  0.29450021  1
