# generated using pymatgen
data_HfZrTaTiMo
_symmetry_space_group_name_H-M   'P 1'
_cell_length_a   16.88472255
_cell_length_b   16.87607217
_cell_length_c   16.88698817
_cell_angle_alpha   89.98488136
_cell_angle_beta   89.96248721
_cell_angle_gamma   89.97573924
_symmetry_Int_Tables_number   1
_chemical_formula_structural   HfZrTaTiMo
_chemical_formula_sum   'Hf50 Zr50 Ta50 Ti50 Mo50'
_cell_volume   4811.90843563
_cell_formula_units_Z   50
loop_
 _symmetry_equiv_pos_site_id
 _symmetry_equiv_pos_as_xyz
  1  'x, y, z'
loop_
 _atom_site_type_symbol
 _atom_site_label
 _atom_site_symmetry_multiplicity
 _atom_site_fract_x
 _atom_site_fract_y
 _atom_site_fract_z
 _atom_site_occupancy
  Hf  Hf0  1  0.11027768  0.89233938  0.90683866  1
  Hf  Hf1  1  0.00526163  0.79881780  0.59905840  1
  Hf  Hf2  1  0.00048819  0.40548812  0.39070681  1
  Hf  Hf3  1  0.19625800  0.19610948  0.19960450  1
  Hf  Hf4  1  0.30289048  0.09844657  0.69173977  1
  Hf  Hf5  1  0.89416126  0.89709044  0.50429441  1
  Hf  Hf6  1  0.79925951  -0.00310952  0.60546041  1
  Hf  Hf7  1  0.89345448  0.30364405  0.29660599  1
  Hf  Hf8  1  0.61053994  0.59549342  0.20062014  1
  Hf  Hf9  1  0.39300233  0.80321247  0.59798040  1
  Hf  Hf10  1  0.89725139  0.10091677  0.90957228  1
  Hf  Hf11  1  0.00887314  0.59794538  0.39952869  1
  Hf  Hf12  1  0.89523122  0.29827460  0.49249015  1
  Hf  Hf13  1  0.40260079  0.40024018  -0.00097272  1
  Hf  Hf14  1  0.81289377  0.59338631  0.18941715  1
  Hf  Hf15  1  0.00511189  -0.00361118  0.59881600  1
  Hf  Hf16  1  0.10024851  0.70998282  0.10327263  1
  Hf  Hf17  1  0.80241056  0.80234628  0.19289395  1
  Hf  Hf18  1  0.69088943  0.89543305  0.50109445  1
  Hf  Hf19  1  0.10165080  0.70367008  0.71400616  1
  Hf  Hf20  1  0.80540885  0.39208787  0.79788796  1
  Hf  Hf21  1  0.81177071  0.80271003  0.38707298  1
  Hf  Hf22  1  0.70452714  0.70204604  0.48975464  1
  Hf  Hf23  1  0.49985633  0.29416195  0.68520192  1
  Hf  Hf24  1  0.40793420  0.39131214  0.20369745  1
  Hf  Hf25  1  0.88917895  0.50525343  0.49154764  1
  Hf  Hf26  1  0.49464201  0.90062065  0.90319458  1
  Hf  Hf27  1  0.29491070  0.69436432  0.48756011  1
  Hf  Hf28  1  -0.01014566  0.60296620  0.01822101  1
  Hf  Hf29  1  0.48726066  0.50564907  0.69070810  1
  Hf  Hf30  1  0.70166883  0.49596532  0.48541100  1
  Hf  Hf31  1  0.49835554  0.09445291  0.91817424  1
  Hf  Hf32  1  0.11859337  0.70117104  0.30543941  1
  Hf  Hf33  1  0.39660146  0.60518969  -0.00290836  1
  Hf  Hf34  1  -0.00192937  0.39211080  0.00100923  1
  Hf  Hf35  1  0.19548737  0.39321965  0.00606763  1
  Hf  Hf36  1  0.49878648  0.70532295  0.10466597  1
  Hf  Hf37  1  0.30529338  0.29008933  0.29873970  1
  Hf  Hf38  1  0.89866120  0.09837436  0.10296967  1
  Hf  Hf39  1  0.11536258  0.50717946  0.49899046  1
  Hf  Hf40  1  0.89374069  0.69320808  0.50182345  1
  Hf  Hf41  1  0.89969673  0.70063477  0.70659225  1
  Hf  Hf42  1  0.60461396  0.00372049  0.19619443  1
  Hf  Hf43  1  0.00830055  0.79905332  0.40380239  1
  Hf  Hf44  1  0.39997508  0.19880089  0.79494348  1
  Hf  Hf45  1  0.70703187  0.49378335  0.08472927  1
  Hf  Hf46  1  0.79444056  0.40325865  0.60457823  1
  Hf  Hf47  1  0.49910916  0.90116675  0.69688627  1
  Hf  Hf48  1  0.49702521  0.69848912  0.49786009  1
  Hf  Hf49  1  0.09825493  0.11392646  0.69821133  1
  Zr  Zr50  1  0.29666148  0.29179275  0.90605520  1
  Zr  Zr51  1  0.59319218  0.39980133  0.79737258  1
  Zr  Zr52  1  0.60556004  0.60048102  0.60250688  1
  Zr  Zr53  1  0.69104571  0.89278918  0.30463403  1
  Zr  Zr54  1  -0.00284684  -0.00572768  0.80408293  1
  Zr  Zr55  1  0.21317436  0.60593427  0.19796950  1
  Zr  Zr56  1  0.58789824  0.20284451  0.39532907  1
  Zr  Zr57  1  0.19698411  0.79673512  0.59718440  1
  Zr  Zr58  1  -0.00252849  -0.00430088  0.39526684  1
  Zr  Zr59  1  0.10220611  0.29208043  0.50563432  1
  Zr  Zr60  1  0.49562547  0.90503863  0.09587622  1
  Zr  Zr61  1  0.39499694  0.39413631  0.79697658  1
  Zr  Zr62  1  0.79568262  0.00920540  0.39429001  1
  Zr  Zr63  1  0.11802875  0.90434670  0.29992669  1
  Zr  Zr64  1  0.89295893  0.70515237  0.90606343  1
  Zr  Zr65  1  0.29471581  0.50375818  0.89812459  1
  Zr  Zr66  1  0.69477632  0.30763323  0.91538360  1
  Zr  Zr67  1  0.00517908  0.59617373  0.81311168  1
  Zr  Zr68  1  0.00716059  -0.00087847  0.00430832  1
  Zr  Zr69  1  0.79534749  0.20445083  0.00858748  1
  Zr  Zr70  1  0.88762037  0.49636448  0.91111878  1
  Zr  Zr71  1  0.20517181  -0.00569224  0.60309753  1
  Zr  Zr72  1  0.68223602  0.09783209  0.50486852  1
  Zr  Zr73  1  0.29570094  0.09400852  0.90998986  1
  Zr  Zr74  1  0.90696925  0.10623023  0.69827942  1
  Zr  Zr75  1  0.79603362  0.20412926  0.80509606  1
  Zr  Zr76  1  0.79409941  0.20199876  0.59540661  1
  Zr  Zr77  1  0.10383490  0.49843491  0.10821831  1
  Zr  Zr78  1  0.78063475  0.19985393  0.20343427  1
  Zr  Zr79  1  0.69897712  0.50478954  0.89782029  1
  Zr  Zr80  1  0.59716685  0.20220967  0.20063551  1
  Zr  Zr81  1  -0.00100397  0.80917425  0.20113674  1
  Zr  Zr82  1  0.49005152  0.69496118  0.71265202  1
  Zr  Zr83  1  0.90927262  0.68715284  0.29395449  1
  Zr  Zr84  1  0.39622113  -0.00106441  0.79807232  1
  Zr  Zr85  1  0.90168507  0.10397287  0.29442122  1
  Zr  Zr86  1  0.91803867  0.29677666  0.69457263  1
  Zr  Zr87  1  0.40013030  0.00473485  0.39806467  1
  Zr  Zr88  1  0.59238935  0.60860701  -0.00968350  1
  Zr  Zr89  1  0.01238236  0.20231622  0.38636851  1
  Zr  Zr90  1  0.59765040  0.19604636  0.80435202  1
  Zr  Zr91  1  0.10788323  0.10301298  0.89817149  1
  Zr  Zr92  1  0.20605850  0.39493154  0.40015302  1
  Zr  Zr93  1  0.60043989  0.59897265  0.39209123  1
  Zr  Zr94  1  0.11758665  0.09982269  0.49255739  1
  Zr  Zr95  1  0.00536943  0.40885558  0.59793081  1
  Zr  Zr96  1  0.79675127  -0.00652073  0.80977840  1
  Zr  Zr97  1  0.40433733  0.81139067  0.38809418  1
  Zr  Zr98  1  0.68666053  0.09589379  0.69665823  1
  Zr  Zr99  1  0.50328517  0.49857086  0.10423272  1
  Ta  Ta100  1  0.70532860  0.70099740  0.09228752  1
  Ta  Ta101  1  0.10294773  0.89386278  0.71310129  1
  Ta  Ta102  1  0.90457864  0.50661068  0.70146812  1
  Ta  Ta103  1  0.19653598  0.39751907  0.79187726  1
  Ta  Ta104  1  0.79209569  0.79576763  0.61118236  1
  Ta  Ta105  1  0.20954680  0.39816866  0.60665237  1
  Ta  Ta106  1  0.79459383  -0.00476560  0.19742739  1
  Ta  Ta107  1  0.79555686  0.60001092  0.61098657  1
  Ta  Ta108  1  0.30062731  0.70751294  0.89267611  1
  Ta  Ta109  1  0.49440467  0.49701750  0.49914428  1
  Ta  Ta110  1  0.40398059  0.59956639  0.20797684  1
  Ta  Ta111  1  0.29572098  0.90667285  0.48885485  1
  Ta  Ta112  1  0.60413559  0.80312264  0.00016862  1
  Ta  Ta113  1  0.60046900  0.79541422  0.60413662  1
  Ta  Ta114  1  0.50387354  0.70633383  0.29574920  1
  Ta  Ta115  1  0.59870100  -0.00261375  0.80476078  1
  Ta  Ta116  1  0.00719423  0.20680695  0.00946071  1
  Ta  Ta117  1  0.10810489  0.50347507  0.29304969  1
  Ta  Ta118  1  0.00998662  0.20494766  0.19048112  1
  Ta  Ta119  1  0.30228071  0.49626695  0.10625951  1
  Ta  Ta120  1  0.78278792  0.20225649  0.39375793  1
  Ta  Ta121  1  0.30095214  0.50633716  0.69643873  1
  Ta  Ta122  1  0.19988980  0.60003669  0.80321786  1
  Ta  Ta123  1  0.30393307  0.49757551  0.30168841  1
  Ta  Ta124  1  0.90160341  0.90180398  0.09412802  1
  Ta  Ta125  1  0.60231202  0.80130397  0.19717149  1
  Ta  Ta126  1  0.39663690  0.79944550  0.00000745  1
  Ta  Ta127  1  0.58599712  -0.00120461  0.39109955  1
  Ta  Ta128  1  0.79614067  0.40539562  0.20185438  1
  Ta  Ta129  1  0.40408616  0.59381951  0.39167771  1
  Ta  Ta130  1  0.49998418  0.28696003  0.91227714  1
  Ta  Ta131  1  0.29916094  0.29662982  0.10585324  1
  Ta  Ta132  1  0.10416707  0.50201630  0.70276452  1
  Ta  Ta133  1  0.50876872  0.48880412  0.30175401  1
  Ta  Ta134  1  0.69016917  0.30617826  0.49380746  1
  Ta  Ta135  1  0.39768396  0.19782716  0.58702732  1
  Ta  Ta136  1  0.50047418  0.09314809  0.68313837  1
  Ta  Ta137  1  0.30318972  0.09592533  0.10111154  1
  Ta  Ta138  1  0.30205440  0.69534030  0.70703518  1
  Ta  Ta139  1  0.69105722  0.89582712  0.70338149  1
  Ta  Ta140  1  0.48890206  0.10282669  0.28933307  1
  Ta  Ta141  1  0.69979469  0.70250783  0.89806743  1
  Ta  Ta142  1  0.39301758  -0.00780988  0.20282669  1
  Ta  Ta143  1  0.18868170  0.19753764  0.01682065  1
  Ta  Ta144  1  0.30734067  0.50342131  0.50151163  1
  Ta  Ta145  1  0.79847955  0.80790053  -0.00004257  1
  Ta  Ta146  1  0.29718627  0.89798637  0.90702172  1
  Ta  Ta147  1  0.59671454  0.79814101  0.80669415  1
  Ta  Ta148  1  0.20076996  0.60252596  0.60414058  1
  Ta  Ta149  1  0.40720261  0.39346795  0.40196536  1
  Ti  Ti150  1  0.89553675  0.30462286  0.10442934  1
  Ti  Ti151  1  0.68935797  0.09819243  0.91728873  1
  Ti  Ti152  1  0.10845010  0.90075293  0.09777475  1
  Ti  Ti153  1  0.00423156  0.00056407  0.19860218  1
  Ti  Ti154  1  0.79396475  0.80697115  0.80461013  1
  Ti  Ti155  1  0.79570420  0.59910033  0.79746814  1
  Ti  Ti156  1  0.22304457  0.81060217  0.19826850  1
  Ti  Ti157  1  0.20645707  0.21057602  0.79129564  1
  Ti  Ti158  1  -0.00842746  0.40928647  0.19855897  1
  Ti  Ti159  1  0.50109892  0.29308793  0.10003024  1
  Ti  Ti160  1  -0.00561289  0.80670217  0.81585112  1
  Ti  Ti161  1  0.68665819  0.31149564  0.09935399  1
  Ti  Ti162  1  0.50395564  0.90119150  0.50309786  1
  Ti  Ti163  1  0.21169027  0.20591464  0.59873000  1
  Ti  Ti164  1  0.29849049  0.09975293  0.30122600  1
  Ti  Ti165  1  0.78833765  -0.00670831  0.00888712  1
  Ti  Ti166  1  0.21025177  0.79953475  0.00766677  1
  Ti  Ti167  1  0.10357787  0.29772717  0.89776129  1
  Ti  Ti168  1  0.49578640  0.51727315  0.88023684  1
  Ti  Ti169  1  0.39158046  0.39153778  0.59235548  1
  Ti  Ti170  1  0.89919228  0.89279295  0.70489080  1
  Ti  Ti171  1  0.59606268  0.39987606  0.59096526  1
  Ti  Ti172  1  0.10493866  0.49891820  0.90292004  1
  Ti  Ti173  1  0.29703225  0.88803699  0.71333593  1
  Ti  Ti174  1  0.39654803  0.19933333  0.01255356  1
  Ti  Ti175  1  0.10055702  0.29934996  0.69768088  1
  Ti  Ti176  1  0.10989731  0.09378203  0.29844928  1
  Ti  Ti177  1  0.70236381  0.69935855  0.29860038  1
  Ti  Ti178  1  0.68818800  0.29660942  0.69054270  1
  Ti  Ti179  1  0.20295571  0.60482837  0.00126228  1
  Ti  Ti180  1  0.90468036  0.10936416  0.49940625  1
  Ti  Ti181  1  0.49563745  0.09685148  0.09784178  1
  Ti  Ti182  1  0.00398083  0.39934914  0.80497489  1
  Ti  Ti183  1  0.30653081  0.70479672  0.30119556  1
  Ti  Ti184  1  0.40233619  0.19855606  0.40351501  1
  Ti  Ti185  1  0.20066499  -0.00321992  0.79885140  1
  Ti  Ti186  1  0.20722073  -0.00002494  0.19307795  1
  Ti  Ti187  1  0.00634821  0.60418071  0.60000632  1
  Ti  Ti188  1  0.10446200  0.70706017  0.90947073  1
  Ti  Ti189  1  0.11359991  0.90034530  0.49077755  1
  Ti  Ti190  1  0.68694810  0.32283256  0.30591985  1
  Ti  Ti191  1  0.49683493  0.09296780  0.50805197  1
  Ti  Ti192  1  0.10730060  0.31348928  0.28480045  1
  Ti  Ti193  1  0.69648081  0.70126368  0.71095134  1
  Ti  Ti194  1  0.30803024  0.70468240  0.10265088  1
  Ti  Ti195  1  0.69361534  0.90080924  0.90394230  1
  Ti  Ti196  1  -0.00204138  0.21033012  0.81573924  1
  Ti  Ti197  1  0.58448860  0.40336849  -0.00471643  1
  Ti  Ti198  1  0.69488109  0.50243230  0.70491617  1
  Ti  Ti199  1  0.30013916  0.29291649  0.49454486  1
  Mo  Mo200  1  0.39564210  0.80068292  0.80507937  1
  Mo  Mo201  1  0.60218277  0.60675746  0.79824056  1
  Mo  Mo202  1  0.90253977  0.90922496  0.28718490  1
  Mo  Mo203  1  0.49451068  0.30431433  0.49893399  1
  Mo  Mo204  1  0.10180629  0.09537373  0.10660780  1
  Mo  Mo205  1  0.79907069  0.61307195  0.00244754  1
  Mo  Mo206  1  0.89045945  0.90031282  0.90667639  1
  Mo  Mo207  1  0.29884595  0.90114063  0.09814326  1
  Mo  Mo208  1  0.69069039  0.09319392  0.30133197  1
  Mo  Mo209  1  0.39947719  0.19177575  0.19485438  1
  Mo  Mo210  1  0.59302156  0.39993599  0.39916881  1
  Mo  Mo211  1  0.30140074  0.90274513  0.29419698  1
  Mo  Mo212  1  0.90920535  0.29764798  0.90457300  1
  Mo  Mo213  1  0.10543240  0.69705568  0.50153304  1
  Mo  Mo214  1  0.90160999  0.71013938  0.09669177  1
  Mo  Mo215  1  0.49994488  0.90169890  0.28967360  1
  Mo  Mo216  1  0.29940530  0.29869588  0.69107696  1
  Mo  Mo217  1  0.21064284  0.39864035  0.20214069  1
  Mo  Mo218  1  0.20950029  0.19468193  0.39156442  1
  Mo  Mo219  1  0.59367741  -0.01152670  0.59881260  1
  Mo  Mo220  1  0.59508127  0.19737001  0.01209891  1
  Mo  Mo221  1  0.09835780  0.30317660  0.10897878  1
  Mo  Mo222  1  0.70133960  0.89704754  0.09563976  1
  Mo  Mo223  1  0.00741295  0.19696428  0.59073251  1
  Mo  Mo224  1  0.39938176  0.79678176  0.19772656  1
  Mo  Mo225  1  0.69759821  0.09164600  0.09581055  1
  Mo  Mo226  1  0.79739781  0.59578477  0.38370728  1
  Mo  Mo227  1  0.59015978  0.20424828  0.59125652  1
  Mo  Mo228  1  0.39250438  -0.00426710  0.00836120  1
  Mo  Mo229  1  0.21063003  0.59670270  0.39664573  1
  Mo  Mo230  1  0.49574716  0.29701453  0.30231461  1
  Mo  Mo231  1  0.20246998  0.79729173  0.80575557  1
  Mo  Mo232  1  0.30444709  0.10420351  0.49742966  1
  Mo  Mo233  1  0.60642209  -0.00077482  0.00145565  1
  Mo  Mo234  1  0.20988921  0.00227085  0.39277399  1
  Mo  Mo235  1  0.70464366  0.49498636  0.29670765  1
  Mo  Mo236  1  0.20241767  -0.00280620  0.01061312  1
  Mo  Mo237  1  0.79514467  0.39771072  0.39319861  1
  Mo  Mo238  1  0.49711734  0.70947111  0.90104837  1
  Mo  Mo239  1  -0.00176015  0.80367042  0.00490816  1
  Mo  Mo240  1  0.59404019  0.80019617  0.39579354  1
  Mo  Mo241  1  0.60199457  0.39638303  0.19877500  1
  Mo  Mo242  1  0.90315501  0.49583833  0.29718537  1
  Mo  Mo243  1  0.00593421  0.59420143  0.20229717  1
  Mo  Mo244  1  0.20747491  0.80307457  0.39828350  1
  Mo  Mo245  1  0.89928344  0.49097163  0.10349670  1
  Mo  Mo246  1  0.39904364  -0.00285818  0.59335152  1
  Mo  Mo247  1  0.80662638  0.39158135  0.01137386  1
  Mo  Mo248  1  0.39332504  0.60223922  0.80119934  1
  Mo  Mo249  1  0.39322170  0.59865541  0.59402195  1
