# generated using pymatgen
data_HfZrTaTiMo
_symmetry_space_group_name_H-M   'P 1'
_cell_length_a   16.88588918
_cell_length_b   16.87928297
_cell_length_c   16.88640015
_cell_angle_alpha   90.04192852
_cell_angle_beta   90.02100525
_cell_angle_gamma   89.99608648
_symmetry_Int_Tables_number   1
_chemical_formula_structural   HfZrTaTiMo
_chemical_formula_sum   'Hf50 Zr50 Ta50 Ti50 Mo50'
_cell_volume   4812.98888528
_cell_formula_units_Z   50
loop_
 _symmetry_equiv_pos_site_id
 _symmetry_equiv_pos_as_xyz
  1  'x, y, z'
loop_
 _atom_site_type_symbol
 _atom_site_label
 _atom_site_symmetry_multiplicity
 _atom_site_fract_x
 _atom_site_fract_y
 _atom_site_fract_z
 _atom_site_occupancy
  Hf  Hf0  1  0.00953765  0.39886279  0.80108808  1
  Hf  Hf1  1  0.59345763  0.01287170  0.01010681  1
  Hf  Hf2  1  0.70390499  0.70434183  0.49997532  1
  Hf  Hf3  1  0.29964746  0.70132211  0.30076563  1
  Hf  Hf4  1  0.50197713  0.69793955  0.10771733  1
  Hf  Hf5  1  0.39554416  0.79824593  0.79975661  1
  Hf  Hf6  1  0.20477775  0.40117203  0.60369248  1
  Hf  Hf7  1  0.69633271  0.30126849  0.30375313  1
  Hf  Hf8  1  0.40081514  0.60435244  -0.00437783  1
  Hf  Hf9  1  -0.00206568  0.39568438  0.39860416  1
  Hf  Hf10  1  0.69822298  0.70435665  0.10066178  1
  Hf  Hf11  1  0.12393766  0.29398146  0.90861187  1
  Hf  Hf12  1  0.30004665  0.70096167  0.10798340  1
  Hf  Hf13  1  0.49641150  0.90755715  0.89807017  1
  Hf  Hf14  1  0.30601041  0.89497905  0.50525068  1
  Hf  Hf15  1  0.89722412  0.49913501  0.70021933  1
  Hf  Hf16  1  0.51027464  0.90553549  0.29835538  1
  Hf  Hf17  1  0.29699222  0.90612948  0.90177528  1
  Hf  Hf18  1  0.69773376  0.50116737  0.89815703  1
  Hf  Hf19  1  0.90863246  0.71000363  0.30535205  1
  Hf  Hf20  1  0.49764439  0.29914254  0.10173950  1
  Hf  Hf21  1  0.90085056  0.09420322  0.29461596  1
  Hf  Hf22  1  0.00376406  -0.01812429  0.58727817  1
  Hf  Hf23  1  0.30429673  0.50473466  0.10265399  1
  Hf  Hf24  1  0.20665738  0.39789406  0.79555433  1
  Hf  Hf25  1  0.80583500  -0.00957144  0.39828743  1
  Hf  Hf26  1  0.89830707  0.29595477  0.90461605  1
  Hf  Hf27  1  0.09937269  0.50382457  0.30635474  1
  Hf  Hf28  1  0.80250357  0.60049877  0.20250050  1
  Hf  Hf29  1  0.69882731  0.71140323  0.29645753  1
  Hf  Hf30  1  0.90882363  0.10257904  0.50132313  1
  Hf  Hf31  1  0.30223133  0.29615056  0.30063816  1
  Hf  Hf32  1  0.89866659  0.71008990  0.10270406  1
  Hf  Hf33  1  0.80362644  0.60167627  0.59444320  1
  Hf  Hf34  1  0.49048098  0.50290170  0.29252361  1
  Hf  Hf35  1  0.49399621  0.69202527  0.69081481  1
  Hf  Hf36  1  0.39578133  0.21000066  0.80159957  1
  Hf  Hf37  1  0.48866069  0.30794036  0.50406456  1
  Hf  Hf38  1  0.00546545  0.39884970  0.60455886  1
  Hf  Hf39  1  0.69736184  0.89849302  0.49739468  1
  Hf  Hf40  1  0.29167740  0.10327232  0.90487630  1
  Hf  Hf41  1  0.39979528  0.19146180  0.40404525  1
  Hf  Hf42  1  0.58681768  0.40683377  0.40055309  1
  Hf  Hf43  1  0.19670732  0.40234060  0.19771579  1
  Hf  Hf44  1  0.40560818  0.39322763  -0.01442950  1
  Hf  Hf45  1  0.79957410  0.79201385  0.79433314  1
  Hf  Hf46  1  0.30202618  0.49867146  0.30477407  1
  Hf  Hf47  1  0.10010891  0.70664828  0.10833174  1
  Hf  Hf48  1  0.49435329  0.09915759  0.69782071  1
  Hf  Hf49  1  0.89405049  0.30103719  0.50725435  1
  Zr  Zr50  1  0.89524008  0.29189446  0.09010525  1
  Zr  Zr51  1  -0.00113893  0.79388371  0.80834901  1
  Zr  Zr52  1  -0.00151898  0.38873570  0.21075075  1
  Zr  Zr53  1  0.69934248  0.49794694  0.50215610  1
  Zr  Zr54  1  0.50090961  0.09592220  0.29174074  1
  Zr  Zr55  1  0.49842125  0.90675746  0.50431223  1
  Zr  Zr56  1  0.09635619  0.30007799  0.08929994  1
  Zr  Zr57  1  0.60168638  0.79814797  0.60372291  1
  Zr  Zr58  1  0.00497437  0.19040736  0.81175226  1
  Zr  Zr59  1  0.69551170  0.09754048  0.49621206  1
  Zr  Zr60  1  0.90207714  0.50077339  0.10030704  1
  Zr  Zr61  1  0.29677550  0.10101942  0.09704409  1
  Zr  Zr62  1  0.29798619  0.49930807  0.89872987  1
  Zr  Zr63  1  0.59308645  0.19805204  0.40586805  1
  Zr  Zr64  1  0.79369642  0.20156045  0.61536313  1
  Zr  Zr65  1  0.10536995  0.28612641  0.50391564  1
  Zr  Zr66  1  0.59363749  0.60319714  0.40076280  1
  Zr  Zr67  1  0.69653721  0.90222961  0.90496410  1
  Zr  Zr68  1  0.50358125  0.90386568  0.10733567  1
  Zr  Zr69  1  -0.00149960  0.20491653  0.38771019  1
  Zr  Zr70  1  0.69822999  0.31325294  0.51478314  1
  Zr  Zr71  1  0.10040528  0.10015257  0.69224773  1
  Zr  Zr72  1  0.20463899  0.59951944  0.59806952  1
  Zr  Zr73  1  0.69852394  0.89878502  0.11232322  1
  Zr  Zr74  1  0.00758911  0.42111694  -0.01496456  1
  Zr  Zr75  1  0.60096141  0.80260068  0.79429947  1
  Zr  Zr76  1  0.09363361  0.08107158  0.30179440  1
  Zr  Zr77  1  0.71002509  0.10665579  0.10543526  1
  Zr  Zr78  1  0.69623753  0.48799926  0.68946312  1
  Zr  Zr79  1  0.19687427  0.60865369  0.40715822  1
  Zr  Zr80  1  0.18890699  0.19426188  0.19903684  1
  Zr  Zr81  1  0.80194240  -0.00520422  0.60350272  1
  Zr  Zr82  1  0.10261472  0.89215525  0.70185604  1
  Zr  Zr83  1  0.10293059  0.88961705  0.30310415  1
  Zr  Zr84  1  0.50737884  0.69466187  0.89996226  1
  Zr  Zr85  1  0.79705940  0.39678092  0.20041545  1
  Zr  Zr86  1  0.20447470  0.80229415  0.00315340  1
  Zr  Zr87  1  0.70091952  0.69100442  0.90046043  1
  Zr  Zr88  1  0.69747930  0.10719165  0.90049008  1
  Zr  Zr89  1  0.00493331  0.00761834  -0.00804385  1
  Zr  Zr90  1  0.90244195  0.90445006  0.89616954  1
  Zr  Zr91  1  0.28875035  0.29770013  0.08021827  1
  Zr  Zr92  1  0.58990313  0.39492240  0.80053416  1
  Zr  Zr93  1  0.80170641  0.00410985  0.79673420  1
  Zr  Zr94  1  0.10459180  0.70007384  0.69766657  1
  Zr  Zr95  1  0.90676190  0.69740580  0.68866169  1
  Zr  Zr96  1  0.00211538  0.59764275  0.81599941  1
  Zr  Zr97  1  0.29656595  0.89516286  0.30410877  1
  Zr  Zr98  1  0.29148325  0.30171298  0.49046833  1
  Zr  Zr99  1  0.59949821  0.20166587  0.19492007  1
  Ta  Ta100  1  0.60188407  0.59722973  0.20162036  1
  Ta  Ta101  1  0.00237037  0.80023681  -0.00284894  1
  Ta  Ta102  1  0.89974238  0.50417857  0.30772050  1
  Ta  Ta103  1  0.10307852  0.09800942  0.49938722  1
  Ta  Ta104  1  0.38890296  0.19815660  0.60444248  1
  Ta  Ta105  1  0.31003649  0.70647388  0.50457660  1
  Ta  Ta106  1  0.59216773  0.20251608  0.60435982  1
  Ta  Ta107  1  0.70189838  0.29661412  0.90465194  1
  Ta  Ta108  1  0.10688069  0.28832734  0.69610564  1
  Ta  Ta109  1  0.20103321  -0.00793300  0.19095355  1
  Ta  Ta110  1  0.30000176  0.89912962  0.69756808  1
  Ta  Ta111  1  0.20141240  -0.00468655  0.41017774  1
  Ta  Ta112  1  0.39109284  0.00727563  0.79442944  1
  Ta  Ta113  1  0.70080431  0.50144733  0.29942637  1
  Ta  Ta114  1  0.00016441  0.61047208  -0.00329040  1
  Ta  Ta115  1  0.90236978  0.50119931  0.50048937  1
  Ta  Ta116  1  0.00203602  0.60348176  0.20649029  1
  Ta  Ta117  1  0.80093649  0.20024643  0.79984979  1
  Ta  Ta118  1  -0.00028792  0.19798718  0.19859970  1
  Ta  Ta119  1  0.20560178  0.00046659  0.59941394  1
  Ta  Ta120  1  0.40774154  0.19881604  -0.00673666  1
  Ta  Ta121  1  0.30861319  0.50385608  0.69933654  1
  Ta  Ta122  1  0.49487117  0.69700636  0.50604036  1
  Ta  Ta123  1  0.90234273  0.10020542  0.10213751  1
  Ta  Ta124  1  0.59536485  0.80029551  0.39779414  1
  Ta  Ta125  1  0.19103176  0.60005086  -0.00097124  1
  Ta  Ta126  1  0.69773664  0.08757328  0.29927395  1
  Ta  Ta127  1  0.39993620  0.59618285  0.79664080  1
  Ta  Ta128  1  0.39390403  0.00166995  0.19725474  1
  Ta  Ta129  1  0.10117248  0.90249733  0.09897074  1
  Ta  Ta130  1  0.59557218  0.80046638  0.00287788  1
  Ta  Ta131  1  -0.00211588  0.60814403  0.40678727  1
  Ta  Ta132  1  0.80506871  0.60075359  -0.00147824  1
  Ta  Ta133  1  0.20051108  0.00362691  0.79540663  1
  Ta  Ta134  1  0.79603848  0.38543608  0.79261068  1
  Ta  Ta135  1  0.49487121  0.30339057  0.69375832  1
  Ta  Ta136  1  0.48741821  0.90704566  0.69430367  1
  Ta  Ta137  1  0.40833298  0.79719888  0.40025059  1
  Ta  Ta138  1  0.39887231  0.39601778  0.19559168  1
  Ta  Ta139  1  0.39775881  0.80619626  0.20028627  1
  Ta  Ta140  1  0.09656440  0.50054597  0.49988670  1
  Ta  Ta141  1  0.39960264  0.80417506  0.00389458  1
  Ta  Ta142  1  0.40027760  0.00515273  0.40466944  1
  Ta  Ta143  1  0.80732164  0.00605951  0.00222301  1
  Ta  Ta144  1  0.50218609  0.50196637  0.09966374  1
  Ta  Ta145  1  0.29680610  0.09621175  0.30066853  1
  Ta  Ta146  1  0.91187644  0.09500182  0.70250729  1
  Ta  Ta147  1  0.19408044  0.60224605  0.20165977  1
  Ta  Ta148  1  0.10757693  0.90460223  0.89591809  1
  Ta  Ta149  1  0.69298500  0.50254401  0.09471955  1
  Ti  Ti150  1  0.59699174  -0.00019511  0.79409764  1
  Ti  Ti151  1  0.00113725  0.81041311  0.42048702  1
  Ti  Ti152  1  0.10196214  0.70968261  0.30357215  1
  Ti  Ti153  1  0.90453184  0.89283353  0.69433192  1
  Ti  Ti154  1  0.70119574  0.29964122  0.08985306  1
  Ti  Ti155  1  0.59095556  0.20234386  -0.00327143  1
  Ti  Ti156  1  0.80671813  0.80650962  0.40158676  1
  Ti  Ti157  1  0.00652079  0.18552402  -0.00166218  1
  Ti  Ti158  1  0.40087372  0.00307934  0.00545609  1
  Ti  Ti159  1  0.69857174  0.90060469  0.69545061  1
  Ti  Ti160  1  0.79954380  0.20055755  0.39480080  1
  Ti  Ti161  1  0.49881533  0.10062552  0.89446177  1
  Ti  Ti162  1  0.80329337  0.40177405  0.39696741  1
  Ti  Ti163  1  0.39387443  0.40202887  0.60232196  1
  Ti  Ti164  1  0.90536441  0.90561784  0.10049856  1
  Ti  Ti165  1  0.09889877  0.50663636  0.10004161  1
  Ti  Ti166  1  0.70058277  0.68812678  0.69615884  1
  Ti  Ti167  1  0.88475530  0.50396270  0.89158250  1
  Ti  Ti168  1  0.59897881  0.40237632  0.19816761  1
  Ti  Ti169  1  0.00107863  0.80794953  0.19698770  1
  Ti  Ti170  1  0.12156568  0.29880063  0.31686698  1
  Ti  Ti171  1  0.11193625  0.70522095  0.89812968  1
  Ti  Ti172  1  0.50625198  0.50577806  0.90157850  1
  Ti  Ti173  1  0.49670150  0.50190151  0.68347701  1
  Ti  Ti174  1  0.69255720  0.10214035  0.70296825  1
  Ti  Ti175  1  0.79646990  0.40267668  -0.00383034  1
  Ti  Ti176  1  0.39988388  0.39611516  0.79854885  1
  Ti  Ti177  1  0.29583195  0.09924045  0.50409571  1
  Ti  Ti178  1  0.19879670  0.80086876  0.59517826  1
  Ti  Ti179  1  0.20537365  0.60273138  0.79947044  1
  Ti  Ti180  1  0.59738397  0.39728159  -0.00269518  1
  Ti  Ti181  1  0.91923668  0.90723248  0.30462118  1
  Ti  Ti182  1  0.59723434  0.59419210  0.78890581  1
  Ti  Ti183  1  0.49574221  0.70098027  0.29407248  1
  Ti  Ti184  1  0.40382082  0.60199999  0.40563067  1
  Ti  Ti185  1  0.59664808  0.00693438  0.59979360  1
  Ti  Ti186  1  0.30216973  0.70228035  0.69537547  1
  Ti  Ti187  1  0.80494063  0.20469278  0.20684329  1
  Ti  Ti188  1  0.80479058  0.80303937  -0.00348494  1
  Ti  Ti189  1  0.90913221  0.29182310  0.69998296  1
  Ti  Ti190  1  0.59888578  0.20755023  0.79651162  1
  Ti  Ti191  1  0.10147917  0.50889273  0.69931844  1
  Ti  Ti192  1  0.21109476  0.19957043  0.79095677  1
  Ti  Ti193  1  0.80554924  0.60317498  0.39944462  1
  Ti  Ti194  1  0.09284478  0.70540686  0.50665718  1
  Ti  Ti195  1  0.29590091  0.70151401  0.89644634  1
  Ti  Ti196  1  0.30899552  0.49865866  0.49541101  1
  Ti  Ti197  1  0.48924611  0.30136221  0.29620921  1
  Ti  Ti198  1  0.80608275  0.81646863  0.21344603  1
  Ti  Ti199  1  0.80325019  -0.00725343  0.20313699  1
  Mo  Mo200  1  0.89449341  0.88743378  0.50331202  1
  Mo  Mo201  1  0.48901392  0.10493644  0.09927439  1
  Mo  Mo202  1  0.60740169  0.00301184  0.20211169  1
  Mo  Mo203  1  0.80237561  0.19724669  -0.00389771  1
  Mo  Mo204  1  0.30197528  0.29641233  0.89635456  1
  Mo  Mo205  1  0.60129266  -0.00165074  0.39988370  1
  Mo  Mo206  1  0.30294825  0.30351418  0.69523757  1
  Mo  Mo207  1  0.80139910  0.79985302  0.60289241  1
  Mo  Mo208  1  0.50663728  0.29468001  0.89822743  1
  Mo  Mo209  1  0.69860379  0.90001688  0.30286869  1
  Mo  Mo210  1  0.20319220  0.17836644  0.40024180  1
  Mo  Mo211  1  0.19917493  0.41022851  0.40448681  1
  Mo  Mo212  1  0.88703457  0.29690495  0.30335527  1
  Mo  Mo213  1  0.39351406  0.00550075  0.60088397  1
  Mo  Mo214  1  0.90122732  0.70197121  0.49489452  1
  Mo  Mo215  1  0.00407794  -0.00307932  0.79419529  1
  Mo  Mo216  1  0.30283140  0.90198453  0.10056116  1
  Mo  Mo217  1  0.39746330  0.40310658  0.39543840  1
  Mo  Mo218  1  0.19957873  0.42050375  -0.00132432  1
  Mo  Mo219  1  0.40277887  0.60001842  0.20053860  1
  Mo  Mo220  1  0.39606900  0.59563018  0.59810903  1
  Mo  Mo221  1  0.57975683  0.39979875  0.60051119  1
  Mo  Mo222  1  0.00230681  0.59612129  0.58936715  1
  Mo  Mo223  1  0.89439478  0.69839071  0.91004012  1
  Mo  Mo224  1  0.20015200  0.79609041  0.41226075  1
  Mo  Mo225  1  0.29797602  0.09980027  0.69782664  1
  Mo  Mo226  1  0.10966190  0.50863203  0.89684605  1
  Mo  Mo227  1  0.81562154  0.39802536  0.60819155  1
  Mo  Mo228  1  0.60162358  0.59544440  0.00741329  1
  Mo  Mo229  1  0.00191032  -0.00919462  0.40739437  1
  Mo  Mo230  1  0.69034528  0.29508132  0.70670886  1
  Mo  Mo231  1  -0.00211182  -0.00414475  0.18865388  1
  Mo  Mo232  1  0.00077388  0.19792297  0.60477802  1
  Mo  Mo233  1  0.18875683  0.18080617  -0.00166707  1
  Mo  Mo234  1  0.79583724  0.59532249  0.80022833  1
  Mo  Mo235  1  0.20912532  0.79922405  0.80033224  1
  Mo  Mo236  1  0.39685721  0.79784305  0.60268400  1
  Mo  Mo237  1  -0.00245393  0.79581317  0.59144023  1
  Mo  Mo238  1  0.59650964  0.79491699  0.20665652  1
  Mo  Mo239  1  0.19885890  0.80080971  0.20102481  1
  Mo  Mo240  1  0.59620576  0.59711565  0.59775869  1
  Mo  Mo241  1  0.11152695  0.89463211  0.50017870  1
  Mo  Mo242  1  0.19461434  -0.00363260  -0.00025305  1
  Mo  Mo243  1  0.89615924  0.10269632  0.90027819  1
  Mo  Mo244  1  0.20539418  0.19376884  0.60073989  1
  Mo  Mo245  1  0.49276968  0.09950073  0.50942275  1
  Mo  Mo246  1  0.48686890  0.50390584  0.50510300  1
  Mo  Mo247  1  0.10913532  0.09554095  0.89376484  1
  Mo  Mo248  1  0.09547075  0.09415628  0.10137308  1
  Mo  Mo249  1  0.39808429  0.19929126  0.19692425  1
