# generated using pymatgen
data_HfZrTaTiMo
_symmetry_space_group_name_H-M   'P 1'
_cell_length_a   16.88860425
_cell_length_b   16.88798926
_cell_length_c   16.89050289
_cell_angle_alpha   90.02464379
_cell_angle_beta   90.03096834
_cell_angle_gamma   90.00688166
_symmetry_Int_Tables_number   1
_chemical_formula_structural   HfZrTaTiMo
_chemical_formula_sum   'Hf50 Zr50 Ta50 Ti50 Mo50'
_cell_volume   4817.41628835
_cell_formula_units_Z   50
loop_
 _symmetry_equiv_pos_site_id
 _symmetry_equiv_pos_as_xyz
  1  'x, y, z'
loop_
 _atom_site_type_symbol
 _atom_site_label
 _atom_site_symmetry_multiplicity
 _atom_site_fract_x
 _atom_site_fract_y
 _atom_site_fract_z
 _atom_site_occupancy
  Hf  Hf0  1  0.60227846  0.59654550  0.40659157  1
  Hf  Hf1  1  0.71023737  0.29599030  0.29148013  1
  Hf  Hf2  1  0.40103477  0.80196567  0.00026622  1
  Hf  Hf3  1  0.39401135  0.40558321  0.80091213  1
  Hf  Hf4  1  0.80957197  0.60545088  0.79624385  1
  Hf  Hf5  1  0.09196771  0.69851331  0.90722357  1
  Hf  Hf6  1  0.09606948  0.69628268  0.49239085  1
  Hf  Hf7  1  0.59979439  0.39700433  0.19166708  1
  Hf  Hf8  1  0.60375806  0.19242459  -0.00072716  1
  Hf  Hf9  1  0.10046108  0.29326396  0.31372224  1
  Hf  Hf10  1  0.49701193  0.69772141  0.29193307  1
  Hf  Hf11  1  0.50506072  0.29753574  0.70042008  1
  Hf  Hf12  1  0.10159189  0.90042143  0.49928335  1
  Hf  Hf13  1  0.90194955  0.90100688  0.09288306  1
  Hf  Hf14  1  0.29325837  0.50865570  0.69289754  1
  Hf  Hf15  1  0.00749307  0.60086749  0.18305540  1
  Hf  Hf16  1  0.60242243  0.20483869  0.40212863  1
  Hf  Hf17  1  0.50347196  0.51047422  0.90038983  1
  Hf  Hf18  1  0.70375837  0.90309418  0.70550128  1
  Hf  Hf19  1  0.59662949  0.80244976  0.80597185  1
  Hf  Hf20  1  0.30680923  0.49611157  0.29969034  1
  Hf  Hf21  1  0.29626278  0.09473706  0.50044148  1
  Hf  Hf22  1  0.39823152  0.60243006  0.58362116  1
  Hf  Hf23  1  0.40770773  0.79586624  0.58572775  1
  Hf  Hf24  1  0.91178540  0.69549166  0.30308566  1
  Hf  Hf25  1  0.60179063  0.39551452  0.40281101  1
  Hf  Hf26  1  -0.00217446  0.39314853  0.19805638  1
  Hf  Hf27  1  0.20215160  0.79329566  0.00634428  1
  Hf  Hf28  1  0.59192567  0.80024129  0.01012240  1
  Hf  Hf29  1  0.89998431  0.29283349  0.49858828  1
  Hf  Hf30  1  0.50007575  0.90490749  0.69659962  1
  Hf  Hf31  1  0.59048582  0.79529265  0.41175247  1
  Hf  Hf32  1  0.79683052  0.79281524  0.18933167  1
  Hf  Hf33  1  0.79592881  0.00460852  0.20499711  1
  Hf  Hf34  1  0.29927306  0.91331332  0.91252949  1
  Hf  Hf35  1  0.09876241  0.29342030  0.09266233  1
  Hf  Hf36  1  0.20465691  0.60304462  0.39455956  1
  Hf  Hf37  1  0.71407743  0.49392425  0.29223989  1
  Hf  Hf38  1  0.29800597  0.29694238  0.90751991  1
  Hf  Hf39  1  0.00620916  0.00223998  0.39910918  1
  Hf  Hf40  1  0.29592475  0.90299204  0.49899226  1
  Hf  Hf41  1  0.60333772  0.39886788  0.00324512  1
  Hf  Hf42  1  0.19706467  0.19378744  0.20388972  1
  Hf  Hf43  1  0.49963535  0.29812179  0.89724047  1
  Hf  Hf44  1  0.08976034  0.50390545  0.90022279  1
  Hf  Hf45  1  0.71446607  0.49947652  0.09164708  1
  Hf  Hf46  1  0.09896829  0.89876348  0.70020399  1
  Hf  Hf47  1  0.19516472  0.40387270  0.19266721  1
  Hf  Hf48  1  0.30173357  0.30643446  0.30282593  1
  Hf  Hf49  1  0.30280291  0.90363262  0.69383320  1
  Zr  Zr50  1  0.71508509  0.50141542  0.90616673  1
  Zr  Zr51  1  0.89834228  0.29504626  0.70529239  1
  Zr  Zr52  1  0.79383028  0.79987118  0.40350056  1
  Zr  Zr53  1  0.29020416  0.30145913  0.49292669  1
  Zr  Zr54  1  0.10127641  0.69780985  0.70426331  1
  Zr  Zr55  1  0.40594738  0.20253346  0.40468963  1
  Zr  Zr56  1  0.60674447  0.00025463  0.39540801  1
  Zr  Zr57  1  0.89628477  0.90639693  0.70269243  1
  Zr  Zr58  1  0.19880051  0.40116951  0.80509866  1
  Zr  Zr59  1  0.39653454  0.19114982  0.79744628  1
  Zr  Zr60  1  0.70654814  0.90412336  0.50939296  1
  Zr  Zr61  1  -0.00857549  0.00725190  0.80980435  1
  Zr  Zr62  1  0.61030561  0.40242772  0.79064469  1
  Zr  Zr63  1  0.80160997  0.20492475  0.00699119  1
  Zr  Zr64  1  0.10006938  0.10846777  0.90891705  1
  Zr  Zr65  1  0.49440920  0.09766951  0.29464682  1
  Zr  Zr66  1  0.39760948  0.79694277  0.19534081  1
  Zr  Zr67  1  0.60122235  0.00375602  0.19477816  1
  Zr  Zr68  1  0.39862032  0.19365383  0.60996773  1
  Zr  Zr69  1  0.09331287  0.89794977  0.90811177  1
  Zr  Zr70  1  0.29986461  0.09256773  0.09924475  1
  Zr  Zr71  1  0.89675693  0.10785026  0.30680870  1
  Zr  Zr72  1  0.89840563  0.50185417  0.49385403  1
  Zr  Zr73  1  0.40794444  0.00900046  0.80090966  1
  Zr  Zr74  1  0.90181233  0.89281058  0.30452411  1
  Zr  Zr75  1  0.48897594  0.49550456  0.29354412  1
  Zr  Zr76  1  0.20164943  0.00656120  0.79843839  1
  Zr  Zr77  1  0.69362468  0.70089532  0.29357380  1
  Zr  Zr78  1  0.71304896  0.10017572  0.50209407  1
  Zr  Zr79  1  0.09565731  0.50172999  0.30812791  1
  Zr  Zr80  1  0.90271990  0.09852827  0.50591351  1
  Zr  Zr81  1  0.49378504  0.69653347  0.70490554  1
  Zr  Zr82  1  0.60331179  0.59715271  0.18373451  1
  Zr  Zr83  1  0.90241234  0.49533302  0.08900867  1
  Zr  Zr84  1  0.89892489  0.70045211  0.49496289  1
  Zr  Zr85  1  0.70939846  0.29551020  0.88929721  1
  Zr  Zr86  1  0.19939185  0.79464869  0.20037894  1
  Zr  Zr87  1  0.00759909  0.00295930  0.20561365  1
  Zr  Zr88  1  0.49159850  0.29813879  0.10012058  1
  Zr  Zr89  1  0.61544307  0.60671468  0.78901404  1
  Zr  Zr90  1  0.08853601  0.30433170  0.70632494  1
  Zr  Zr91  1  0.70427422  0.90937669  0.90656120  1
  Zr  Zr92  1  0.29809492  0.69899926  0.70105458  1
  Zr  Zr93  1  0.60472536  0.39804991  0.59210828  1
  Zr  Zr94  1  0.08627060  0.10181017  0.69484136  1
  Zr  Zr95  1  -0.00660907  0.80516552  0.59674191  1
  Zr  Zr96  1  0.49504082  0.50555286  0.69612397  1
  Zr  Zr97  1  -0.00683092  0.59644378  0.60707976  1
  Zr  Zr98  1  0.69785475  0.69513600  0.91399414  1
  Zr  Zr99  1  0.50018053  0.09207125  0.51058981  1
  Ta  Ta100  1  0.10043241  0.90331395  0.09548655  1
  Ta  Ta101  1  0.69323437  0.89559826  0.29414013  1
  Ta  Ta102  1  0.19808128  0.60183502  0.19563715  1
  Ta  Ta103  1  0.60852768  0.20119045  0.60660779  1
  Ta  Ta104  1  0.39836610  0.39458245  0.59319319  1
  Ta  Ta105  1  0.30221974  0.90423406  0.29660931  1
  Ta  Ta106  1  0.90074332  0.10103225  0.09973546  1
  Ta  Ta107  1  0.39939742  -0.00910001  0.39786978  1
  Ta  Ta108  1  0.20224962  0.60410674  0.81081028  1
  Ta  Ta109  1  -0.00868452  0.20394557  0.20145073  1
  Ta  Ta110  1  0.80014483  0.79491117  0.80440953  1
  Ta  Ta111  1  0.09500820  0.70222814  0.30243817  1
  Ta  Ta112  1  0.49457454  0.30352671  0.29584068  1
  Ta  Ta113  1  0.30373234  0.50226057  0.10214620  1
  Ta  Ta114  1  0.29996232  0.09572497  0.30138342  1
  Ta  Ta115  1  0.09545583  0.09904569  0.09916895  1
  Ta  Ta116  1  0.10288164  0.49806749  0.50118851  1
  Ta  Ta117  1  0.29934064  0.09949719  0.91191800  1
  Ta  Ta118  1  0.89119297  0.90193398  0.90634387  1
  Ta  Ta119  1  0.19758540  0.20166784  0.60404716  1
  Ta  Ta120  1  0.90447497  0.30237214  0.89474893  1
  Ta  Ta121  1  0.69883059  0.90203547  0.09677290  1
  Ta  Ta122  1  0.19625254  0.40013172  0.59981526  1
  Ta  Ta123  1  0.00139628  0.39546957  -0.00202508  1
  Ta  Ta124  1  0.29879326  0.91170433  0.10258568  1
  Ta  Ta125  1  0.48985309  0.49572294  0.49155190  1
  Ta  Ta126  1  0.39709079  0.19861491  0.19941431  1
  Ta  Ta127  1  0.49895008  0.89546846  0.29548755  1
  Ta  Ta128  1  0.60690212  0.19771925  0.19478674  1
  Ta  Ta129  1  0.89496600  0.10697475  0.70692900  1
  Ta  Ta130  1  0.09907142  0.30037027  0.49839265  1
  Ta  Ta131  1  0.60144119  0.78991795  0.60065360  1
  Ta  Ta132  1  0.20824845  0.79704563  0.80986736  1
  Ta  Ta133  1  0.39691100  0.40718516  0.00102268  1
  Ta  Ta134  1  0.19894999  0.40577000  0.00219213  1
  Ta  Ta135  1  0.29648783  0.49434672  0.49357920  1
  Ta  Ta136  1  0.39747407  0.79722418  0.39795494  1
  Ta  Ta137  1  0.09994191  0.50288070  0.70027953  1
  Ta  Ta138  1  0.71049034  0.10158280  0.70804931  1
  Ta  Ta139  1  0.39657976  0.80159835  0.81396637  1
  Ta  Ta140  1  0.30290127  0.68748499  0.10057328  1
  Ta  Ta141  1  0.49409815  0.69319422  0.90226343  1
  Ta  Ta142  1  0.19554706  0.00237698  0.38911285  1
  Ta  Ta143  1  0.20264501  0.19822758  0.79655267  1
  Ta  Ta144  1  0.49318445  0.09717879  0.09766547  1
  Ta  Ta145  1  0.80810428  0.60847356  0.19076998  1
  Ta  Ta146  1  0.10088604  0.11059150  0.49338951  1
  Ta  Ta147  1  0.79798389  0.39717850  0.60483481  1
  Ta  Ta148  1  -0.00542681  0.39676760  0.39971282  1
  Ta  Ta149  1  0.89779466  0.49807263  0.29658616  1
  Ti  Ti150  1  0.80064082  0.79588289  0.00404428  1
  Ti  Ti151  1  0.79801030  0.59978915  0.39510098  1
  Ti  Ti152  1  0.09808753  0.88821659  0.30102672  1
  Ti  Ti153  1  0.39612412  0.61117513  0.39852453  1
  Ti  Ti154  1  0.89368530  0.71145852  0.69728660  1
  Ti  Ti155  1  0.80537744  0.00459087  0.60702165  1
  Ti  Ti156  1  0.60284004  0.18881212  0.79944569  1
  Ti  Ti157  1  0.90189700  0.49545858  0.90143065  1
  Ti  Ti158  1  0.70425029  0.09582598  0.09710488  1
  Ti  Ti159  1  0.90658033  0.48965662  0.70585181  1
  Ti  Ti160  1  0.29098184  0.70047039  0.49794626  1
  Ti  Ti161  1  0.59480927  0.00863524  0.80794729  1
  Ti  Ti162  1  0.20172308  0.20090036  0.00224082  1
  Ti  Ti163  1  -0.00598198  0.00677311  0.00024125  1
  Ti  Ti164  1  0.30297186  0.30246194  0.09893823  1
  Ti  Ti165  1  0.60257630  0.00709798  0.61024198  1
  Ti  Ti166  1  0.40268577  0.19435228  -0.00104613  1
  Ti  Ti167  1  0.70641021  0.69686563  0.51157790  1
  Ti  Ti168  1  0.58885665  0.00285416  -0.00706922  1
  Ti  Ti169  1  -0.00718095  0.80153662  0.80461137  1
  Ti  Ti170  1  0.71104137  0.29538498  0.50668427  1
  Ti  Ti171  1  -0.00031545  0.40129310  0.59672712  1
  Ti  Ti172  1  0.59943805  0.60389654  0.59285974  1
  Ti  Ti173  1  0.00504050  0.79372623  0.18613240  1
  Ti  Ti174  1  0.20682250  0.79854565  0.39106548  1
  Ti  Ti175  1  0.89750070  0.90585511  0.49904467  1
  Ti  Ti176  1  0.49347513  0.91079240  0.10372759  1
  Ti  Ti177  1  0.19260357  -0.00038763  0.20583960  1
  Ti  Ti178  1  0.70664132  0.50342935  0.69109898  1
  Ti  Ti179  1  0.09340017  0.29822977  0.89731745  1
  Ti  Ti180  1  0.81173604  0.37782957  0.18412488  1
  Ti  Ti181  1  0.29584078  0.30184263  0.69830953  1
  Ti  Ti182  1  0.19913784  0.79603349  0.60128979  1
  Ti  Ti183  1  -0.00831975  0.20002713  -0.00008330  1
  Ti  Ti184  1  0.39951547  0.59810411  0.00258458  1
  Ti  Ti185  1  0.80108244  0.40115417  0.79395562  1
  Ti  Ti186  1  0.00032857  0.20150726  0.59717143  1
  Ti  Ti187  1  0.70910023  0.50131615  0.50218585  1
  Ti  Ti188  1  0.90769704  0.70778692  0.90973259  1
  Ti  Ti189  1  0.49825085  0.68868229  0.09756514  1
  Ti  Ti190  1  0.19314381  0.59693184  0.00799545  1
  Ti  Ti191  1  0.80056897  0.60047510  0.60827767  1
  Ti  Ti192  1  0.80444870  0.39420282  0.39997608  1
  Ti  Ti193  1  0.19388091  0.00755870  0.59964452  1
  Ti  Ti194  1  0.50032822  0.90708380  0.50427893  1
  Ti  Ti195  1  0.81481840  0.61474715  0.00686305  1
  Ti  Ti196  1  0.29897939  0.50959998  0.90610553  1
  Ti  Ti197  1  0.79822663  0.20183927  0.39387914  1
  Ti  Ti198  1  0.71382236  0.09307585  0.89727470  1
  Ti  Ti199  1  -0.00788176  0.60225925  0.79968056  1
  Mo  Mo200  1  0.38537525  0.60397660  0.81484896  1
  Mo  Mo201  1  0.49961939  0.90139778  0.90088212  1
  Mo  Mo202  1  0.48886355  0.50166593  0.09243750  1
  Mo  Mo203  1  0.19910571  0.59349754  0.59300370  1
  Mo  Mo204  1  0.19885821  0.19195184  0.40115601  1
  Mo  Mo205  1  -0.00408206  0.60117686  -0.00502364  1
  Mo  Mo206  1  0.10316207  0.69828750  0.09868230  1
  Mo  Mo207  1  0.19273734  0.00265550  0.01003348  1
  Mo  Mo208  1  0.90612154  0.29455717  0.09496134  1
  Mo  Mo209  1  0.50240790  0.69311778  0.49522614  1
  Mo  Mo210  1  0.50244525  0.09981037  0.90511164  1
  Mo  Mo211  1  0.00108281  0.20271915  0.40116442  1
  Mo  Mo212  1  0.00022610  0.59364671  0.39492055  1
  Mo  Mo213  1  0.00756233  0.80377354  0.39763764  1
  Mo  Mo214  1  -0.00163786  0.20215405  0.81149985  1
  Mo  Mo215  1  0.40412246  0.39737658  0.40559087  1
  Mo  Mo216  1  0.59622666  0.80682267  0.19037437  1
  Mo  Mo217  1  0.39850122  -0.00197052  0.20241828  1
  Mo  Mo218  1  0.90688216  0.70449820  0.09219854  1
  Mo  Mo219  1  0.89879286  0.30206204  0.30228769  1
  Mo  Mo220  1  0.70324489  0.70213228  0.09592822  1
  Mo  Mo221  1  0.39504752  0.59877784  0.19341507  1
  Mo  Mo222  1  0.19532724  0.40257199  0.40653802  1
  Mo  Mo223  1  0.80151877  0.00508954  0.00498901  1
  Mo  Mo224  1  0.52098196  0.09881044  0.70349196  1
  Mo  Mo225  1  0.40945596  0.00021829  0.00196628  1
  Mo  Mo226  1  -0.00229257  0.80071296  0.00365257  1
  Mo  Mo227  1  0.80488051  0.19339248  0.80570196  1
  Mo  Mo228  1  0.29929192  0.69436890  0.90753181  1
  Mo  Mo229  1  0.28472482  0.10009964  0.69465522  1
  Mo  Mo230  1  0.70513639  0.29215852  0.69891281  1
  Mo  Mo231  1  0.80909746  0.39287038  -0.00527668  1
  Mo  Mo232  1  0.10505528  0.49875988  0.08927509  1
  Mo  Mo233  1  0.89626049  0.10226598  0.90611557  1
  Mo  Mo234  1  0.10293071  0.10526914  0.29965314  1
  Mo  Mo235  1  0.70343391  0.10552110  0.29734807  1
  Mo  Mo236  1  0.79828451  0.19786173  0.19606130  1
  Mo  Mo237  1  0.70405929  0.29685257  0.10147187  1
  Mo  Mo238  1  -0.00232227  0.00543508  0.59439544  1
  Mo  Mo239  1  0.40227964  -0.00360951  0.59672458  1
  Mo  Mo240  1  0.79863760  -0.00320317  0.39587724  1
  Mo  Mo241  1  0.59046199  0.60083448  0.00506902  1
  Mo  Mo242  1  0.79585330  0.79915074  0.60649906  1
  Mo  Mo243  1  -0.00395617  0.40551511  0.80454549  1
  Mo  Mo244  1  0.50496468  0.30372631  0.50437561  1
  Mo  Mo245  1  0.70825276  0.70449016  0.69000438  1
  Mo  Mo246  1  0.29859630  0.70085980  0.29994979  1
  Mo  Mo247  1  0.80082765  0.00373352  0.80736827  1
  Mo  Mo248  1  0.79659215  0.20283743  0.60859751  1
  Mo  Mo249  1  0.39451725  0.39414273  0.18970171  1
