# generated using pymatgen
data_HfZrTaTiMo
_symmetry_space_group_name_H-M   'P 1'
_cell_length_a   16.89079159
_cell_length_b   16.89554441
_cell_length_c   16.88988137
_cell_angle_alpha   89.96015875
_cell_angle_beta   90.01465629
_cell_angle_gamma   90.02034313
_symmetry_Int_Tables_number   1
_chemical_formula_structural   HfZrTaTiMo
_chemical_formula_sum   'Hf50 Zr50 Ta50 Ti50 Mo50'
_cell_volume   4820.01784602
_cell_formula_units_Z   50
loop_
 _symmetry_equiv_pos_site_id
 _symmetry_equiv_pos_as_xyz
  1  'x, y, z'
loop_
 _atom_site_type_symbol
 _atom_site_label
 _atom_site_symmetry_multiplicity
 _atom_site_fract_x
 _atom_site_fract_y
 _atom_site_fract_z
 _atom_site_occupancy
  Hf  Hf0  1  0.50171347  0.69644003  0.90377040  1
  Hf  Hf1  1  0.08966744  0.31430498  0.89321944  1
  Hf  Hf2  1  0.08472692  0.10543555  0.09294922  1
  Hf  Hf3  1  0.80202932  0.59690971  0.39789236  1
  Hf  Hf4  1  -0.00287563  -0.03340734  0.80598668  1
  Hf  Hf5  1  0.50882799  0.70483374  0.49109847  1
  Hf  Hf6  1  0.70605849  0.89628597  0.09886724  1
  Hf  Hf7  1  0.20751952  0.40386913  0.79862763  1
  Hf  Hf8  1  -0.00519094  0.59802625  0.19688402  1
  Hf  Hf9  1  0.60163936  0.40557282  0.59878005  1
  Hf  Hf10  1  0.80318456  0.20371125  0.60289194  1
  Hf  Hf11  1  0.09786563  0.30532370  0.30240751  1
  Hf  Hf12  1  0.30325556  0.09134300  0.48469932  1
  Hf  Hf13  1  0.30218088  0.29958758  0.09266822  1
  Hf  Hf14  1  0.70191151  0.89247258  0.49776889  1
  Hf  Hf15  1  0.60987360  0.60958256  0.19372658  1
  Hf  Hf16  1  0.10130731  0.09730786  0.49377845  1
  Hf  Hf17  1  0.70335185  0.30425505  0.70935244  1
  Hf  Hf18  1  0.00371476  -0.00844801  0.61222476  1
  Hf  Hf19  1  0.88818792  0.88598685  0.50358063  1
  Hf  Hf20  1  0.19829199  0.00193237  0.61078132  1
  Hf  Hf21  1  0.60640017  0.60334220  0.00439939  1
  Hf  Hf22  1  0.19837139  0.20696871  -0.01163045  1
  Hf  Hf23  1  0.40236484  -0.00767614  -0.00230287  1
  Hf  Hf24  1  0.50095296  0.89658703  0.49232097  1
  Hf  Hf25  1  0.10311254  0.89916653  0.29717991  1
  Hf  Hf26  1  0.50529662  0.51695415  0.48759948  1
  Hf  Hf27  1  0.70918306  0.70238568  0.89744026  1
  Hf  Hf28  1  0.18321894  -0.00022890  -0.01125775  1
  Hf  Hf29  1  0.50411789  0.50402918  0.29869510  1
  Hf  Hf30  1  0.09546960  0.50617380  0.89465831  1
  Hf  Hf31  1  0.89280790  0.69069372  0.51972243  1
  Hf  Hf32  1  0.20237569  0.60286363  0.40083983  1
  Hf  Hf33  1  0.49595283  0.09660824  0.48875354  1
  Hf  Hf34  1  0.60155180  0.19707379  0.19634580  1
  Hf  Hf35  1  0.20474859  0.01467404  0.19943601  1
  Hf  Hf36  1  0.92076339  0.10748104  0.71549872  1
  Hf  Hf37  1  0.69807784  0.10421158  0.48821097  1
  Hf  Hf38  1  -0.01982552  0.21106536  -0.01394967  1
  Hf  Hf39  1  0.50818288  0.30394707  0.71066279  1
  Hf  Hf40  1  0.51234494  0.70114086  0.71281944  1
  Hf  Hf41  1  0.40357543  -0.00729065  0.80351360  1
  Hf  Hf42  1  0.79824080  0.00200381  0.61278798  1
  Hf  Hf43  1  0.40088638  0.79894012  0.60983407  1
  Hf  Hf44  1  0.29878391  0.09981998  0.89681608  1
  Hf  Hf45  1  0.49017890  0.50975640  0.09952543  1
  Hf  Hf46  1  0.19187011  0.20162123  0.60087353  1
  Hf  Hf47  1  0.49249304  0.68749691  0.30224347  1
  Hf  Hf48  1  0.70024400  0.09310179  0.90530521  1
  Hf  Hf49  1  0.21057995  0.40743256  0.20073325  1
  Zr  Zr50  1  0.49895311  0.29931846  0.09709405  1
  Zr  Zr51  1  0.08202174  0.10056304  0.88104274  1
  Zr  Zr52  1  0.80272354  -0.00575871  0.80392356  1
  Zr  Zr53  1  0.40381205  0.59779362  0.61180345  1
  Zr  Zr54  1  0.60076525  0.41096875  -0.00410179  1
  Zr  Zr55  1  0.30053374  0.90104369  0.49472710  1
  Zr  Zr56  1  0.19971002  0.78916530  0.00052922  1
  Zr  Zr57  1  0.19417649  0.20477030  0.78782624  1
  Zr  Zr58  1  0.80514102  0.40347138  0.59518448  1
  Zr  Zr59  1  0.29907519  0.90060771  0.10289284  1
  Zr  Zr60  1  0.30195128  0.29297578  0.50030210  1
  Zr  Zr61  1  0.60070781  -0.00267396  0.19841203  1
  Zr  Zr62  1  0.61161722  0.39101008  0.40416554  1
  Zr  Zr63  1  0.50840772  0.89471851  0.71204114  1
  Zr  Zr64  1  -0.00677214  0.60289524  0.00065046  1
  Zr  Zr65  1  0.60874466  0.20427016  0.59737126  1
  Zr  Zr66  1  0.28758389  0.89564874  0.89343552  1
  Zr  Zr67  1  0.70562835  0.70402508  0.49895796  1
  Zr  Zr68  1  0.59868537  -0.00679590  -0.00015251  1
  Zr  Zr69  1  0.30314289  0.69677509  0.50203553  1
  Zr  Zr70  1  0.09864290  0.50331365  0.50740929  1
  Zr  Zr71  1  0.31602775  0.51899211  0.29993252  1
  Zr  Zr72  1  0.80556938  0.21390819  0.39814900  1
  Zr  Zr73  1  0.39115284  0.21086606  0.80552236  1
  Zr  Zr74  1  0.49265259  0.89536209  0.29787517  1
  Zr  Zr75  1  0.20388905  0.40223012  0.40458927  1
  Zr  Zr76  1  0.40470138  0.40636184  0.59837782  1
  Zr  Zr77  1  0.10300460  0.49651863  0.09532861  1
  Zr  Zr78  1  0.40024546  0.19406505  0.60607429  1
  Zr  Zr79  1  0.00240477  0.79340418  0.62136818  1
  Zr  Zr80  1  -0.00763721  -0.00379141  0.39737085  1
  Zr  Zr81  1  -0.01541281  0.20545340  0.20537673  1
  Zr  Zr82  1  0.50826807  0.09784322  0.71355870  1
  Zr  Zr83  1  -0.01182210  0.00332806  0.19936518  1
  Zr  Zr84  1  0.89421411  0.70050692  0.29911627  1
  Zr  Zr85  1  0.00053814  0.79134917  0.40185845  1
  Zr  Zr86  1  -0.00781373  0.79494957  0.18773411  1
  Zr  Zr87  1  0.09558261  0.30495798  0.09583832  1
  Zr  Zr88  1  0.60493627  0.00150619  0.60407273  1
  Zr  Zr89  1  0.10954216  0.89360127  0.49992746  1
  Zr  Zr90  1  0.90112576  0.09719889  0.50238266  1
  Zr  Zr91  1  0.81326158  0.20324749  0.81437473  1
  Zr  Zr92  1  0.09446631  0.90054838  0.09801721  1
  Zr  Zr93  1  0.79559131  0.40250134  0.21284696  1
  Zr  Zr94  1  0.38959585  0.19293619  0.20047560  1
  Zr  Zr95  1  0.71448416  0.69853110  0.70677830  1
  Zr  Zr96  1  0.69871861  0.30762024  0.90131969  1
  Zr  Zr97  1  -0.01178499  0.40266482  0.19988478  1
  Zr  Zr98  1  0.39994533  0.39951884  0.40254576  1
  Zr  Zr99  1  0.40453429  0.41335870  0.79951093  1
  Ta  Ta100  1  0.20495756  0.60401311  0.79897538  1
  Ta  Ta101  1  -0.00124534  0.59598290  0.40486618  1
  Ta  Ta102  1  0.39419954  0.78771183  0.19500676  1
  Ta  Ta103  1  0.40019322  0.40112525  0.19702760  1
  Ta  Ta104  1  0.09693074  0.50473602  0.30192980  1
  Ta  Ta105  1  0.90152759  0.69755545  0.89436807  1
  Ta  Ta106  1  0.60411017  -0.00428621  0.39005377  1
  Ta  Ta107  1  0.29890953  0.90375454  0.30119099  1
  Ta  Ta108  1  0.50033031  0.29874580  0.90373089  1
  Ta  Ta109  1  0.09542755  0.69744734  0.89200318  1
  Ta  Ta110  1  0.20140333  0.79252960  0.39063906  1
  Ta  Ta111  1  0.79328223  -0.00640557  0.39017917  1
  Ta  Ta112  1  0.60137895  0.19836282  0.00317465  1
  Ta  Ta113  1  0.69889862  0.89282833  0.71245326  1
  Ta  Ta114  1  0.90596908  0.30718773  0.70376801  1
  Ta  Ta115  1  0.70424448  0.50958240  0.50160411  1
  Ta  Ta116  1  0.50085477  0.10625489  0.90489145  1
  Ta  Ta117  1  0.79845527  0.20127507  0.19986436  1
  Ta  Ta118  1  0.49354670  0.09954360  0.09510649  1
  Ta  Ta119  1  0.10127743  0.69244026  0.29584453  1
  Ta  Ta120  1  0.39185833  0.78994574  0.80567827  1
  Ta  Ta121  1  0.80799521  0.41442031  0.79883592  1
  Ta  Ta122  1  -0.00108860  0.21167895  0.40586481  1
  Ta  Ta123  1  0.88629048  0.89400582  0.29511279  1
  Ta  Ta124  1  0.88760442  0.09715446  0.09208262  1
  Ta  Ta125  1  0.39630684  0.60047734  0.80190173  1
  Ta  Ta126  1  0.20670809  0.60342658  0.00068130  1
  Ta  Ta127  1  0.70333857  0.30161628  0.09903129  1
  Ta  Ta128  1  0.49947513  0.29379929  0.30130047  1
  Ta  Ta129  1  0.69954143  0.10108160  0.29934594  1
  Ta  Ta130  1  0.49611733  0.88963807  0.10195917  1
  Ta  Ta131  1  0.49485635  0.10017679  0.30489083  1
  Ta  Ta132  1  0.29505312  0.89540048  0.70525382  1
  Ta  Ta133  1  0.20003734  0.19883507  0.39244695  1
  Ta  Ta134  1  0.60573404  0.60011305  0.60517111  1
  Ta  Ta135  1  0.39900886  0.78926789  0.00207776  1
  Ta  Ta136  1  0.09583543  0.50578372  0.69993784  1
  Ta  Ta137  1  0.20630899  0.60414387  0.19333406  1
  Ta  Ta138  1  0.60592858  0.79770448  0.60706955  1
  Ta  Ta139  1  0.39751397  0.40391889  -0.00601671  1
  Ta  Ta140  1  0.60191943  0.40027208  0.20001632  1
  Ta  Ta141  1  -0.00249431  0.40044635  0.59529354  1
  Ta  Ta142  1  0.20621571  0.78838993  0.20203532  1
  Ta  Ta143  1  0.80485423  0.39956899  0.40549482  1
  Ta  Ta144  1  0.39835352  -0.00398414  0.60642045  1
  Ta  Ta145  1  0.00591158  0.21038925  0.59906618  1
  Ta  Ta146  1  0.09946379  0.10368845  0.30367810  1
  Ta  Ta147  1  0.88425450  0.30444207  0.09484753  1
  Ta  Ta148  1  0.30149363  0.50776545  0.90443395  1
  Ta  Ta149  1  -0.00503097  0.80208126  -0.00967293  1
  Ti  Ti150  1  0.20115610  0.78383136  0.79815139  1
  Ti  Ti151  1  0.89933273  0.07877006  0.91369092  1
  Ti  Ti152  1  0.09855836  0.69713624  0.50539020  1
  Ti  Ti153  1  0.79694944  0.00254684  0.20270400  1
  Ti  Ti154  1  0.30501631  0.29471190  0.30110336  1
  Ti  Ti155  1  -0.01407504  0.41492621  0.79675091  1
  Ti  Ti156  1  0.19683862  0.39875727  0.59785760  1
  Ti  Ti157  1  0.81821443  0.59335812  0.79869782  1
  Ti  Ti158  1  -0.01803674  0.40635681  -0.00423854  1
  Ti  Ti159  1  0.90774980  0.51596379  0.68485494  1
  Ti  Ti160  1  0.30166416  0.30741219  0.69548793  1
  Ti  Ti161  1  0.30232165  0.10396009  0.08694164  1
  Ti  Ti162  1  0.51009524  0.88800340  0.89873101  1
  Ti  Ti163  1  0.59986386  0.79234126  0.00949540  1
  Ti  Ti164  1  0.20963605  0.40567367  -0.00531930  1
  Ti  Ti165  1  0.09091649  0.31191406  0.69982320  1
  Ti  Ti166  1  0.78651656  0.79180453  0.20314441  1
  Ti  Ti167  1  0.60108498  0.41857913  0.80608518  1
  Ti  Ti168  1  0.39669427  0.00244382  0.19992476  1
  Ti  Ti169  1  0.20214586  0.78913505  0.61021927  1
  Ti  Ti170  1  0.71492991  0.51032900  0.90109077  1
  Ti  Ti171  1  0.70610914  0.09985144  0.09772312  1
  Ti  Ti172  1  0.60126230  0.79158956  0.19545524  1
  Ti  Ti173  1  0.70545664  0.50762917  0.70012228  1
  Ti  Ti174  1  0.61658778  0.79857650  0.37879996  1
  Ti  Ti175  1  0.80540431  0.80020710  -0.00294980  1
  Ti  Ti176  1  0.90382393  0.49841598  0.30719481  1
  Ti  Ti177  1  0.20064998  0.19863679  0.20135307  1
  Ti  Ti178  1  0.50284053  0.28599935  0.48864855  1
  Ti  Ti179  1  0.69438639  0.50595057  0.30568575  1
  Ti  Ti180  1  -0.00927828  0.39642619  0.40961335  1
  Ti  Ti181  1  0.69517131  0.29369660  0.29987545  1
  Ti  Ti182  1  0.60710784  0.19468520  0.80679999  1
  Ti  Ti183  1  0.11423758  0.88935308  0.71530463  1
  Ti  Ti184  1  0.79317100  0.60208242  0.19767634  1
  Ti  Ti185  1  0.89350297  0.10052727  0.30166507  1
  Ti  Ti186  1  0.29177066  0.50457383  0.69420933  1
  Ti  Ti187  1  0.79751474  0.20287895  -0.00014174  1
  Ti  Ti188  1  0.82033564  0.80496211  0.79870936  1
  Ti  Ti189  1  0.89353328  0.90816871  0.09056597  1
  Ti  Ti190  1  0.69998117  0.89127713  0.89933428  1
  Ti  Ti191  1  0.88350836  0.69783865  0.09190177  1
  Ti  Ti192  1  0.70792607  0.49760096  0.09875681  1
  Ti  Ti193  1  0.29686766  0.09073683  0.70747126  1
  Ti  Ti194  1  0.38886597  0.79355227  0.39027779  1
  Ti  Ti195  1  0.59914686  0.58817563  0.80514640  1
  Ti  Ti196  1  0.19786565  0.60730727  0.60870704  1
  Ti  Ti197  1  0.09992139  0.69746657  0.09892894  1
  Ti  Ti198  1  0.88519796  0.50343785  0.09452440  1
  Ti  Ti199  1  0.80347789  0.40600785  -0.00792676  1
  Mo  Mo200  1  0.39784611  0.19823625  0.39155208  1
  Mo  Mo201  1  0.29847003  0.70129380  0.70537594  1
  Mo  Mo202  1  0.19394636  -0.00392926  0.79419890  1
  Mo  Mo203  1  0.79997863  0.59488881  0.60521646  1
  Mo  Mo204  1  0.39877394  0.60508927  0.18586648  1
  Mo  Mo205  1  0.60662474  0.80009392  0.81197615  1
  Mo  Mo206  1  0.90303067  0.50021318  0.49737191  1
  Mo  Mo207  1  0.30335556  0.50143964  0.09600723  1
  Mo  Mo208  1  0.40263667  0.19947936  -0.00420604  1
  Mo  Mo209  1  0.89603721  0.31996447  0.89905624  1
  Mo  Mo210  1  0.39607395  0.60111746  -0.00315540  1
  Mo  Mo211  1  0.90527205  0.30443381  0.50433794  1
  Mo  Mo212  1  0.59806013  0.19710736  0.39100259  1
  Mo  Mo213  1  0.29638110  0.50422498  0.51274822  1
  Mo  Mo214  1  0.60482958  -0.00229487  0.80926244  1
  Mo  Mo215  1  -0.00915866  -0.00837738  -0.00166206  1
  Mo  Mo216  1  0.50017346  0.70492169  0.09929743  1
  Mo  Mo217  1  0.61147748  0.60322632  0.39576474  1
  Mo  Mo218  1  0.89376459  0.89007816  0.69919245  1
  Mo  Mo219  1  0.89880779  0.30513174  0.30317102  1
  Mo  Mo220  1  0.90580747  0.69370883  0.70904591  1
  Mo  Mo221  1  0.10555630  0.69254941  0.70390556  1
  Mo  Mo222  1  0.79674354  0.80097183  0.38910206  1
  Mo  Mo223  1  0.70126578  0.89786571  0.29284095  1
  Mo  Mo224  1  0.30066506  0.31283391  0.90276403  1
  Mo  Mo225  1  0.00499772  0.59814822  0.60122454  1
  Mo  Mo226  1  0.89812677  0.50562129  0.89850698  1
  Mo  Mo227  1  0.30419887  0.69343369  0.09767354  1
  Mo  Mo228  1  0.49398914  0.50593464  0.90090581  1
  Mo  Mo229  1  0.09719421  0.88251027  0.89524544  1
  Mo  Mo230  1  0.79805264  0.80084690  0.61734683  1
  Mo  Mo231  1  0.70334439  0.30480675  0.50027297  1
  Mo  Mo232  1  0.39648521  0.60381366  0.41046644  1
  Mo  Mo233  1  0.00026618  0.22352686  0.79502251  1
  Mo  Mo234  1  0.00260638  0.78994505  0.80399579  1
  Mo  Mo235  1  0.69916486  0.69965113  0.29480540  1
  Mo  Mo236  1  0.00137235  0.60139153  0.79285517  1
  Mo  Mo237  1  0.79716873  -0.00648388  0.00384421  1
  Mo  Mo238  1  0.79977823  0.60127884  0.00135576  1
  Mo  Mo239  1  0.09534620  0.09931217  0.69858644  1
  Mo  Mo240  1  0.51585850  0.50572976  0.70674502  1
  Mo  Mo241  1  0.30049202  0.69423425  0.90079581  1
  Mo  Mo242  1  0.20090333  0.00076608  0.38958824  1
  Mo  Mo243  1  0.29698895  0.09724181  0.30147299  1
  Mo  Mo244  1  0.40352901  -0.00474510  0.39122810  1
  Mo  Mo245  1  0.89562579  0.88874696  0.90740300  1
  Mo  Mo246  1  0.09836962  0.30150668  0.49958396  1
  Mo  Mo247  1  0.70857534  0.70704703  0.09707702  1
  Mo  Mo248  1  0.69889726  0.09731059  0.71475483  1
  Mo  Mo249  1  0.29951619  0.70324237  0.29678661  1
