# generated using pymatgen
data_HfZrTaTiMo
_symmetry_space_group_name_H-M   'P 1'
_cell_length_a   16.89005166
_cell_length_b   16.89213947
_cell_length_c   16.88584977
_cell_angle_alpha   90.04398232
_cell_angle_beta   89.97176113
_cell_angle_gamma   90.00513339
_symmetry_Int_Tables_number   1
_chemical_formula_structural   HfZrTaTiMo
_chemical_formula_sum   'Hf50 Zr50 Ta50 Ti50 Mo50'
_cell_volume   4817.68471754
_cell_formula_units_Z   50
loop_
 _symmetry_equiv_pos_site_id
 _symmetry_equiv_pos_as_xyz
  1  'x, y, z'
loop_
 _atom_site_type_symbol
 _atom_site_label
 _atom_site_symmetry_multiplicity
 _atom_site_fract_x
 _atom_site_fract_y
 _atom_site_fract_z
 _atom_site_occupancy
  Hf  Hf0  1  0.10197568  0.09661973  0.69784122  1
  Hf  Hf1  1  0.90244139  0.09525967  0.49430673  1
  Hf  Hf2  1  0.19837740  0.58978881  0.20485838  1
  Hf  Hf3  1  0.19860318  0.00822343  0.19727991  1
  Hf  Hf4  1  0.30693509  0.89833209  0.90228309  1
  Hf  Hf5  1  0.60211686  0.20081803  0.40233608  1
  Hf  Hf6  1  0.30182623  0.30688972  0.90627457  1
  Hf  Hf7  1  0.90398087  0.90258824  0.30618598  1
  Hf  Hf8  1  0.09842669  0.90180363  0.30596695  1
  Hf  Hf9  1  0.70232389  0.10235547  0.29850557  1
  Hf  Hf10  1  -0.00389032  0.40037276  0.20943839  1
  Hf  Hf11  1  0.30006447  0.69729344  0.09606451  1
  Hf  Hf12  1  0.69263844  0.69772888  0.89844414  1
  Hf  Hf13  1  0.59702663  0.00421949  0.40574755  1
  Hf  Hf14  1  0.48932002  0.90080735  0.09172027  1
  Hf  Hf15  1  0.79219706  -0.00473582  0.78917005  1
  Hf  Hf16  1  0.29622655  0.89673763  0.69433356  1
  Hf  Hf17  1  0.79511198  0.40061811  -0.00335340  1
  Hf  Hf18  1  0.70497860  0.09647458  0.10002271  1
  Hf  Hf19  1  -0.00317255  0.59478102  0.20341325  1
  Hf  Hf20  1  0.50063896  0.69715403  0.29859769  1
  Hf  Hf21  1  0.09842774  0.69808902  0.09673245  1
  Hf  Hf22  1  0.39819349  0.20400238  0.40824658  1
  Hf  Hf23  1  -0.00105579  0.79218481  0.40276643  1
  Hf  Hf24  1  0.39503245  0.00465747  0.20087464  1
  Hf  Hf25  1  0.90547711  0.10754989  0.70165858  1
  Hf  Hf26  1  0.40694517  0.79562474  0.59944739  1
  Hf  Hf27  1  0.00478485  0.59135038  0.39726534  1
  Hf  Hf28  1  0.30029481  0.89278518  0.09506613  1
  Hf  Hf29  1  0.69387291  0.68691105  0.29764882  1
  Hf  Hf30  1  0.70002389  0.89999499  0.29462078  1
  Hf  Hf31  1  0.00346144  0.79663558  0.60534981  1
  Hf  Hf32  1  0.31399871  0.70239740  0.28953167  1
  Hf  Hf33  1  0.20367238  0.19486480  0.81142638  1
  Hf  Hf34  1  0.39293327  0.20401152  0.20019849  1
  Hf  Hf35  1  0.18971095  0.39886515  0.20497728  1
  Hf  Hf36  1  0.60538513  0.21189345  -0.00041159  1
  Hf  Hf37  1  0.60373470  0.39568887  0.18699261  1
  Hf  Hf38  1  0.49836107  0.10222742  0.09953683  1
  Hf  Hf39  1  0.30013385  0.69706389  0.70205438  1
  Hf  Hf40  1  0.00904138  0.59974134  0.60329105  1
  Hf  Hf41  1  0.30940891  0.50443434  0.70362498  1
  Hf  Hf42  1  0.17591928  0.59992393  0.79462015  1
  Hf  Hf43  1  0.50112982  0.30587020  0.30380645  1
  Hf  Hf44  1  0.00005529  0.00688568  0.20339137  1
  Hf  Hf45  1  0.50159653  0.89605710  0.89638799  1
  Hf  Hf46  1  0.79411294  0.21310300  -0.00544076  1
  Hf  Hf47  1  0.38636015  0.41233541  0.41166530  1
  Hf  Hf48  1  0.20814522  0.19767964  0.59002925  1
  Hf  Hf49  1  0.79214199  0.79525101  0.60688109  1
  Zr  Zr50  1  0.19100366  0.40950206  0.81886563  1
  Zr  Zr51  1  0.30282361  0.69353418  0.89347677  1
  Zr  Zr52  1  0.09448450  0.90357122  0.09384481  1
  Zr  Zr53  1  0.90006681  0.10069518  0.89882367  1
  Zr  Zr54  1  0.89680919  0.50440174  0.69562277  1
  Zr  Zr55  1  0.80263595  0.21212326  0.20407485  1
  Zr  Zr56  1  -0.00496401  0.40444401  0.00308525  1
  Zr  Zr57  1  0.41694726  0.40115894  0.00152515  1
  Zr  Zr58  1  0.30317048  0.30900777  0.70492768  1
  Zr  Zr59  1  0.00400782  0.20850031  0.39297135  1
  Zr  Zr60  1  0.11370617  0.31342844  0.49262125  1
  Zr  Zr61  1  0.40487377  0.80007656  0.41584235  1
  Zr  Zr62  1  0.21221809  0.58856291  0.39962179  1
  Zr  Zr63  1  0.60285250  -0.00022578  -0.00348166  1
  Zr  Zr64  1  0.90043871  0.09506253  0.09374305  1
  Zr  Zr65  1  0.60249706  0.78874193  0.60823409  1
  Zr  Zr66  1  0.50569471  0.90712647  0.70326790  1
  Zr  Zr67  1  0.60147546  0.80365181  0.19306457  1
  Zr  Zr68  1  0.79057188  0.79580467  0.41122648  1
  Zr  Zr69  1  0.60489037  0.79620158  0.41929272  1
  Zr  Zr70  1  0.79658107  0.20180349  0.59879628  1
  Zr  Zr71  1  0.49572633  0.90037878  0.30004718  1
  Zr  Zr72  1  0.89763310  0.69082225  0.50874394  1
  Zr  Zr73  1  0.31343671  0.50164452  0.89531403  1
  Zr  Zr74  1  0.49492391  0.69943834  0.10079198  1
  Zr  Zr75  1  0.09927484  0.29772978  0.70115406  1
  Zr  Zr76  1  0.89057302  0.70451690  0.89675352  1
  Zr  Zr77  1  0.79279507  0.40090147  0.80375828  1
  Zr  Zr78  1  0.20631522  0.79817522  0.40562683  1
  Zr  Zr79  1  0.70078437  0.30888360  0.49278445  1
  Zr  Zr80  1  0.70180261  0.49618084  0.29523553  1
  Zr  Zr81  1  0.19936131  -0.00345412  0.80920177  1
  Zr  Zr82  1  0.49702268  0.09562817  0.89680577  1
  Zr  Zr83  1  0.80969885  0.79048277  0.19501604  1
  Zr  Zr84  1  0.79659913  0.59094813  0.40514624  1
  Zr  Zr85  1  0.10226539  0.48637534  0.68541987  1
  Zr  Zr86  1  0.30137726  0.90503101  0.30688620  1
  Zr  Zr87  1  0.89211467  0.89724658  0.90425514  1
  Zr  Zr88  1  0.18967327  0.59121276  -0.01120448  1
  Zr  Zr89  1  0.19710193  0.20043255  0.00847772  1
  Zr  Zr90  1  0.60992346  0.19814016  0.79583778  1
  Zr  Zr91  1  0.70315031  0.69327478  0.09355950  1
  Zr  Zr92  1  0.28721243  0.30107296  0.30594172  1
  Zr  Zr93  1  0.50293384  0.50425752  0.30147940  1
  Zr  Zr94  1  0.00100206  -0.00985278  0.79632206  1
  Zr  Zr95  1  -0.00313560  0.40575840  0.80462053  1
  Zr  Zr96  1  0.00468355  0.20241168  0.58864554  1
  Zr  Zr97  1  0.60738140  0.40377223  -0.00688368  1
  Zr  Zr98  1  0.79677314  -0.00094749  0.40274872  1
  Zr  Zr99  1  0.30303496  0.09735898  0.69923005  1
  Ta  Ta100  1  0.29782474  0.49275528  0.09318429  1
  Ta  Ta101  1  0.39714901  0.20063341  -0.00325363  1
  Ta  Ta102  1  0.19192943  0.79800286  -0.01002063  1
  Ta  Ta103  1  0.89781052  0.30607400  0.10469287  1
  Ta  Ta104  1  0.70000428  0.92334483  0.53045809  1
  Ta  Ta105  1  0.40905911  0.79093179  0.79563363  1
  Ta  Ta106  1  0.79922134  0.40274521  0.59861491  1
  Ta  Ta107  1  0.00806964  0.20935381  0.20063899  1
  Ta  Ta108  1  0.10937042  0.70091316  0.50528497  1
  Ta  Ta109  1  0.39517760  0.40367487  0.19765232  1
  Ta  Ta110  1  0.60204860  0.20564133  0.19986717  1
  Ta  Ta111  1  -0.01316081  0.39476452  0.58638976  1
  Ta  Ta112  1  0.49885883  0.10140145  0.69651043  1
  Ta  Ta113  1  0.90353887  0.90367429  0.50559305  1
  Ta  Ta114  1  0.40350261  0.20478822  0.59982817  1
  Ta  Ta115  1  -0.00171914  0.20680621  0.00749729  1
  Ta  Ta116  1  0.19030548  0.79757695  0.80098066  1
  Ta  Ta117  1  0.10454585  0.90086097  0.50382976  1
  Ta  Ta118  1  0.40310116  0.20261172  0.80055208  1
  Ta  Ta119  1  -0.00062039  0.40387534  0.39368058  1
  Ta  Ta120  1  0.71296529  0.90060984  0.08813125  1
  Ta  Ta121  1  0.50384257  0.30695662  0.50631117  1
  Ta  Ta122  1  0.69603611  0.30797919  0.69230269  1
  Ta  Ta123  1  0.09614221  0.29747563  0.90827627  1
  Ta  Ta124  1  0.07999288  0.70268188  0.89227218  1
  Ta  Ta125  1  0.29607091  0.10198940  0.30673370  1
  Ta  Ta126  1  0.39827856  0.00182095  0.59426812  1
  Ta  Ta127  1  -0.00264625  0.79211826  0.19917350  1
  Ta  Ta128  1  0.10601395  0.89466817  0.69272725  1
  Ta  Ta129  1  0.41165213  0.59870954  0.59840027  1
  Ta  Ta130  1  0.89812100  0.90016829  0.09350184  1
  Ta  Ta131  1  0.89622327  0.51502338  0.89739289  1
  Ta  Ta132  1  -0.00644408  0.79578671  0.00399833  1
  Ta  Ta133  1  0.29289113  0.30459328  0.10014435  1
  Ta  Ta134  1  0.30183751  0.09371945  0.49641683  1
  Ta  Ta135  1  0.19882375  0.00448243  -0.00448013  1
  Ta  Ta136  1  0.78645008  0.59767306  0.79326278  1
  Ta  Ta137  1  0.40989392  0.40492282  0.59887130  1
  Ta  Ta138  1  0.19544669  0.79811919  0.19876091  1
  Ta  Ta139  1  0.49686172  0.10176993  0.30149255  1
  Ta  Ta140  1  0.89929543  0.29857037  0.70126025  1
  Ta  Ta141  1  0.59653139  0.20140365  0.59865024  1
  Ta  Ta142  1  0.08785253  0.10008868  0.90746050  1
  Ta  Ta143  1  0.40350774  0.59826618  0.41195672  1
  Ta  Ta144  1  0.41254248  0.59374819  -0.00065514  1
  Ta  Ta145  1  0.90101961  0.10493500  0.30416929  1
  Ta  Ta146  1  0.60556966  0.40654950  0.79842563  1
  Ta  Ta147  1  0.20364382  0.60131475  0.59874678  1
  Ta  Ta148  1  0.00632517  -0.00273104  0.59571149  1
  Ta  Ta149  1  0.69936361  0.88933444  0.89890626  1
  Ti  Ti150  1  0.81415729  0.40054474  0.38827680  1
  Ti  Ti151  1  0.89697064  0.49725089  0.50088471  1
  Ti  Ti152  1  0.90425040  0.69812253  0.71193281  1
  Ti  Ti153  1  0.49582373  0.10086610  0.50332669  1
  Ti  Ti154  1  0.59308807  0.59018570  0.18414229  1
  Ti  Ti155  1  0.50331113  0.29798671  0.89188762  1
  Ti  Ti156  1  0.60956614  -0.00141552  0.79477592  1
  Ti  Ti157  1  0.78476258  0.60103753  0.60729681  1
  Ti  Ti158  1  0.59894677  0.79731035  -0.00113440  1
  Ti  Ti159  1  0.69652535  0.08540320  0.67935924  1
  Ti  Ti160  1  0.19810230  0.00287038  0.40930579  1
  Ti  Ti161  1  0.90480112  0.29289532  0.89137284  1
  Ti  Ti162  1  0.49606759  0.29650170  0.10209185  1
  Ti  Ti163  1  0.50731829  0.69247864  0.89103701  1
  Ti  Ti164  1  0.80008241  0.59847055  -0.00034757  1
  Ti  Ti165  1  0.51340730  0.51332196  0.89309502  1
  Ti  Ti166  1  0.89385108  0.69033089  0.29890505  1
  Ti  Ti167  1  0.19871207  0.19749763  0.40309263  1
  Ti  Ti168  1  0.10365333  0.10403655  0.30479270  1
  Ti  Ti169  1  0.39804929  0.58439533  0.19391572  1
  Ti  Ti170  1  0.22581753  0.40449817  0.58017499  1
  Ti  Ti171  1  0.70730819  0.09378991  0.90199916  1
  Ti  Ti172  1  0.30036026  0.69813059  0.50814999  1
  Ti  Ti173  1  0.89191359  0.29939966  0.48997291  1
  Ti  Ti174  1  0.39677443  0.00387678  0.80108525  1
  Ti  Ti175  1  0.10728240  0.49615235  0.49833470  1
  Ti  Ti176  1  0.50071678  0.91154285  0.50629838  1
  Ti  Ti177  1  0.10388951  0.69954426  0.30120264  1
  Ti  Ti178  1  0.41738478  0.40196843  0.79836650  1
  Ti  Ti179  1  0.70387990  0.10083733  0.50448826  1
  Ti  Ti180  1  0.59499636  0.40877529  0.40767959  1
  Ti  Ti181  1  -0.00982540  0.60113785  0.00363246  1
  Ti  Ti182  1  0.40186359  0.78847408  -0.00892795  1
  Ti  Ti183  1  0.09624114  0.10316738  0.09730915  1
  Ti  Ti184  1  0.59506177  0.59988506  0.42143432  1
  Ti  Ti185  1  0.78466064  0.79877895  0.78568392  1
  Ti  Ti186  1  0.70410986  0.50556709  0.09879563  1
  Ti  Ti187  1  0.88638710  0.50393294  0.10828270  1
  Ti  Ti188  1  0.60039250  0.59960252  0.60574108  1
  Ti  Ti189  1  0.09969618  0.49522896  0.09438673  1
  Ti  Ti190  1  0.29925317  0.10321714  0.09649064  1
  Ti  Ti191  1  0.50605260  0.30175677  0.69751597  1
  Ti  Ti192  1  0.50900128  0.50327668  0.70213528  1
  Ti  Ti193  1  0.70510708  0.30652077  0.30227662  1
  Ti  Ti194  1  0.69413800  0.49570251  0.51159977  1
  Ti  Ti195  1  0.59913744  0.00137320  0.19817562  1
  Ti  Ti196  1  0.79108632  0.20275550  0.79615086  1
  Ti  Ti197  1  0.80497991  -0.00192015  0.19977737  1
  Ti  Ti198  1  0.89998784  0.89739129  0.69611566  1
  Ti  Ti199  1  0.09068596  0.89543808  0.90230127  1
  Mo  Mo200  1  0.58958556  0.01310439  0.59847246  1
  Mo  Mo201  1  0.70288392  0.30313711  0.10478825  1
  Mo  Mo202  1  0.69625296  0.90208364  0.70458013  1
  Mo  Mo203  1  0.00822404  0.00235901  0.40319236  1
  Mo  Mo204  1  0.89868497  0.49743682  0.30056888  1
  Mo  Mo205  1  0.59793096  0.59441231  -0.00413686  1
  Mo  Mo206  1  0.50211800  0.68915702  0.50538377  1
  Mo  Mo207  1  0.10095139  0.29683076  0.30187304  1
  Mo  Mo208  1  0.38972204  0.01003991  -0.00175609  1
  Mo  Mo209  1  0.89822762  0.30191965  0.30098469  1
  Mo  Mo210  1  0.19872528  0.40937931  0.39838584  1
  Mo  Mo211  1  0.50209659  0.69130407  0.70611553  1
  Mo  Mo212  1  0.60205928  0.59688563  0.79494353  1
  Mo  Mo213  1  0.10013567  0.49615316  0.30824082  1
  Mo  Mo214  1  0.69837441  0.30034274  0.88610965  1
  Mo  Mo215  1  0.30708948  0.29610654  0.50311736  1
  Mo  Mo216  1  0.69586705  0.68081027  0.51025121  1
  Mo  Mo217  1  0.00326105  -0.00162352  0.00175190  1
  Mo  Mo218  1  0.41770784  0.60032345  0.79750083  1
  Mo  Mo219  1  0.69492476  0.49912320  0.69620884  1
  Mo  Mo220  1  0.20184156  -0.00359874  0.59127587  1
  Mo  Mo221  1  0.30392539  0.50147181  0.29132641  1
  Mo  Mo222  1  0.50628147  0.49891262  0.50680050  1
  Mo  Mo223  1  0.81386231  -0.00129131  0.60425502  1
  Mo  Mo224  1  0.39160404  0.80261504  0.19483340  1
  Mo  Mo225  1  -0.00891310  0.60394783  0.79714365  1
  Mo  Mo226  1  0.07893677  0.50912586  0.90769630  1
  Mo  Mo227  1  0.20125608  0.79676382  0.60051577  1
  Mo  Mo228  1  0.19125119  0.39892096  0.00875860  1
  Mo  Mo229  1  0.09597640  0.29850520  0.10224292  1
  Mo  Mo230  1  0.00324506  0.20506716  0.80843686  1
  Mo  Mo231  1  0.10518336  0.09088787  0.49397693  1
  Mo  Mo232  1  0.10169637  0.70564455  0.69898723  1
  Mo  Mo233  1  0.80376449  0.59587105  0.19691083  1
  Mo  Mo234  1  0.69978758  0.50866394  0.89969644  1
  Mo  Mo235  1  0.40210847  0.00922602  0.40568324  1
  Mo  Mo236  1  0.90310168  0.69506021  0.09638165  1
  Mo  Mo237  1  0.79757959  -0.00426712  -0.00709897  1
  Mo  Mo238  1  0.80144645  0.20363206  0.39746940  1
  Mo  Mo239  1  0.69422339  0.69399398  0.70597992  1
  Mo  Mo240  1  0.60007028  0.40045347  0.60533455  1
  Mo  Mo241  1  0.30521936  0.09930022  0.90656554  1
  Mo  Mo242  1  0.59984817  0.79594158  0.80266073  1
  Mo  Mo243  1  0.19502565  0.19516408  0.20202175  1
  Mo  Mo244  1  0.49788153  0.49986270  0.09961936  1
  Mo  Mo245  1  0.79915193  0.40276064  0.19634219  1
  Mo  Mo246  1  0.00147366  0.80114630  0.79523344  1
  Mo  Mo247  1  0.30727551  0.50921253  0.51043681  1
  Mo  Mo248  1  0.29765001  0.90872917  0.50624268  1
  Mo  Mo249  1  0.79984186  0.79871508  0.00001144  1
