# generated using pymatgen
data_HfZrTaTiMo
_symmetry_space_group_name_H-M   'P 1'
_cell_length_a   16.87631240
_cell_length_b   16.88161461
_cell_length_c   16.87280415
_cell_angle_alpha   90.04496656
_cell_angle_beta   89.98733806
_cell_angle_gamma   90.00905153
_symmetry_Int_Tables_number   1
_chemical_formula_structural   HfZrTaTiMo
_chemical_formula_sum   'Hf50 Zr50 Ta50 Ti50 Mo50'
_cell_volume   4807.05015652
_cell_formula_units_Z   50
loop_
 _symmetry_equiv_pos_site_id
 _symmetry_equiv_pos_as_xyz
  1  'x, y, z'
loop_
 _atom_site_type_symbol
 _atom_site_label
 _atom_site_symmetry_multiplicity
 _atom_site_fract_x
 _atom_site_fract_y
 _atom_site_fract_z
 _atom_site_occupancy
  Hf  Hf0  1  0.40380709  0.20374962  0.60279439  1
  Hf  Hf1  1  0.80851581  0.59624204  0.80620818  1
  Hf  Hf2  1  0.10629520  0.88380210  0.29605200  1
  Hf  Hf3  1  0.90487620  0.30764429  0.29406363  1
  Hf  Hf4  1  0.60581446  0.20706966  0.40148269  1
  Hf  Hf5  1  0.00575879  0.40716133  0.80074391  1
  Hf  Hf6  1  0.20208498  0.79061442  0.00141211  1
  Hf  Hf7  1  0.70247360  0.49185979  0.89508201  1
  Hf  Hf8  1  0.70531389  0.69822090  0.09253070  1
  Hf  Hf9  1  0.09944691  0.89431363  0.10006092  1
  Hf  Hf10  1  0.20060180  0.21156548  0.60024739  1
  Hf  Hf11  1  0.19460094  0.60004438  -0.00349264  1
  Hf  Hf12  1  0.59454377  0.60461556  0.80061474  1
  Hf  Hf13  1  0.89144710  0.48823377  0.69596288  1
  Hf  Hf14  1  0.20618309  -0.00453290  0.19512267  1
  Hf  Hf15  1  0.39624597  0.79698745  0.59828439  1
  Hf  Hf16  1  0.40486601  0.40687306  0.20067356  1
  Hf  Hf17  1  0.59892231  0.60117003  0.20171103  1
  Hf  Hf18  1  0.80046616  0.19609100  0.79635635  1
  Hf  Hf19  1  0.60468180  0.40103183  0.20337478  1
  Hf  Hf20  1  0.68999687  0.90822617  0.50782461  1
  Hf  Hf21  1  0.30461117  0.10818388  0.30061715  1
  Hf  Hf22  1  0.29975952  0.09744290  0.50109549  1
  Hf  Hf23  1  0.39780756  0.39603021  0.58515857  1
  Hf  Hf24  1  0.10993483  0.10778005  0.09195015  1
  Hf  Hf25  1  0.08819115  0.09872903  0.68776591  1
  Hf  Hf26  1  0.79969807  0.00725036  0.20345795  1
  Hf  Hf27  1  0.59803951  0.39559445  0.59460437  1
  Hf  Hf28  1  0.79628243  0.20205787  0.39309327  1
  Hf  Hf29  1  0.20192376  0.79329173  0.60143391  1
  Hf  Hf30  1  0.59306948  0.60300034  -0.00653257  1
  Hf  Hf31  1  0.69829644  0.10505954  0.09401996  1
  Hf  Hf32  1  0.81021151  0.00144709  -0.01330489  1
  Hf  Hf33  1  0.39798211  -0.00875566  0.19920543  1
  Hf  Hf34  1  0.00637267  0.20712366  0.40050307  1
  Hf  Hf35  1  0.89663768  0.30420078  0.51129107  1
  Hf  Hf36  1  0.31086497  0.29776120  0.30024926  1
  Hf  Hf37  1  0.00125979  0.79530600  0.40714837  1
  Hf  Hf38  1  0.80093798  0.79656564  0.40331965  1
  Hf  Hf39  1  0.70067652  0.09821194  0.51183144  1
  Hf  Hf40  1  0.90901507  0.49994645  0.30099636  1
  Hf  Hf41  1  0.90256757  0.11109421  0.10435295  1
  Hf  Hf42  1  0.60388749  0.79381348  0.60949776  1
  Hf  Hf43  1  0.90280322  0.69964710  0.70036493  1
  Hf  Hf44  1  0.69300091  0.09937049  0.90201937  1
  Hf  Hf45  1  0.90551385  0.10708311  0.51316139  1
  Hf  Hf46  1  0.89614359  0.31341062  0.89710465  1
  Hf  Hf47  1  0.09878478  0.50396648  0.49712374  1
  Hf  Hf48  1  0.58547953  0.80061300  -0.00485747  1
  Hf  Hf49  1  0.50401664  0.08806328  0.50690171  1
  Zr  Zr50  1  0.50509234  0.69388523  0.50137171  1
  Zr  Zr51  1  0.69624992  0.68038835  0.50007263  1
  Zr  Zr52  1  0.10739393  0.30841223  0.91665580  1
  Zr  Zr53  1  0.19311527  0.39640726  0.20230219  1
  Zr  Zr54  1  0.09669202  0.88865110  0.89311474  1
  Zr  Zr55  1  0.70589294  0.30837876  0.70448140  1
  Zr  Zr56  1  0.90849905  0.50136018  0.10818076  1
  Zr  Zr57  1  0.49907173  0.29699443  0.10718586  1
  Zr  Zr58  1  0.29743387  0.50465942  0.09531205  1
  Zr  Zr59  1  0.80435865  -0.00624996  0.61771649  1
  Zr  Zr60  1  0.49917104  0.49897991  0.69840405  1
  Zr  Zr61  1  0.70006596  0.89988195  0.30071594  1
  Zr  Zr62  1  0.19337579  0.40410043  0.79852697  1
  Zr  Zr63  1  0.29317635  0.50699159  0.29981177  1
  Zr  Zr64  1  0.10117717  0.09828817  0.30182405  1
  Zr  Zr65  1  0.00449253  0.00442982  -0.01155659  1
  Zr  Zr66  1  0.49877269  0.90160459  0.69991786  1
  Zr  Zr67  1  0.90585513  0.69068936  0.50533852  1
  Zr  Zr68  1  0.60108583  0.79489242  0.39593972  1
  Zr  Zr69  1  0.90775431  0.89923523  0.29754437  1
  Zr  Zr70  1  0.59597354  0.00167707  0.20221572  1
  Zr  Zr71  1  0.20549924  -0.00684992  0.39831405  1
  Zr  Zr72  1  0.09738492  0.09650343  0.50691837  1
  Zr  Zr73  1  0.28673884  0.70359918  0.28745451  1
  Zr  Zr74  1  0.30315574  0.30736965  0.70612895  1
  Zr  Zr75  1  0.90848241  0.68531986  0.29779826  1
  Zr  Zr76  1  0.51894838  0.50603965  0.48609577  1
  Zr  Zr77  1  0.69420378  0.30355338  0.89422827  1
  Zr  Zr78  1  0.69812270  0.50518108  0.31006968  1
  Zr  Zr79  1  0.69755774  0.90437355  0.08551113  1
  Zr  Zr80  1  0.59471376  0.20126396  0.60579819  1
  Zr  Zr81  1  0.70663400  0.70905898  0.89502306  1
  Zr  Zr82  1  0.19492336  -0.00098396  0.79615273  1
  Zr  Zr83  1  0.18933492  0.59593586  0.80058345  1
  Zr  Zr84  1  0.40070167  -0.01031407  0.00603195  1
  Zr  Zr85  1  0.40309910  0.20386442  -0.00447207  1
  Zr  Zr86  1  0.80674208  0.00279896  0.40404178  1
  Zr  Zr87  1  0.49559910  0.90030508  0.89079065  1
  Zr  Zr88  1  0.59679485  0.79923827  0.19441844  1
  Zr  Zr89  1  0.38466700  0.59735788  0.58923397  1
  Zr  Zr90  1  0.19118337  0.19898629  0.80068823  1
  Zr  Zr91  1  0.09932040  0.89749710  0.50620717  1
  Zr  Zr92  1  0.48901503  0.69622394  0.29821893  1
  Zr  Zr93  1  0.00175338  0.60465605  -0.00509354  1
  Zr  Zr94  1  0.29533958  0.10151050  0.90473288  1
  Zr  Zr95  1  -0.01221734  0.00006494  0.79798588  1
  Zr  Zr96  1  0.00115269  0.20328649  -0.00510600  1
  Zr  Zr97  1  0.90276055  0.89677188  0.09674420  1
  Zr  Zr98  1  0.50452037  0.10213647  0.09743084  1
  Zr  Zr99  1  0.48973425  0.11318998  0.30097554  1
  Ta  Ta100  1  0.40261689  0.40353056  -0.00181033  1
  Ta  Ta101  1  0.39487703  0.79380588  -0.00069077  1
  Ta  Ta102  1  0.00049546  0.59361152  0.60283971  1
  Ta  Ta103  1  0.19744132  0.20904677  0.20274513  1
  Ta  Ta104  1  0.80026072  0.40176814  0.40527656  1
  Ta  Ta105  1  0.39093057  0.79649120  0.40531235  1
  Ta  Ta106  1  0.20175423  0.39847060  0.40336622  1
  Ta  Ta107  1  0.50282877  0.30943896  0.30969513  1
  Ta  Ta108  1  0.39767237  0.59821070  0.80348299  1
  Ta  Ta109  1  0.90516848  0.30852452  0.10244313  1
  Ta  Ta110  1  0.48943161  0.89232545  0.30187251  1
  Ta  Ta111  1  0.81055069  0.59913246  -0.00303233  1
  Ta  Ta112  1  0.60020485  0.00472287  0.79417507  1
  Ta  Ta113  1  0.40028434  -0.01112285  0.40257227  1
  Ta  Ta114  1  0.79385583  0.39833808  0.19851354  1
  Ta  Ta115  1  0.80139820  0.40407951  0.00566348  1
  Ta  Ta116  1  0.01102547  0.21009637  0.20156838  1
  Ta  Ta117  1  0.69979793  0.90113978  0.89070932  1
  Ta  Ta118  1  0.09652189  0.50868684  0.29847680  1
  Ta  Ta119  1  0.29956289  0.49672923  0.90007885  1
  Ta  Ta120  1  0.20569719  -0.00343269  -0.00136917  1
  Ta  Ta121  1  0.40583042  0.19729289  0.80078980  1
  Ta  Ta122  1  0.70168944  0.50273999  0.09556251  1
  Ta  Ta123  1  -0.00131131  0.78681588  0.19415552  1
  Ta  Ta124  1  0.00484583  0.20812339  0.79468965  1
  Ta  Ta125  1  0.00372101  0.00494890  0.19976574  1
  Ta  Ta126  1  0.59847237  0.40201254  0.00494104  1
  Ta  Ta127  1  0.00190604  0.59243536  0.80243290  1
  Ta  Ta128  1  0.39545229  -0.00379930  0.60400156  1
  Ta  Ta129  1  0.30112375  0.30652709  0.90611587  1
  Ta  Ta130  1  0.50427825  0.30281643  0.71469830  1
  Ta  Ta131  1  0.29689288  0.50338661  0.69783502  1
  Ta  Ta132  1  0.48478579  0.69787999  0.09905631  1
  Ta  Ta133  1  0.29500183  0.69634523  0.70528520  1
  Ta  Ta134  1  0.19959035  0.21361537  0.40303634  1
  Ta  Ta135  1  0.61480269  0.20843212  0.21065751  1
  Ta  Ta136  1  0.29969847  0.88981354  0.89033882  1
  Ta  Ta137  1  0.10154882  0.69324093  0.50389961  1
  Ta  Ta138  1  0.39303483  0.59739187  0.39983964  1
  Ta  Ta139  1  0.09872267  0.30768181  0.50380647  1
  Ta  Ta140  1  0.80203962  0.80354843  0.60020847  1
  Ta  Ta141  1  0.50318817  0.30528844  0.89413460  1
  Ta  Ta142  1  0.80246367  0.78950416  0.19817715  1
  Ta  Ta143  1  0.30069906  0.70155078  0.89189010  1
  Ta  Ta144  1  0.90569932  0.10780574  0.29512272  1
  Ta  Ta145  1  0.79906923  0.21192527  0.00418517  1
  Ta  Ta146  1  0.49968447  0.50506318  0.09673522  1
  Ta  Ta147  1  0.29922379  0.89574817  0.50048099  1
  Ta  Ta148  1  0.29966077  0.11239408  0.10410416  1
  Ta  Ta149  1  0.70028212  0.49730378  0.69892641  1
  Ti  Ti150  1  0.49778434  0.49544787  0.90046628  1
  Ti  Ti151  1  0.30180999  0.09987328  0.69948349  1
  Ti  Ti152  1  0.81023793  0.79926087  -0.00535469  1
  Ti  Ti153  1  0.70761638  0.30409251  0.50473231  1
  Ti  Ti154  1  0.29796980  0.88561755  0.30084995  1
  Ti  Ti155  1  0.80620072  0.59267432  0.40492193  1
  Ti  Ti156  1  0.30242493  0.89133773  0.71049657  1
  Ti  Ti157  1  0.20718483  -0.00867613  0.60917005  1
  Ti  Ti158  1  0.59739652  0.00437152  0.38953776  1
  Ti  Ti159  1  0.79353807  0.20970662  0.20095902  1
  Ti  Ti160  1  0.09141888  0.88450165  0.70210388  1
  Ti  Ti161  1  0.39990355  0.00929817  0.79592682  1
  Ti  Ti162  1  0.00239886  0.40111658  0.60109160  1
  Ti  Ti163  1  0.90309909  0.88013063  0.71049269  1
  Ti  Ti164  1  0.40244041  0.21297511  0.41794964  1
  Ti  Ti165  1  0.80013920  0.60252971  0.19605481  1
  Ti  Ti166  1  0.60285096  0.21108088  0.00171008  1
  Ti  Ti167  1  0.39966260  0.40394647  0.80441172  1
  Ti  Ti168  1  0.90189093  0.11210612  0.89449006  1
  Ti  Ti169  1  0.50091286  0.90213997  0.49938679  1
  Ti  Ti170  1  0.90232973  0.11401792  0.69155586  1
  Ti  Ti171  1  0.10399118  0.50167486  0.68724998  1
  Ti  Ti172  1  0.29537420  0.29884404  0.09460628  1
  Ti  Ti173  1  0.09700144  0.70691406  0.88750743  1
  Ti  Ti174  1  0.90413227  0.71097397  0.89029147  1
  Ti  Ti175  1  0.69989527  0.89611817  0.70917636  1
  Ti  Ti176  1  0.09405500  0.70084448  0.69827243  1
  Ti  Ti177  1  0.80135276  0.59083944  0.59741499  1
  Ti  Ti178  1  0.09647539  0.49469645  0.10092997  1
  Ti  Ti179  1  0.39939988  0.60339338  -0.00854762  1
  Ti  Ti180  1  0.89662144  0.30115466  0.69465671  1
  Ti  Ti181  1  0.59587460  0.79348274  0.79803177  1
  Ti  Ti182  1  0.70919143  0.69594784  0.70052578  1
  Ti  Ti183  1  0.80276438  -0.00337956  0.79971987  1
  Ti  Ti184  1  0.69313574  0.10009452  0.70059870  1
  Ti  Ti185  1  -0.00433632  0.79114580  0.00118013  1
  Ti  Ti186  1  0.29923667  0.88168433  0.10542996  1
  Ti  Ti187  1  0.10348029  0.69150995  0.30157250  1
  Ti  Ti188  1  0.49159932  0.69515832  0.70152090  1
  Ti  Ti189  1  0.09723645  0.30886334  0.09768988  1
  Ti  Ti190  1  0.39585008  0.59924132  0.19593102  1
  Ti  Ti191  1  -0.01339788  -0.02135687  0.60256671  1
  Ti  Ti192  1  0.00388712  0.40127793  0.40158071  1
  Ti  Ti193  1  0.20570909  0.60283458  0.41069627  1
  Ti  Ti194  1  0.20624152  0.40356847  0.59205748  1
  Ti  Ti195  1  0.10546588  0.69575298  0.11325771  1
  Ti  Ti196  1  0.70150388  0.49774867  0.50204044  1
  Ti  Ti197  1  -0.00457926  -0.00297203  0.40222406  1
  Ti  Ti198  1  0.39947682  0.40789812  0.40545588  1
  Ti  Ti199  1  0.50962703  0.10180855  0.89744589  1
  Mo  Mo200  1  -0.00014970  0.40690109  0.00377232  1
  Mo  Mo201  1  0.00056830  0.79049648  0.79897950  1
  Mo  Mo202  1  0.90176530  0.49663004  0.50006429  1
  Mo  Mo203  1  0.49082440  0.89046498  0.10283767  1
  Mo  Mo204  1  0.59871163  0.59863167  0.38654687  1
  Mo  Mo205  1  0.59362592  0.40715606  0.80312738  1
  Mo  Mo206  1  0.30181272  0.69601244  0.09351280  1
  Mo  Mo207  1  0.29873670  0.30438986  0.49430583  1
  Mo  Mo208  1  0.60102087  -0.00355099  -0.01148669  1
  Mo  Mo209  1  0.48838825  0.69989086  0.89669251  1
  Mo  Mo210  1  0.10096316  0.30749790  0.30652268  1
  Mo  Mo211  1  0.70410925  0.10735804  0.29935151  1
  Mo  Mo212  1  0.39626839  0.78904697  0.79712055  1
  Mo  Mo213  1  0.00116694  0.21562292  0.60617631  1
  Mo  Mo214  1  0.00378744  0.39931530  0.20009197  1
  Mo  Mo215  1  0.01021800  0.60117284  0.19842994  1
  Mo  Mo216  1  0.20459357  0.20608896  0.00805067  1
  Mo  Mo217  1  0.59608395  -0.00460036  0.61327781  1
  Mo  Mo218  1  0.89903371  0.69997600  0.09745619  1
  Mo  Mo219  1  0.09634691  0.49996059  0.91144530  1
  Mo  Mo220  1  0.19924036  0.79447066  0.79400746  1
  Mo  Mo221  1  0.79978547  0.20000541  0.60635888  1
  Mo  Mo222  1  0.00270304  0.79445777  0.60583259  1
  Mo  Mo223  1  0.61284702  0.59882075  0.61459289  1
  Mo  Mo224  1  0.20496141  0.40367131  0.00464895  1
  Mo  Mo225  1  0.49404683  0.50104389  0.29907629  1
  Mo  Mo226  1  0.29286148  0.70012910  0.49469004  1
  Mo  Mo227  1  0.00926976  0.59673220  0.40422670  1
  Mo  Mo228  1  0.89338751  0.88486267  0.89287573  1
  Mo  Mo229  1  0.90032985  0.89525440  0.50905070  1
  Mo  Mo230  1  0.49403871  0.09880185  0.70630146  1
  Mo  Mo231  1  0.59250404  0.19374216  0.80105397  1
  Mo  Mo232  1  0.80371010  0.40084619  0.79881158  1
  Mo  Mo233  1  0.79541415  0.40224482  0.59430255  1
  Mo  Mo234  1  0.19501011  0.79491204  0.19647764  1
  Mo  Mo235  1  0.70421042  0.30473589  0.09884470  1
  Mo  Mo236  1  0.29105091  0.50047143  0.49713342  1
  Mo  Mo237  1  0.50034397  0.30534745  0.49229819  1
  Mo  Mo238  1  0.09985958  0.10496856  0.89513616  1
  Mo  Mo239  1  0.19099005  0.59864113  0.19424727  1
  Mo  Mo240  1  0.19371534  0.60037049  0.60426770  1
  Mo  Mo241  1  0.70470443  0.30793201  0.30229358  1
  Mo  Mo242  1  0.39496334  0.80057690  0.19428718  1
  Mo  Mo243  1  0.79840129  0.80315181  0.79532560  1
  Mo  Mo244  1  0.60704041  0.39493118  0.40118635  1
  Mo  Mo245  1  0.09387622  0.30802524  0.68798048  1
  Mo  Mo246  1  0.39532546  0.20872788  0.19884371  1
  Mo  Mo247  1  0.20115660  0.79101343  0.40355589  1
  Mo  Mo248  1  0.90111566  0.49883523  0.90239948  1
  Mo  Mo249  1  0.71403262  0.69320686  0.29667094  1
