# generated using pymatgen
data_HfZrTaTiMo
_symmetry_space_group_name_H-M   'P 1'
_cell_length_a   16.87936986
_cell_length_b   16.88818433
_cell_length_c   16.88995150
_cell_angle_alpha   89.97026646
_cell_angle_beta   89.96843636
_cell_angle_gamma   90.01298746
_symmetry_Int_Tables_number   1
_chemical_formula_structural   HfZrTaTiMo
_chemical_formula_sum   'Hf50 Zr50 Ta50 Ti50 Mo50'
_cell_volume   4814.68032386
_cell_formula_units_Z   50
loop_
 _symmetry_equiv_pos_site_id
 _symmetry_equiv_pos_as_xyz
  1  'x, y, z'
loop_
 _atom_site_type_symbol
 _atom_site_label
 _atom_site_symmetry_multiplicity
 _atom_site_fract_x
 _atom_site_fract_y
 _atom_site_fract_z
 _atom_site_occupancy
  Hf  Hf0  1  0.49581843  0.09834358  0.50395282  1
  Hf  Hf1  1  0.70581893  0.69899926  0.09175878  1
  Hf  Hf2  1  0.70820735  0.50084097  0.49062327  1
  Hf  Hf3  1  0.50096336  0.10056840  0.29816142  1
  Hf  Hf4  1  0.29783698  0.50185457  0.09688807  1
  Hf  Hf5  1  0.50467436  0.30131038  0.89668023  1
  Hf  Hf6  1  0.19646797  0.39906360  0.80683847  1
  Hf  Hf7  1  0.40221535  0.79951884  -0.00290262  1
  Hf  Hf8  1  0.09768483  0.70736192  0.09371311  1
  Hf  Hf9  1  0.09580716  0.48511875  0.50979337  1
  Hf  Hf10  1  0.71123806  0.89631235  0.08795497  1
  Hf  Hf11  1  0.59883289  -0.00460892  -0.00438609  1
  Hf  Hf12  1  0.10622327  0.50227172  0.09172403  1
  Hf  Hf13  1  0.60180503  -0.00334048  0.80351582  1
  Hf  Hf14  1  0.69740769  0.50138454  0.29698941  1
  Hf  Hf15  1  0.21042298  0.58436098  0.61417222  1
  Hf  Hf16  1  0.19379832  0.00164800  0.81033551  1
  Hf  Hf17  1  0.19511507  0.59336282  0.40171993  1
  Hf  Hf18  1  0.69731155  0.30370334  0.29051531  1
  Hf  Hf19  1  0.29204041  0.30922812  0.50688004  1
  Hf  Hf20  1  -0.00217606  -0.00485741  0.59829832  1
  Hf  Hf21  1  0.90626407  0.90510431  0.30433915  1
  Hf  Hf22  1  0.29705250  0.69814863  0.89690967  1
  Hf  Hf23  1  0.89482098  0.69525623  0.90223377  1
  Hf  Hf24  1  0.41090811  0.59514224  0.40594460  1
  Hf  Hf25  1  0.30399825  0.50128810  0.29519025  1
  Hf  Hf26  1  0.80456851  0.40166855  0.79514638  1
  Hf  Hf27  1  -0.01213580  0.20157368  0.40185558  1
  Hf  Hf28  1  0.09908075  0.28897354  0.11159592  1
  Hf  Hf29  1  0.29634876  0.29918705  0.09704167  1
  Hf  Hf30  1  0.39231171  0.19916576  0.39818057  1
  Hf  Hf31  1  -0.00062201  0.01085563  0.00371548  1
  Hf  Hf32  1  0.09880187  0.29857253  0.30083266  1
  Hf  Hf33  1  0.40626294  0.60507067  0.00069412  1
  Hf  Hf34  1  0.69595211  0.70161321  0.70029167  1
  Hf  Hf35  1  0.30857026  0.10014081  0.89599981  1
  Hf  Hf36  1  0.70910089  0.10600915  0.89951031  1
  Hf  Hf37  1  0.89908735  0.29202958  0.89350808  1
  Hf  Hf38  1  0.70405589  0.69845741  0.31198596  1
  Hf  Hf39  1  0.60593346  0.00177391  0.19710679  1
  Hf  Hf40  1  0.09983767  0.69072112  0.70933177  1
  Hf  Hf41  1  0.18750215  0.19532131  -0.00892831  1
  Hf  Hf42  1  0.81231409  0.79865758  0.19916902  1
  Hf  Hf43  1  0.09690658  0.09685401  0.49346844  1
  Hf  Hf44  1  0.20789278  -0.00350835  0.59257782  1
  Hf  Hf45  1  0.40195600  0.80815874  0.59164772  1
  Hf  Hf46  1  0.88675619  0.90381870  0.49358309  1
  Hf  Hf47  1  0.31436578  0.90398009  0.71646935  1
  Hf  Hf48  1  0.80768561  0.39570975  0.59629581  1
  Hf  Hf49  1  0.00849134  0.80835907  0.41057052  1
  Zr  Zr50  1  0.71288364  0.89709156  0.31100541  1
  Zr  Zr51  1  0.20200764  0.00832680  0.19815522  1
  Zr  Zr52  1  0.10128786  0.30279420  0.50441667  1
  Zr  Zr53  1  0.59378253  -0.01064890  0.39739671  1
  Zr  Zr54  1  0.10126349  0.69655305  0.50546731  1
  Zr  Zr55  1  0.39570627  0.19862688  0.20427445  1
  Zr  Zr56  1  0.49872172  0.10746657  0.90213846  1
  Zr  Zr57  1  0.60058587  -0.00182850  0.59629631  1
  Zr  Zr58  1  0.59810817  0.80592689  0.20262355  1
  Zr  Zr59  1  0.30573631  0.70182324  0.29992575  1
  Zr  Zr60  1  0.50426364  0.71498236  0.70569623  1
  Zr  Zr61  1  0.39763440  0.20252814  0.60560170  1
  Zr  Zr62  1  0.80957736  0.60322444  0.19803546  1
  Zr  Zr63  1  0.58736526  0.40275276  0.39303908  1
  Zr  Zr64  1  0.19856804  0.80933339  0.60053186  1
  Zr  Zr65  1  0.50697748  0.49110391  0.89826802  1
  Zr  Zr66  1  0.20290887  0.81341352  0.40108596  1
  Zr  Zr67  1  0.70664226  0.29024569  0.89375546  1
  Zr  Zr68  1  -0.00823951  0.40247603  0.19681705  1
  Zr  Zr69  1  0.49718256  0.30472336  0.51152333  1
  Zr  Zr70  1  0.70952339  0.50872123  0.90329360  1
  Zr  Zr71  1  0.59765544  0.60149331  0.59486866  1
  Zr  Zr72  1  0.89155786  0.89672634  0.69349127  1
  Zr  Zr73  1  0.08930740  0.89004930  0.91318589  1
  Zr  Zr74  1  0.88933021  0.89429628  0.91152364  1
  Zr  Zr75  1  0.00609642  0.39546507  -0.01033022  1
  Zr  Zr76  1  0.39881207  0.21352170  0.79235514  1
  Zr  Zr77  1  0.39875571  -0.00064555  0.19871885  1
  Zr  Zr78  1  0.20031556  0.80417137  0.80541501  1
  Zr  Zr79  1  0.19400341  0.60371839  0.20585252  1
  Zr  Zr80  1  0.09861951  0.11018590  0.29275518  1
  Zr  Zr81  1  0.89100931  0.49975694  0.31941678  1
  Zr  Zr82  1  -0.00650885  0.60102515  0.59834021  1
  Zr  Zr83  1  0.19674470  0.00279961  0.00377158  1
  Zr  Zr84  1  0.50197654  0.29256392  0.09852189  1
  Zr  Zr85  1  0.79909738  0.39716901  0.18733918  1
  Zr  Zr86  1  0.40293576  0.59644251  0.79946029  1
  Zr  Zr87  1  -0.00250852  0.79717406  0.79987202  1
  Zr  Zr88  1  -0.00140153  0.60239804  0.20247520  1
  Zr  Zr89  1  0.09890829  0.10043422  0.69862953  1
  Zr  Zr90  1  0.79470131  0.20038824  0.40058678  1
  Zr  Zr91  1  0.50517858  0.49878953  0.10569759  1
  Zr  Zr92  1  0.80732555  0.39661833  0.00337111  1
  Zr  Zr93  1  0.61391177  0.39380881  0.01007579  1
  Zr  Zr94  1  0.69117411  0.88813461  0.69509541  1
  Zr  Zr95  1  0.40107392  0.39744638  0.39099318  1
  Zr  Zr96  1  0.79961114  0.00228176  0.79369126  1
  Zr  Zr97  1  0.60180649  0.19931907  0.40007584  1
  Zr  Zr98  1  0.30520359  0.69711992  0.50095629  1
  Zr  Zr99  1  -0.01223724  0.20165143  0.60056679  1
  Ta  Ta100  1  0.90304537  0.70656980  0.31476321  1
  Ta  Ta101  1  0.20043508  0.40002268  0.20310696  1
  Ta  Ta102  1  0.89772848  0.09421330  0.30193793  1
  Ta  Ta103  1  0.09109461  0.49472763  0.71022489  1
  Ta  Ta104  1  0.70613470  0.10320033  0.09699924  1
  Ta  Ta105  1  0.79964234  0.19712280  0.59855318  1
  Ta  Ta106  1  0.59842531  0.80195664  -0.01121828  1
  Ta  Ta107  1  0.29056436  0.50383250  0.90483114  1
  Ta  Ta108  1  0.00036240  0.19373141  -0.00014383  1
  Ta  Ta109  1  0.49516302  0.09178957  0.70187562  1
  Ta  Ta110  1  0.60569885  0.39804517  0.60496370  1
  Ta  Ta111  1  0.20493677  0.00065383  0.40035101  1
  Ta  Ta112  1  0.80479427  0.00470921  0.19544481  1
  Ta  Ta113  1  0.20400934  0.19691572  0.60539076  1
  Ta  Ta114  1  0.59245566  0.59930403  0.39953557  1
  Ta  Ta115  1  0.80026073  0.60134709  0.59922989  1
  Ta  Ta116  1  0.90498919  0.50217578  0.70269151  1
  Ta  Ta117  1  0.50239456  0.70546169  0.30335419  1
  Ta  Ta118  1  0.79672550  0.79096947  0.59384570  1
  Ta  Ta119  1  0.00273310  0.19932803  0.80137612  1
  Ta  Ta120  1  0.39467157  0.39817984  -0.00322325  1
  Ta  Ta121  1  0.49954882  0.89973010  0.70271709  1
  Ta  Ta122  1  0.40038374  0.80217042  0.19912922  1
  Ta  Ta123  1  0.09479233  0.30816165  0.69888103  1
  Ta  Ta124  1  0.89343085  0.69766178  0.70148153  1
  Ta  Ta125  1  0.40300552  0.59314282  0.60677592  1
  Ta  Ta126  1  0.00365486  0.59735769  -0.00858096  1
  Ta  Ta127  1  0.89034786  0.08840014  0.49780484  1
  Ta  Ta128  1  0.09327553  0.89367661  0.10619310  1
  Ta  Ta129  1  0.41015907  0.81501151  0.39741151  1
  Ta  Ta130  1  0.59830778  0.61031922  -0.00440002  1
  Ta  Ta131  1  -0.00336286  0.00628710  0.19278575  1
  Ta  Ta132  1  -0.00612845  0.00726769  0.80221735  1
  Ta  Ta133  1  0.19394941  0.20429860  0.80082683  1
  Ta  Ta134  1  0.29836644  0.89528071  0.09857784  1
  Ta  Ta135  1  0.20063592  0.80673793  0.20212565  1
  Ta  Ta136  1  0.89471705  0.10888488  0.89732069  1
  Ta  Ta137  1  0.40619979  0.39637542  0.20445177  1
  Ta  Ta138  1  0.60224195  0.60430765  0.80564569  1
  Ta  Ta139  1  0.60120025  0.19944977  0.78470994  1
  Ta  Ta140  1  0.30339327  0.09579183  0.70372524  1
  Ta  Ta141  1  0.70388610  0.29908499  0.69825351  1
  Ta  Ta142  1  0.39067941  -0.00149148  0.40270107  1
  Ta  Ta143  1  0.50905593  0.49288383  0.70569304  1
  Ta  Ta144  1  0.39812587  -0.00583754  -0.00144248  1
  Ta  Ta145  1  0.30383573  0.69892000  0.70534438  1
  Ta  Ta146  1  0.70024025  0.50076894  0.70094667  1
  Ta  Ta147  1  0.60464090  0.20072137  0.60461118  1
  Ta  Ta148  1  0.49784932  0.89916655  0.09710139  1
  Ta  Ta149  1  0.69828518  0.51222795  0.09989206  1
  Ti  Ti150  1  0.09229062  0.71085261  0.29726297  1
  Ti  Ti151  1  0.70471788  0.70494787  0.90303018  1
  Ti  Ti152  1  0.39459293  0.40144415  0.79957117  1
  Ti  Ti153  1  0.70591091  0.08943257  0.49886863  1
  Ti  Ti154  1  0.49871631  0.49451652  0.51108613  1
  Ti  Ti155  1  -0.01516539  0.38967911  0.41003217  1
  Ti  Ti156  1  0.39617890  -0.00335484  0.59266999  1
  Ti  Ti157  1  0.09210617  0.49052935  0.30616323  1
  Ti  Ti158  1  0.50495028  0.70640828  0.10243145  1
  Ti  Ti159  1  0.28782032  0.30684735  0.69818878  1
  Ti  Ti160  1  0.20192158  0.40249841  0.39524045  1
  Ti  Ti161  1  0.90938380  0.89108148  0.09672914  1
  Ti  Ti162  1  0.30229871  0.90282979  0.29614367  1
  Ti  Ti163  1  0.59465248  0.60332040  0.20339035  1
  Ti  Ti164  1  0.29461573  0.70040531  0.10037694  1
  Ti  Ti165  1  0.79144194  0.80095483  0.80358804  1
  Ti  Ti166  1  -0.00292767  0.80034773  0.59826549  1
  Ti  Ti167  1  0.89781315  0.51284614  0.08438984  1
  Ti  Ti168  1  0.30215066  0.48991549  0.50834972  1
  Ti  Ti169  1  0.80000290  0.19169242  0.19940651  1
  Ti  Ti170  1  0.00203380  0.60122766  0.40218549  1
  Ti  Ti171  1  0.89458345  0.29840991  0.29707224  1
  Ti  Ti172  1  0.60867686  0.19929316  0.00463347  1
  Ti  Ti173  1  0.19514384  0.39643311  -0.00747628  1
  Ti  Ti174  1  0.30189165  0.29803788  0.90549002  1
  Ti  Ti175  1  0.28842931  0.29578304  0.29395279  1
  Ti  Ti176  1  0.70100462  0.89193718  0.49715089  1
  Ti  Ti177  1  0.39873117  0.40563333  0.61898582  1
  Ti  Ti178  1  0.40778934  0.60523407  0.20025764  1
  Ti  Ti179  1  0.90688812  0.70564013  0.08880924  1
  Ti  Ti180  1  0.90437663  0.30139033  0.70191573  1
  Ti  Ti181  1  0.89853687  0.49824383  0.49978501  1
  Ti  Ti182  1  0.30265984  0.10874900  0.09380682  1
  Ti  Ti183  1  0.49782635  0.10173373  0.09204738  1
  Ti  Ti184  1  0.91073514  0.50574669  0.89002863  1
  Ti  Ti185  1  0.70131279  0.30397392  0.49965246  1
  Ti  Ti186  1  0.50858188  0.71057020  0.49681926  1
  Ti  Ti187  1  0.20496429  0.80236918  0.00087354  1
  Ti  Ti188  1  0.80007208  0.60026879  0.79512808  1
  Ti  Ti189  1  0.89251746  0.69857346  0.49485797  1
  Ti  Ti190  1  0.69802086  0.70491846  0.49332617  1
  Ti  Ti191  1  0.10369875  0.68744802  0.90172978  1
  Ti  Ti192  1  0.80737975  0.00738940  0.00534898  1
  Ti  Ti193  1  0.60549280  0.19751531  0.19601527  1
  Ti  Ti194  1  0.70518847  0.10121094  0.69411500  1
  Ti  Ti195  1  0.21060941  0.19084067  0.40202278  1
  Ti  Ti196  1  0.09595489  0.90108050  0.70229172  1
  Ti  Ti197  1  0.89973444  0.28190861  0.10046154  1
  Ti  Ti198  1  0.49021844  0.89525934  0.88759039  1
  Ti  Ti199  1  0.09422072  0.90896460  0.29689509  1
  Mo  Mo200  1  0.00240369  0.00263699  0.39613518  1
  Mo  Mo201  1  0.49784568  0.90178667  0.50005399  1
  Mo  Mo202  1  0.60076506  0.80251560  0.58350817  1
  Mo  Mo203  1  -0.01567370  0.19743406  0.20117829  1
  Mo  Mo204  1  0.09021261  0.10406314  0.89510783  1
  Mo  Mo205  1  0.59662618  0.79628151  0.40285992  1
  Mo  Mo206  1  0.00374667  0.80455177  0.20316311  1
  Mo  Mo207  1  0.80582824  0.19610309  0.01095034  1
  Mo  Mo208  1  0.80167190  0.79745759  0.00152503  1
  Mo  Mo209  1  0.30727871  0.49531632  0.70936183  1
  Mo  Mo210  1  0.79389052  0.00461697  0.39592451  1
  Mo  Mo211  1  0.80401917  0.79524551  0.40647224  1
  Mo  Mo212  1  0.39615946  0.20130387  -0.00112979  1
  Mo  Mo213  1  0.80406409  0.39372928  0.40272996  1
  Mo  Mo214  1  -0.00602960  0.40136285  0.60439758  1
  Mo  Mo215  1  0.59837698  0.40003426  0.19899300  1
  Mo  Mo216  1  0.30224367  0.90374806  0.49402361  1
  Mo  Mo217  1  0.19961587  0.60362961  -0.00292416  1
  Mo  Mo218  1  0.89762465  0.10230615  0.10305708  1
  Mo  Mo219  1  0.40608698  -0.00089097  0.80224588  1
  Mo  Mo220  1  0.09243397  0.10293053  0.10248721  1
  Mo  Mo221  1  0.70305505  0.28424483  0.10433022  1
  Mo  Mo222  1  0.40247311  0.80037650  0.80195909  1
  Mo  Mo223  1  0.80502864  0.60068417  -0.00328650  1
  Mo  Mo224  1  0.60834795  0.39797916  0.79150065  1
  Mo  Mo225  1  0.09702408  0.90556766  0.49897708  1
  Mo  Mo226  1  0.19861890  0.59265698  0.80295720  1
  Mo  Mo227  1  -0.00039398  0.39783028  0.79748082  1
  Mo  Mo228  1  0.19994896  0.39940600  0.61294372  1
  Mo  Mo229  1  0.30569382  0.90100893  0.90806021  1
  Mo  Mo230  1  0.60027646  0.79984291  0.81649212  1
  Mo  Mo231  1  0.79264556  0.00166507  0.59404129  1
  Mo  Mo232  1  -0.00005055  0.79182831  0.00246668  1
  Mo  Mo233  1  0.50508402  0.70292966  0.89911609  1
  Mo  Mo234  1  0.80069134  0.60440783  0.41056577  1
  Mo  Mo235  1  0.51123816  0.30873187  0.70297990  1
  Mo  Mo236  1  0.20468197  0.20231970  0.19904864  1
  Mo  Mo237  1  0.50031664  0.51144842  0.28974565  1
  Mo  Mo238  1  0.89207884  0.30026244  0.50007742  1
  Mo  Mo239  1  0.49402561  0.90013577  0.29656836  1
  Mo  Mo240  1  0.89554730  0.10182434  0.69876802  1
  Mo  Mo241  1  0.80529514  0.19775442  0.77930262  1
  Mo  Mo242  1  0.70063975  0.89524619  0.90097350  1
  Mo  Mo243  1  0.09476102  0.29802164  0.89478577  1
  Mo  Mo244  1  0.29736435  0.10049511  0.50374102  1
  Mo  Mo245  1  0.10228959  0.50422283  0.89717335  1
  Mo  Mo246  1  0.70507916  0.09974337  0.28805680  1
  Mo  Mo247  1  0.29617329  0.09964306  0.30782184  1
  Mo  Mo248  1  -0.00123067  0.59651157  0.80302309  1
  Mo  Mo249  1  0.50585056  0.29856542  0.28684574  1
