# generated using pymatgen
data_HfZrTaTiMo
_symmetry_space_group_name_H-M   'P 1'
_cell_length_a   16.87987571
_cell_length_b   16.88513445
_cell_length_c   16.87363566
_cell_angle_alpha   89.92423352
_cell_angle_beta   90.01748106
_cell_angle_gamma   90.04864656
_symmetry_Int_Tables_number   1
_chemical_formula_structural   HfZrTaTiMo
_chemical_formula_sum   'Hf50 Zr50 Ta50 Ti50 Mo50'
_cell_volume   4809.30011081
_cell_formula_units_Z   50
loop_
 _symmetry_equiv_pos_site_id
 _symmetry_equiv_pos_as_xyz
  1  'x, y, z'
loop_
 _atom_site_type_symbol
 _atom_site_label
 _atom_site_symmetry_multiplicity
 _atom_site_fract_x
 _atom_site_fract_y
 _atom_site_fract_z
 _atom_site_occupancy
  Hf  Hf0  1  0.19599264  0.61507910  0.79842361  1
  Hf  Hf1  1  0.88779376  0.89789242  0.70315205  1
  Hf  Hf2  1  0.30273126  0.30353471  0.49904187  1
  Hf  Hf3  1  0.40940113  0.18686244  0.40480089  1
  Hf  Hf4  1  0.29835348  0.70603975  0.29806854  1
  Hf  Hf5  1  0.50240208  0.31065075  0.49105997  1
  Hf  Hf6  1  0.10303299  0.89451191  0.29576085  1
  Hf  Hf7  1  0.40670058  0.00513968  0.61964641  1
  Hf  Hf8  1  0.40294672  0.59757287  0.60411817  1
  Hf  Hf9  1  0.40339567  0.39080237  0.80271205  1
  Hf  Hf10  1  -0.00120134  0.79572055  0.39759118  1
  Hf  Hf11  1  0.30240526  0.89976502  0.89668081  1
  Hf  Hf12  1  0.70601503  0.50398388  0.30064259  1
  Hf  Hf13  1  0.78551088  0.18513984  -0.02196519  1
  Hf  Hf14  1  0.89099268  0.88625411  0.10712247  1
  Hf  Hf15  1  0.90792653  0.50871354  0.10308092  1
  Hf  Hf16  1  0.50016529  0.10277841  0.09805225  1
  Hf  Hf17  1  0.09022861  0.70134602  0.10200008  1
  Hf  Hf18  1  0.60019267  0.59383020  0.19503499  1
  Hf  Hf19  1  0.91587438  0.30059505  0.49789522  1
  Hf  Hf20  1  -0.00732447  0.00407281  0.80066137  1
  Hf  Hf21  1  0.30135104  0.48988378  0.08895941  1
  Hf  Hf22  1  0.00067830  0.60393116  0.60685104  1
  Hf  Hf23  1  0.09856434  0.50318050  0.10294487  1
  Hf  Hf24  1  0.60903159  -0.00022276  -0.00138933  1
  Hf  Hf25  1  0.50401451  0.69999032  0.09133346  1
  Hf  Hf26  1  0.71260046  0.49760633  0.09604726  1
  Hf  Hf27  1  0.70026117  0.29683429  0.09961027  1
  Hf  Hf28  1  0.19853597  0.19282362  0.40829440  1
  Hf  Hf29  1  0.89235484  0.11233343  0.10205123  1
  Hf  Hf30  1  0.29513179  0.49371601  0.30571139  1
  Hf  Hf31  1  0.48922216  0.10090766  0.90040578  1
  Hf  Hf32  1  0.19732259  0.39171360  0.60108622  1
  Hf  Hf33  1  0.69688853  0.90024215  0.69747850  1
  Hf  Hf34  1  0.20607433  0.60589041  0.19617480  1
  Hf  Hf35  1  0.10327947  0.89567496  0.90300417  1
  Hf  Hf36  1  0.09731629  0.49335226  0.48922942  1
  Hf  Hf37  1  0.20798338  0.61202678  0.00139499  1
  Hf  Hf38  1  0.90390346  0.10661234  0.50409604  1
  Hf  Hf39  1  0.60061376  0.20282670  0.79965062  1
  Hf  Hf40  1  0.88798889  0.30366948  0.08776695  1
  Hf  Hf41  1  0.00208420  0.21612517  0.20372472  1
  Hf  Hf42  1  0.10203612  0.89438874  0.70483846  1
  Hf  Hf43  1  0.40271896  0.59577702  0.40832346  1
  Hf  Hf44  1  0.58369250  0.00210485  0.79001686  1
  Hf  Hf45  1  0.59158303  0.59789297  0.80205188  1
  Hf  Hf46  1  0.00635758  0.20603031  -0.00549484  1
  Hf  Hf47  1  0.40627542  0.39561714  0.19136981  1
  Hf  Hf48  1  0.79346317  0.79785780  0.59266073  1
  Hf  Hf49  1  0.10000077  0.89238517  0.10083407  1
  Zr  Zr50  1  -0.00990334  0.79569528  0.80381799  1
  Zr  Zr51  1  0.00541426  0.39210125  0.79900333  1
  Zr  Zr52  1  0.69551941  0.89031748  0.89200931  1
  Zr  Zr53  1  0.49922395  0.48727006  0.31104742  1
  Zr  Zr54  1  0.88337454  0.69693819  0.70114756  1
  Zr  Zr55  1  0.79850121  0.01552536  0.80849894  1
  Zr  Zr56  1  0.00530646  0.39475937  -0.00085941  1
  Zr  Zr57  1  0.79629317  0.00173652  0.40583254  1
  Zr  Zr58  1  0.59374223  0.40325678  -0.00355842  1
  Zr  Zr59  1  -0.00436663  0.60244811  0.80793129  1
  Zr  Zr60  1  0.60435370  0.80557169  0.40316397  1
  Zr  Zr61  1  0.90026700  0.10629983  0.30784154  1
  Zr  Zr62  1  0.51190500  0.29227440  0.30170715  1
  Zr  Zr63  1  0.79775294  -0.00202071  -0.00365977  1
  Zr  Zr64  1  0.70820100  0.31716130  0.89249232  1
  Zr  Zr65  1  0.51101667  0.69489799  0.50943882  1
  Zr  Zr66  1  0.10362929  0.10211974  0.09677826  1
  Zr  Zr67  1  0.20576548  0.01086957  0.79659651  1
  Zr  Zr68  1  0.29931991  0.49927671  0.70685701  1
  Zr  Zr69  1  0.80113274  0.40026081  0.40214352  1
  Zr  Zr70  1  0.09645884  0.69467904  0.49589038  1
  Zr  Zr71  1  0.79783643  0.38799038  0.60033291  1
  Zr  Zr72  1  0.30471243  0.10088369  0.09596773  1
  Zr  Zr73  1  0.81078415  0.39500133  0.21331035  1
  Zr  Zr74  1  0.29933725  0.90398728  0.28998262  1
  Zr  Zr75  1  0.80236716  0.60400507  -0.00666773  1
  Zr  Zr76  1  0.30203709  0.09812194  0.51055597  1
  Zr  Zr77  1  0.10781140  0.49759341  0.90659813  1
  Zr  Zr78  1  0.70414165  0.89604512  0.29992052  1
  Zr  Zr79  1  0.30681452  0.30483528  0.30772159  1
  Zr  Zr80  1  0.40009103  0.80403745  0.40495965  1
  Zr  Zr81  1  -0.00686861  -0.00015984  0.20088751  1
  Zr  Zr82  1  0.69742355  0.48937899  0.71017411  1
  Zr  Zr83  1  -0.00044677  0.00533060  0.60243107  1
  Zr  Zr84  1  0.50326083  0.30731405  0.69431667  1
  Zr  Zr85  1  0.78970027  -0.00011355  0.19377306  1
  Zr  Zr86  1  0.50458054  0.69721618  0.30074058  1
  Zr  Zr87  1  0.49982417  0.09542898  0.28632475  1
  Zr  Zr88  1  -0.01126641  -0.00185592  -0.00869602  1
  Zr  Zr89  1  0.40462029  0.80210080  0.60575275  1
  Zr  Zr90  1  0.60478156  0.80319495  0.19139077  1
  Zr  Zr91  1  0.10370757  0.49563814  0.70214586  1
  Zr  Zr92  1  0.68609913  0.11409408  0.29716321  1
  Zr  Zr93  1  0.30093177  0.49268263  0.90060249  1
  Zr  Zr94  1  0.40196126  -0.00373469  0.40980374  1
  Zr  Zr95  1  0.10700444  0.31552921  0.31839230  1
  Zr  Zr96  1  0.19602498  0.79571740  0.60375367  1
  Zr  Zr97  1  0.60237855  0.20334713  0.59804880  1
  Zr  Zr98  1  0.10397688  0.09586141  0.30034536  1
  Zr  Zr99  1  0.79055249  0.58712412  0.59380849  1
  Ta  Ta100  1  0.79910673  0.20225809  0.60116783  1
  Ta  Ta101  1  0.59476985  0.00535048  0.40794067  1
  Ta  Ta102  1  -0.00086939  0.40043976  0.20865155  1
  Ta  Ta103  1  0.50850222  0.90461447  0.50946796  1
  Ta  Ta104  1  0.69787669  0.10370661  0.50140629  1
  Ta  Ta105  1  0.60408213  0.59793779  -0.00650360  1
  Ta  Ta106  1  0.19807252  -0.00284449  0.40916631  1
  Ta  Ta107  1  0.29515109  0.69644647  0.50274346  1
  Ta  Ta108  1  0.48980293  0.50185577  0.90606062  1
  Ta  Ta109  1  0.30145118  0.70678474  0.70582347  1
  Ta  Ta110  1  0.71233047  0.69424298  0.30316884  1
  Ta  Ta111  1  0.09592961  0.50656884  0.30131115  1
  Ta  Ta112  1  0.19671111  0.00437435  0.60385999  1
  Ta  Ta113  1  0.60806261  0.58693962  0.41174814  1
  Ta  Ta114  1  0.40838886  0.80214585  0.79875507  1
  Ta  Ta115  1  0.20949361  0.79785416  0.00513776  1
  Ta  Ta116  1  0.69054042  0.69638897  0.69861748  1
  Ta  Ta117  1  0.89032816  0.49168118  0.89868046  1
  Ta  Ta118  1  0.09403985  0.11181215  0.70388397  1
  Ta  Ta119  1  0.39845428  -0.00762200  -0.00061975  1
  Ta  Ta120  1  0.30225534  0.09539820  0.29030304  1
  Ta  Ta121  1  0.58884113  0.79471663  0.79357962  1
  Ta  Ta122  1  0.89315096  0.88869042  0.30463036  1
  Ta  Ta123  1  0.89790617  0.49200929  0.70340315  1
  Ta  Ta124  1  0.40077795  0.40708969  0.59719456  1
  Ta  Ta125  1  0.69547184  0.70206623  0.89496247  1
  Ta  Ta126  1  0.19960902  0.80256340  0.40326820  1
  Ta  Ta127  1  0.39694532  0.20491986  0.19341787  1
  Ta  Ta128  1  0.79119451  0.21312401  0.40493026  1
  Ta  Ta129  1  0.89357263  0.69453284  0.48876927  1
  Ta  Ta130  1  0.19241574  0.19684745  0.60190569  1
  Ta  Ta131  1  0.10549566  0.10797581  0.89496893  1
  Ta  Ta132  1  0.70050785  0.10109627  0.69431143  1
  Ta  Ta133  1  0.39994459  0.79939618  0.19010011  1
  Ta  Ta134  1  0.09676654  0.90065347  0.50090337  1
  Ta  Ta135  1  0.30100473  0.90049983  0.70878680  1
  Ta  Ta136  1  0.39878708  0.60017473  0.19309826  1
  Ta  Ta137  1  0.90793403  0.50279376  0.49481324  1
  Ta  Ta138  1  0.70141099  0.69368543  0.49648905  1
  Ta  Ta139  1  0.89512793  0.30109082  0.89136620  1
  Ta  Ta140  1  0.39998747  0.80139709  0.00051540  1
  Ta  Ta141  1  0.20369381  -0.00017347  -0.00137082  1
  Ta  Ta142  1  0.20587937  0.20670272  0.20011994  1
  Ta  Ta143  1  0.09938594  0.70709745  0.90742286  1
  Ta  Ta144  1  -0.01593053  0.79245218  -0.00483978  1
  Ta  Ta145  1  0.60192656  0.39765815  0.19775234  1
  Ta  Ta146  1  0.79982684  0.79531059  -0.00590579  1
  Ta  Ta147  1  0.89927894  0.89484784  0.49780855  1
  Ta  Ta148  1  0.70614767  0.70174012  0.09963298  1
  Ta  Ta149  1  0.49797449  0.90689171  0.29022330  1
  Ti  Ti150  1  0.49779726  0.89720625  0.90212488  1
  Ti  Ti151  1  0.20264999  0.20093118  -0.00300372  1
  Ti  Ti152  1  0.20231013  0.00214813  0.19409415  1
  Ti  Ti153  1  0.30173717  0.10375950  0.89813698  1
  Ti  Ti154  1  0.11175200  0.30500457  0.09934441  1
  Ti  Ti155  1  0.29901030  0.89771317  0.10203291  1
  Ti  Ti156  1  0.29462234  0.29924429  0.89831439  1
  Ti  Ti157  1  0.20032369  0.60416951  0.39937747  1
  Ti  Ti158  1  0.29676087  0.30283944  0.09083940  1
  Ti  Ti159  1  0.90975893  0.12204924  0.88383148  1
  Ti  Ti160  1  0.39699248  0.60832955  -0.00056807  1
  Ti  Ti161  1  0.19912847  0.39819531  0.19945608  1
  Ti  Ti162  1  0.90622140  0.28935382  0.70281614  1
  Ti  Ti163  1  0.60393853  -0.00783041  0.18870972  1
  Ti  Ti164  1  0.40454450  0.19789099  0.60715394  1
  Ti  Ti165  1  0.79362684  0.59523875  0.80510880  1
  Ti  Ti166  1  0.10245564  0.29071574  0.70387083  1
  Ti  Ti167  1  0.49387886  0.50098051  0.09030914  1
  Ti  Ti168  1  0.59156352  0.40199033  0.80722807  1
  Ti  Ti169  1  0.29543852  0.89943651  0.50975455  1
  Ti  Ti170  1  0.01344530  0.19974205  0.40922872  1
  Ti  Ti171  1  0.50037963  0.89925307  0.09377999  1
  Ti  Ti172  1  0.39987815  0.21211329  -0.00610831  1
  Ti  Ti173  1  0.00324409  -0.00275872  0.40439332  1
  Ti  Ti174  1  0.29576773  0.29288978  0.70275788  1
  Ti  Ti175  1  0.60806948  0.40927509  0.58733122  1
  Ti  Ti176  1  0.29499103  0.49916679  0.49883283  1
  Ti  Ti177  1  -0.00347862  0.79449746  0.60096192  1
  Ti  Ti178  1  0.50379378  0.49919709  0.69599456  1
  Ti  Ti179  1  0.19909231  0.60349596  0.60469581  1
  Ti  Ti180  1  0.90871522  0.51535573  0.30384858  1
  Ti  Ti181  1  0.39770841  0.19484581  0.79194279  1
  Ti  Ti182  1  0.89781955  0.69293646  0.10943970  1
  Ti  Ti183  1  0.50099304  0.70351007  0.90508144  1
  Ti  Ti184  1  0.50190618  0.29532138  0.09257616  1
  Ti  Ti185  1  0.00382542  0.39514037  0.60241891  1
  Ti  Ti186  1  0.80109716  0.00733363  0.60038287  1
  Ti  Ti187  1  0.59941271  0.20252084  -0.01096292  1
  Ti  Ti188  1  0.11514976  0.29432302  0.88935469  1
  Ti  Ti189  1  0.59322188  0.00836443  0.60210873  1
  Ti  Ti190  1  0.59814191  0.79836577  0.60669663  1
  Ti  Ti191  1  0.40638715  0.60866757  0.79796183  1
  Ti  Ti192  1  0.89169218  0.69382059  0.29961790  1
  Ti  Ti193  1  0.79315976  0.20397803  0.78653885  1
  Ti  Ti194  1  0.69190089  0.11501072  0.10692745  1
  Ti  Ti195  1  0.79834960  0.21435949  0.21793980  1
  Ti  Ti196  1  0.30497169  0.70984255  0.89538061  1
  Ti  Ti197  1  0.69745598  0.90505601  0.50484297  1
  Ti  Ti198  1  -0.00726767  0.79236219  0.20656226  1
  Ti  Ti199  1  0.09889233  0.69635183  0.29635581  1
  Mo  Mo200  1  0.60115163  0.59417425  0.60261440  1
  Mo  Mo201  1  0.20600859  0.38390654  0.79919221  1
  Mo  Mo202  1  0.70140202  0.49655326  0.49714623  1
  Mo  Mo203  1  0.50103366  0.89647774  0.70055230  1
  Mo  Mo204  1  0.50697353  0.49653923  0.50741796  1
  Mo  Mo205  1  0.80170345  0.79635144  0.40230420  1
  Mo  Mo206  1  0.10408166  0.70314126  0.70354151  1
  Mo  Mo207  1  0.69153353  0.30410549  0.30127495  1
  Mo  Mo208  1  -0.00380003  0.60830619  -0.00143100  1
  Mo  Mo209  1  0.80306032  0.40471370  -0.00675341  1
  Mo  Mo210  1  0.49219649  0.29753335  0.90127074  1
  Mo  Mo211  1  0.69640554  0.29898833  0.49664484  1
  Mo  Mo212  1  0.40287414  -0.00722725  0.18671582  1
  Mo  Mo213  1  0.60396871  0.19737952  0.40682864  1
  Mo  Mo214  1  0.20047095  0.79932849  0.19774884  1
  Mo  Mo215  1  0.89424503  0.69362379  0.90003484  1
  Mo  Mo216  1  0.69538373  0.50475807  0.89662381  1
  Mo  Mo217  1  0.00534899  0.20415503  0.79879483  1
  Mo  Mo218  1  0.09968173  0.09481069  0.50590882  1
  Mo  Mo219  1  0.50575026  0.09829322  0.50788766  1
  Mo  Mo220  1  0.89331844  0.88744017  0.90025360  1
  Mo  Mo221  1  0.39888861  -0.00125794  0.80521295  1
  Mo  Mo222  1  -0.00242423  0.40667624  0.39626080  1
  Mo  Mo223  1  0.91212493  0.29670172  0.31140005  1
  Mo  Mo224  1  0.40177038  0.38718690  -0.00283231  1
  Mo  Mo225  1  0.40006212  0.40765690  0.41129383  1
  Mo  Mo226  1  -0.00005935  0.60270361  0.20796085  1
  Mo  Mo227  1  0.80261290  0.59952007  0.39991152  1
  Mo  Mo228  1  0.20564122  0.20036727  0.79700374  1
  Mo  Mo229  1  0.70168307  0.29958514  0.69653505  1
  Mo  Mo230  1  -0.00237073  0.60304367  0.39479853  1
  Mo  Mo231  1  0.49574242  0.10731388  0.70155359  1
  Mo  Mo232  1  0.80967973  0.39686271  0.79393124  1
  Mo  Mo233  1  0.30882331  0.70569580  0.09959842  1
  Mo  Mo234  1  0.68719161  0.10198550  0.88772522  1
  Mo  Mo235  1  0.80194816  0.79068484  0.19861072  1
  Mo  Mo236  1  0.10010347  0.29833087  0.50842639  1
  Mo  Mo237  1  0.20172218  0.40830253  0.40760996  1
  Mo  Mo238  1  0.59592862  0.20987603  0.18638056  1
  Mo  Mo239  1  0.20629442  0.79721160  0.80580938  1
  Mo  Mo240  1  0.69840548  0.88633928  0.09202916  1
  Mo  Mo241  1  0.59840602  0.79601552  -0.00643704  1
  Mo  Mo242  1  0.00331536  0.20415825  0.60558167  1
  Mo  Mo243  1  0.78848956  0.78950874  0.79928974  1
  Mo  Mo244  1  0.20183494  0.38469016  -0.00084206  1
  Mo  Mo245  1  0.29797704  0.10862846  0.70367069  1
  Mo  Mo246  1  0.61021030  0.39859568  0.40127688  1
  Mo  Mo247  1  0.49851896  0.69707656  0.70499027  1
  Mo  Mo248  1  0.80477835  0.60461265  0.20164212  1
  Mo  Mo249  1  0.89521397  0.11119367  0.69762434  1
