# generated using pymatgen
data_HfZrTaTiMo
_symmetry_space_group_name_H-M   'P 1'
_cell_length_a   16.87871871
_cell_length_b   16.88420800
_cell_length_c   16.88586323
_cell_angle_alpha   89.98923206
_cell_angle_beta   89.99385404
_cell_angle_gamma   90.00194995
_symmetry_Int_Tables_number   1
_chemical_formula_structural   HfZrTaTiMo
_chemical_formula_sum   'Hf50 Zr50 Ta50 Ti50 Mo50'
_cell_volume   4812.19731124
_cell_formula_units_Z   50
loop_
 _symmetry_equiv_pos_site_id
 _symmetry_equiv_pos_as_xyz
  1  'x, y, z'
loop_
 _atom_site_type_symbol
 _atom_site_label
 _atom_site_symmetry_multiplicity
 _atom_site_fract_x
 _atom_site_fract_y
 _atom_site_fract_z
 _atom_site_occupancy
  Hf  Hf0  1  0.89038997  0.50045233  0.29547153  1
  Hf  Hf1  1  0.59488521  0.18425672  0.19691108  1
  Hf  Hf2  1  0.50271601  0.31078026  0.10658554  1
  Hf  Hf3  1  0.10933425  0.30121100  0.09347870  1
  Hf  Hf4  1  0.78898046  0.61129260  0.19347930  1
  Hf  Hf5  1  0.70345116  0.49862542  0.90884149  1
  Hf  Hf6  1  0.79075949  0.19298528  0.19764679  1
  Hf  Hf7  1  0.89538230  0.51202773  0.49791478  1
  Hf  Hf8  1  0.50357325  0.71180607  0.90904461  1
  Hf  Hf9  1  0.40181051  0.80253542  0.21217570  1
  Hf  Hf10  1  0.70353508  0.50067561  0.70087330  1
  Hf  Hf11  1  0.79609260  0.61356725  0.60641663  1
  Hf  Hf12  1  0.29977168  0.09558175  0.29487357  1
  Hf  Hf13  1  0.30441939  0.70175371  0.09332003  1
  Hf  Hf14  1  0.10543493  0.30050664  0.90324297  1
  Hf  Hf15  1  0.60781181  0.80047356  0.20654780  1
  Hf  Hf16  1  0.49580922  0.49999022  0.69914302  1
  Hf  Hf17  1  0.90277197  0.89567588  0.48799832  1
  Hf  Hf18  1  0.60405514  0.60130557  0.80805582  1
  Hf  Hf19  1  -0.00051159  -0.00034941  0.60414610  1
  Hf  Hf20  1  0.00026894  0.60196049  -0.00383744  1
  Hf  Hf21  1  0.30165119  0.29289976  0.49188677  1
  Hf  Hf22  1  0.59760190  0.39952239  0.59947607  1
  Hf  Hf23  1  0.69758493  0.30590511  0.09628705  1
  Hf  Hf24  1  0.69830542  0.51308250  0.49651290  1
  Hf  Hf25  1  0.60100510  0.39780042  0.80364976  1
  Hf  Hf26  1  0.19905888  -0.00397586  0.60256880  1
  Hf  Hf27  1  0.69576675  0.70917689  0.91903854  1
  Hf  Hf28  1  0.39598820  0.20256616  0.00613414  1
  Hf  Hf29  1  -0.00573972  0.39530991  0.59801948  1
  Hf  Hf30  1  0.09622686  0.50517203  0.70817042  1
  Hf  Hf31  1  0.30762581  0.90600978  0.49645883  1
  Hf  Hf32  1  0.30702916  0.89908134  0.90271122  1
  Hf  Hf33  1  0.40042387  0.18945890  0.60338317  1
  Hf  Hf34  1  0.69011680  0.30643536  0.29153706  1
  Hf  Hf35  1  0.69828267  0.09265214  0.49109372  1
  Hf  Hf36  1  0.79791647  0.39632452  0.40650834  1
  Hf  Hf37  1  0.20526645  0.60569783  0.20578197  1
  Hf  Hf38  1  0.89570239  0.09498087  0.30336470  1
  Hf  Hf39  1  0.00825276  0.19311771  0.39235232  1
  Hf  Hf40  1  0.30473206  0.70512147  0.49947491  1
  Hf  Hf41  1  0.78469202  -0.00644152  0.19929757  1
  Hf  Hf42  1  0.00167106  0.60003009  0.19484521  1
  Hf  Hf43  1  0.58979422  0.40695405  0.40135095  1
  Hf  Hf44  1  0.30089652  0.49763450  0.10167465  1
  Hf  Hf45  1  0.00711033  0.00451393  0.20651198  1
  Hf  Hf46  1  0.89928124  0.70679953  0.49237982  1
  Hf  Hf47  1  0.90003059  0.89533079  0.30216010  1
  Hf  Hf48  1  0.80699109  -0.00641709  0.80096691  1
  Hf  Hf49  1  -0.00705569  0.00045283  0.80198518  1
  Zr  Zr50  1  0.29643577  0.70239596  0.89916364  1
  Zr  Zr51  1  0.09462812  0.70898055  0.50009355  1
  Zr  Zr52  1  0.59018258  -0.00741427  0.59675539  1
  Zr  Zr53  1  0.69677370  0.29053471  0.49992461  1
  Zr  Zr54  1  0.20685920  0.40654795  0.59547283  1
  Zr  Zr55  1  0.31051449  0.90882330  0.09791183  1
  Zr  Zr56  1  0.51345091  0.70203279  0.09707949  1
  Zr  Zr57  1  0.89806236  0.71238358  0.09080120  1
  Zr  Zr58  1  0.19357574  0.79584921  -0.00187857  1
  Zr  Zr59  1  0.21237373  0.80547966  0.39210743  1
  Zr  Zr60  1  0.49706834  0.29389002  0.49365898  1
  Zr  Zr61  1  0.09203905  0.88646916  0.89279119  1
  Zr  Zr62  1  0.81021019  0.19437711  0.60182803  1
  Zr  Zr63  1  0.00047317  0.39481481  0.39946454  1
  Zr  Zr64  1  0.80177771  0.19149223  0.80575023  1
  Zr  Zr65  1  0.40349802  0.80292041  0.60155583  1
  Zr  Zr66  1  0.60128772  0.00601953  0.81371449  1
  Zr  Zr67  1  0.49967985  0.29911963  0.90320409  1
  Zr  Zr68  1  0.79318206  0.80338453  0.59728690  1
  Zr  Zr69  1  0.00868755  0.80019176  0.19887634  1
  Zr  Zr70  1  0.89788992  0.70337248  0.30737862  1
  Zr  Zr71  1  0.89922604  0.09476204  0.09630675  1
  Zr  Zr72  1  0.00562177  0.39390910  0.19663321  1
  Zr  Zr73  1  0.20534745  0.39935211  0.80203303  1
  Zr  Zr74  1  0.70119477  0.09547733  0.69772134  1
  Zr  Zr75  1  0.30573648  0.29633710  0.70551071  1
  Zr  Zr76  1  0.09546403  0.90274759  0.09310244  1
  Zr  Zr77  1  0.09463159  0.29822716  0.70541531  1
  Zr  Zr78  1  0.10863672  0.29256986  0.49457520  1
  Zr  Zr79  1  0.50330622  0.89363412  0.71418352  1
  Zr  Zr80  1  0.09661548  0.70940574  0.71242878  1
  Zr  Zr81  1  0.90235116  0.50125973  0.70812161  1
  Zr  Zr82  1  0.69439473  0.50777483  0.29701994  1
  Zr  Zr83  1  -0.00673424  0.18537947  0.80038549  1
  Zr  Zr84  1  0.50775467  0.70433259  0.70154155  1
  Zr  Zr85  1  0.10723776  0.10205547  0.09574675  1
  Zr  Zr86  1  0.40370277  0.60433187  0.20776601  1
  Zr  Zr87  1  0.30191480  0.10257742  0.90245650  1
  Zr  Zr88  1  0.89190150  0.29819772  0.28973493  1
  Zr  Zr89  1  0.69437165  0.89148427  0.70399414  1
  Zr  Zr90  1  0.59015521  0.19099044  0.60848120  1
  Zr  Zr91  1  0.69987126  0.09817239  0.07019634  1
  Zr  Zr92  1  0.40138428  0.60220208  0.39368728  1
  Zr  Zr93  1  0.00095340  0.19327572  -0.00797160  1
  Zr  Zr94  1  0.40104009  0.60128509  0.80218530  1
  Zr  Zr95  1  0.49496946  0.08552598  0.48245434  1
  Zr  Zr96  1  0.39967041  0.19606638  0.19506554  1
  Zr  Zr97  1  0.29131186  0.50224759  0.90801608  1
  Zr  Zr98  1  0.10265912  0.49942034  0.29839459  1
  Zr  Zr99  1  0.10041082  0.50930908  0.50114487  1
  Ta  Ta100  1  0.80322580  0.60919308  0.81005887  1
  Ta  Ta101  1  0.10692982  0.09937087  0.49617173  1
  Ta  Ta102  1  0.09938463  0.50060081  0.90292476  1
  Ta  Ta103  1  0.80694033  -0.00684417  0.59680124  1
  Ta  Ta104  1  0.20103329  0.19037384  0.60252410  1
  Ta  Ta105  1  0.29772888  0.09798245  0.49391646  1
  Ta  Ta106  1  0.79907881  0.60076791  0.00246463  1
  Ta  Ta107  1  0.40359312  0.00458627  0.80278752  1
  Ta  Ta108  1  0.39773122  0.41039681  0.39635100  1
  Ta  Ta109  1  0.29865924  0.09580544  0.70509815  1
  Ta  Ta110  1  0.39898283  0.40648556  0.59326728  1
  Ta  Ta111  1  0.21496602  0.40748002  0.39431309  1
  Ta  Ta112  1  0.78867618  0.80320331  0.19638290  1
  Ta  Ta113  1  0.89948426  0.70809348  0.70887180  1
  Ta  Ta114  1  0.39325774  0.39754357  0.00249666  1
  Ta  Ta115  1  0.20705429  0.20272423  0.19813265  1
  Ta  Ta116  1  0.70082685  0.29029269  0.90928292  1
  Ta  Ta117  1  0.70192770  0.29942401  0.70579810  1
  Ta  Ta118  1  0.79912345  0.39763836  0.80462581  1
  Ta  Ta119  1  0.59899847  -0.00262720  0.20039552  1
  Ta  Ta120  1  0.19427112  0.00443144  -0.01067830  1
  Ta  Ta121  1  0.50477455  0.49970624  0.10343793  1
  Ta  Ta122  1  -0.00024317  0.19065829  0.59963321  1
  Ta  Ta123  1  0.49831536  0.89997339  0.91749776  1
  Ta  Ta124  1  0.89528698  0.30096849  0.09479194  1
  Ta  Ta125  1  0.59899313  0.19686204  0.80559727  1
  Ta  Ta126  1  0.40183057  0.19598417  0.38746350  1
  Ta  Ta127  1  0.30227479  0.50714297  0.69919941  1
  Ta  Ta128  1  0.80260993  0.80319393  0.80781810  1
  Ta  Ta129  1  0.89850777  0.90285471  0.08931415  1
  Ta  Ta130  1  0.10975008  0.49775593  0.09074842  1
  Ta  Ta131  1  0.89956607  0.30676490  0.90118839  1
  Ta  Ta132  1  0.40673695  0.59674725  0.00270807  1
  Ta  Ta133  1  0.50291962  0.90229485  0.30411388  1
  Ta  Ta134  1  0.89331092  0.49441924  0.09854591  1
  Ta  Ta135  1  0.90243009  0.09244526  0.49182672  1
  Ta  Ta136  1  0.19658852  0.00108024  0.39371923  1
  Ta  Ta137  1  0.49694977  0.30004817  0.70530640  1
  Ta  Ta138  1  0.21048992  0.59901266  0.39890423  1
  Ta  Ta139  1  0.01303328  0.00002748  0.39775248  1
  Ta  Ta140  1  -0.00123638  0.40403915  -0.00139355  1
  Ta  Ta141  1  0.10277719  0.70267952  0.30524833  1
  Ta  Ta142  1  0.19804905  -0.00132838  0.79991913  1
  Ta  Ta143  1  0.20148522  0.80502938  0.60727683  1
  Ta  Ta144  1  0.89954328  0.30242021  0.70713899  1
  Ta  Ta145  1  0.21029713  0.39547758  0.20187080  1
  Ta  Ta146  1  0.40017228  0.00221497  0.60975104  1
  Ta  Ta147  1  0.49620141  0.30692491  0.29496619  1
  Ta  Ta148  1  0.69207993  0.69810253  0.48342010  1
  Ta  Ta149  1  0.20627641  0.60622271  0.60277655  1
  Ti  Ti150  1  0.09896351  0.89328375  0.70837057  1
  Ti  Ti151  1  0.20058453  0.19466046  0.80595062  1
  Ti  Ti152  1  0.80238651  0.40176542  0.00055074  1
  Ti  Ti153  1  0.69713549  0.89975568  0.91024775  1
  Ti  Ti154  1  0.10362100  0.89716973  0.30188058  1
  Ti  Ti155  1  0.59681524  0.40341288  -0.00070935  1
  Ti  Ti156  1  0.00325566  0.60264696  0.39544101  1
  Ti  Ti157  1  0.39618401  -0.00663088  0.38423948  1
  Ti  Ti158  1  0.88003604  0.08999381  0.92274053  1
  Ti  Ti159  1  -0.00432902  0.60725085  0.81034792  1
  Ti  Ti160  1  0.39545719  0.59974358  0.59754487  1
  Ti  Ti161  1  0.69673505  0.89542686  0.08819632  1
  Ti  Ti162  1  0.10532390  0.09906508  0.70245278  1
  Ti  Ti163  1  0.20075558  -0.00434209  0.20448685  1
  Ti  Ti164  1  0.78959831  -0.00545538  0.39453483  1
  Ti  Ti165  1  0.39688353  0.40024532  0.80694810  1
  Ti  Ti166  1  0.49921368  0.50101148  0.90953902  1
  Ti  Ti167  1  0.20653931  0.80004540  0.20392752  1
  Ti  Ti168  1  0.50458123  0.09860858  0.91351185  1
  Ti  Ti169  1  0.30726318  0.30278551  0.29705236  1
  Ti  Ti170  1  0.29648058  0.70386412  0.70292099  1
  Ti  Ti171  1  0.09896959  0.89742939  0.49725454  1
  Ti  Ti172  1  0.19613438  0.60686239  0.80335636  1
  Ti  Ti173  1  0.29932532  0.90024392  0.70756805  1
  Ti  Ti174  1  0.49704695  0.08197735  0.09099547  1
  Ti  Ti175  1  -0.00471036  0.80880915  0.60830220  1
  Ti  Ti176  1  0.59356625  0.18575140  0.38166568  1
  Ti  Ti177  1  0.69617183  0.70838015  0.71193097  1
  Ti  Ti178  1  0.90029502  0.28922410  0.49787808  1
  Ti  Ti179  1  0.50570584  0.70368678  0.48765777  1
  Ti  Ti180  1  0.68887054  0.89823804  0.48667996  1
  Ti  Ti181  1  0.49840668  0.89400749  0.48628403  1
  Ti  Ti182  1  0.50582023  0.49893033  0.28742309  1
  Ti  Ti183  1  0.60149571  0.79644705  0.58940638  1
  Ti  Ti184  1  0.49936458  0.51156663  0.50188933  1
  Ti  Ti185  1  0.90104644  0.89281278  0.91414977  1
  Ti  Ti186  1  0.60009046  0.60908161  0.59933710  1
  Ti  Ti187  1  -0.00162340  0.60825897  0.60487922  1
  Ti  Ti188  1  0.40516322  0.19570262  0.80201992  1
  Ti  Ti189  1  0.29867527  0.09197817  0.09779779  1
  Ti  Ti190  1  0.80168698  0.39531135  0.60093964  1
  Ti  Ti191  1  0.77840590  0.80029216  0.38530312  1
  Ti  Ti192  1  0.69133468  0.50140376  0.10212152  1
  Ti  Ti193  1  0.89985641  0.49694154  0.90024734  1
  Ti  Ti194  1  0.11719137  0.29293435  0.30180454  1
  Ti  Ti195  1  0.00695199  0.19925889  0.20180384  1
  Ti  Ti196  1  0.10314222  0.69753795  0.09489950  1
  Ti  Ti197  1  0.90179224  0.71210685  0.90314353  1
  Ti  Ti198  1  0.79482698  0.19575866  0.39491967  1
  Ti  Ti199  1  0.39988577  0.80128279  0.80290433  1
  Mo  Mo200  1  0.20862381  0.20036030  0.00231468  1
  Mo  Mo201  1  0.79626575  -0.01460140  -0.00406298  1
  Mo  Mo202  1  0.59335884  0.19686361  -0.00268259  1
  Mo  Mo203  1  0.79701274  0.60799711  0.39757111  1
  Mo  Mo204  1  0.29579192  0.70401446  0.30009472  1
  Mo  Mo205  1  0.69454172  0.09500620  0.30459670  1
  Mo  Mo206  1  0.60531143  0.80407213  0.81529220  1
  Mo  Mo207  1  0.49765309  0.09022358  0.29331835  1
  Mo  Mo208  1  0.30174000  0.90578812  0.29502010  1
  Mo  Mo209  1  -0.01559149  0.80359405  0.80055094  1
  Mo  Mo210  1  0.40016598  0.40217182  0.20348244  1
  Mo  Mo211  1  0.29932345  0.30468709  0.10058678  1
  Mo  Mo212  1  0.10792964  0.09516547  0.89554486  1
  Mo  Mo213  1  0.59688600  0.79992230  0.39879675  1
  Mo  Mo214  1  0.30574231  0.50672126  0.50362273  1
  Mo  Mo215  1  0.60087702  -0.00821602  0.39208919  1
  Mo  Mo216  1  0.69687416  0.90121901  0.30093912  1
  Mo  Mo217  1  0.59683113  -0.00293687  0.00304359  1
  Mo  Mo218  1  0.40186579  0.00213531  -0.00036677  1
  Mo  Mo219  1  0.60050543  0.60262832  0.20084240  1
  Mo  Mo220  1  0.50425809  0.90488888  0.10377493  1
  Mo  Mo221  1  0.40924965  -0.00019660  0.19742984  1
  Mo  Mo222  1  0.70016065  0.69971291  0.09871495  1
  Mo  Mo223  1  0.80273495  0.21289307  -0.00154757  1
  Mo  Mo224  1  0.09374536  0.69364627  0.89503296  1
  Mo  Mo225  1  0.20766385  0.19893489  0.39351099  1
  Mo  Mo226  1  -0.00267551  0.79632399  -0.00420524  1
  Mo  Mo227  1  0.49139896  0.10212594  0.71588083  1
  Mo  Mo228  1  0.90001298  0.89540789  0.69796021  1
  Mo  Mo229  1  0.19341773  0.59991471  0.00171561  1
  Mo  Mo230  1  0.50873890  0.70482008  0.30809922  1
  Mo  Mo231  1  -0.00275650  -0.00344933  -0.00720801  1
  Mo  Mo232  1  0.69512737  0.70083926  0.30043209  1
  Mo  Mo233  1  0.79727617  0.80186979  0.00180010  1
  Mo  Mo234  1  0.79551434  0.40386518  0.18905977  1
  Mo  Mo235  1  0.90187494  0.09279331  0.68706574  1
  Mo  Mo236  1  0.30043066  0.29664180  0.90477663  1
  Mo  Mo237  1  0.60138231  0.58754177  0.00545053  1
  Mo  Mo238  1  0.30291554  0.49666430  0.29877092  1
  Mo  Mo239  1  -0.00679502  0.40533213  0.81038454  1
  Mo  Mo240  1  0.59722619  0.40620339  0.19946271  1
  Mo  Mo241  1  0.69869808  0.10168183  0.90012837  1
  Mo  Mo242  1  0.01482418  0.80854302  0.39938442  1
  Mo  Mo243  1  0.20048018  0.39802719  0.00243372  1
  Mo  Mo244  1  0.59118557  0.60389777  0.39548920  1
  Mo  Mo245  1  0.10953029  0.10228237  0.29808529  1
  Mo  Mo246  1  0.59973854  0.81242638  0.00989735  1
  Mo  Mo247  1  0.40805756  0.80327798  0.39623586  1
  Mo  Mo248  1  0.20852171  0.80461019  0.79137856  1
  Mo  Mo249  1  0.40563276  0.80220838  0.00556074  1
