# generated using pymatgen
data_HfZrTaTiMo
_symmetry_space_group_name_H-M   'P 1'
_cell_length_a   16.89583293
_cell_length_b   16.89922064
_cell_length_c   16.89734735
_cell_angle_alpha   90.00779518
_cell_angle_beta   89.98310027
_cell_angle_gamma   89.94830164
_symmetry_Int_Tables_number   1
_chemical_formula_structural   HfZrTaTiMo
_chemical_formula_sum   'Hf50 Zr50 Ta50 Ti50 Mo50'
_cell_volume   4824.63668357
_cell_formula_units_Z   50
loop_
 _symmetry_equiv_pos_site_id
 _symmetry_equiv_pos_as_xyz
  1  'x, y, z'
loop_
 _atom_site_type_symbol
 _atom_site_label
 _atom_site_symmetry_multiplicity
 _atom_site_fract_x
 _atom_site_fract_y
 _atom_site_fract_z
 _atom_site_occupancy
  Hf  Hf0  1  0.89439150  0.70141548  0.69223743  1
  Hf  Hf1  1  0.89805000  0.09777412  0.09602949  1
  Hf  Hf2  1  0.29461098  0.50585307  0.68687220  1
  Hf  Hf3  1  0.60457754  0.79490371  -0.00133636  1
  Hf  Hf4  1  0.50661986  0.48954450  0.10912264  1
  Hf  Hf5  1  0.81157615  0.00153846  0.60717234  1
  Hf  Hf6  1  0.70516060  0.69314926  0.70656589  1
  Hf  Hf7  1  0.90406941  0.28926911  0.50269020  1
  Hf  Hf8  1  0.30166524  0.30103262  0.89663946  1
  Hf  Hf9  1  0.00035386  0.60793347  0.39951682  1
  Hf  Hf10  1  0.58821451  0.21209169  0.18125213  1
  Hf  Hf11  1  0.20724959  0.40834191  0.00203047  1
  Hf  Hf12  1  0.20929765  0.59753532  0.80867042  1
  Hf  Hf13  1  0.39753306  0.60175133  0.39229454  1
  Hf  Hf14  1  0.69502670  0.10243477  0.90088722  1
  Hf  Hf15  1  0.10287835  0.49795894  0.50503054  1
  Hf  Hf16  1  0.49579655  0.10873290  0.50519951  1
  Hf  Hf17  1  0.19975812  -0.00934936  0.19841848  1
  Hf  Hf18  1  0.49587848  0.30842934  0.29436037  1
  Hf  Hf19  1  0.18785965  -0.00597978  0.79134167  1
  Hf  Hf20  1  0.38300995  -0.00560459  0.40319826  1
  Hf  Hf21  1  0.30232552  0.89401649  0.70115341  1
  Hf  Hf22  1  0.60222117  0.59850020  0.00730866  1
  Hf  Hf23  1  0.78767963  0.20888213  0.00430202  1
  Hf  Hf24  1  0.68988688  0.29447410  0.30940024  1
  Hf  Hf25  1  0.79591620  0.40540811  0.40715561  1
  Hf  Hf26  1  0.78910249  0.20473006  0.18908641  1
  Hf  Hf27  1  0.39315855  0.40592676  0.80076525  1
  Hf  Hf28  1  0.49891917  0.89112783  0.50285593  1
  Hf  Hf29  1  0.71240707  0.89064307  0.69984378  1
  Hf  Hf30  1  0.69777286  0.50359073  0.30045807  1
  Hf  Hf31  1  0.19858780  0.60156003  0.39893199  1
  Hf  Hf32  1  0.39527033  0.39630065  0.58464081  1
  Hf  Hf33  1  0.18896689  0.19775661  0.79585833  1
  Hf  Hf34  1  0.60850384  0.59928571  0.58484720  1
  Hf  Hf35  1  0.60238009  0.80274514  0.81189034  1
  Hf  Hf36  1  0.78976217  0.40239451  0.19261344  1
  Hf  Hf37  1  0.59208567  0.00014485  0.79537003  1
  Hf  Hf38  1  0.31556716  0.50421709  0.10108152  1
  Hf  Hf39  1  0.38679473  -0.01066735  0.00783153  1
  Hf  Hf40  1  0.29949190  0.09059685  0.89735007  1
  Hf  Hf41  1  0.81285789  -0.00373957  0.79857918  1
  Hf  Hf42  1  0.10254846  0.49989307  0.69318427  1
  Hf  Hf43  1  0.68506500  0.08732856  0.09856335  1
  Hf  Hf44  1  0.19205633  0.00158510  0.59958974  1
  Hf  Hf45  1  0.90187108  0.89184963  0.10193353  1
  Hf  Hf46  1  0.60597963  0.40623595  0.59179959  1
  Hf  Hf47  1  0.39184354  0.79548374  0.20536603  1
  Hf  Hf48  1  0.49633931  0.51163672  0.69820230  1
  Hf  Hf49  1  0.49398995  0.69833271  0.70201602  1
  Zr  Zr50  1  0.19448723  0.60193242  0.19399893  1
  Zr  Zr51  1  0.88533057  0.09569146  0.31147787  1
  Zr  Zr52  1  0.10562306  0.69668123  0.69378336  1
  Zr  Zr53  1  0.80653570  0.40948668  0.80459368  1
  Zr  Zr54  1  0.50963007  0.89809262  0.30141103  1
  Zr  Zr55  1  0.38981983  0.79361470  0.00124833  1
  Zr  Zr56  1  0.90724887  0.30755853  0.09236653  1
  Zr  Zr57  1  0.00941818  0.19728328  0.20420978  1
  Zr  Zr58  1  0.00919910  0.20048392  -0.00952113  1
  Zr  Zr59  1  0.38562368  0.80253702  0.39535008  1
  Zr  Zr60  1  0.59854889  -0.02237044  -0.01478872  1
  Zr  Zr61  1  0.80225510  0.40383240  0.59958188  1
  Zr  Zr62  1  0.00952259  0.40617174  0.19972270  1
  Zr  Zr63  1  0.49409199  0.29597528  0.68861965  1
  Zr  Zr64  1  0.00279912  -0.00136775  0.21031948  1
  Zr  Zr65  1  0.49846183  0.70318937  0.49145534  1
  Zr  Zr66  1  0.49632991  0.08555224  0.10905615  1
  Zr  Zr67  1  0.80151493  0.60122615  -0.00060186  1
  Zr  Zr68  1  0.48889075  0.88916021  0.70140194  1
  Zr  Zr69  1  0.50344658  0.89502939  0.10932864  1
  Zr  Zr70  1  0.40762604  0.19472201  0.79954368  1
  Zr  Zr71  1  0.70069963  0.29942509  0.70378102  1
  Zr  Zr72  1  0.00183078  0.00074044  0.79370083  1
  Zr  Zr73  1  0.69309295  0.10212363  0.30308612  1
  Zr  Zr74  1  0.61360143  0.79189929  0.59453708  1
  Zr  Zr75  1  0.80542923  0.79337492  0.20436660  1
  Zr  Zr76  1  0.39387755  0.21258500  0.40806260  1
  Zr  Zr77  1  0.30070742  0.10631935  0.29541470  1
  Zr  Zr78  1  0.20765788  0.20536420  0.00282570  1
  Zr  Zr79  1  0.58850610  0.40243902  0.80390391  1
  Zr  Zr80  1  0.70387031  0.51419472  0.70743487  1
  Zr  Zr81  1  0.40973889  0.20544637  0.00911671  1
  Zr  Zr82  1  0.90485628  0.30802338  0.90298763  1
  Zr  Zr83  1  0.09752266  0.30277920  0.69156580  1
  Zr  Zr84  1  0.79889743  -0.01276670  -0.00479884  1
  Zr  Zr85  1  0.70891949  0.89574482  0.31013956  1
  Zr  Zr86  1  0.90553048  0.50003029  0.09652480  1
  Zr  Zr87  1  0.01390285  -0.01402817  -0.00461253  1
  Zr  Zr88  1  0.89245384  0.29535417  0.30383493  1
  Zr  Zr89  1  0.00461154  0.39874312  0.39904430  1
  Zr  Zr90  1  0.80937504  0.20047682  0.79863116  1
  Zr  Zr91  1  0.01748397  0.18536663  0.39702158  1
  Zr  Zr92  1  0.60608824  0.00243727  0.60440371  1
  Zr  Zr93  1  0.00539967  0.00118815  0.60779670  1
  Zr  Zr94  1  0.60420337  0.00140394  0.41065309  1
  Zr  Zr95  1  0.49812041  0.10135561  0.29576273  1
  Zr  Zr96  1  -0.00707614  0.59659312  0.80087581  1
  Zr  Zr97  1  0.39606086  0.00257855  0.60153683  1
  Zr  Zr98  1  0.10053258  0.70300712  0.89865463  1
  Zr  Zr99  1  0.11096069  0.09570606  0.09665737  1
  Ta  Ta100  1  0.71560338  0.89207026  0.49874547  1
  Ta  Ta101  1  0.49456389  0.69480980  0.90234722  1
  Ta  Ta102  1  0.20324793  0.20920848  0.19893906  1
  Ta  Ta103  1  0.38974547  0.60135958  0.81142307  1
  Ta  Ta104  1  0.59702576  0.40431592  0.40580393  1
  Ta  Ta105  1  0.39591547  0.40502794  0.40111906  1
  Ta  Ta106  1  0.68580779  0.30127590  0.90292156  1
  Ta  Ta107  1  0.29595758  0.29331085  0.68948653  1
  Ta  Ta108  1  0.79845498  -0.00463854  0.20168211  1
  Ta  Ta109  1  0.77985296  0.40955316  -0.00157474  1
  Ta  Ta110  1  0.00847598  0.79609642  0.00528956  1
  Ta  Ta111  1  0.69894350  0.28874407  0.49905989  1
  Ta  Ta112  1  0.20628365  0.39833463  0.39831596  1
  Ta  Ta113  1  0.10542659  0.29347094  0.50371911  1
  Ta  Ta114  1  0.80738186  0.19577748  0.60600222  1
  Ta  Ta115  1  0.49745069  0.50312458  0.49213953  1
  Ta  Ta116  1  0.90414581  0.09760203  0.49927611  1
  Ta  Ta117  1  0.28991750  0.11073194  0.50643869  1
  Ta  Ta118  1  -0.00320478  0.60509763  0.59055406  1
  Ta  Ta119  1  0.30114220  0.10561946  0.69625083  1
  Ta  Ta120  1  0.79986022  0.60191257  0.19925970  1
  Ta  Ta121  1  0.29949742  0.70031467  0.69200121  1
  Ta  Ta122  1  0.60284622  0.78535707  0.20689815  1
  Ta  Ta123  1  -0.00268996  0.40302941  0.79320566  1
  Ta  Ta124  1  0.09610662  0.89825033  0.30694058  1
  Ta  Ta125  1  0.59097085  0.19562123  0.80126454  1
  Ta  Ta126  1  -0.00058431  0.80270454  0.59482489  1
  Ta  Ta127  1  0.19734289  0.80157873  0.19873353  1
  Ta  Ta128  1  0.20475583  0.40232052  0.19855401  1
  Ta  Ta129  1  0.20590192  0.60324855  -0.00137258  1
  Ta  Ta130  1  0.10625962  0.30894027  0.09787374  1
  Ta  Ta131  1  0.00345101  0.60636535  0.19888724  1
  Ta  Ta132  1  -0.00214661  0.79844477  0.40102381  1
  Ta  Ta133  1  0.89828549  0.50923277  0.49562734  1
  Ta  Ta134  1  0.90038282  0.90041093  0.49706181  1
  Ta  Ta135  1  0.19586055  0.80823220  0.59449096  1
  Ta  Ta136  1  0.10045114  0.49727694  0.90098767  1
  Ta  Ta137  1  0.49148116  0.50653458  0.90916625  1
  Ta  Ta138  1  0.60259697  0.60504787  0.20264059  1
  Ta  Ta139  1  0.01597868  0.60082247  0.01001867  1
  Ta  Ta140  1  0.60435861  0.19198706  0.60522065  1
  Ta  Ta141  1  0.80799408  0.79566670  0.80744771  1
  Ta  Ta142  1  0.09418091  0.90274310  0.49203811  1
  Ta  Ta143  1  0.47623720  0.89696121  0.89007582  1
  Ta  Ta144  1  0.30247503  0.30576580  0.29531882  1
  Ta  Ta145  1  0.89913619  0.50817997  0.29962615  1
  Ta  Ta146  1  0.90834226  0.88680888  0.90015977  1
  Ta  Ta147  1  0.29304298  0.70353192  0.50524471  1
  Ta  Ta148  1  0.19564558  0.80615588  0.00788107  1
  Ta  Ta149  1  0.10260175  0.50083571  0.29872361  1
  Ti  Ti150  1  0.19239774  0.00540886  0.40011565  1
  Ti  Ti151  1  0.79604381  0.79743589  -0.00628795  1
  Ti  Ti152  1  0.20680231  0.39191780  0.58928369  1
  Ti  Ti153  1  0.69915614  0.89463928  0.10873723  1
  Ti  Ti154  1  0.00249975  0.80724053  0.79335292  1
  Ti  Ti155  1  0.69881185  0.69193278  0.89434609  1
  Ti  Ti156  1  0.60235193  0.60372019  0.39860285  1
  Ti  Ti157  1  0.80982751  0.78516381  0.41053765  1
  Ti  Ti158  1  0.29096303  0.70030922  0.29942732  1
  Ti  Ti159  1  0.19970543  0.20191706  0.40026394  1
  Ti  Ti160  1  0.90540631  0.70023934  0.09808337  1
  Ti  Ti161  1  0.09819460  0.31225141  0.89835047  1
  Ti  Ti162  1  0.70320181  0.10234814  0.70503244  1
  Ti  Ti163  1  0.38302373  -0.01825437  0.20599031  1
  Ti  Ti164  1  0.49709832  0.09297178  0.90472465  1
  Ti  Ti165  1  0.00761483  0.79582557  0.19995941  1
  Ti  Ti166  1  0.70466054  0.69898831  0.10444491  1
  Ti  Ti167  1  0.30216528  0.10116812  0.10601380  1
  Ti  Ti168  1  0.89871584  0.50880447  0.68960792  1
  Ti  Ti169  1  0.39651277  0.60448671  0.59076587  1
  Ti  Ti170  1  0.90158305  0.90230543  0.31291876  1
  Ti  Ti171  1  0.40407045  0.39621441  0.00021477  1
  Ti  Ti172  1  0.49650450  0.69461516  0.10150711  1
  Ti  Ti173  1  -0.00053878  0.19846728  0.78979199  1
  Ti  Ti174  1  0.10077963  0.70589239  0.30002406  1
  Ti  Ti175  1  0.20281831  0.40410813  0.79960543  1
  Ti  Ti176  1  0.79738265  0.61079812  0.57482192  1
  Ti  Ti177  1  0.10276502  0.70595739  0.49974810  1
  Ti  Ti178  1  0.11159199  0.30333203  0.29984582  1
  Ti  Ti179  1  -0.00841121  0.40003806  0.60042207  1
  Ti  Ti180  1  0.19884423  0.80692078  0.39983114  1
  Ti  Ti181  1  0.10760031  0.09218235  0.90340674  1
  Ti  Ti182  1  0.50763214  0.29753541  0.49850648  1
  Ti  Ti183  1  0.90399605  0.10025776  0.90370168  1
  Ti  Ti184  1  0.68759555  0.50431602  0.89776264  1
  Ti  Ti185  1  0.91277300  0.49505301  0.91314454  1
  Ti  Ti186  1  0.38472563  0.78645205  0.80785211  1
  Ti  Ti187  1  0.71118546  0.10524508  0.49576396  1
  Ti  Ti188  1  0.30237636  0.49744943  0.29497299  1
  Ti  Ti189  1  0.29616121  0.50592680  0.49888066  1
  Ti  Ti190  1  0.70230168  0.69812842  0.31044959  1
  Ti  Ti191  1  0.90034434  0.69606074  0.30040340  1
  Ti  Ti192  1  0.50243696  0.50002316  0.29951389  1
  Ti  Ti193  1  0.67071971  0.32321283  0.08981355  1
  Ti  Ti194  1  0.19871136  0.80052067  0.80172862  1
  Ti  Ti195  1  0.40755830  0.60791234  0.20778848  1
  Ti  Ti196  1  0.81139336  0.59830209  0.81368876  1
  Ti  Ti197  1  0.90778067  0.70286958  0.90668513  1
  Ti  Ti198  1  0.29082160  0.90038621  0.89835889  1
  Ti  Ti199  1  0.29835216  0.69639266  0.09847089  1
  Mo  Mo200  1  0.10765138  0.50487456  0.10052765  1
  Mo  Mo201  1  0.10210039  0.89142118  0.89727204  1
  Mo  Mo202  1  0.19804129  0.60873778  0.59366042  1
  Mo  Mo203  1  0.29594885  0.70173939  0.90373738  1
  Mo  Mo204  1  0.80482032  0.60334458  0.39312118  1
  Mo  Mo205  1  0.59118335  0.20912186  -0.00774218  1
  Mo  Mo206  1  0.49431403  0.31336657  0.10054768  1
  Mo  Mo207  1  0.59284230  0.40612876  -0.00811613  1
  Mo  Mo208  1  0.90800532  0.11514368  0.69559045  1
  Mo  Mo209  1  0.28352947  0.89526894  0.30305898  1
  Mo  Mo210  1  0.28445322  0.90139287  0.49813825  1
  Mo  Mo211  1  0.90813839  0.30346858  0.69596674  1
  Mo  Mo212  1  0.39732631  0.40775440  0.20919974  1
  Mo  Mo213  1  0.69807510  0.50358548  0.10499257  1
  Mo  Mo214  1  0.10464692  0.09959067  0.49736166  1
  Mo  Mo215  1  0.10174014  0.11208867  0.69472439  1
  Mo  Mo216  1  0.00329135  0.19508206  0.59924486  1
  Mo  Mo217  1  0.01685503  0.40565187  -0.00596006  1
  Mo  Mo218  1  0.80470294  0.00034592  0.41075650  1
  Mo  Mo219  1  0.90228062  0.70260670  0.49914051  1
  Mo  Mo220  1  0.29102882  0.30146429  0.49487022  1
  Mo  Mo221  1  0.19802882  0.19827586  0.59717721  1
  Mo  Mo222  1  0.79772264  0.19751776  0.41141005  1
  Mo  Mo223  1  0.39575605  0.20293540  0.60005617  1
  Mo  Mo224  1  0.09698353  0.89024292  0.10736569  1
  Mo  Mo225  1  0.61323941  0.79239151  0.39850719  1
  Mo  Mo226  1  0.50230189  0.30450017  0.90543077  1
  Mo  Mo227  1  0.50609834  0.69464187  0.29506938  1
  Mo  Mo228  1  0.30495165  0.30845652  0.10754776  1
  Mo  Mo229  1  0.20308316  -0.01311321  -0.00139055  1
  Mo  Mo230  1  0.80903630  0.79819688  0.59673679  1
  Mo  Mo231  1  0.30231285  0.50041890  0.90606244  1
  Mo  Mo232  1  0.90479376  0.88430821  0.70047512  1
  Mo  Mo233  1  0.71464052  0.89066695  0.89409577  1
  Mo  Mo234  1  0.11396573  0.09784749  0.30222641  1
  Mo  Mo235  1  0.59687080  0.40654058  0.20973629  1
  Mo  Mo236  1  0.38552158  0.79576180  0.59745278  1
  Mo  Mo237  1  0.00177025  -0.00589355  0.40214368  1
  Mo  Mo238  1  0.09939089  0.88481498  0.69801513  1
  Mo  Mo239  1  0.39188448  0.21567967  0.19237831  1
  Mo  Mo240  1  0.59866231  0.20386015  0.41261298  1
  Mo  Mo241  1  0.61384742  -0.01481037  0.20309521  1
  Mo  Mo242  1  0.70650078  0.70112312  0.48625034  1
  Mo  Mo243  1  0.69999003  0.50487759  0.48956454  1
  Mo  Mo244  1  0.40071810  0.60267172  0.00419948  1
  Mo  Mo245  1  0.49953001  0.10215173  0.69981317  1
  Mo  Mo246  1  0.10002183  0.70144724  0.10153077  1
  Mo  Mo247  1  0.29341235  0.89316880  0.10373032  1
  Mo  Mo248  1  0.58795943  0.60446950  0.81174763  1
  Mo  Mo249  1  0.39407044  0.00272214  0.80248702  1
