# generated using pymatgen
data_HfZrTaTiMo
_symmetry_space_group_name_H-M   'P 1'
_cell_length_a   16.88354426
_cell_length_b   16.88484527
_cell_length_c   16.87591829
_cell_angle_alpha   90.00190116
_cell_angle_beta   89.97503608
_cell_angle_gamma   89.99186664
_symmetry_Int_Tables_number   1
_chemical_formula_structural   HfZrTaTiMo
_chemical_formula_sum   'Hf50 Zr50 Ta50 Ti50 Mo50'
_cell_volume   4810.91932050
_cell_formula_units_Z   50
loop_
 _symmetry_equiv_pos_site_id
 _symmetry_equiv_pos_as_xyz
  1  'x, y, z'
loop_
 _atom_site_type_symbol
 _atom_site_label
 _atom_site_symmetry_multiplicity
 _atom_site_fract_x
 _atom_site_fract_y
 _atom_site_fract_z
 _atom_site_occupancy
  Hf  Hf0  1  0.19972157  0.19162175  0.39979939  1
  Hf  Hf1  1  0.49636044  0.30034941  0.29838812  1
  Hf  Hf2  1  0.69532532  0.30222433  0.69992847  1
  Hf  Hf3  1  0.79418258  0.19217541  0.20615234  1
  Hf  Hf4  1  0.09508690  0.90583500  0.29535143  1
  Hf  Hf5  1  0.40085309  0.80047174  0.59981585  1
  Hf  Hf6  1  0.80239663  0.40578046  0.59736771  1
  Hf  Hf7  1  0.59302584  0.40090622  0.41157856  1
  Hf  Hf8  1  0.59640801  0.60275891  0.19446236  1
  Hf  Hf9  1  0.69714665  0.50731248  0.30392399  1
  Hf  Hf10  1  0.20425234  0.20401180  0.00411464  1
  Hf  Hf11  1  0.19384182  0.80704316  0.59039355  1
  Hf  Hf12  1  0.80891568  0.41006579  0.20422907  1
  Hf  Hf13  1  0.49422964  0.89647473  0.90094033  1
  Hf  Hf14  1  0.80119124  -0.00188742  0.20530868  1
  Hf  Hf15  1  0.70357879  0.30576662  0.09554306  1
  Hf  Hf16  1  0.20747594  0.00444592  0.20204867  1
  Hf  Hf17  1  0.68612190  0.89109403  0.28969631  1
  Hf  Hf18  1  0.09875583  0.51189716  0.30360323  1
  Hf  Hf19  1  0.30247177  0.91024070  0.49779825  1
  Hf  Hf20  1  -0.00756739  0.60697457  0.19995268  1
  Hf  Hf21  1  0.69385843  0.30622222  0.90049974  1
  Hf  Hf22  1  0.20418173  0.39871709  0.81157220  1
  Hf  Hf23  1  0.59441346  -0.00463956  0.00741384  1
  Hf  Hf24  1  0.30477643  0.88645650  0.09755413  1
  Hf  Hf25  1  0.40223166  0.18611927  0.41084633  1
  Hf  Hf26  1  0.09720755  0.90024620  0.90325755  1
  Hf  Hf27  1  0.30049935  0.89466067  0.89908647  1
  Hf  Hf28  1  0.49982729  0.29970603  0.09619983  1
  Hf  Hf29  1  0.40195830  -0.00104900  0.19939093  1
  Hf  Hf30  1  0.70221463  0.90386502  0.51067247  1
  Hf  Hf31  1  0.81261813  0.41024983  -0.00383866  1
  Hf  Hf32  1  0.81039977  0.40458867  0.79860969  1
  Hf  Hf33  1  -0.00330693  0.40805351  0.80842035  1
  Hf  Hf34  1  0.00534021  0.40202448  0.00250011  1
  Hf  Hf35  1  0.39442986  0.40142724  0.18893623  1
  Hf  Hf36  1  0.20310961  0.20227813  0.20034916  1
  Hf  Hf37  1  0.69840008  0.30514547  0.30171671  1
  Hf  Hf38  1  0.59228082  0.60757849  0.79988365  1
  Hf  Hf39  1  -0.00447651  0.80539085  0.40033568  1
  Hf  Hf40  1  0.90207721  0.10155225  0.90911218  1
  Hf  Hf41  1  0.89631629  0.89430019  0.90958863  1
  Hf  Hf42  1  -0.00454180  0.79931693  0.79728885  1
  Hf  Hf43  1  0.39574658  0.00427985  0.79246437  1
  Hf  Hf44  1  0.30412821  0.70021892  0.89975381  1
  Hf  Hf45  1  0.30466242  0.30003954  0.30364459  1
  Hf  Hf46  1  0.70119083  0.09411260  0.50640169  1
  Hf  Hf47  1  0.00245656  0.20197301  0.79657134  1
  Hf  Hf48  1  0.10041517  0.09601350  0.89652592  1
  Hf  Hf49  1  0.50273264  0.90352070  0.69926493  1
  Zr  Zr50  1  0.79972307  0.19044969  0.39799323  1
  Zr  Zr51  1  0.09953882  0.29699258  0.50690921  1
  Zr  Zr52  1  0.09906578  0.68149944  0.88896241  1
  Zr  Zr53  1  0.58353907  -0.00488216  0.40309589  1
  Zr  Zr54  1  0.80090730  -0.00481504  0.80085092  1
  Zr  Zr55  1  0.69098502  0.50079618  0.90787616  1
  Zr  Zr56  1  0.80122373  0.20212824  0.79757816  1
  Zr  Zr57  1  0.30717439  0.89561453  0.30195679  1
  Zr  Zr58  1  0.09239953  0.69220118  0.49157659  1
  Zr  Zr59  1  0.81300707  0.59507710  0.80608740  1
  Zr  Zr60  1  0.30507914  0.50384709  0.89920907  1
  Zr  Zr61  1  0.29424102  0.50284311  0.29866486  1
  Zr  Zr62  1  0.09685182  0.69594751  0.69326755  1
  Zr  Zr63  1  -0.00722231  0.41042923  0.40115671  1
  Zr  Zr64  1  0.59719303  0.19722573  0.40493586  1
  Zr  Zr65  1  0.70345692  0.70461388  0.10241911  1
  Zr  Zr66  1  0.80550351  -0.00219610  0.39104163  1
  Zr  Zr67  1  0.19764143  0.40346344  0.40431225  1
  Zr  Zr68  1  0.59950169  0.79522436  0.60041680  1
  Zr  Zr69  1  0.09396599  0.89291435  0.10068489  1
  Zr  Zr70  1  0.29994912  0.69385033  0.70141679  1
  Zr  Zr71  1  0.40181398  0.60203934  0.19561101  1
  Zr  Zr72  1  0.69754140  0.89114447  0.10113211  1
  Zr  Zr73  1  0.01004207  0.21488245  0.20169975  1
  Zr  Zr74  1  0.50167087  0.31023881  0.70592447  1
  Zr  Zr75  1  0.19873463  0.79923012  0.39737504  1
  Zr  Zr76  1  0.29708625  0.30064262  0.51128053  1
  Zr  Zr77  1  0.79640545  0.59768226  0.60012749  1
  Zr  Zr78  1  0.29599524  0.30419564  0.69373374  1
  Zr  Zr79  1  0.40681945  0.42008207  0.59429536  1
  Zr  Zr80  1  0.21579516  0.59387977  0.58530305  1
  Zr  Zr81  1  0.19770735  0.80744532  0.79304564  1
  Zr  Zr82  1  0.10545474  0.50712342  0.10611239  1
  Zr  Zr83  1  -0.00332221  0.41160182  0.59878034  1
  Zr  Zr84  1  0.10717955  0.29776696  0.69336153  1
  Zr  Zr85  1  0.70376837  0.70386818  0.70199785  1
  Zr  Zr86  1  0.20608843  0.39352627  0.00976637  1
  Zr  Zr87  1  0.39306939  0.20523581  0.80337471  1
  Zr  Zr88  1  0.70637121  0.70770401  0.90920076  1
  Zr  Zr89  1  0.90043467  0.10094762  0.09837182  1
  Zr  Zr90  1  0.69989168  0.09923255  0.90098125  1
  Zr  Zr91  1  0.60004761  0.19777656  0.00151247  1
  Zr  Zr92  1  0.40018271  0.00221430  0.00152446  1
  Zr  Zr93  1  0.50158445  0.69329372  0.49653905  1
  Zr  Zr94  1  0.90231758  0.29973897  0.30705939  1
  Zr  Zr95  1  0.10880231  0.51092743  0.70948399  1
  Zr  Zr96  1  0.09388962  0.09251537  0.10172144  1
  Zr  Zr97  1  0.79678254  0.79993496  0.40159005  1
  Zr  Zr98  1  0.50144500  0.70740484  0.30071326  1
  Zr  Zr99  1  0.90054726  0.09325610  0.68999606  1
  Ta  Ta100  1  0.89733174  0.69731112  0.30576809  1
  Ta  Ta101  1  0.50438840  0.49658475  0.08822642  1
  Ta  Ta102  1  0.40404161  0.00940602  0.59118616  1
  Ta  Ta103  1  0.30173608  0.70044232  0.09522345  1
  Ta  Ta104  1  0.79715619  0.19921271  0.59888924  1
  Ta  Ta105  1  0.90129852  0.90075071  0.50869107  1
  Ta  Ta106  1  0.19502012  0.79197488  0.00179626  1
  Ta  Ta107  1  0.59472773  0.20269054  0.59553716  1
  Ta  Ta108  1  0.90372884  0.29737134  0.69036882  1
  Ta  Ta109  1  0.19942613  0.78783473  0.19962178  1
  Ta  Ta110  1  0.40146353  0.58929019  0.40578676  1
  Ta  Ta111  1  0.69271504  0.09521926  0.69371385  1
  Ta  Ta112  1  0.59848237  0.40452236  0.19640117  1
  Ta  Ta113  1  0.89872432  0.89527601  0.68841763  1
  Ta  Ta114  1  -0.01109294  0.59466159  0.59653528  1
  Ta  Ta115  1  0.90140691  0.89275151  0.10359164  1
  Ta  Ta116  1  0.81692856  0.60721657  0.00628470  1
  Ta  Ta117  1  0.20321796  -0.00184600  0.00025619  1
  Ta  Ta118  1  0.79628742  -0.00444234  0.00648051  1
  Ta  Ta119  1  0.69783987  0.89285709  0.90391291  1
  Ta  Ta120  1  0.49955560  0.49245707  0.89800444  1
  Ta  Ta121  1  0.70237185  0.90501013  0.70154360  1
  Ta  Ta122  1  0.10177954  0.29707649  0.90206096  1
  Ta  Ta123  1  0.41057275  0.59670440  0.79255822  1
  Ta  Ta124  1  0.59681083  0.79979356  0.80295805  1
  Ta  Ta125  1  0.89885063  0.29196382  0.50332771  1
  Ta  Ta126  1  0.49903274  0.10304537  0.10384469  1
  Ta  Ta127  1  0.29438035  0.09869923  0.89730947  1
  Ta  Ta128  1  0.69282563  0.50912720  0.49897202  1
  Ta  Ta129  1  0.19906207  0.00874327  0.40618515  1
  Ta  Ta130  1  0.09561759  0.09555377  0.30258418  1
  Ta  Ta131  1  0.00750376  -0.00273497  0.59134710  1
  Ta  Ta132  1  0.40974384  0.60429304  -0.00246307  1
  Ta  Ta133  1  0.90444631  0.70215148  0.69613738  1
  Ta  Ta134  1  0.29360077  0.10042134  0.69069444  1
  Ta  Ta135  1  0.49645923  0.09673241  0.29440797  1
  Ta  Ta136  1  0.59150872  0.59487456  0.60316159  1
  Ta  Ta137  1  0.50358641  0.10319558  0.69959877  1
  Ta  Ta138  1  0.68865854  0.49392175  0.70215715  1
  Ta  Ta139  1  0.10683361  0.09547733  0.69306941  1
  Ta  Ta140  1  0.69847558  0.50434792  0.09617972  1
  Ta  Ta141  1  0.58133989  0.79416037  0.00348819  1
  Ta  Ta142  1  0.80426237  0.60276025  0.20110629  1
  Ta  Ta143  1  0.89879057  0.70126465  0.50243313  1
  Ta  Ta144  1  0.49884114  0.31027520  0.90002416  1
  Ta  Ta145  1  0.60079817  0.19558440  0.20221220  1
  Ta  Ta146  1  0.69728632  0.69990731  0.30211586  1
  Ta  Ta147  1  0.49684984  0.10453643  0.89815439  1
  Ta  Ta148  1  0.50195457  0.49974778  0.30215306  1
  Ta  Ta149  1  0.80161630  0.40985842  0.40926112  1
  Ti  Ti150  1  0.39481006  0.19539863  0.19909112  1
  Ti  Ti151  1  0.30811399  0.69772422  0.48923571  1
  Ti  Ti152  1  0.20227173  0.19940845  0.80168466  1
  Ti  Ti153  1  0.00242741  0.19033504  0.59430258  1
  Ti  Ti154  1  0.20399950  0.61261978  0.20142183  1
  Ti  Ti155  1  0.09813171  0.69435240  0.30516378  1
  Ti  Ti156  1  0.19256983  0.38566242  0.19688218  1
  Ti  Ti157  1  -0.00861479  0.78144905  0.00204045  1
  Ti  Ti158  1  -0.00205507  -0.00493637  0.00436622  1
  Ti  Ti159  1  0.30508277  0.50073503  0.70239423  1
  Ti  Ti160  1  0.91937300  0.09199635  0.29676705  1
  Ti  Ti161  1  0.60051847  0.80030052  0.40841445  1
  Ti  Ti162  1  0.81226465  0.79515073  0.20357219  1
  Ti  Ti163  1  0.39330320  0.39522219  -0.00230332  1
  Ti  Ti164  1  0.59505096  0.40318448  0.59520856  1
  Ti  Ti165  1  0.41085682  0.79054636  0.79435149  1
  Ti  Ti166  1  0.90035513  0.29101758  0.90756992  1
  Ti  Ti167  1  0.90098092  0.09553625  0.50109770  1
  Ti  Ti168  1  0.59113360  0.60743883  -0.00010797  1
  Ti  Ti169  1  0.41069102  0.81144833  0.40638639  1
  Ti  Ti170  1  0.19929852  -0.00096492  0.79441492  1
  Ti  Ti171  1  0.49963039  0.89524954  0.28970199  1
  Ti  Ti172  1  0.30844194  0.70304596  0.30293908  1
  Ti  Ti173  1  0.69673980  0.09733912  0.10338527  1
  Ti  Ti174  1  0.40645366  0.19554063  0.59600200  1
  Ti  Ti175  1  0.00290760  0.40045787  0.20272202  1
  Ti  Ti176  1  0.39309895  0.20530861  -0.00352716  1
  Ti  Ti177  1  0.09554468  0.90420581  0.68965921  1
  Ti  Ti178  1  0.59894616  0.00051544  0.80276139  1
  Ti  Ti179  1  -0.00026641  -0.00434855  0.79250621  1
  Ti  Ti180  1  0.00635898  0.19545406  0.40322780  1
  Ti  Ti181  1  0.90432641  0.50496946  0.10231931  1
  Ti  Ti182  1  0.30002593  0.50887083  0.09653015  1
  Ti  Ti183  1  0.58983834  0.00342790  0.59835183  1
  Ti  Ti184  1  -0.00531059  0.59817207  -0.00675732  1
  Ti  Ti185  1  0.10278532  0.51013837  0.49349384  1
  Ti  Ti186  1  0.70292149  0.30119759  0.50276012  1
  Ti  Ti187  1  0.59553802  0.19870665  0.79928467  1
  Ti  Ti188  1  0.80334088  0.79986985  0.80097733  1
  Ti  Ti189  1  0.29721176  0.90837832  0.69107927  1
  Ti  Ti190  1  0.80218065  0.59978070  0.40317762  1
  Ti  Ti191  1  0.00249870  -0.00219152  0.40559563  1
  Ti  Ti192  1  0.40538190  0.40286303  0.40876369  1
  Ti  Ti193  1  0.89624277  0.29595693  0.09703312  1
  Ti  Ti194  1  0.30475669  0.10153705  0.09602734  1
  Ti  Ti195  1  0.10066171  0.69753803  0.09806239  1
  Ti  Ti196  1  0.79990230  0.79552384  0.59791503  1
  Ti  Ti197  1  0.19930156  0.59911180  -0.00240647  1
  Ti  Ti198  1  -0.00300186  0.79388227  0.20307558  1
  Ti  Ti199  1  0.00741269  0.20868891  0.00494940  1
  Mo  Mo200  1  0.49840823  0.70114339  0.70048497  1
  Mo  Mo201  1  0.49658708  0.90202836  0.50063062  1
  Mo  Mo202  1  0.90584788  0.89441969  0.29568796  1
  Mo  Mo203  1  0.39974237  0.79192043  0.00154123  1
  Mo  Mo204  1  0.90201643  0.50188210  0.69985984  1
  Mo  Mo205  1  0.80371751  -0.00019936  0.60084549  1
  Mo  Mo206  1  0.39768834  0.00386364  0.39685686  1
  Mo  Mo207  1  0.89222651  0.50815755  0.49602798  1
  Mo  Mo208  1  0.59384072  0.00260455  0.19920254  1
  Mo  Mo209  1  0.40464025  0.60299431  0.59995295  1
  Mo  Mo210  1  0.30460916  0.09613275  0.30421972  1
  Mo  Mo211  1  0.49920298  0.29936473  0.50554639  1
  Mo  Mo212  1  0.20281097  0.41860239  0.59718646  1
  Mo  Mo213  1  0.50310375  0.50348412  0.70134141  1
  Mo  Mo214  1  0.19874209  -0.00196776  0.60020957  1
  Mo  Mo215  1  0.58937553  0.79813606  0.19581698  1
  Mo  Mo216  1  0.39899445  0.79737516  0.19643408  1
  Mo  Mo217  1  0.80844175  0.80125645  0.00285343  1
  Mo  Mo218  1  0.30506836  0.50179805  0.49474106  1
  Mo  Mo219  1  0.59768917  0.40267176  0.00210720  1
  Mo  Mo220  1  0.90351868  0.70231997  0.90036961  1
  Mo  Mo221  1  0.49670014  0.70010755  0.89844823  1
  Mo  Mo222  1  0.80295336  0.19923881  0.00861910  1
  Mo  Mo223  1  0.09663660  0.90712580  0.49568484  1
  Mo  Mo224  1  0.60228348  0.60018306  0.39859996  1
  Mo  Mo225  1  0.40176755  0.40553773  0.80182262  1
  Mo  Mo226  1  -0.00377955  0.80249008  0.59737163  1
  Mo  Mo227  1  0.59686932  0.40427028  0.80036206  1
  Mo  Mo228  1  -0.00564709  -0.00619491  0.20487088  1
  Mo  Mo229  1  0.19910081  0.18256459  0.59501767  1
  Mo  Mo230  1  0.30348198  0.29516351  0.90248373  1
  Mo  Mo231  1  -0.01235323  0.60307389  0.40061293  1
  Mo  Mo232  1  0.21286704  0.59416856  0.80301461  1
  Mo  Mo233  1  0.90361251  0.70234889  0.10253011  1
  Mo  Mo234  1  -0.00865404  0.59808899  0.79469233  1
  Mo  Mo235  1  0.49826238  0.89131762  0.10687214  1
  Mo  Mo236  1  0.89528020  0.50877098  0.30113916  1
  Mo  Mo237  1  0.49431317  0.69966031  0.09676289  1
  Mo  Mo238  1  0.09482738  0.09695285  0.49809938  1
  Mo  Mo239  1  0.21336833  0.60632994  0.39236928  1
  Mo  Mo240  1  0.70032386  0.69545962  0.49343846  1
  Mo  Mo241  1  0.50384096  0.50309285  0.49847949  1
  Mo  Mo242  1  0.10034012  0.30422055  0.10089759  1
  Mo  Mo243  1  0.49960536  0.09994613  0.50639511  1
  Mo  Mo244  1  0.90944849  0.50758432  0.90493485  1
  Mo  Mo245  1  0.10069102  0.29997202  0.30103650  1
  Mo  Mo246  1  0.30743363  0.29360601  0.10297156  1
  Mo  Mo247  1  0.29741471  0.09703477  0.50601371  1
  Mo  Mo248  1  0.10142709  0.50127570  0.90411829  1
  Mo  Mo249  1  0.68184002  0.09108237  0.29113657  1
