# generated using pymatgen
data_HfZrTaTiMo
_symmetry_space_group_name_H-M   'P 1'
_cell_length_a   16.88287638
_cell_length_b   16.87320236
_cell_length_c   16.87985076
_cell_angle_alpha   89.97576066
_cell_angle_beta   89.98836785
_cell_angle_gamma   90.00681902
_symmetry_Int_Tables_number   1
_chemical_formula_structural   HfZrTaTiMo
_chemical_formula_sum   'Hf50 Zr50 Ta50 Ti50 Mo50'
_cell_volume   4808.53196366
_cell_formula_units_Z   50
loop_
 _symmetry_equiv_pos_site_id
 _symmetry_equiv_pos_as_xyz
  1  'x, y, z'
loop_
 _atom_site_type_symbol
 _atom_site_label
 _atom_site_symmetry_multiplicity
 _atom_site_fract_x
 _atom_site_fract_y
 _atom_site_fract_z
 _atom_site_occupancy
  Hf  Hf0  1  0.89662509  0.10196128  0.89569350  1
  Hf  Hf1  1  0.59384430  0.80076679  -0.00148622  1
  Hf  Hf2  1  -0.00035887  -0.00457625  0.20376721  1
  Hf  Hf3  1  0.00260326  0.01878993  0.58167362  1
  Hf  Hf4  1  0.20813783  0.19517361  -0.00416525  1
  Hf  Hf5  1  0.59519608  -0.00507822  0.40461975  1
  Hf  Hf6  1  0.79912846  0.40547680  0.40815267  1
  Hf  Hf7  1  0.09300432  0.69951489  0.49445973  1
  Hf  Hf8  1  0.00209558  0.19581813  0.40556993  1
  Hf  Hf9  1  0.90845598  0.50036951  0.70068818  1
  Hf  Hf10  1  0.79568966  0.00072650  0.79806101  1
  Hf  Hf11  1  0.09779345  0.30527657  0.90004613  1
  Hf  Hf12  1  0.79400341  0.19467712  0.00526936  1
  Hf  Hf13  1  0.29987505  0.29927608  0.89434891  1
  Hf  Hf14  1  0.10406249  0.29878421  0.50289101  1
  Hf  Hf15  1  0.20614208  0.79101755  0.20763344  1
  Hf  Hf16  1  0.00496544  0.78950588  0.79749533  1
  Hf  Hf17  1  0.41133128  -0.00756248  -0.00396640  1
  Hf  Hf18  1  0.50978835  0.30641037  0.08226936  1
  Hf  Hf19  1  0.78899367  0.39716651  0.79719791  1
  Hf  Hf20  1  0.09393166  0.70055776  0.30674255  1
  Hf  Hf21  1  0.40403652  0.39927631  0.60191411  1
  Hf  Hf22  1  0.58657672  -0.00766858  0.59333167  1
  Hf  Hf23  1  0.89775950  0.89078103  0.50169732  1
  Hf  Hf24  1  0.09544640  0.09481250  0.89211314  1
  Hf  Hf25  1  0.20397081  0.19231204  0.60298134  1
  Hf  Hf26  1  0.59269389  0.19798402  0.19857955  1
  Hf  Hf27  1  0.89868074  0.70120281  0.30580861  1
  Hf  Hf28  1  0.02139033  0.41129280  0.20464201  1
  Hf  Hf29  1  0.58899704  -0.01387299  0.79451676  1
  Hf  Hf30  1  0.70291218  0.10296882  0.29370181  1
  Hf  Hf31  1  0.40614256  0.60479697  0.60600451  1
  Hf  Hf32  1  0.00167000  0.79396417  0.59944671  1
  Hf  Hf33  1  0.79033245  0.40634588  -0.00030945  1
  Hf  Hf34  1  0.59676529  -0.00288425  0.18720411  1
  Hf  Hf35  1  0.40460631  0.39270011  0.20390927  1
  Hf  Hf36  1  0.70955983  0.88444256  0.10584274  1
  Hf  Hf37  1  0.20658017  0.00106619  0.20820741  1
  Hf  Hf38  1  0.00458283  0.19998758  0.79282672  1
  Hf  Hf39  1  0.09657782  0.31208606  0.69654467  1
  Hf  Hf40  1  0.40569533  -0.00183643  0.19751626  1
  Hf  Hf41  1  0.40069863  0.19917359  0.39865082  1
  Hf  Hf42  1  0.40065716  0.40175462  0.79675548  1
  Hf  Hf43  1  0.88814984  0.10515188  0.29667364  1
  Hf  Hf44  1  0.30052132  0.51233215  0.71038203  1
  Hf  Hf45  1  0.59970599  0.80878208  0.41534945  1
  Hf  Hf46  1  0.90182548  0.50415262  0.89384440  1
  Hf  Hf47  1  0.60052983  0.61087683  0.00193978  1
  Hf  Hf48  1  0.20287641  0.59682285  0.40225599  1
  Hf  Hf49  1  0.09220915  0.50080422  0.89337376  1
  Zr  Zr50  1  0.09998692  0.91596247  0.70195474  1
  Zr  Zr51  1  0.10317556  0.10266579  0.10156569  1
  Zr  Zr52  1  0.11232437  0.30555827  0.10047001  1
  Zr  Zr53  1  0.10198817  0.69823792  0.09556005  1
  Zr  Zr54  1  0.00409259  0.59846955  0.19693408  1
  Zr  Zr55  1  0.40177395  0.19340840  0.00298221  1
  Zr  Zr56  1  0.69333495  0.50804817  0.89206193  1
  Zr  Zr57  1  0.39365688  0.40441055  -0.00534005  1
  Zr  Zr58  1  0.69887318  0.10232403  0.69637513  1
  Zr  Zr59  1  0.29964731  0.89905319  0.30806753  1
  Zr  Zr60  1  0.90118576  0.30218411  0.69808924  1
  Zr  Zr61  1  0.30773812  0.69361498  0.89177093  1
  Zr  Zr62  1  0.49985948  0.50772323  0.89348076  1
  Zr  Zr63  1  0.09937895  0.90652826  0.89119185  1
  Zr  Zr64  1  0.69815143  0.10597738  0.50000403  1
  Zr  Zr65  1  0.79708952  -0.00128412  0.40916796  1
  Zr  Zr66  1  0.00784609  0.20221488  0.20994770  1
  Zr  Zr67  1  0.50581696  0.10401926  0.89437331  1
  Zr  Zr68  1  0.89689875  0.30287240  0.11215782  1
  Zr  Zr69  1  -0.01147260  -0.00398909  0.00995558  1
  Zr  Zr70  1  0.90311167  0.30326801  0.89977745  1
  Zr  Zr71  1  0.79472765  0.41163503  0.59590088  1
  Zr  Zr72  1  0.70343780  0.70718137  0.29653889  1
  Zr  Zr73  1  0.00315317  0.00326257  0.39824576  1
  Zr  Zr74  1  0.29625346  0.90217357  0.69653619  1
  Zr  Zr75  1  0.30436351  0.49855583  0.30318075  1
  Zr  Zr76  1  0.40630457  -0.00413154  0.40568174  1
  Zr  Zr77  1  0.58989204  0.40519210  0.21425965  1
  Zr  Zr78  1  0.89582846  0.89495574  0.90031322  1
  Zr  Zr79  1  0.50907727  0.49908875  0.50054710  1
  Zr  Zr80  1  0.69927291  0.30420023  0.10663667  1
  Zr  Zr81  1  0.89335445  0.50311181  0.09963289  1
  Zr  Zr82  1  0.60441258  0.59834680  0.40254716  1
  Zr  Zr83  1  0.39995198  0.60016454  0.20698722  1
  Zr  Zr84  1  0.89504928  0.10715605  0.69147563  1
  Zr  Zr85  1  0.89920747  0.90526833  0.69390256  1
  Zr  Zr86  1  0.49821956  0.70260459  0.30476465  1
  Zr  Zr87  1  0.90022436  0.69386293  0.89982253  1
  Zr  Zr88  1  0.70124248  0.89214510  0.89892248  1
  Zr  Zr89  1  0.88842001  0.50224113  0.29414776  1
  Zr  Zr90  1  0.68714333  0.30496054  0.49712330  1
  Zr  Zr91  1  0.70501314  0.88756160  0.68932391  1
  Zr  Zr92  1  0.30402279  0.70058805  0.09842703  1
  Zr  Zr93  1  0.10957574  0.89594884  0.09943444  1
  Zr  Zr94  1  0.67951854  0.29295319  0.90524376  1
  Zr  Zr95  1  0.88751153  0.89258522  0.29625400  1
  Zr  Zr96  1  0.20682712  0.41234040  0.59735868  1
  Zr  Zr97  1  0.00127850  0.40308181  0.39736451  1
  Zr  Zr98  1  0.19835551  0.79920950  0.59745416  1
  Zr  Zr99  1  0.21607798  0.00016867  -0.00831408  1
  Ta  Ta100  1  0.49969337  0.70425320  0.10380006  1
  Ta  Ta101  1  0.59898819  0.60082341  0.19895871  1
  Ta  Ta102  1  0.69252543  0.29428340  0.69636014  1
  Ta  Ta103  1  0.20537610  0.19725259  0.79436721  1
  Ta  Ta104  1  0.20317405  0.40352608  0.80003977  1
  Ta  Ta105  1  0.40040603  0.60063904  -0.00150610  1
  Ta  Ta106  1  0.19449957  0.58710071  0.20122064  1
  Ta  Ta107  1  0.30626673  0.09817430  0.10493416  1
  Ta  Ta108  1  0.78945474  0.60842632  0.00373709  1
  Ta  Ta109  1  0.20107366  0.60118266  0.59687819  1
  Ta  Ta110  1  0.58458193  0.19797000  0.59643043  1
  Ta  Ta111  1  0.49994087  0.50449818  0.09738615  1
  Ta  Ta112  1  0.91057538  0.30215070  0.51167265  1
  Ta  Ta113  1  0.40430358  0.19961893  0.20284472  1
  Ta  Ta114  1  0.30286066  0.29633152  0.69770349  1
  Ta  Ta115  1  0.29554311  0.09303905  0.49793152  1
  Ta  Ta116  1  0.69928140  0.50001990  0.30459861  1
  Ta  Ta117  1  0.29747841  0.49806051  0.10084512  1
  Ta  Ta118  1  0.69703492  0.09747307  0.89892087  1
  Ta  Ta119  1  0.20587320  0.40382132  0.40272928  1
  Ta  Ta120  1  0.40014728  0.79881830  0.40744539  1
  Ta  Ta121  1  0.19790077  0.79123562  0.79942413  1
  Ta  Ta122  1  0.30528756  0.89144191  0.09434002  1
  Ta  Ta123  1  0.21605287  0.19817063  0.20870108  1
  Ta  Ta124  1  0.30625448  0.69862765  0.50150706  1
  Ta  Ta125  1  0.49664614  0.29201886  0.70111453  1
  Ta  Ta126  1  0.50106867  0.09907640  0.30138142  1
  Ta  Ta127  1  0.10102494  0.68473492  0.70096562  1
  Ta  Ta128  1  0.59451872  0.39559959  0.79134254  1
  Ta  Ta129  1  0.30064186  0.70029350  0.70044851  1
  Ta  Ta130  1  0.69954781  0.89488431  0.29395600  1
  Ta  Ta131  1  0.41108597  0.39792420  0.39633910  1
  Ta  Ta132  1  0.88987263  0.70881080  0.10036378  1
  Ta  Ta133  1  -0.00459273  0.80406235  0.19574143  1
  Ta  Ta134  1  0.39950815  0.00314905  0.60061438  1
  Ta  Ta135  1  0.41009092  0.80145363  0.79605029  1
  Ta  Ta136  1  0.20020572  0.79432985  -0.01455117  1
  Ta  Ta137  1  0.30374675  0.30103260  0.49846632  1
  Ta  Ta138  1  0.49863004  0.70159861  0.50491991  1
  Ta  Ta139  1  0.88580668  0.09902332  0.11264291  1
  Ta  Ta140  1  0.69004099  0.50609201  0.69801137  1
  Ta  Ta141  1  0.80003800  0.59752346  0.42150894  1
  Ta  Ta142  1  0.11944910  0.30278228  0.30348599  1
  Ta  Ta143  1  -0.00019700  0.79692378  0.00161029  1
  Ta  Ta144  1  0.40016340  -0.00322528  0.79709054  1
  Ta  Ta145  1  0.20168536  0.59412926  -0.00386323  1
  Ta  Ta146  1  0.79320803  -0.00028301  0.00824277  1
  Ta  Ta147  1  0.79561400  0.61055162  0.78148209  1
  Ta  Ta148  1  0.70080776  0.70087481  0.51412406  1
  Ta  Ta149  1  0.70105383  0.30136208  0.30375176  1
  Ti  Ti150  1  0.59695675  -0.00744806  0.00385741  1
  Ti  Ti151  1  0.50229207  0.29748714  0.89531590  1
  Ti  Ti152  1  0.40002651  0.19418091  0.59409695  1
  Ti  Ti153  1  0.00347946  0.60298226  0.00142533  1
  Ti  Ti154  1  0.71202796  0.89342880  0.51645022  1
  Ti  Ti155  1  0.70293579  0.70578572  0.89470797  1
  Ti  Ti156  1  0.59465801  0.61905302  0.79246849  1
  Ti  Ti157  1  0.30127616  0.30132677  0.30407804  1
  Ti  Ti158  1  0.58779764  0.79681926  0.60812060  1
  Ti  Ti159  1  0.11554690  0.10029706  0.31063947  1
  Ti  Ti160  1  0.88909043  0.30345044  0.29398570  1
  Ti  Ti161  1  0.69062801  0.49853113  0.10317587  1
  Ti  Ti162  1  0.09410762  0.50299017  0.70092119  1
  Ti  Ti163  1  0.40089621  0.80182545  0.20346903  1
  Ti  Ti164  1  0.80336666  0.78861825  0.78957233  1
  Ti  Ti165  1  0.49356394  0.10107989  0.69726005  1
  Ti  Ti166  1  0.19443979  0.60199318  0.80500390  1
  Ti  Ti167  1  0.40485273  0.80424547  0.60161465  1
  Ti  Ti168  1  0.20966901  0.19663310  0.39964845  1
  Ti  Ti169  1  -0.00832345  0.59087576  0.40493566  1
  Ti  Ti170  1  0.59708083  0.39910036  0.60620087  1
  Ti  Ti171  1  0.29557513  0.90288743  0.50279197  1
  Ti  Ti172  1  0.20736199  0.79517071  0.40255754  1
  Ti  Ti173  1  0.39055397  0.18932741  0.79377380  1
  Ti  Ti174  1  0.40816667  0.80084486  -0.00892277  1
  Ti  Ti175  1  0.59784141  0.19850455  0.79112105  1
  Ti  Ti176  1  0.10816110  0.90453139  0.49054936  1
  Ti  Ti177  1  0.50718570  0.89182468  0.29435475  1
  Ti  Ti178  1  0.30288211  0.89427902  0.89280183  1
  Ti  Ti179  1  0.81345646  0.76774471  0.60924188  1
  Ti  Ti180  1  0.00291942  0.40700289  0.00819615  1
  Ti  Ti181  1  0.20331285  0.40982480  -0.00229968  1
  Ti  Ti182  1  0.79626219  0.79136359  0.41065211  1
  Ti  Ti183  1  0.50608756  0.50596264  0.70338195  1
  Ti  Ti184  1  0.31295955  0.50439176  0.49669812  1
  Ti  Ti185  1  -0.01118036  0.60276455  0.59460643  1
  Ti  Ti186  1  0.10182678  0.09653530  0.69611707  1
  Ti  Ti187  1  0.60360566  0.60869981  0.60703646  1
  Ti  Ti188  1  0.60148651  0.17268581  0.01575585  1
  Ti  Ti189  1  0.58835352  0.20179393  0.39836467  1
  Ti  Ti190  1  0.78676078  0.60322480  0.19171761  1
  Ti  Ti191  1  0.21799832  0.01613219  0.79541578  1
  Ti  Ti192  1  -0.00348211  0.19882261  0.00598444  1
  Ti  Ti193  1  0.49965704  0.30150522  0.49918165  1
  Ti  Ti194  1  0.09922809  0.89104049  0.31144180  1
  Ti  Ti195  1  0.09214758  0.50010036  0.50582411  1
  Ti  Ti196  1  0.80577782  0.20892988  0.40523225  1
  Ti  Ti197  1  0.29772406  0.30252614  0.10366339  1
  Ti  Ti198  1  0.79841578  0.20498812  0.59247663  1
  Ti  Ti199  1  0.58814092  0.79501989  0.79595754  1
  Mo  Mo200  1  0.78411794  0.20011952  0.80360658  1
  Mo  Mo201  1  0.50222986  0.29431143  0.30804702  1
  Mo  Mo202  1  -0.00418421  0.00684737  0.78927314  1
  Mo  Mo203  1  0.49575050  0.88893550  0.09932487  1
  Mo  Mo204  1  0.00789595  0.20230269  0.59660994  1
  Mo  Mo205  1  0.10765111  0.49923390  0.30905511  1
  Mo  Mo206  1  0.40760412  0.60728004  0.79803127  1
  Mo  Mo207  1  0.20918004  0.39598529  0.20330145  1
  Mo  Mo208  1  0.49892373  0.09542557  0.10274860  1
  Mo  Mo209  1  0.30565739  0.09995620  0.89166979  1
  Mo  Mo210  1  0.80143227  0.00987893  0.59181718  1
  Mo  Mo211  1  0.10248590  0.69580945  0.89932385  1
  Mo  Mo212  1  0.30732207  0.10079509  0.69542234  1
  Mo  Mo213  1  0.49796430  0.70217878  0.89793294  1
  Mo  Mo214  1  0.50210503  0.50140540  0.30364219  1
  Mo  Mo215  1  0.69156481  0.70039405  0.70027971  1
  Mo  Mo216  1  0.79585077  -0.00359533  0.19718700  1
  Mo  Mo217  1  0.90851450  0.69050082  0.69897956  1
  Mo  Mo218  1  0.00309492  0.40935921  0.59506425  1
  Mo  Mo219  1  0.00726528  0.40309341  0.79755371  1
  Mo  Mo220  1  0.29988154  0.70138943  0.31143171  1
  Mo  Mo221  1  0.89359864  0.11820121  0.49828401  1
  Mo  Mo222  1  0.48991571  0.89288415  0.50754737  1
  Mo  Mo223  1  0.49864169  0.70352227  0.69928375  1
  Mo  Mo224  1  0.89932681  0.69605762  0.49906582  1
  Mo  Mo225  1  0.19941081  -0.00005242  0.40277784  1
  Mo  Mo226  1  0.49821087  0.89676195  0.89593990  1
  Mo  Mo227  1  0.20094989  0.00436984  0.59149185  1
  Mo  Mo228  1  0.40015247  0.60417516  0.40831156  1
  Mo  Mo229  1  0.30537026  0.10353374  0.30086503  1
  Mo  Mo230  1  0.00245887  0.80444588  0.39979816  1
  Mo  Mo231  1  0.11385933  0.10257020  0.49445871  1
  Mo  Mo232  1  0.59430682  0.41544972  -0.00804275  1
  Mo  Mo233  1  0.69742623  0.69729042  0.10278879  1
  Mo  Mo234  1  0.29348627  0.50250642  0.90008540  1
  Mo  Mo235  1  0.69752492  0.50643132  0.50888881  1
  Mo  Mo236  1  0.89827522  0.89675147  0.09951668  1
  Mo  Mo237  1  0.10852322  0.50089473  0.08916408  1
  Mo  Mo238  1  0.80129282  0.79488437  0.19940197  1
  Mo  Mo239  1  0.70096212  0.08989610  0.09921826  1
  Mo  Mo240  1  0.59430162  0.79913369  0.19813509  1
  Mo  Mo241  1  0.59921074  0.39910103  0.40078391  1
  Mo  Mo242  1  0.90524178  0.50246995  0.50513676  1
  Mo  Mo243  1  0.00198193  0.59988651  0.79463683  1
  Mo  Mo244  1  0.79523508  0.59938891  0.60074516  1
  Mo  Mo245  1  0.78654973  0.40445624  0.20685292  1
  Mo  Mo246  1  0.79365267  0.20536948  0.20537703  1
  Mo  Mo247  1  0.49336038  0.89669734  0.69802001  1
  Mo  Mo248  1  0.80052119  0.79334360  0.00071419  1
  Mo  Mo249  1  0.49451417  0.10328329  0.50039061  1
