# generated using pymatgen
data_HfZrTaTiMo
_symmetry_space_group_name_H-M   'P 1'
_cell_length_a   16.88165599
_cell_length_b   16.87256325
_cell_length_c   16.88837966
_cell_angle_alpha   90.03781463
_cell_angle_beta   90.00655069
_cell_angle_gamma   90.03211012
_symmetry_Int_Tables_number   1
_chemical_formula_structural   HfZrTaTiMo
_chemical_formula_sum   'Hf50 Zr50 Ta50 Ti50 Mo50'
_cell_volume   4810.43032861
_cell_formula_units_Z   50
loop_
 _symmetry_equiv_pos_site_id
 _symmetry_equiv_pos_as_xyz
  1  'x, y, z'
loop_
 _atom_site_type_symbol
 _atom_site_label
 _atom_site_symmetry_multiplicity
 _atom_site_fract_x
 _atom_site_fract_y
 _atom_site_fract_z
 _atom_site_occupancy
  Hf  Hf0  1  0.19825596  0.39775566  0.00420086  1
  Hf  Hf1  1  0.50644865  0.09666446  0.50842875  1
  Hf  Hf2  1  0.40283229  0.40412117  0.40187198  1
  Hf  Hf3  1  -0.00272426  0.20182882  0.59936902  1
  Hf  Hf4  1  0.61599329  0.79659737  0.40039814  1
  Hf  Hf5  1  0.18149186  0.79869956  0.02520663  1
  Hf  Hf6  1  0.89807261  0.09444157  0.09493831  1
  Hf  Hf7  1  0.69790067  0.29325706  0.50348817  1
  Hf  Hf8  1  0.20617754  0.59485766  0.40286696  1
  Hf  Hf9  1  0.40433310  0.79884938  0.79576093  1
  Hf  Hf10  1  0.50660596  0.69753334  0.49759428  1
  Hf  Hf11  1  0.89686209  0.50165531  0.71727703  1
  Hf  Hf12  1  0.19677358  -0.01579203  0.19006524  1
  Hf  Hf13  1  0.40614757  0.60005103  0.20507931  1
  Hf  Hf14  1  0.50605315  0.50268239  0.09760608  1
  Hf  Hf15  1  0.10759459  0.30471965  0.70073716  1
  Hf  Hf16  1  0.89308349  0.30242926  0.89520699  1
  Hf  Hf17  1  0.50607247  0.89224414  0.10222674  1
  Hf  Hf18  1  0.79745219  0.19134786  0.40323516  1
  Hf  Hf19  1  0.39471780  0.59200171  0.00150763  1
  Hf  Hf20  1  -0.00240358  0.20182964  0.20747239  1
  Hf  Hf21  1  0.20608033  0.00255900  0.59095455  1
  Hf  Hf22  1  0.40229245  0.20373259  0.59993181  1
  Hf  Hf23  1  0.19524768  -0.00057471  0.00092505  1
  Hf  Hf24  1  0.50134947  0.69860587  0.68446204  1
  Hf  Hf25  1  0.28848941  0.31391159  0.50674464  1
  Hf  Hf26  1  0.00472967  0.20259941  -0.00608912  1
  Hf  Hf27  1  0.50578027  0.29711391  0.29293036  1
  Hf  Hf28  1  0.09968639  0.30445350  0.49936675  1
  Hf  Hf29  1  0.89795626  0.50004301  0.89623143  1
  Hf  Hf30  1  0.20135198  0.19349663  0.40630155  1
  Hf  Hf31  1  0.59985660  0.59151925  0.80223760  1
  Hf  Hf32  1  0.60761088  -0.00206155  0.39917321  1
  Hf  Hf33  1  0.19830570  0.60102488  0.19623805  1
  Hf  Hf34  1  0.09761570  0.70132602  0.29832320  1
  Hf  Hf35  1  0.49839661  0.69843737  0.91201523  1
  Hf  Hf36  1  0.89666834  0.89610794  0.69089387  1
  Hf  Hf37  1  0.69890148  0.10231470  0.89381750  1
  Hf  Hf38  1  0.29965707  0.89436043  0.69832205  1
  Hf  Hf39  1  0.51276044  0.51061566  0.49643413  1
  Hf  Hf40  1  0.90280850  0.30558650  0.70857711  1
  Hf  Hf41  1  0.00181367  0.39936109  0.00464498  1
  Hf  Hf42  1  0.09781927  0.70108407  0.50497835  1
  Hf  Hf43  1  0.90114688  0.09518908  0.49902811  1
  Hf  Hf44  1  0.09918800  0.89480818  0.69303599  1
  Hf  Hf45  1  0.09478386  0.09964789  0.10202577  1
  Hf  Hf46  1  0.10368449  0.69860783  0.69805788  1
  Hf  Hf47  1  0.29973463  0.30261987  0.89157150  1
  Hf  Hf48  1  0.79808995  0.19609211  0.19639105  1
  Hf  Hf49  1  0.89093298  0.70146698  0.69770110  1
  Zr  Zr50  1  0.29170676  0.49053709  0.68940946  1
  Zr  Zr51  1  0.29388632  0.69671928  0.69218355  1
  Zr  Zr52  1  0.40018659  0.59164348  0.80097403  1
  Zr  Zr53  1  0.70248709  0.89542068  0.69935078  1
  Zr  Zr54  1  0.90445169  0.49993561  0.30710841  1
  Zr  Zr55  1  0.70369198  0.50320190  0.29853212  1
  Zr  Zr56  1  0.29396773  0.30574586  0.70198901  1
  Zr  Zr57  1  0.80076017  0.40520752  0.59627391  1
  Zr  Zr58  1  0.60149039  0.79175576  0.80174623  1
  Zr  Zr59  1  0.59765413  0.19469228  0.40028376  1
  Zr  Zr60  1  0.19647052  0.59589608  0.00275180  1
  Zr  Zr61  1  0.19349417  0.00715625  0.80190987  1
  Zr  Zr62  1  0.50026046  0.89406598  0.50568269  1
  Zr  Zr63  1  0.79748644  0.79217856  0.00870225  1
  Zr  Zr64  1  0.00238311  0.40104153  0.20289351  1
  Zr  Zr65  1  0.30463656  0.89902570  0.29856686  1
  Zr  Zr66  1  0.10195365  0.09369501  0.30155330  1
  Zr  Zr67  1  0.89350852  0.30633268  0.31011459  1
  Zr  Zr68  1  -0.01184242  0.79095608  0.19081792  1
  Zr  Zr69  1  0.09838702  0.89515616  0.29902817  1
  Zr  Zr70  1  0.39844310  0.20291272  0.20052937  1
  Zr  Zr71  1  0.40217264  0.00583268  0.79410016  1
  Zr  Zr72  1  0.51007697  0.10555896  0.89861210  1
  Zr  Zr73  1  0.20313444  0.80748268  0.40821789  1
  Zr  Zr74  1  0.59988430  0.40168777  0.39854823  1
  Zr  Zr75  1  0.29245324  0.71023862  0.90227885  1
  Zr  Zr76  1  0.30342400  0.89461545  0.90793328  1
  Zr  Zr77  1  0.09944379  0.49811003  0.70142410  1
  Zr  Zr78  1  0.30120636  0.70535320  0.29938461  1
  Zr  Zr79  1  0.61088812  0.00358828  0.01656642  1
  Zr  Zr80  1  0.59903518  0.40512914  -0.00808864  1
  Zr  Zr81  1  0.88583699  0.69035404  0.89278026  1
  Zr  Zr82  1  0.50398350  0.90449868  0.90425973  1
  Zr  Zr83  1  0.30080137  0.11183650  0.89613777  1
  Zr  Zr84  1  0.60854309  0.41287020  0.60455835  1
  Zr  Zr85  1  -0.00421674  0.79858693  0.79828156  1
  Zr  Zr86  1  0.81287791  0.60861031  0.19349770  1
  Zr  Zr87  1  0.40061262  0.19853924  0.40482066  1
  Zr  Zr88  1  0.78711068  0.59071255  0.59261782  1
  Zr  Zr89  1  0.89395243  0.90258405  0.90058008  1
  Zr  Zr90  1  0.70066730  0.29973827  0.71143950  1
  Zr  Zr91  1  0.39885150  0.39734575  0.19342183  1
  Zr  Zr92  1  0.41085136  0.00538848  0.20521471  1
  Zr  Zr93  1  -0.00707967  0.59640419  0.59434966  1
  Zr  Zr94  1  0.29728037  0.10602274  0.10200272  1
  Zr  Zr95  1  0.10003262  0.89099431  0.89730561  1
  Zr  Zr96  1  -0.00761081  0.60291692  0.01345540  1
  Zr  Zr97  1  0.69296397  0.10438375  0.69829864  1
  Zr  Zr98  1  0.79700184  0.40443635  0.00982670  1
  Zr  Zr99  1  0.70160178  0.90031486  0.89413427  1
  Ta  Ta100  1  0.89683764  0.70704788  0.49651985  1
  Ta  Ta101  1  0.10426156  0.49481974  0.49560868  1
  Ta  Ta102  1  -0.01092353  -0.00907836  0.20087821  1
  Ta  Ta103  1  0.00420657  0.19410167  0.80343265  1
  Ta  Ta104  1  0.69480651  0.69605140  0.10313974  1
  Ta  Ta105  1  0.19844443  0.59547809  0.80620166  1
  Ta  Ta106  1  0.39986479  0.00378930  0.40360009  1
  Ta  Ta107  1  0.29249537  0.11427196  0.69699216  1
  Ta  Ta108  1  0.79803863  0.61087247  0.40287754  1
  Ta  Ta109  1  0.90129062  0.09918275  0.69918216  1
  Ta  Ta110  1  0.79699191  0.00069421  0.59084937  1
  Ta  Ta111  1  0.69423652  0.29744571  0.10335856  1
  Ta  Ta112  1  0.29714968  0.49372239  0.30172150  1
  Ta  Ta113  1  0.29651357  0.09872108  0.30295430  1
  Ta  Ta114  1  0.79502641  -0.00891880  0.40289779  1
  Ta  Ta115  1  0.19516299  0.20643155  -0.00289935  1
  Ta  Ta116  1  -0.01176822  0.80327710  0.40110994  1
  Ta  Ta117  1  0.50554129  0.90387778  0.69157300  1
  Ta  Ta118  1  -0.00366904  0.40330212  0.59585717  1
  Ta  Ta119  1  0.80334979  0.00316774  0.79286127  1
  Ta  Ta120  1  0.40294203  0.21137564  0.00459447  1
  Ta  Ta121  1  -0.00851014  -0.00692837  0.39961029  1
  Ta  Ta122  1  0.69805713  0.29457160  0.89730356  1
  Ta  Ta123  1  0.79565792  -0.00330084  0.19907244  1
  Ta  Ta124  1  0.09658332  0.69582240  0.89627546  1
  Ta  Ta125  1  0.19681751  0.40015097  0.20292558  1
  Ta  Ta126  1  0.59688711  0.60442211  0.20956569  1
  Ta  Ta127  1  0.10130507  0.10659197  0.69709854  1
  Ta  Ta128  1  0.70075988  0.09846078  0.29553540  1
  Ta  Ta129  1  0.09689517  0.49928731  0.10862325  1
  Ta  Ta130  1  0.08841245  0.90107311  0.50318241  1
  Ta  Ta131  1  0.70061575  0.30009326  0.29337437  1
  Ta  Ta132  1  0.41217152  0.79293236  0.20372872  1
  Ta  Ta133  1  0.41415203  0.20813263  0.78993697  1
  Ta  Ta134  1  0.39419091  0.00306444  0.59754638  1
  Ta  Ta135  1  0.50643165  0.89662692  0.30126302  1
  Ta  Ta136  1  0.30993114  0.70112860  0.50297345  1
  Ta  Ta137  1  0.29096992  0.30268965  0.30302898  1
  Ta  Ta138  1  0.09660982  0.09572158  0.50162849  1
  Ta  Ta139  1  0.39777341  0.59062429  0.58954107  1
  Ta  Ta140  1  0.50960156  0.11277948  0.10529585  1
  Ta  Ta141  1  -0.00030628  0.19633850  0.39955718  1
  Ta  Ta142  1  0.31431406  0.89044938  0.09956322  1
  Ta  Ta143  1  0.89530118  0.08965828  0.30094516  1
  Ta  Ta144  1  -0.00080695  0.00792554  0.79832935  1
  Ta  Ta145  1  0.70502741  0.69704906  0.70108777  1
  Ta  Ta146  1  0.89694018  0.09780976  0.89933853  1
  Ta  Ta147  1  0.60354597  0.40458613  0.19815035  1
  Ta  Ta148  1  0.40541200  0.00885769  0.00934696  1
  Ta  Ta149  1  0.40657875  0.59756792  0.39354276  1
  Ti  Ti150  1  0.89604114  0.29893174  0.10015917  1
  Ti  Ti151  1  0.90249439  0.30447587  0.49543557  1
  Ti  Ti152  1  -0.00375642  0.79317924  0.00633518  1
  Ti  Ti153  1  0.79384038  0.80284827  0.58090410  1
  Ti  Ti154  1  0.50859375  0.09504000  0.69981118  1
  Ti  Ti155  1  0.58595280  0.21486313  0.60701892  1
  Ti  Ti156  1  0.50229610  0.50319800  0.69467785  1
  Ti  Ti157  1  0.88712056  0.89136336  0.30075292  1
  Ti  Ti158  1  0.40073647  0.39486113  0.00011621  1
  Ti  Ti159  1  0.50539284  0.69931629  0.09754135  1
  Ti  Ti160  1  0.79213565  0.40579135  0.40924045  1
  Ti  Ti161  1  0.80155406  0.19536166  0.59847491  1
  Ti  Ti162  1  -0.00032832  0.60216062  0.39646564  1
  Ti  Ti163  1  0.70080824  0.89044399  0.11453906  1
  Ti  Ti164  1  0.41277754  0.39922050  0.59360483  1
  Ti  Ti165  1  0.20704508  -0.00193087  0.40945440  1
  Ti  Ti166  1  -0.00306392  0.60074189  0.19972755  1
  Ti  Ti167  1  0.79393550  0.19793165  0.00338486  1
  Ti  Ti168  1  0.59933062  0.78931151  0.20735837  1
  Ti  Ti169  1  0.60843424  0.59779415  -0.00585696  1
  Ti  Ti170  1  0.60784325  0.79420371  0.00154422  1
  Ti  Ti171  1  0.59625079  0.40366324  0.80145327  1
  Ti  Ti172  1  0.40576242  0.80093917  0.39956158  1
  Ti  Ti173  1  0.60418330  0.20252772  0.00373986  1
  Ti  Ti174  1  0.71052292  0.50101573  0.89342917  1
  Ti  Ti175  1  0.50536171  0.29808001  0.89585438  1
  Ti  Ti176  1  0.80043591  0.40293255  0.19359412  1
  Ti  Ti177  1  -0.00307436  -0.00093827  0.59897319  1
  Ti  Ti178  1  0.29841203  0.48873953  0.89400962  1
  Ti  Ti179  1  0.61286449  -0.00417291  0.59371107  1
  Ti  Ti180  1  0.29764436  0.49306327  0.10353415  1
  Ti  Ti181  1  0.71143347  0.70474405  0.29734396  1
  Ti  Ti182  1  0.10320010  0.30483404  0.88625734  1
  Ti  Ti183  1  0.70067082  0.50835415  0.10217439  1
  Ti  Ti184  1  0.90460548  0.49854995  0.49010831  1
  Ti  Ti185  1  0.00343053  -0.00368024  -0.00387661  1
  Ti  Ti186  1  0.10379407  0.29841664  0.10630142  1
  Ti  Ti187  1  0.20047549  0.20809768  0.20168035  1
  Ti  Ti188  1  0.79303911  0.00058667  0.00559634  1
  Ti  Ti189  1  0.41471758  0.40230929  0.80009424  1
  Ti  Ti190  1  0.80567504  0.19360944  0.79922131  1
  Ti  Ti191  1  0.60361293  0.00730005  0.20358334  1
  Ti  Ti192  1  0.61296561  0.79555774  0.59389747  1
  Ti  Ti193  1  0.09122062  0.49924674  0.89162792  1
  Ti  Ti194  1  0.10358936  0.30991019  0.31196470  1
  Ti  Ti195  1  0.70496374  0.89548733  0.29325150  1
  Ti  Ti196  1  0.50870272  0.29908806  0.09937082  1
  Ti  Ti197  1  0.89394331  0.90013663  0.09918210  1
  Ti  Ti198  1  0.30572477  0.70823023  0.10304102  1
  Ti  Ti199  1  0.20629288  0.80448030  0.59019173  1
  Mo  Mo200  1  0.69586092  0.69189113  0.90584745  1
  Mo  Mo201  1  0.00193830  0.40237908  0.40519004  1
  Mo  Mo202  1  0.50051566  0.50417715  0.29694762  1
  Mo  Mo203  1  0.70423708  0.89899041  0.49927398  1
  Mo  Mo204  1  0.09305961  0.69445938  0.10392631  1
  Mo  Mo205  1  0.19709468  0.78965186  0.79426411  1
  Mo  Mo206  1  0.09304448  0.10406666  0.90048311  1
  Mo  Mo207  1  0.29097005  0.30151275  0.09629562  1
  Mo  Mo208  1  0.79519144  0.79790485  0.79809223  1
  Mo  Mo209  1  0.39982932  0.80364405  0.59624186  1
  Mo  Mo210  1  -0.00612292  0.80110296  0.59158575  1
  Mo  Mo211  1  0.30885535  0.89848760  0.50068761  1
  Mo  Mo212  1  0.19633781  0.19526359  0.59821054  1
  Mo  Mo213  1  0.00799915  0.59943268  0.80387161  1
  Mo  Mo214  1  0.90052959  0.49840975  0.10311352  1
  Mo  Mo215  1  0.50189590  0.30380527  0.50816843  1
  Mo  Mo216  1  0.89396381  0.69895021  0.09706401  1
  Mo  Mo217  1  0.78783876  0.60049544  0.80098499  1
  Mo  Mo218  1  0.70240418  0.70134242  0.50141406  1
  Mo  Mo219  1  0.60758678  0.60827984  0.39084944  1
  Mo  Mo220  1  0.30459615  0.50339225  0.49664679  1
  Mo  Mo221  1  0.70145769  0.10351913  0.10286840  1
  Mo  Mo222  1  0.40858539  0.79705310  0.01200126  1
  Mo  Mo223  1  0.60324208  0.60305239  0.60487417  1
  Mo  Mo224  1  0.19612501  0.40586532  0.81075663  1
  Mo  Mo225  1  0.70053647  0.50097962  0.71548450  1
  Mo  Mo226  1  0.19385439  0.20269284  0.80201388  1
  Mo  Mo227  1  0.70177939  0.09752582  0.50405864  1
  Mo  Mo228  1  0.80211425  0.80019286  0.39483073  1
  Mo  Mo229  1  0.50605260  0.70302531  0.30341126  1
  Mo  Mo230  1  0.79090468  0.40003728  0.80568853  1
  Mo  Mo231  1  0.79469984  0.80276665  0.20068931  1
  Mo  Mo232  1  0.07902534  0.90412611  0.09780699  1
  Mo  Mo233  1  0.60227238  0.00359115  0.78519705  1
  Mo  Mo234  1  0.20518545  0.79663512  0.19287283  1
  Mo  Mo235  1  0.10109219  0.50244506  0.30217208  1
  Mo  Mo236  1  0.78671576  0.59677912  0.00284373  1
  Mo  Mo237  1  0.90014419  0.70159248  0.30880007  1
  Mo  Mo238  1  0.60409860  0.20078558  0.19850914  1
  Mo  Mo239  1  0.19795411  0.40387649  0.39332089  1
  Mo  Mo240  1  0.89922678  0.89943204  0.49878984  1
  Mo  Mo241  1  0.20674365  0.59791536  0.58827746  1
  Mo  Mo242  1  0.49533073  0.49431421  0.90264190  1
  Mo  Mo243  1  0.50457806  0.09236088  0.29991243  1
  Mo  Mo244  1  0.69895311  0.50984637  0.48592614  1
  Mo  Mo245  1  0.00196960  0.39564750  0.80393880  1
  Mo  Mo246  1  0.19304061  0.40756740  0.59165764  1
  Mo  Mo247  1  0.30094262  0.09689347  0.50049286  1
  Mo  Mo248  1  0.49947581  0.31235510  0.70397170  1
  Mo  Mo249  1  0.59282394  0.20621555  0.80066316  1
