# generated using pymatgen
data_HfZrTaTiMo
_symmetry_space_group_name_H-M   'P 1'
_cell_length_a   16.88585834
_cell_length_b   16.89238663
_cell_length_c   16.89513601
_cell_angle_alpha   90.01842205
_cell_angle_beta   90.02966164
_cell_angle_gamma   90.00020542
_symmetry_Int_Tables_number   1
_chemical_formula_structural   HfZrTaTiMo
_chemical_formula_sum   'Hf50 Zr50 Ta50 Ti50 Mo50'
_cell_volume   4819.20905699
_cell_formula_units_Z   50
loop_
 _symmetry_equiv_pos_site_id
 _symmetry_equiv_pos_as_xyz
  1  'x, y, z'
loop_
 _atom_site_type_symbol
 _atom_site_label
 _atom_site_symmetry_multiplicity
 _atom_site_fract_x
 _atom_site_fract_y
 _atom_site_fract_z
 _atom_site_occupancy
  Hf  Hf0  1  0.10651959  0.50815696  0.90735677  1
  Hf  Hf1  1  0.00073544  0.39517286  0.20957300  1
  Hf  Hf2  1  0.29188212  0.69220059  0.09427145  1
  Hf  Hf3  1  -0.00455911  0.19945615  0.80292207  1
  Hf  Hf4  1  0.09018274  0.30968879  0.69040722  1
  Hf  Hf5  1  0.49541594  0.89096954  0.90017319  1
  Hf  Hf6  1  0.49547995  0.29897908  0.70323493  1
  Hf  Hf7  1  0.28738494  0.50076678  0.29151439  1
  Hf  Hf8  1  0.70925020  0.49658132  0.49254717  1
  Hf  Hf9  1  0.70930851  0.69503787  0.70440475  1
  Hf  Hf10  1  0.29372419  0.10583751  0.09883490  1
  Hf  Hf11  1  0.88918993  0.08924786  0.48360672  1
  Hf  Hf12  1  0.31310721  0.69598175  0.50866818  1
  Hf  Hf13  1  0.90270479  0.50037641  0.69908387  1
  Hf  Hf14  1  0.10112674  0.70435463  0.70636498  1
  Hf  Hf15  1  -0.00130951  0.19844637  0.00624914  1
  Hf  Hf16  1  0.19462715  0.79641410  0.40897517  1
  Hf  Hf17  1  0.61071382  0.19009495  0.20148630  1
  Hf  Hf18  1  0.41451527  0.59798011  -0.00635375  1
  Hf  Hf19  1  0.89308263  0.51600988  0.11130360  1
  Hf  Hf20  1  0.89774918  0.29181051  0.10983582  1
  Hf  Hf21  1  0.69587367  0.30051468  0.10275668  1
  Hf  Hf22  1  0.39435919  -0.00400175  -0.00266896  1
  Hf  Hf23  1  0.41451446  0.60148454  0.20544164  1
  Hf  Hf24  1  0.70326765  0.69766196  0.50065969  1
  Hf  Hf25  1  0.20387957  0.40170557  0.80210636  1
  Hf  Hf26  1  0.19395414  0.60242309  0.40799444  1
  Hf  Hf27  1  0.39037316  0.20386928  0.20488174  1
  Hf  Hf28  1  0.09437632  0.29797996  0.49165071  1
  Hf  Hf29  1  0.89470868  0.70825659  0.89869984  1
  Hf  Hf30  1  0.71570191  0.91406763  0.49901120  1
  Hf  Hf31  1  0.70820152  0.30136907  0.69387985  1
  Hf  Hf32  1  0.30309956  0.89102111  0.09998009  1
  Hf  Hf33  1  0.20125636  -0.01404945  0.60071105  1
  Hf  Hf34  1  0.90395841  0.89588960  0.90356102  1
  Hf  Hf35  1  0.59947110  0.59473709  0.60127876  1
  Hf  Hf36  1  0.30471704  0.49914609  0.90757195  1
  Hf  Hf37  1  0.59854945  0.79853763  0.21340566  1
  Hf  Hf38  1  0.49494664  0.69545128  0.50038523  1
  Hf  Hf39  1  0.00153720  0.60551359  0.59172878  1
  Hf  Hf40  1  0.19554679  0.00268337  0.20341014  1
  Hf  Hf41  1  0.38505545  0.20957738  0.39313954  1
  Hf  Hf42  1  0.60268801  -0.00097811  0.00580431  1
  Hf  Hf43  1  0.59777073  0.79270753  0.79944089  1
  Hf  Hf44  1  0.00496623  0.79740343  0.41343323  1
  Hf  Hf45  1  0.30410888  0.89521308  0.29659333  1
  Hf  Hf46  1  0.49550362  0.09841494  0.10127293  1
  Hf  Hf47  1  0.89543095  0.09462754  0.90608907  1
  Hf  Hf48  1  0.50226996  0.30531650  0.09718551  1
  Hf  Hf49  1  0.09445808  0.49105333  0.49739308  1
  Zr  Zr50  1  0.90102023  0.69498115  0.29272512  1
  Zr  Zr51  1  0.70949333  0.50396795  0.70430473  1
  Zr  Zr52  1  0.89788378  0.90576613  0.30159108  1
  Zr  Zr53  1  0.48612290  0.10682658  0.69622746  1
  Zr  Zr54  1  0.49771967  0.10840472  0.49543238  1
  Zr  Zr55  1  0.80040172  0.39857224  0.81057140  1
  Zr  Zr56  1  0.09450601  0.89893052  0.29856172  1
  Zr  Zr57  1  0.38679809  -0.01361193  0.79337874  1
  Zr  Zr58  1  0.79876637  0.40472464  0.00116700  1
  Zr  Zr59  1  0.30461476  0.69918677  0.29875044  1
  Zr  Zr60  1  -0.00045272  -0.01279863  0.59226967  1
  Zr  Zr61  1  0.49501863  0.10452118  0.89418152  1
  Zr  Zr62  1  0.29204609  0.30440311  0.10414500  1
  Zr  Zr63  1  0.19111692  0.79390275  0.19578696  1
  Zr  Zr64  1  0.60806971  0.19439323  0.79793392  1
  Zr  Zr65  1  0.69620299  0.51863493  0.09692907  1
  Zr  Zr66  1  0.00256263  0.61268898  0.00883136  1
  Zr  Zr67  1  0.10802070  0.71370448  0.90457315  1
  Zr  Zr68  1  0.70483404  0.89463000  0.90474353  1
  Zr  Zr69  1  0.79853512  -0.00020698  0.79240291  1
  Zr  Zr70  1  0.29611117  0.11102497  0.90018527  1
  Zr  Zr71  1  0.59963235  0.80396941  0.39583306  1
  Zr  Zr72  1  0.09370121  0.49989155  0.70119208  1
  Zr  Zr73  1  0.20379153  -0.00883285  0.79754538  1
  Zr  Zr74  1  0.29562524  0.10514316  0.50318203  1
  Zr  Zr75  1  -0.00733408  0.19330107  0.59071005  1
  Zr  Zr76  1  0.89687646  0.30072126  0.69057710  1
  Zr  Zr77  1  0.51256607  0.29720675  0.30517437  1
  Zr  Zr78  1  0.48537846  0.69826634  0.69199183  1
  Zr  Zr79  1  0.69803824  0.29135827  0.90295869  1
  Zr  Zr80  1  0.10310671  0.10091041  0.69516962  1
  Zr  Zr81  1  0.39687715  -0.01120342  0.59711093  1
  Zr  Zr82  1  0.79255642  0.40269382  0.21367343  1
  Zr  Zr83  1  0.20830707  0.40887963  0.60018165  1
  Zr  Zr84  1  0.20017658  0.20829351  0.79695671  1
  Zr  Zr85  1  0.59893751  0.80836756  0.59631355  1
  Zr  Zr86  1  0.51053588  0.70041498  0.10020905  1
  Zr  Zr87  1  0.79984380  0.79864801  0.39818306  1
  Zr  Zr88  1  -0.00323972  0.40235727  0.00623018  1
  Zr  Zr89  1  -0.00449800  0.39721192  0.81888589  1
  Zr  Zr90  1  0.10330144  0.10933132  0.10715526  1
  Zr  Zr91  1  0.60751748  0.20075645  0.59253624  1
  Zr  Zr92  1  0.60161656  -0.00566750  0.78890545  1
  Zr  Zr93  1  0.60236425  0.40032900  0.59701496  1
  Zr  Zr94  1  0.40435817  0.40414455  0.20613703  1
  Zr  Zr95  1  0.00290519  -0.00255975  0.79811955  1
  Zr  Zr96  1  0.49967457  0.09956357  0.30303704  1
  Zr  Zr97  1  0.58981272  0.41129778  -0.01252873  1
  Zr  Zr98  1  0.11101235  0.51024656  0.11223935  1
  Zr  Zr99  1  0.29464628  0.30352160  0.49949034  1
  Ta  Ta100  1  0.19493480  -0.00621982  -0.00277499  1
  Ta  Ta101  1  0.09507726  0.50184836  0.30063686  1
  Ta  Ta102  1  0.89314424  0.29945601  0.48342108  1
  Ta  Ta103  1  0.00496638  0.80032071  0.59422183  1
  Ta  Ta104  1  0.49764628  0.89378343  0.10545544  1
  Ta  Ta105  1  0.59717226  -0.00349104  0.39824513  1
  Ta  Ta106  1  0.60240952  -0.00560854  0.20328647  1
  Ta  Ta107  1  0.29878379  0.50285153  0.09930233  1
  Ta  Ta108  1  0.88874050  0.51990790  0.90385022  1
  Ta  Ta109  1  0.40245059  0.21345159  -0.00452923  1
  Ta  Ta110  1  0.50181856  0.30276194  0.49409892  1
  Ta  Ta111  1  0.79223835  0.18538359  0.01303110  1
  Ta  Ta112  1  0.00051070  -0.00338141  0.00798387  1
  Ta  Ta113  1  0.29801819  0.70069328  0.90196717  1
  Ta  Ta114  1  0.81089026  0.60131239  0.59463649  1
  Ta  Ta115  1  0.69825771  0.52327479  0.89468487  1
  Ta  Ta116  1  0.31308361  0.30344653  0.70135612  1
  Ta  Ta117  1  0.70340063  0.70080311  0.10150521  1
  Ta  Ta118  1  0.19979967  -0.00317930  0.40242494  1
  Ta  Ta119  1  0.70342084  0.10007645  0.48787578  1
  Ta  Ta120  1  0.40466683  0.40505195  0.59533551  1
  Ta  Ta121  1  0.09300447  0.68802920  0.29177411  1
  Ta  Ta122  1  0.81447643  0.80306174  0.59733316  1
  Ta  Ta123  1  0.40107404  0.60307090  0.80170365  1
  Ta  Ta124  1  0.21017877  0.60390646  0.79665871  1
  Ta  Ta125  1  0.89184503  0.70348407  0.10463290  1
  Ta  Ta126  1  0.20030031  0.40044009  0.00655239  1
  Ta  Ta127  1  0.10825077  0.29536928  0.91456223  1
  Ta  Ta128  1  0.41276662  0.80559416  0.39624105  1
  Ta  Ta129  1  0.79780738  0.18857512  0.20486579  1
  Ta  Ta130  1  0.10211829  0.10080147  0.90857677  1
  Ta  Ta131  1  0.60299203  0.41323363  0.21178524  1
  Ta  Ta132  1  0.90434491  0.70495159  0.70314685  1
  Ta  Ta133  1  0.20039356  0.79551293  0.59977679  1
  Ta  Ta134  1  0.20566351  0.60170418  0.60401640  1
  Ta  Ta135  1  0.09791918  0.89902972  0.09614433  1
  Ta  Ta136  1  -0.00401455  0.00200763  0.19492082  1
  Ta  Ta137  1  0.59826719  -0.00128101  0.59424979  1
  Ta  Ta138  1  0.69772591  0.89481834  0.10480255  1
  Ta  Ta139  1  0.49838858  0.49927334  0.49466010  1
  Ta  Ta140  1  -0.00069605  0.60584494  0.80464624  1
  Ta  Ta141  1  0.60091306  0.59845368  0.39138217  1
  Ta  Ta142  1  0.10645782  0.29499280  0.11232772  1
  Ta  Ta143  1  0.79591234  0.00242789  0.19535515  1
  Ta  Ta144  1  0.40006660  0.40378606  0.39641257  1
  Ta  Ta145  1  0.59671240  0.40649409  0.80310798  1
  Ta  Ta146  1  0.89884322  0.50463119  0.30554412  1
  Ta  Ta147  1  0.39874073  -0.00620577  0.39873126  1
  Ta  Ta148  1  0.60679787  0.40285522  0.39704422  1
  Ta  Ta149  1  0.10437506  0.10014009  0.48999017  1
  Ti  Ti150  1  0.80013795  0.80324350  0.01127343  1
  Ti  Ti151  1  0.40247875  -0.00364279  0.20470116  1
  Ti  Ti152  1  0.60559140  0.60146455  0.21785919  1
  Ti  Ti153  1  0.70317483  0.69451523  0.90159413  1
  Ti  Ti154  1  0.90262132  0.09902224  0.29662867  1
  Ti  Ti155  1  0.28796869  0.88046051  0.90228425  1
  Ti  Ti156  1  0.70505069  0.09540230  0.30930598  1
  Ti  Ti157  1  0.00695546  -0.00273947  0.40112856  1
  Ti  Ti158  1  -0.00158294  0.60034621  0.40400580  1
  Ti  Ti159  1  0.79777181  0.59766972  0.39384366  1
  Ti  Ti160  1  0.50581822  0.50230446  0.09889827  1
  Ti  Ti161  1  0.30403460  0.30657735  0.90561591  1
  Ti  Ti162  1  0.49070535  0.89133571  0.69468174  1
  Ti  Ti163  1  0.38869941  0.79164471  0.79629625  1
  Ti  Ti164  1  0.71068948  0.09268849  0.68099931  1
  Ti  Ti165  1  -0.00252862  0.79965650  0.19054768  1
  Ti  Ti166  1  0.70758879  0.90062189  0.69052404  1
  Ti  Ti167  1  0.80031870  0.80332742  0.79361707  1
  Ti  Ti168  1  0.79795383  0.20045001  0.58360878  1
  Ti  Ti169  1  -0.00861122  0.39907241  0.39504891  1
  Ti  Ti170  1  0.19946074  0.20460510  0.60067808  1
  Ti  Ti171  1  0.31229993  0.50204975  0.70202864  1
  Ti  Ti172  1  0.19702895  0.39235117  0.38747553  1
  Ti  Ti173  1  0.30820872  0.50381846  0.49709226  1
  Ti  Ti174  1  0.89950829  0.09889740  0.10729170  1
  Ti  Ti175  1  0.89672593  0.29024052  0.30321990  1
  Ti  Ti176  1  0.70422786  0.09491051  0.90569020  1
  Ti  Ti177  1  0.00512554  0.19538107  0.38550620  1
  Ti  Ti178  1  0.79978543  0.19275798  0.79906492  1
  Ti  Ti179  1  0.09916928  0.89405636  0.90132439  1
  Ti  Ti180  1  0.49708258  0.50164439  0.70517302  1
  Ti  Ti181  1  0.28783809  0.10103490  0.30349866  1
  Ti  Ti182  1  0.90285640  0.89442168  0.69831785  1
  Ti  Ti183  1  0.30530096  0.88965654  0.49871441  1
  Ti  Ti184  1  0.60094153  0.79472981  -0.00242743  1
  Ti  Ti185  1  0.70549987  0.29319115  0.31401835  1
  Ti  Ti186  1  0.70453135  0.90794108  0.30018110  1
  Ti  Ti187  1  0.89188132  0.28944454  0.90963785  1
  Ti  Ti188  1  0.89189439  0.09620306  0.69003591  1
  Ti  Ti189  1  0.59911445  0.19391614  0.00001621  1
  Ti  Ti190  1  0.80982328  0.40112745  0.58390365  1
  Ti  Ti191  1  0.89726994  0.69800626  0.49827447  1
  Ti  Ti192  1  0.80157928  -0.00428093  0.01571930  1
  Ti  Ti193  1  0.79530163  0.80279742  0.19954120  1
  Ti  Ti194  1  0.41069346  0.40195315  0.81426774  1
  Ti  Ti195  1  -0.00075360  0.80378636  0.01246334  1
  Ti  Ti196  1  0.40239470  0.79184245  -0.00222411  1
  Ti  Ti197  1  0.40834431  0.59281126  0.39161315  1
  Ti  Ti198  1  0.10127860  0.88537035  0.70839769  1
  Ti  Ti199  1  0.30908142  0.12108876  0.69696304  1
  Mo  Mo200  1  0.80245054  0.39597492  0.39581175  1
  Mo  Mo201  1  0.19300383  0.39859576  0.20491477  1
  Mo  Mo202  1  0.89694273  0.89912553  0.10300058  1
  Mo  Mo203  1  0.50195221  0.50585123  0.88866553  1
  Mo  Mo204  1  0.80757892  0.60884399  0.79795447  1
  Mo  Mo205  1  0.49628561  0.30361454  0.90020058  1
  Mo  Mo206  1  0.49974858  0.90572328  0.49507143  1
  Mo  Mo207  1  0.19691070  0.60066216  0.20294920  1
  Mo  Mo208  1  -0.00336523  0.60013817  0.20519895  1
  Mo  Mo209  1  0.20248916  0.20580638  -0.00201784  1
  Mo  Mo210  1  0.20588093  0.60177194  -0.00030921  1
  Mo  Mo211  1  0.39816636  0.21618691  0.80668533  1
  Mo  Mo212  1  0.39535743  0.80477128  0.59428752  1
  Mo  Mo213  1  0.09322072  0.70586590  0.10309102  1
  Mo  Mo214  1  0.39840588  0.40427655  0.00235567  1
  Mo  Mo215  1  0.59377141  0.60164124  0.80048236  1
  Mo  Mo216  1  0.79448439  0.60658416  0.20568197  1
  Mo  Mo217  1  0.29763456  0.69354055  0.70069531  1
  Mo  Mo218  1  0.28525508  0.30556837  0.29991789  1
  Mo  Mo219  1  0.39837604  0.58152986  0.60276807  1
  Mo  Mo220  1  0.70646259  0.29915634  0.48936624  1
  Mo  Mo221  1  0.70326241  0.69579414  0.29628785  1
  Mo  Mo222  1  0.49614080  0.90598233  0.29666822  1
  Mo  Mo223  1  0.69949800  0.09273138  0.10280199  1
  Mo  Mo224  1  0.10206070  0.69478711  0.50593244  1
  Mo  Mo225  1  0.49733110  0.70251637  0.89458265  1
  Mo  Mo226  1  -0.00120073  0.80238054  0.79466664  1
  Mo  Mo227  1  0.79731340  0.61489613  0.00133245  1
  Mo  Mo228  1  0.09523964  0.29789185  0.30130959  1
  Mo  Mo229  1  0.19147977  0.19528571  0.39471851  1
  Mo  Mo230  1  0.79773262  0.00192892  0.38727687  1
  Mo  Mo231  1  0.40816869  0.79979333  0.20147217  1
  Mo  Mo232  1  0.80293217  0.19804089  0.38963994  1
  Mo  Mo233  1  0.80175487  -0.00197171  0.60024327  1
  Mo  Mo234  1  0.39722701  0.21389496  0.59559294  1
  Mo  Mo235  1  -0.00532088  0.19547960  0.20947072  1
  Mo  Mo236  1  0.19751368  0.80393062  -0.00011494  1
  Mo  Mo237  1  0.19357282  0.20441050  0.21954041  1
  Mo  Mo238  1  0.61266407  0.20121527  0.40042335  1
  Mo  Mo239  1  0.29868698  0.87583666  0.69636673  1
  Mo  Mo240  1  0.90481610  0.89891715  0.50000552  1
  Mo  Mo241  1  0.60178207  0.61165754  -0.01292704  1
  Mo  Mo242  1  0.90008083  0.49951789  0.49135860  1
  Mo  Mo243  1  0.10594465  0.90070387  0.50092743  1
  Mo  Mo244  1  0.09511299  0.09871340  0.30496559  1
  Mo  Mo245  1  0.50628348  0.49904595  0.30701292  1
  Mo  Mo246  1  0.50093136  0.69711316  0.30490649  1
  Mo  Mo247  1  0.20397450  0.79889249  0.79951663  1
  Mo  Mo248  1  -0.01368979  0.40173066  0.58005059  1
  Mo  Mo249  1  0.70345020  0.50456299  0.30418429  1
