# generated using pymatgen
data_HfZrTaTiMo
_symmetry_space_group_name_H-M   'P 1'
_cell_length_a   16.88066946
_cell_length_b   16.88395521
_cell_length_c   16.88314392
_cell_angle_alpha   90.00600140
_cell_angle_beta   89.98651797
_cell_angle_gamma   90.03756799
_symmetry_Int_Tables_number   1
_chemical_formula_structural   HfZrTaTiMo
_chemical_formula_sum   'Hf50 Zr50 Ta50 Ti50 Mo50'
_cell_volume   4811.90530421
_cell_formula_units_Z   50
loop_
 _symmetry_equiv_pos_site_id
 _symmetry_equiv_pos_as_xyz
  1  'x, y, z'
loop_
 _atom_site_type_symbol
 _atom_site_label
 _atom_site_symmetry_multiplicity
 _atom_site_fract_x
 _atom_site_fract_y
 _atom_site_fract_z
 _atom_site_occupancy
  Hf  Hf0  1  0.70509268  0.89618930  0.69828971  1
  Hf  Hf1  1  0.90139950  0.29903721  0.90067555  1
  Hf  Hf2  1  0.60031652  0.40773151  0.20160381  1
  Hf  Hf3  1  -0.00488638  0.20707562  0.40129364  1
  Hf  Hf4  1  0.19802706  0.79664194  0.00730194  1
  Hf  Hf5  1  0.89993012  0.70123209  0.30670460  1
  Hf  Hf6  1  0.49912356  0.10298933  0.90005090  1
  Hf  Hf7  1  0.90727661  0.29998827  0.70496619  1
  Hf  Hf8  1  0.29946014  0.30165323  0.51570148  1
  Hf  Hf9  1  0.30445307  0.49501179  0.10491587  1
  Hf  Hf10  1  0.19724451  -0.00988359  0.00208887  1
  Hf  Hf11  1  0.90099779  0.50607961  0.89868999  1
  Hf  Hf12  1  -0.00412255  -0.00196006  0.59740251  1
  Hf  Hf13  1  0.10611330  0.30052966  0.69472658  1
  Hf  Hf14  1  0.10123508  0.10752150  0.29878536  1
  Hf  Hf15  1  0.10408212  0.29666551  0.09884727  1
  Hf  Hf16  1  0.40033455  0.79804071  0.60159282  1
  Hf  Hf17  1  0.09499181  0.68919397  0.70105976  1
  Hf  Hf18  1  0.09006572  0.88631750  0.30204145  1
  Hf  Hf19  1  0.70234999  0.50780438  0.69844309  1
  Hf  Hf20  1  0.79357362  -0.00068356  0.19959181  1
  Hf  Hf21  1  0.09108900  0.87761919  0.49660563  1
  Hf  Hf22  1  0.59882168  0.59224536  0.20274846  1
  Hf  Hf23  1  0.11295743  0.10779239  0.50418142  1
  Hf  Hf24  1  0.89987271  0.89379848  0.10355253  1
  Hf  Hf25  1  0.00752830  0.40955525  -0.00125709  1
  Hf  Hf26  1  0.78204496  0.18978071  0.00403906  1
  Hf  Hf27  1  0.40552015  0.59999852  0.59834104  1
  Hf  Hf28  1  0.48864588  0.91000070  0.70005139  1
  Hf  Hf29  1  0.19824945  -0.00936743  0.19158400  1
  Hf  Hf30  1  0.59878426  0.41106511  0.80067093  1
  Hf  Hf31  1  0.69780903  0.30366208  0.90445248  1
  Hf  Hf32  1  0.49972457  0.88887799  0.10663389  1
  Hf  Hf33  1  0.00497672  -0.00192436  0.19676402  1
  Hf  Hf34  1  0.39957147  -0.01325339  -0.00682186  1
  Hf  Hf35  1  0.89695737  0.29988000  0.09537222  1
  Hf  Hf36  1  0.00143986  0.40486585  0.20007892  1
  Hf  Hf37  1  0.19107653  0.58472052  0.59730171  1
  Hf  Hf38  1  0.31643644  0.69985127  0.11541484  1
  Hf  Hf39  1  0.49210323  0.70081252  0.29572411  1
  Hf  Hf40  1  0.90815246  0.69908995  0.49946574  1
  Hf  Hf41  1  0.29744649  0.30561855  0.90110692  1
  Hf  Hf42  1  0.29801126  0.69145255  0.70508850  1
  Hf  Hf43  1  0.19870102  0.60099165  0.40722668  1
  Hf  Hf44  1  0.79059734  0.40537384  0.20127578  1
  Hf  Hf45  1  0.60569613  0.20776435  0.59403473  1
  Hf  Hf46  1  0.20869498  -0.00765859  0.79877066  1
  Hf  Hf47  1  0.41180062  0.39309271  0.20031458  1
  Hf  Hf48  1  0.49137898  0.31045336  0.69542287  1
  Hf  Hf49  1  0.01046753  0.78991149  0.00801038  1
  Zr  Zr50  1  0.70049386  0.69671556  0.88827149  1
  Zr  Zr51  1  0.29647712  0.69592091  0.89043309  1
  Zr  Zr52  1  0.10671582  0.30355231  0.50384800  1
  Zr  Zr53  1  0.60355305  -0.00530696  0.59340878  1
  Zr  Zr54  1  0.40662066  0.40334981  0.39407121  1
  Zr  Zr55  1  0.19405058  0.60205832  0.00541739  1
  Zr  Zr56  1  0.70101019  0.29779157  0.30540828  1
  Zr  Zr57  1  0.89836553  0.70056300  0.10848250  1
  Zr  Zr58  1  0.58755813  0.79554656  -0.00969635  1
  Zr  Zr59  1  0.40148135  0.79248625  0.40394913  1
  Zr  Zr60  1  0.20167905  -0.00851750  0.39629654  1
  Zr  Zr61  1  0.20038103  -0.00953098  0.60690969  1
  Zr  Zr62  1  0.59047632  0.79672759  0.79193024  1
  Zr  Zr63  1  0.90341247  0.10307778  0.09979357  1
  Zr  Zr64  1  0.90100125  0.89511825  0.89428130  1
  Zr  Zr65  1  0.00381093  0.00068379  -0.00323777  1
  Zr  Zr66  1  0.60641251  0.20180110  0.80079213  1
  Zr  Zr67  1  0.19964425  0.40447824  0.00089371  1
  Zr  Zr68  1  0.40667112  0.59997465  -0.01045475  1
  Zr  Zr69  1  0.30633054  0.90378772  0.50102191  1
  Zr  Zr70  1  0.80677193  0.60577292  0.79198998  1
  Zr  Zr71  1  0.89654633  0.50515188  0.09992246  1
  Zr  Zr72  1  0.30195073  0.09546816  0.30632024  1
  Zr  Zr73  1  0.19998448  0.19581677  0.79512185  1
  Zr  Zr74  1  0.80062067  0.20767107  0.59611862  1
  Zr  Zr75  1  0.60130078  0.21263161  0.17795918  1
  Zr  Zr76  1  0.70524836  0.09611464  0.69799219  1
  Zr  Zr77  1  0.29943253  0.10203851  0.90275583  1
  Zr  Zr78  1  0.69835090  0.10269888  0.29994060  1
  Zr  Zr79  1  0.40172093  0.20825938  0.19867613  1
  Zr  Zr80  1  0.59583639  0.59686571  -0.00593592  1
  Zr  Zr81  1  0.20375804  0.40833859  0.40807689  1
  Zr  Zr82  1  0.49347237  0.31008406  0.90124584  1
  Zr  Zr83  1  0.09703074  0.49709553  0.30589511  1
  Zr  Zr84  1  0.39656241  0.00042319  0.19275882  1
  Zr  Zr85  1  0.80484709  0.39770756  0.40727216  1
  Zr  Zr86  1  0.09501842  0.89122576  0.88962179  1
  Zr  Zr87  1  0.78149612  0.59973708  0.21014288  1
  Zr  Zr88  1  0.49634319  0.09871106  0.69693123  1
  Zr  Zr89  1  0.90811556  0.09924472  0.70786883  1
  Zr  Zr90  1  0.70352326  0.89347143  0.89817842  1
  Zr  Zr91  1  0.60215569  0.60653592  0.39767600  1
  Zr  Zr92  1  0.19633079  0.60291301  0.20353706  1
  Zr  Zr93  1  0.60537913  -0.00671016  0.40170556  1
  Zr  Zr94  1  0.08520617  0.88850820  0.70141829  1
  Zr  Zr95  1  -0.00746694  0.00178931  0.40460924  1
  Zr  Zr96  1  0.39967109  0.21119594  0.01456598  1
  Zr  Zr97  1  0.70895394  0.50961279  0.50039867  1
  Zr  Zr98  1  0.40275801  0.21344442  0.39255971  1
  Zr  Zr99  1  0.50529986  0.09739924  0.30134109  1
  Ta  Ta100  1  0.20013862  0.78977884  0.59949863  1
  Ta  Ta101  1  0.80402393  0.20168818  0.40244824  1
  Ta  Ta102  1  0.10383800  0.30160861  0.29722077  1
  Ta  Ta103  1  0.49332687  0.09927884  0.49685043  1
  Ta  Ta104  1  0.09730409  0.29766113  0.89488656  1
  Ta  Ta105  1  0.59389790  0.79127620  0.59154414  1
  Ta  Ta106  1  0.10011411  0.50875088  0.88784818  1
  Ta  Ta107  1  0.20011722  0.79480363  0.20642023  1
  Ta  Ta108  1  0.50160820  0.30700671  0.50400099  1
  Ta  Ta109  1  0.20607256  0.20489610  0.19548362  1
  Ta  Ta110  1  0.59699512  0.60883057  0.60313766  1
  Ta  Ta111  1  0.80199800  -0.00426090  0.40314286  1
  Ta  Ta112  1  0.69646090  0.89451945  0.09884834  1
  Ta  Ta113  1  0.80383773  0.40343445  0.79682515  1
  Ta  Ta114  1  0.59968561  -0.00275074  0.80930199  1
  Ta  Ta115  1  0.19724603  0.40599067  0.79493299  1
  Ta  Ta116  1  0.89938696  0.51087955  0.31281711  1
  Ta  Ta117  1  0.70448898  0.10218308  0.49461387  1
  Ta  Ta118  1  0.79236991  0.60283423  0.00358572  1
  Ta  Ta119  1  0.50049477  0.89656804  0.30047204  1
  Ta  Ta120  1  0.39472678  0.20256899  0.79401854  1
  Ta  Ta121  1  0.00359948  0.20098826  0.59957182  1
  Ta  Ta122  1  0.89679129  0.89706637  0.70010731  1
  Ta  Ta123  1  0.00335519  0.40609229  0.79603656  1
  Ta  Ta124  1  0.79671051  0.79397743  0.00485396  1
  Ta  Ta125  1  0.59698341  0.40426716  0.00663592  1
  Ta  Ta126  1  0.89541822  0.10303989  0.29981961  1
  Ta  Ta127  1  0.30944457  0.09371766  0.69229104  1
  Ta  Ta128  1  0.60004701  0.40370047  0.39927936  1
  Ta  Ta129  1  0.80449499  -0.00574552  0.59041081  1
  Ta  Ta130  1  0.30053073  0.30623618  0.69596044  1
  Ta  Ta131  1  0.01035136  0.60379476  0.00446615  1
  Ta  Ta132  1  0.30643178  0.50735893  0.29410101  1
  Ta  Ta133  1  0.79317044  0.00143676  -0.00136016  1
  Ta  Ta134  1  0.78949597  0.80031177  0.20453312  1
  Ta  Ta135  1  0.00381641  0.41078390  0.60040439  1
  Ta  Ta136  1  0.50444133  0.49999846  0.50342631  1
  Ta  Ta137  1  0.79247201  0.79972847  0.39807500  1
  Ta  Ta138  1  0.30731862  0.10062606  0.50352817  1
  Ta  Ta139  1  0.60787951  0.40269705  0.59506629  1
  Ta  Ta140  1  0.49542458  0.70143083  0.10945696  1
  Ta  Ta141  1  0.79662856  0.20231499  0.19621708  1
  Ta  Ta142  1  0.89699104  0.89390018  0.30197176  1
  Ta  Ta143  1  0.29888866  0.69397774  0.50313685  1
  Ta  Ta144  1  0.80693866  0.40481866  0.60304748  1
  Ta  Ta145  1  0.80129249  0.00645096  0.80849743  1
  Ta  Ta146  1  0.08987774  0.70313996  0.31264559  1
  Ta  Ta147  1  0.80104791  0.19646675  0.80995563  1
  Ta  Ta148  1  0.60319850  0.00190183  -0.00071316  1
  Ta  Ta149  1  0.00599618  0.60176669  0.20053708  1
  Ti  Ti150  1  0.09678375  0.10073714  0.70288550  1
  Ti  Ti151  1  0.30668762  0.88553544  0.10286127  1
  Ti  Ti152  1  0.49623393  0.49536498  0.69509807  1
  Ti  Ti153  1  0.90207794  0.69477170  0.90534626  1
  Ti  Ti154  1  0.59992653  0.20974903  0.40816029  1
  Ti  Ti155  1  0.49809010  0.90157407  0.49472665  1
  Ti  Ti156  1  0.60323370  -0.00294564  0.19300659  1
  Ti  Ti157  1  0.90943381  0.50895474  0.69643677  1
  Ti  Ti158  1  0.70105549  0.70423640  0.49669408  1
  Ti  Ti159  1  0.30989616  0.89172118  0.29862673  1
  Ti  Ti160  1  0.31031256  0.49436714  0.50831500  1
  Ti  Ti161  1  0.79703126  0.79433201  0.60083302  1
  Ti  Ti162  1  0.30469178  0.49478769  0.89195934  1
  Ti  Ti163  1  0.89848254  0.88619286  0.50141018  1
  Ti  Ti164  1  -0.00093242  0.20251183  0.20223678  1
  Ti  Ti165  1  0.00151060  0.19577030  -0.00925200  1
  Ti  Ti166  1  0.69207263  0.70420451  0.09969584  1
  Ti  Ti167  1  0.59033546  0.60120963  0.79621240  1
  Ti  Ti168  1  0.90608424  0.51207774  0.49970468  1
  Ti  Ti169  1  0.40276156  0.79786510  -0.01458845  1
  Ti  Ti170  1  0.70215379  0.50206147  0.89773595  1
  Ti  Ti171  1  -0.01105810  0.78573175  0.79929643  1
  Ti  Ti172  1  0.39434059  0.81520992  0.80682627  1
  Ti  Ti173  1  0.30268816  0.49119208  0.69995748  1
  Ti  Ti174  1  0.90877513  0.69926049  0.68842867  1
  Ti  Ti175  1  0.70750624  0.30803127  0.70182338  1
  Ti  Ti176  1  0.90110010  0.30100235  0.29735844  1
  Ti  Ti177  1  0.49393685  0.69908817  0.70409091  1
  Ti  Ti178  1  0.69550134  0.89445533  0.30217545  1
  Ti  Ti179  1  0.78866567  0.40747509  0.00398841  1
  Ti  Ti180  1  0.20767647  0.20583676  0.39658789  1
  Ti  Ti181  1  0.50714156  0.09882362  0.09259610  1
  Ti  Ti182  1  0.10516962  0.11054892  0.09527547  1
  Ti  Ti183  1  0.80485723  0.79106024  0.79141414  1
  Ti  Ti184  1  0.09064659  0.10250445  0.89058625  1
  Ti  Ti185  1  -0.00228377  0.40174257  0.40552844  1
  Ti  Ti186  1  0.28729761  0.31292578  0.29064921  1
  Ti  Ti187  1  0.90453852  0.30469565  0.50778601  1
  Ti  Ti188  1  0.29024867  0.10710180  0.09333535  1
  Ti  Ti189  1  0.39969977  0.59911844  0.40123164  1
  Ti  Ti190  1  0.10200877  0.69148858  0.88288961  1
  Ti  Ti191  1  0.20666328  0.78771501  0.39954317  1
  Ti  Ti192  1  0.80120255  0.60796241  0.60124532  1
  Ti  Ti193  1  0.60493289  0.79583690  0.20869640  1
  Ti  Ti194  1  0.70208676  0.89192435  0.49901654  1
  Ti  Ti195  1  0.40172039  0.19886229  0.59906829  1
  Ti  Ti196  1  0.49275774  0.50161378  0.09671673  1
  Ti  Ti197  1  0.20845202  0.80543540  0.79353741  1
  Ti  Ti198  1  0.40784314  0.58879785  0.80015810  1
  Ti  Ti199  1  0.89650781  0.10436174  0.50055140  1
  Mo  Mo200  1  0.51158471  0.30221831  0.30807497  1
  Mo  Mo201  1  0.00242391  0.59922783  0.40376789  1
  Mo  Mo202  1  0.70234659  0.50266234  0.31017313  1
  Mo  Mo203  1  0.09661802  0.49717391  0.70271873  1
  Mo  Mo204  1  0.08438475  0.50173627  0.50264523  1
  Mo  Mo205  1  -0.00103892  0.60260853  0.80162226  1
  Mo  Mo206  1  0.09827120  0.70126152  0.11674555  1
  Mo  Mo207  1  0.39830666  0.00026349  0.80047090  1
  Mo  Mo208  1  0.19090138  0.19782533  0.00141684  1
  Mo  Mo209  1  0.29547574  0.30391248  0.10225026  1
  Mo  Mo210  1  0.80057242  0.60444183  0.40338158  1
  Mo  Mo211  1  0.49738159  0.49944753  0.89236937  1
  Mo  Mo212  1  0.20346196  0.40759010  0.60584348  1
  Mo  Mo213  1  0.50305332  0.31223402  0.09307746  1
  Mo  Mo214  1  0.40695905  -0.00506525  0.39936664  1
  Mo  Mo215  1  0.29721904  0.69700285  0.30792029  1
  Mo  Mo216  1  0.49170440  0.69866801  0.88012929  1
  Mo  Mo217  1  0.69349430  0.08706869  0.09961277  1
  Mo  Mo218  1  0.09948651  0.50403083  0.09964989  1
  Mo  Mo219  1  0.40488403  0.40667083  0.59883159  1
  Mo  Mo220  1  0.39287363  0.40503428  0.79593300  1
  Mo  Mo221  1  0.40546423  0.59284541  0.20654009  1
  Mo  Mo222  1  0.69654957  0.50342083  0.08988084  1
  Mo  Mo223  1  0.49688781  0.90483654  0.89712066  1
  Mo  Mo224  1  0.20236488  0.58811757  0.79580886  1
  Mo  Mo225  1  0.40325795  0.40672990  -0.00117884  1
  Mo  Mo226  1  -0.00458211  0.00485723  0.79844350  1
  Mo  Mo227  1  -0.00477899  0.79551305  0.60309917  1
  Mo  Mo228  1  0.20111241  0.39850418  0.20099576  1
  Mo  Mo229  1  0.30017855  0.89267734  0.89988960  1
  Mo  Mo230  1  0.30179295  0.89534759  0.70172156  1
  Mo  Mo231  1  0.49995335  0.69565854  0.50153192  1
  Mo  Mo232  1  0.89830639  0.10142104  0.90028821  1
  Mo  Mo233  1  0.69704749  0.09628692  0.90183007  1
  Mo  Mo234  1  0.20644208  0.19048137  0.60488936  1
  Mo  Mo235  1  0.10479047  0.89006115  0.10897564  1
  Mo  Mo236  1  -0.00148512  0.59604216  0.60008920  1
  Mo  Mo237  1  0.40162083  0.00188972  0.59249846  1
  Mo  Mo238  1  0.60207329  0.80274408  0.40405182  1
  Mo  Mo239  1  0.49764003  0.50341486  0.30707857  1
  Mo  Mo240  1  0.70052586  0.70165294  0.68610609  1
  Mo  Mo241  1  0.69884218  0.30326345  0.50227538  1
  Mo  Mo242  1  0.00338525  0.20251763  0.80285556  1
  Mo  Mo243  1  0.69536724  0.71026726  0.30460721  1
  Mo  Mo244  1  0.00026090  0.79665000  0.20521700  1
  Mo  Mo245  1  0.10164135  0.69893150  0.50291899  1
  Mo  Mo246  1  0.70074711  0.31030399  0.09423181  1
  Mo  Mo247  1  -0.01081214  0.79793799  0.40365103  1
  Mo  Mo248  1  0.39721666  0.80079874  0.20826444  1
  Mo  Mo249  1  0.59812982  0.19939784  0.00258260  1
