# generated using pymatgen
data_HfZrTaTiMo
_symmetry_space_group_name_H-M   'P 1'
_cell_length_a   16.88340303
_cell_length_b   16.89194206
_cell_length_c   16.88158170
_cell_angle_alpha   90.00326869
_cell_angle_beta   90.06370253
_cell_angle_gamma   89.94505412
_symmetry_Int_Tables_number   1
_chemical_formula_structural   HfZrTaTiMo
_chemical_formula_sum   'Hf50 Zr50 Ta50 Ti50 Mo50'
_cell_volume   4814.51159553
_cell_formula_units_Z   50
loop_
 _symmetry_equiv_pos_site_id
 _symmetry_equiv_pos_as_xyz
  1  'x, y, z'
loop_
 _atom_site_type_symbol
 _atom_site_label
 _atom_site_symmetry_multiplicity
 _atom_site_fract_x
 _atom_site_fract_y
 _atom_site_fract_z
 _atom_site_occupancy
  Hf  Hf0  1  0.40524297  0.40268791  0.79149051  1
  Hf  Hf1  1  0.51432432  0.29855818  0.89784638  1
  Hf  Hf2  1  0.71097346  0.70296685  0.30936400  1
  Hf  Hf3  1  0.50237877  0.29637936  0.50455102  1
  Hf  Hf4  1  0.70443498  0.29263868  0.70300185  1
  Hf  Hf5  1  0.39314353  0.60966493  -0.00415960  1
  Hf  Hf6  1  -0.00730136  0.41497283  0.39625842  1
  Hf  Hf7  1  0.59730421  0.79681575  0.60509771  1
  Hf  Hf8  1  0.39845426  0.80698164  0.00564203  1
  Hf  Hf9  1  0.09741427  0.50201956  0.90086712  1
  Hf  Hf10  1  0.79674128  0.19694473  0.40502713  1
  Hf  Hf11  1  0.81334461  0.41356311  0.20664139  1
  Hf  Hf12  1  0.79519827  0.79598558  0.59828380  1
  Hf  Hf13  1  0.28568896  0.29634710  0.69694015  1
  Hf  Hf14  1  0.90750669  0.09335173  0.51579888  1
  Hf  Hf15  1  0.19496259  0.00079459  0.79797512  1
  Hf  Hf16  1  0.09742755  0.69563108  0.50168993  1
  Hf  Hf17  1  0.19959886  0.40218252  0.39792758  1
  Hf  Hf18  1  0.40671899  0.40298417  0.60727507  1
  Hf  Hf19  1  0.29896621  0.70719848  0.11083341  1
  Hf  Hf20  1  0.90136383  0.90175828  0.69564742  1
  Hf  Hf21  1  0.30079582  0.90364485  0.70095725  1
  Hf  Hf22  1  0.89896656  0.28938156  0.70528423  1
  Hf  Hf23  1  0.60457877  0.20149047  0.40385726  1
  Hf  Hf24  1  0.60015050  0.59813535  0.20760330  1
  Hf  Hf25  1  0.70103866  0.89980802  0.49614946  1
  Hf  Hf26  1  0.60672240  0.40605635  0.79341112  1
  Hf  Hf27  1  0.59626763  0.00019421  0.80042217  1
  Hf  Hf28  1  0.29403944  0.88697246  0.29527160  1
  Hf  Hf29  1  0.80023340  0.39864121  0.59427936  1
  Hf  Hf30  1  0.59914106  0.40558263  0.40121386  1
  Hf  Hf31  1  0.49527366  0.10013484  0.50298513  1
  Hf  Hf32  1  0.00643376  0.79691483  0.80378646  1
  Hf  Hf33  1  0.60062681  0.20871921  0.19538909  1
  Hf  Hf34  1  0.61095752  0.60764881  -0.00712212  1
  Hf  Hf35  1  0.09582673  0.50492497  0.69765307  1
  Hf  Hf36  1  0.09879481  0.30846556  0.09433378  1
  Hf  Hf37  1  -0.00517258  0.60177211  0.80771317  1
  Hf  Hf38  1  -0.00243456  0.39874036  0.60130020  1
  Hf  Hf39  1  0.39183101  0.79649102  0.40870517  1
  Hf  Hf40  1  0.70096006  0.70407046  0.10680227  1
  Hf  Hf41  1  0.21303635  0.18331580  0.40779922  1
  Hf  Hf42  1  0.19687398  0.60348046  0.39588769  1
  Hf  Hf43  1  0.70289799  0.50877203  0.50319895  1
  Hf  Hf44  1  0.10117570  0.29456083  0.50323007  1
  Hf  Hf45  1  0.39459742  0.79378692  0.60649240  1
  Hf  Hf46  1  0.49931277  0.68292499  0.69749045  1
  Hf  Hf47  1  0.39440097  0.19818481  0.60264130  1
  Hf  Hf48  1  0.59836043  -0.00418636  0.61286343  1
  Hf  Hf49  1  0.10074247  0.09093826  0.29972409  1
  Zr  Zr50  1  0.38816713  0.60136243  0.80283136  1
  Zr  Zr51  1  0.19649411  0.61028974  -0.00400824  1
  Zr  Zr52  1  -0.00945993  0.40757506  -0.00599997  1
  Zr  Zr53  1  0.40054084  -0.00557833  -0.00260193  1
  Zr  Zr54  1  0.40292948  -0.02491033  0.19182470  1
  Zr  Zr55  1  0.69600502  0.09266288  0.28955370  1
  Zr  Zr56  1  0.39609661  0.40977011  -0.00829367  1
  Zr  Zr57  1  0.30913534  0.50885271  0.29505376  1
  Zr  Zr58  1  0.79658569  0.00311387  0.79740098  1
  Zr  Zr59  1  0.90418343  0.09792785  0.30438166  1
  Zr  Zr60  1  0.48855554  0.70058143  0.29302651  1
  Zr  Zr61  1  -0.00930525  0.18975269  0.18817978  1
  Zr  Zr62  1  0.41890199  0.40862508  0.20430300  1
  Zr  Zr63  1  0.10147411  0.89625371  0.50515126  1
  Zr  Zr64  1  0.48259332  0.11219647  0.29318085  1
  Zr  Zr65  1  0.89546580  0.69949322  0.49312577  1
  Zr  Zr66  1  0.70686700  0.30738524  0.29643873  1
  Zr  Zr67  1  0.29279238  0.29583708  0.89808854  1
  Zr  Zr68  1  0.50620677  0.50673511  0.89546975  1
  Zr  Zr69  1  0.30928616  0.10680916  0.10694962  1
  Zr  Zr70  1  0.38265597  0.00753286  0.39641372  1
  Zr  Zr71  1  0.90756603  0.70555348  0.09972125  1
  Zr  Zr72  1  -0.00052349  0.20176433  -0.00890166  1
  Zr  Zr73  1  0.69850090  0.90272147  0.10072929  1
  Zr  Zr74  1  0.89459803  0.69858121  0.70051289  1
  Zr  Zr75  1  0.28696540  0.50591671  0.69363508  1
  Zr  Zr76  1  0.59129896  0.79948742  0.40084675  1
  Zr  Zr77  1  0.82108285  -0.00053847  0.19308184  1
  Zr  Zr78  1  0.00543169  -0.00538043  0.40567432  1
  Zr  Zr79  1  0.80246276  0.19139368  -0.00132285  1
  Zr  Zr80  1  0.48921809  0.90755901  0.50960191  1
  Zr  Zr81  1  0.69565646  0.89849774  0.29448221  1
  Zr  Zr82  1  0.81663134  0.80377184  0.20202579  1
  Zr  Zr83  1  0.19606865  -0.00914978  0.19449203  1
  Zr  Zr84  1  0.51110790  0.09530908  0.10156218  1
  Zr  Zr85  1  0.19777935  0.19532653  0.19914095  1
  Zr  Zr86  1  0.50632527  0.50670275  0.10021326  1
  Zr  Zr87  1  0.30190224  0.30722927  0.10211282  1
  Zr  Zr88  1  0.09078991  0.29467351  0.30231061  1
  Zr  Zr89  1  0.70307836  0.30781266  0.09763884  1
  Zr  Zr90  1  0.31616744  0.28859094  0.30143993  1
  Zr  Zr91  1  0.40582515  0.19801106  0.79508873  1
  Zr  Zr92  1  0.90346768  0.29019852  0.50002774  1
  Zr  Zr93  1  0.40734979  0.20252207  -0.00023311  1
  Zr  Zr94  1  0.59669087  0.79675342  0.79767391  1
  Zr  Zr95  1  0.19085412  0.39644998  0.80426322  1
  Zr  Zr96  1  0.00577262  -0.00115139  0.79829780  1
  Zr  Zr97  1  0.89453743  0.30699769  0.09858289  1
  Zr  Zr98  1  0.19802128  -0.00481361  0.00359463  1
  Zr  Zr99  1  0.18825925  0.41336638  0.20295669  1
  Ta  Ta100  1  0.00511071  0.59820270  0.20287659  1
  Ta  Ta101  1  0.29657630  0.50052200  0.50301250  1
  Ta  Ta102  1  0.59082493  -0.00108205  0.39172056  1
  Ta  Ta103  1  0.20044728  0.61215223  0.80555164  1
  Ta  Ta104  1  0.70530499  0.89287351  0.70666182  1
  Ta  Ta105  1  0.89968331  0.89788324  0.50320800  1
  Ta  Ta106  1  0.39954009  0.59909439  0.40580634  1
  Ta  Ta107  1  0.60077907  0.39849339  0.60460629  1
  Ta  Ta108  1  0.70225723  0.08981251  0.09635761  1
  Ta  Ta109  1  0.10418877  0.89418107  0.69309333  1
  Ta  Ta110  1  0.61478646  0.40547764  -0.00598795  1
  Ta  Ta111  1  0.29886850  0.89640647  0.89627793  1
  Ta  Ta112  1  0.90496044  0.10745258  0.69871609  1
  Ta  Ta113  1  0.89425792  0.89765815  0.90170196  1
  Ta  Ta114  1  0.80966837  0.59800647  0.20084968  1
  Ta  Ta115  1  0.60235170  -0.00495208  -0.00697869  1
  Ta  Ta116  1  0.70259546  0.50295184  0.30107686  1
  Ta  Ta117  1  0.10209234  0.69560014  0.69540521  1
  Ta  Ta118  1  0.50130159  0.50885609  0.51082161  1
  Ta  Ta119  1  0.70568604  0.50751486  0.69576423  1
  Ta  Ta120  1  0.79894446  -0.00157966  0.40583961  1
  Ta  Ta121  1  0.09703685  0.10268256  0.89661522  1
  Ta  Ta122  1  0.49925173  0.68960090  0.50588902  1
  Ta  Ta123  1  -0.00158187  0.41979886  0.20040155  1
  Ta  Ta124  1  0.20798207  0.78901720  0.60273517  1
  Ta  Ta125  1  -0.00329229  0.59988584  0.00207358  1
  Ta  Ta126  1  -0.00832096  0.59378450  0.59460775  1
  Ta  Ta127  1  0.19579487  0.00946303  0.60034965  1
  Ta  Ta128  1  0.10017064  0.50449816  0.50187970  1
  Ta  Ta129  1  0.19969715  0.79333118  0.80218882  1
  Ta  Ta130  1  0.40579892  0.40721683  0.40853468  1
  Ta  Ta131  1  0.59805014  0.80062613  -0.00196534  1
  Ta  Ta132  1  0.70281299  0.89576552  0.89965510  1
  Ta  Ta133  1  0.70541427  0.50161312  0.10175401  1
  Ta  Ta134  1  0.89382204  0.50037909  0.70152680  1
  Ta  Ta135  1  0.80552971  0.59720718  -0.00347343  1
  Ta  Ta136  1  0.79857664  0.59698567  0.80806251  1
  Ta  Ta137  1  0.30183462  0.30115316  0.50182379  1
  Ta  Ta138  1  0.69364466  0.09469051  0.50449796  1
  Ta  Ta139  1  0.90017364  0.09681477  0.89393621  1
  Ta  Ta140  1  0.18507537  0.60605556  0.20057058  1
  Ta  Ta141  1  0.19366577  0.19829435  -0.00609609  1
  Ta  Ta142  1  0.59597770  0.59898532  0.40126624  1
  Ta  Ta143  1  0.49835430  0.89722432  0.89734696  1
  Ta  Ta144  1  0.29668978  0.51041056  0.10287659  1
  Ta  Ta145  1  0.29447510  0.09976018  0.89344508  1
  Ta  Ta146  1  0.79882601  0.79910416  -0.00375197  1
  Ta  Ta147  1  0.90939170  0.69691392  0.30549642  1
  Ta  Ta148  1  0.61042302  0.59982153  0.79820436  1
  Ta  Ta149  1  0.29757493  0.70087148  0.29442129  1
  Ti  Ti150  1  0.10291304  0.89428858  0.30462257  1
  Ti  Ti151  1  0.00202358  0.79680479  0.60196018  1
  Ti  Ti152  1  0.39457205  0.79489789  0.79990298  1
  Ti  Ti153  1  0.49900112  0.70351525  0.89732175  1
  Ti  Ti154  1  -0.00032301  0.39117989  0.80205436  1
  Ti  Ti155  1  0.20244740  0.79309673  0.40574100  1
  Ti  Ti156  1  0.50109063  0.30222052  0.30308611  1
  Ti  Ti157  1  -0.00091903  -0.00173725  -0.00361506  1
  Ti  Ti158  1  0.81001023  0.58955906  0.39861780  1
  Ti  Ti159  1  0.80078857  0.40883775  0.80623461  1
  Ti  Ti160  1  0.90223992  0.89355392  0.31458306  1
  Ti  Ti161  1  0.70274231  0.09780544  0.90161999  1
  Ti  Ti162  1  0.00740286  0.80303588  0.20542744  1
  Ti  Ti163  1  0.10374446  0.89541315  0.90454310  1
  Ti  Ti164  1  0.50991204  0.31063149  0.09683955  1
  Ti  Ti165  1  0.09678117  0.70587631  0.09678885  1
  Ti  Ti166  1  0.70820131  0.70755971  0.89435759  1
  Ti  Ti167  1  0.89358671  0.29358319  0.88798308  1
  Ti  Ti168  1  0.49938709  0.10097896  0.69607892  1
  Ti  Ti169  1  0.17989964  0.19948614  0.79641932  1
  Ti  Ti170  1  0.80526662  0.19312173  0.19439152  1
  Ti  Ti171  1  0.50167757  0.09920909  0.90101244  1
  Ti  Ti172  1  0.29507640  0.90631700  0.50943764  1
  Ti  Ti173  1  0.09336312  0.09409139  0.09318524  1
  Ti  Ti174  1  0.70828295  0.29566479  0.89432515  1
  Ti  Ti175  1  0.18510346  0.80040175  0.19521634  1
  Ti  Ti176  1  0.00409034  -0.01519519  0.19091332  1
  Ti  Ti177  1  0.60244943  0.19336273  0.79595273  1
  Ti  Ti178  1  0.89533844  0.70604237  0.90186596  1
  Ti  Ti179  1  0.20346810  0.00434441  0.40742613  1
  Ti  Ti180  1  0.49927191  0.70684046  0.10720777  1
  Ti  Ti181  1  0.19052000  0.19087387  0.60190876  1
  Ti  Ti182  1  0.19827417  0.40785563  -0.00176554  1
  Ti  Ti183  1  0.80229365  0.41483132  -0.01268648  1
  Ti  Ti184  1  0.00772618  0.79784634  -0.00716351  1
  Ti  Ti185  1  0.19322984  0.39818811  0.59824341  1
  Ti  Ti186  1  0.90790633  0.89921442  0.08301402  1
  Ti  Ti187  1  0.38546322  0.60367096  0.59747315  1
  Ti  Ti188  1  0.29571848  0.09912507  0.70230410  1
  Ti  Ti189  1  0.00630921  0.19042393  0.40809393  1
  Ti  Ti190  1  0.60851131  0.19847319  -0.00159660  1
  Ti  Ti191  1  0.40443864  0.00024736  0.79751201  1
  Ti  Ti192  1  0.70559871  0.69315723  0.69991354  1
  Ti  Ti193  1  0.70398339  0.10521628  0.69693603  1
  Ti  Ti194  1  0.79551396  0.00004792  0.60183428  1
  Ti  Ti195  1  0.00466446  0.79539235  0.39627991  1
  Ti  Ti196  1  0.90379584  0.29581191  0.30073316  1
  Ti  Ti197  1  0.78954407  0.19795320  0.59264892  1
  Ti  Ti198  1  0.70083530  0.69312989  0.49911811  1
  Ti  Ti199  1  0.80531177  0.40259569  0.40343853  1
  Mo  Mo200  1  0.39941319  0.20721400  0.40707216  1
  Mo  Mo201  1  0.58937173  0.80149756  0.19602558  1
  Mo  Mo202  1  0.41103168  0.21626664  0.19632825  1
  Mo  Mo203  1  0.70653755  0.50210976  0.89869637  1
  Mo  Mo204  1  0.29720137  0.71245421  0.89845626  1
  Mo  Mo205  1  0.29829712  0.69310724  0.49961417  1
  Mo  Mo206  1  0.69928748  0.29932594  0.50502792  1
  Mo  Mo207  1  0.09466367  0.51145501  0.30367975  1
  Mo  Mo208  1  0.00227512  0.59991800  0.39743892  1
  Mo  Mo209  1  0.49968521  0.89674790  0.29371576  1
  Mo  Mo210  1  0.19460668  0.60152248  0.59637050  1
  Mo  Mo211  1  0.28134397  0.88659592  0.09583768  1
  Mo  Mo212  1  0.49174648  0.90279867  0.71095917  1
  Mo  Mo213  1  0.80077517  0.59976488  0.60363453  1
  Mo  Mo214  1  0.89904312  0.50969426  0.09738037  1
  Mo  Mo215  1  0.59402802  -0.00411065  0.19782205  1
  Mo  Mo216  1  0.50478308  0.50396367  0.31307212  1
  Mo  Mo217  1  0.09699089  0.50817737  0.09929295  1
  Mo  Mo218  1  0.89869203  0.49999756  0.89393778  1
  Mo  Mo219  1  0.09701777  0.29793276  0.89843987  1
  Mo  Mo220  1  0.39706157  0.60322760  0.19816345  1
  Mo  Mo221  1  0.01168174  0.19496595  0.60930217  1
  Mo  Mo222  1  0.09532462  0.70423052  0.90069902  1
  Mo  Mo223  1  0.00429767  -0.00138450  0.60625519  1
  Mo  Mo224  1  0.39893759  0.79874851  0.19769375  1
  Mo  Mo225  1  0.09874227  0.70903807  0.29930155  1
  Mo  Mo226  1  0.89934500  0.50374927  0.50128348  1
  Mo  Mo227  1  0.60773224  0.40621632  0.20089428  1
  Mo  Mo228  1  0.60237786  0.19621189  0.60570855  1
  Mo  Mo229  1  0.60761265  0.60036316  0.60015442  1
  Mo  Mo230  1  0.39048676  0.00520930  0.61148658  1
  Mo  Mo231  1  0.29873453  0.09470007  0.29791134  1
  Mo  Mo232  1  0.10143691  0.09847668  0.50673423  1
  Mo  Mo233  1  0.80870743  0.80453637  0.40251066  1
  Mo  Mo234  1  0.29063590  0.50426499  0.90521897  1
  Mo  Mo235  1  0.79893764  0.19260433  0.80408541  1
  Mo  Mo236  1  0.51406929  0.29378556  0.69867952  1
  Mo  Mo237  1  0.80173059  -0.00488603  -0.00697512  1
  Mo  Mo238  1  0.29522995  0.70180006  0.70044755  1
  Mo  Mo239  1  0.29871354  0.09990871  0.51204248  1
  Mo  Mo240  1  0.79945156  0.79555957  0.80458550  1
  Mo  Mo241  1  0.09419768  0.29439304  0.69859144  1
  Mo  Mo242  1  0.09732899  0.10033816  0.69923674  1
  Mo  Mo243  1  0.51126603  0.50486284  0.69265043  1
  Mo  Mo244  1  0.19566858  0.80211627  -0.00396315  1
  Mo  Mo245  1  -0.00129962  0.20016566  0.80014702  1
  Mo  Mo246  1  0.90312688  0.08367373  0.08589516  1
  Mo  Mo247  1  0.51563700  0.89276899  0.09710067  1
  Mo  Mo248  1  0.08542778  0.89082798  0.09521995  1
  Mo  Mo249  1  0.89962895  0.51035092  0.30409949  1
