# generated using pymatgen
data_HfZrTaTiMo
_symmetry_space_group_name_H-M   'P 1'
_cell_length_a   16.88422323
_cell_length_b   16.88830373
_cell_length_c   16.88271808
_cell_angle_alpha   89.96886170
_cell_angle_beta   89.96380405
_cell_angle_gamma   90.03338010
_symmetry_Int_Tables_number   1
_chemical_formula_structural   HfZrTaTiMo
_chemical_formula_sum   'Hf50 Zr50 Ta50 Ti50 Mo50'
_cell_volume   4814.03518719
_cell_formula_units_Z   50
loop_
 _symmetry_equiv_pos_site_id
 _symmetry_equiv_pos_as_xyz
  1  'x, y, z'
loop_
 _atom_site_type_symbol
 _atom_site_label
 _atom_site_symmetry_multiplicity
 _atom_site_fract_x
 _atom_site_fract_y
 _atom_site_fract_z
 _atom_site_occupancy
  Hf  Hf0  1  0.49100977  0.70002833  0.10721645  1
  Hf  Hf1  1  0.79877173  0.59881100  0.20131420  1
  Hf  Hf2  1  0.10183481  0.10356770  0.09692631  1
  Hf  Hf3  1  0.48071079  0.89692402  0.29626428  1
  Hf  Hf4  1  0.49532665  0.09427914  0.29905334  1
  Hf  Hf5  1  0.20830840  0.00037043  0.79689627  1
  Hf  Hf6  1  0.79441318  0.59660832  0.39787855  1
  Hf  Hf7  1  0.59599003  -0.00883502  0.19866825  1
  Hf  Hf8  1  0.58953862  0.00078060  0.61341291  1
  Hf  Hf9  1  0.60009306  0.40564220  0.20402291  1
  Hf  Hf10  1  0.19607149  0.60098199  0.79426307  1
  Hf  Hf11  1  0.30823261  0.51028484  0.90099463  1
  Hf  Hf12  1  0.30642025  0.50390448  0.69590639  1
  Hf  Hf13  1  0.00546580  0.59867266  0.79951924  1
  Hf  Hf14  1  0.30757922  0.49806869  0.09666070  1
  Hf  Hf15  1  0.50075036  0.10532709  0.89866635  1
  Hf  Hf16  1  0.39897852  -0.00038385  0.00573094  1
  Hf  Hf17  1  0.90969722  0.70377449  0.90482173  1
  Hf  Hf18  1  0.89787758  0.49851057  0.69119979  1
  Hf  Hf19  1  0.49866001  0.10237072  0.10486253  1
  Hf  Hf20  1  0.10933963  0.29180789  0.89659199  1
  Hf  Hf21  1  0.69736042  0.29485485  0.10705984  1
  Hf  Hf22  1  0.90236031  0.49784194  0.50360343  1
  Hf  Hf23  1  0.69730897  0.70328981  0.91047990  1
  Hf  Hf24  1  0.10690209  0.10446678  0.89648388  1
  Hf  Hf25  1  0.38244664  0.79859874  0.41486828  1
  Hf  Hf26  1  0.30120423  0.89304943  0.89367307  1
  Hf  Hf27  1  0.10852969  0.29850836  0.30159849  1
  Hf  Hf28  1  0.79327552  0.40569644  0.21319263  1
  Hf  Hf29  1  0.00470425  0.00331515  0.59586604  1
  Hf  Hf30  1  0.39227041  0.19578910  0.19959787  1
  Hf  Hf31  1  0.80629836  0.79352482  0.20666260  1
  Hf  Hf32  1  0.40303711  0.20351834  0.60351956  1
  Hf  Hf33  1  0.30015236  0.10432505  0.69654419  1
  Hf  Hf34  1  0.49127276  0.50205378  0.90604983  1
  Hf  Hf35  1  0.70351891  0.89398793  0.09583993  1
  Hf  Hf36  1  0.39308367  0.19755565  0.39985786  1
  Hf  Hf37  1  0.39843656  0.58829124  0.20527447  1
  Hf  Hf38  1  0.39010699  0.59375418  0.40525283  1
  Hf  Hf39  1  0.79405643  0.40548405  0.00590483  1
  Hf  Hf40  1  0.60018061  0.59119546  0.02012773  1
  Hf  Hf41  1  0.10371161  0.89662516  0.69871427  1
  Hf  Hf42  1  0.59941012  0.20330732  -0.00062046  1
  Hf  Hf43  1  0.01029455  -0.00556575  0.39800177  1
  Hf  Hf44  1  0.80422742  0.00470635  0.80313461  1
  Hf  Hf45  1  0.80242680  0.60317055  0.79616801  1
  Hf  Hf46  1  0.91360498  0.89533364  0.10372169  1
  Hf  Hf47  1  0.39988798  0.39892024  0.80092554  1
  Hf  Hf48  1  0.21013316  -0.00033181  0.00642178  1
  Hf  Hf49  1  0.60362179  0.40587682  0.60128680  1
  Zr  Zr50  1  0.39380996  0.40495006  0.40445857  1
  Zr  Zr51  1  0.59274789  0.79665947  0.79307883  1
  Zr  Zr52  1  0.19493130  0.40759411  -0.00523127  1
  Zr  Zr53  1  0.91210119  0.50272783  0.30318458  1
  Zr  Zr54  1  0.49532250  0.69901026  0.30657668  1
  Zr  Zr55  1  0.20444825  -0.00139152  0.59246382  1
  Zr  Zr56  1  0.59741192  0.79810374  0.40794417  1
  Zr  Zr57  1  0.79764644  0.20572030  0.39756071  1
  Zr  Zr58  1  0.90442420  0.08694169  0.29879861  1
  Zr  Zr59  1  0.00187186  0.20043648  0.39912646  1
  Zr  Zr60  1  0.09803624  0.71010149  0.29821007  1
  Zr  Zr61  1  -0.00302918  0.20126652  0.19965122  1
  Zr  Zr62  1  -0.00312342  0.40562486  -0.00820743  1
  Zr  Zr63  1  0.59822957  0.79919881  0.19986971  1
  Zr  Zr64  1  0.48897559  0.69134751  0.90467779  1
  Zr  Zr65  1  0.41316482  -0.00331901  0.78455194  1
  Zr  Zr66  1  0.79864107  0.20486255  0.21232647  1
  Zr  Zr67  1  0.40019018  0.80820104  0.00500145  1
  Zr  Zr68  1  0.28799566  0.70293980  0.29305119  1
  Zr  Zr69  1  0.10746328  0.29953070  0.50048857  1
  Zr  Zr70  1  0.69676786  0.49554101  0.88816130  1
  Zr  Zr71  1  0.70120447  0.10268168  0.10417018  1
  Zr  Zr72  1  0.80710067  0.59622767  0.00822233  1
  Zr  Zr73  1  0.10050337  0.89637176  0.89679904  1
  Zr  Zr74  1  -0.00878221  0.19694393  0.79864522  1
  Zr  Zr75  1  0.60210713  0.20631748  0.39344880  1
  Zr  Zr76  1  0.60550787  0.00800138  0.79909208  1
  Zr  Zr77  1  0.50473170  0.30665219  0.50323441  1
  Zr  Zr78  1  0.59435113  0.60244692  0.78628817  1
  Zr  Zr79  1  0.80377944  0.79763830  0.80046284  1
  Zr  Zr80  1  0.09332819  0.50986991  0.11373852  1
  Zr  Zr81  1  -0.00049607  0.79911344  0.59167867  1
  Zr  Zr82  1  0.69768772  0.90070559  0.50106702  1
  Zr  Zr83  1  0.50005473  0.09921064  0.50563595  1
  Zr  Zr84  1  0.79051679  0.20242882  0.78433226  1
  Zr  Zr85  1  0.20232762  0.40752303  0.59631111  1
  Zr  Zr86  1  -0.00370776  0.00534837  -0.00722941  1
  Zr  Zr87  1  -0.00171666  0.39224102  0.79070210  1
  Zr  Zr88  1  0.10225677  0.29828008  0.09604617  1
  Zr  Zr89  1  0.10899411  0.88713237  0.48690834  1
  Zr  Zr90  1  0.51137018  0.30409777  0.70938617  1
  Zr  Zr91  1  0.80359336  -0.00886072  0.20708447  1
  Zr  Zr92  1  0.29889946  0.30214914  0.29999224  1
  Zr  Zr93  1  0.80562316  0.00420051  -0.00663388  1
  Zr  Zr94  1  0.59686169  0.40430574  0.00921589  1
  Zr  Zr95  1  0.29102368  0.30001622  0.70359062  1
  Zr  Zr96  1  0.70306043  0.89476599  0.69938166  1
  Zr  Zr97  1  -0.00195167  0.20623011  0.60598578  1
  Zr  Zr98  1  0.89292527  0.09981506  0.50075075  1
  Zr  Zr99  1  0.18943765  0.60626629  -0.00156417  1
  Ta  Ta100  1  0.59326782  -0.00513564  0.40287078  1
  Ta  Ta101  1  0.59638864  -0.00645065  -0.00070746  1
  Ta  Ta102  1  0.89928687  0.30940753  0.50328563  1
  Ta  Ta103  1  0.69601896  0.69710078  0.30541285  1
  Ta  Ta104  1  0.29771348  0.29523159  0.90259312  1
  Ta  Ta105  1  0.20898049  -0.00186460  0.39338991  1
  Ta  Ta106  1  0.80383438  0.79591809  0.39911701  1
  Ta  Ta107  1  0.60307777  0.59079066  0.20748980  1
  Ta  Ta108  1  0.79843081  0.00055450  0.60224589  1
  Ta  Ta109  1  0.00670199  0.60424693  0.59665449  1
  Ta  Ta110  1  0.89823450  0.09551195  0.69681955  1
  Ta  Ta111  1  0.39913889  0.79517222  0.79013386  1
  Ta  Ta112  1  -0.01712983  0.20117220  -0.00699409  1
  Ta  Ta113  1  0.11348834  0.09991202  0.30027238  1
  Ta  Ta114  1  0.70567236  0.30017434  0.50431053  1
  Ta  Ta115  1  0.90481387  0.90279658  0.69816308  1
  Ta  Ta116  1  0.80832587  0.79841844  0.00446439  1
  Ta  Ta117  1  0.89944561  0.69563812  0.49641797  1
  Ta  Ta118  1  0.48811469  0.30396613  0.10279720  1
  Ta  Ta119  1  0.09733679  0.50483028  0.49791904  1
  Ta  Ta120  1  0.90209034  0.69902376  0.68966528  1
  Ta  Ta121  1  0.70354593  0.49845644  0.69651122  1
  Ta  Ta122  1  0.38918694  -0.00344415  0.40539963  1
  Ta  Ta123  1  0.68982760  0.30516522  0.88596417  1
  Ta  Ta124  1  0.20169936  0.41538831  0.39826956  1
  Ta  Ta125  1  0.20426347  -0.00083443  0.19994244  1
  Ta  Ta126  1  0.30081903  0.30270179  0.09562027  1
  Ta  Ta127  1  0.89485472  0.30157353  0.09737744  1
  Ta  Ta128  1  0.19753109  0.60499946  0.59358309  1
  Ta  Ta129  1  0.39890762  0.19846525  0.80525839  1
  Ta  Ta130  1  0.00132279  0.79787923  0.79402995  1
  Ta  Ta131  1  0.59478329  0.79061286  0.60133864  1
  Ta  Ta132  1  0.30041910  0.70065717  0.89964338  1
  Ta  Ta133  1  0.69954659  0.89514367  0.90656460  1
  Ta  Ta134  1  0.00826602  0.40274855  0.40135369  1
  Ta  Ta135  1  0.80284458  0.79744151  0.59340568  1
  Ta  Ta136  1  0.59873396  0.59049408  0.40557280  1
  Ta  Ta137  1  0.20870684  0.19352243  0.19626001  1
  Ta  Ta138  1  0.10357798  0.70810503  0.89633584  1
  Ta  Ta139  1  0.48630244  0.89787526  0.51465860  1
  Ta  Ta140  1  0.88068225  0.30070802  0.89812765  1
  Ta  Ta141  1  0.79890247  0.39099669  0.60688725  1
  Ta  Ta142  1  0.29470219  0.70111088  0.10444516  1
  Ta  Ta143  1  0.49684964  0.30174044  0.90354191  1
  Ta  Ta144  1  0.49543721  0.69456200  0.50760331  1
  Ta  Ta145  1  0.69184200  0.09300342  0.30524414  1
  Ta  Ta146  1  0.70115222  0.70140300  0.10399370  1
  Ta  Ta147  1  0.20645438  0.40733593  0.20404360  1
  Ta  Ta148  1  0.10366539  0.70485533  0.69376433  1
  Ta  Ta149  1  0.69899799  0.09922599  0.50288588  1
  Ti  Ti150  1  0.50101478  0.30146749  0.29194573  1
  Ti  Ti151  1  0.10283528  0.51170957  0.29707424  1
  Ti  Ti152  1  0.00520555  0.59765110  -0.00451869  1
  Ti  Ti153  1  0.20384264  0.59818824  0.40381243  1
  Ti  Ti154  1  0.10453335  0.70202604  0.49106901  1
  Ti  Ti155  1  0.49342797  0.50337431  0.69556087  1
  Ti  Ti156  1  0.91597511  0.69940290  0.10513893  1
  Ti  Ti157  1  0.29725033  0.10268197  0.50189105  1
  Ti  Ti158  1  0.90897368  0.49913672  0.10844179  1
  Ti  Ti159  1  0.29313840  0.89524129  0.29597901  1
  Ti  Ti160  1  0.00499848  0.60335046  0.40335373  1
  Ti  Ti161  1  0.19735408  0.80354209  0.01023266  1
  Ti  Ti162  1  0.70119369  0.69578406  0.50277426  1
  Ti  Ti163  1  0.70863896  0.49684826  0.50426937  1
  Ti  Ti164  1  0.49755826  0.49226117  0.30430209  1
  Ti  Ti165  1  0.70804570  0.69309864  0.68445892  1
  Ti  Ti166  1  0.48670928  0.69374060  0.69035680  1
  Ti  Ti167  1  0.90031163  0.31232726  0.30973822  1
  Ti  Ti168  1  0.89493997  0.10762895  0.09675664  1
  Ti  Ti169  1  0.31507810  0.89509714  0.68207718  1
  Ti  Ti170  1  0.60072146  0.59794210  0.59548006  1
  Ti  Ti171  1  0.21642370  0.79263336  0.58776134  1
  Ti  Ti172  1  0.09482239  0.49814870  0.68976671  1
  Ti  Ti173  1  0.10045538  0.70610071  0.11076009  1
  Ti  Ti174  1  0.11008873  0.29309009  0.69993657  1
  Ti  Ti175  1  0.61513949  0.19822270  0.61588429  1
  Ti  Ti176  1  0.38852908  0.60219791  0.59129798  1
  Ti  Ti177  1  0.89780781  0.89607911  0.49490070  1
  Ti  Ti178  1  0.01017152  0.80005321  0.00411055  1
  Ti  Ti179  1  0.29283108  0.29695437  0.50257932  1
  Ti  Ti180  1  0.61188425  0.40496128  0.39707078  1
  Ti  Ti181  1  0.90725938  0.89775447  0.89420957  1
  Ti  Ti182  1  0.69871656  0.89652917  0.30673886  1
  Ti  Ti183  1  0.01716744  -0.00933653  0.20236563  1
  Ti  Ti184  1  0.00269303  0.39638453  0.20429161  1
  Ti  Ti185  1  0.11473311  0.10935049  0.49476570  1
  Ti  Ti186  1  0.89660189  0.49413049  0.89133201  1
  Ti  Ti187  1  0.30401340  0.89467289  0.11542266  1
  Ti  Ti188  1  0.49336788  0.49935380  0.50929000  1
  Ti  Ti189  1  0.79622532  -0.00618105  0.40018534  1
  Ti  Ti190  1  0.91115278  0.70104607  0.30330913  1
  Ti  Ti191  1  0.70275144  0.10897945  0.90341871  1
  Ti  Ti192  1  0.50332957  0.89733782  0.89658481  1
  Ti  Ti193  1  0.20614111  0.79554376  0.79084719  1
  Ti  Ti194  1  0.30311252  0.69822994  0.69706691  1
  Ti  Ti195  1  0.10421506  0.10451200  0.70198314  1
  Ti  Ti196  1  0.91795569  0.88634371  0.30299352  1
  Ti  Ti197  1  0.19382267  0.40961276  0.80251617  1
  Ti  Ti198  1  0.38970603  0.19685707  -0.00013774  1
  Ti  Ti199  1  0.59432225  0.80396596  0.00558472  1
  Mo  Mo200  1  0.00143072  0.40325481  0.59721323  1
  Mo  Mo201  1  0.39062798  0.80147734  0.20004452  1
  Mo  Mo202  1  -0.00601194  0.79643088  0.39805578  1
  Mo  Mo203  1  0.00232094  0.80125112  0.19920828  1
  Mo  Mo204  1  0.19567514  0.80872870  0.19286352  1
  Mo  Mo205  1  0.29983312  0.09057706  0.29850794  1
  Mo  Mo206  1  0.69414944  0.50340869  0.31101486  1
  Mo  Mo207  1  0.39807663  0.79181676  0.60224369  1
  Mo  Mo208  1  0.79887519  0.39962202  0.40911547  1
  Mo  Mo209  1  0.70272590  0.50426958  0.11282877  1
  Mo  Mo210  1  0.69396123  0.30662148  0.30817510  1
  Mo  Mo211  1  0.28989264  0.50143244  0.29843604  1
  Mo  Mo212  1  0.29286409  0.69663953  0.50128237  1
  Mo  Mo213  1  0.30081567  0.90212852  0.50141586  1
  Mo  Mo214  1  0.59679615  0.40523094  0.79699778  1
  Mo  Mo215  1  0.20167547  0.80398318  0.39535859  1
  Mo  Mo216  1  0.21394317  0.19492633  0.00069003  1
  Mo  Mo217  1  -0.00211131  -0.00134852  0.79135529  1
  Mo  Mo218  1  0.79754484  0.60239628  0.59555670  1
  Mo  Mo219  1  0.39852353  0.39025294  -0.00143450  1
  Mo  Mo220  1  0.19844224  0.59998181  0.19824614  1
  Mo  Mo221  1  0.38969364  -0.00304911  0.20131283  1
  Mo  Mo222  1  0.69883239  0.30479435  0.69909550  1
  Mo  Mo223  1  0.89438271  0.30111704  0.69456434  1
  Mo  Mo224  1  0.59986850  0.20170074  0.80311658  1
  Mo  Mo225  1  0.19894657  0.19731298  0.59822191  1
  Mo  Mo226  1  0.59278798  0.20559328  0.20515483  1
  Mo  Mo227  1  0.40231674  0.39842599  0.19905237  1
  Mo  Mo228  1  0.09688555  0.50521561  0.88937340  1
  Mo  Mo229  1  0.10692537  0.90307355  0.29348265  1
  Mo  Mo230  1  0.79825239  0.20638170  -0.00687337  1
  Mo  Mo231  1  -0.00178592  0.60842439  0.20013510  1
  Mo  Mo232  1  0.29971842  0.10146888  0.10071880  1
  Mo  Mo233  1  0.39498135  0.60730404  0.00771899  1
  Mo  Mo234  1  0.49746404  0.88229002  0.69507807  1
  Mo  Mo235  1  0.79624067  0.39864882  0.79377378  1
  Mo  Mo236  1  0.70358890  0.10038204  0.69250638  1
  Mo  Mo237  1  0.39554733  0.60735015  0.79019686  1
  Mo  Mo238  1  0.29420979  0.50477807  0.50251082  1
  Mo  Mo239  1  0.20414049  0.19567345  0.80114615  1
  Mo  Mo240  1  0.10573591  0.89761426  0.10280826  1
  Mo  Mo241  1  0.40290101  0.40462714  0.59782487  1
  Mo  Mo242  1  0.30383616  0.10376278  0.89932020  1
  Mo  Mo243  1  0.49207930  0.49601329  0.10750961  1
  Mo  Mo244  1  0.39939985  0.00087881  0.59674024  1
  Mo  Mo245  1  0.49758654  0.90168359  0.09974526  1
  Mo  Mo246  1  0.20667586  0.19057191  0.39941393  1
  Mo  Mo247  1  0.89709311  0.10769511  0.89362931  1
  Mo  Mo248  1  0.79648696  0.19922076  0.59768054  1
  Mo  Mo249  1  0.50339860  0.11681949  0.70431934  1
