# generated using pymatgen
data_HfZrTaTiMo
_symmetry_space_group_name_H-M   'P 1'
_cell_length_a   16.88477006
_cell_length_b   16.87911260
_cell_length_c   16.89209239
_cell_angle_alpha   90.00957146
_cell_angle_beta   90.01828315
_cell_angle_gamma   89.97947220
_symmetry_Int_Tables_number   1
_chemical_formula_structural   HfZrTaTiMo
_chemical_formula_sum   'Hf50 Zr50 Ta50 Ti50 Mo50'
_cell_volume   4814.24461120
_cell_formula_units_Z   50
loop_
 _symmetry_equiv_pos_site_id
 _symmetry_equiv_pos_as_xyz
  1  'x, y, z'
loop_
 _atom_site_type_symbol
 _atom_site_label
 _atom_site_symmetry_multiplicity
 _atom_site_fract_x
 _atom_site_fract_y
 _atom_site_fract_z
 _atom_site_occupancy
  Hf  Hf0  1  0.69290945  0.10173047  0.90105818  1
  Hf  Hf1  1  0.69680067  0.90340959  0.30919826  1
  Hf  Hf2  1  -0.00245661  0.80221378  0.79645709  1
  Hf  Hf3  1  0.00067291  0.00083894  0.20671657  1
  Hf  Hf4  1  0.10183066  0.09930395  0.30789629  1
  Hf  Hf5  1  0.48772013  0.69781056  0.69218273  1
  Hf  Hf6  1  0.79123126  -0.00007550  0.79131514  1
  Hf  Hf7  1  0.90780081  0.29979026  0.30039602  1
  Hf  Hf8  1  0.80379473  0.59791115  0.20959152  1
  Hf  Hf9  1  0.30287402  0.49884114  0.10826323  1
  Hf  Hf10  1  -0.00511093  0.40157281  0.79042608  1
  Hf  Hf11  1  0.79852690  0.79918194  -0.00346093  1
  Hf  Hf12  1  0.90526781  0.70180742  0.10393081  1
  Hf  Hf13  1  0.69110512  0.29616570  0.69242077  1
  Hf  Hf14  1  0.79928372  0.00039770  0.20940708  1
  Hf  Hf15  1  0.80852153  0.40160867  0.20372537  1
  Hf  Hf16  1  0.21391996  0.40041015  0.79278508  1
  Hf  Hf17  1  0.48743405  0.09324162  0.90193595  1
  Hf  Hf18  1  0.58963017  0.40454730  0.00707240  1
  Hf  Hf19  1  0.20764430  0.80843869  0.00473419  1
  Hf  Hf20  1  0.69995317  0.69311876  0.10364383  1
  Hf  Hf21  1  0.09749828  0.69573762  0.11337006  1
  Hf  Hf22  1  0.59373438  0.20487958  0.39405204  1
  Hf  Hf23  1  0.10792661  0.30014196  0.10238138  1
  Hf  Hf24  1  0.80039501  0.80545896  0.60016068  1
  Hf  Hf25  1  0.09748333  0.29581293  0.49571730  1
  Hf  Hf26  1  -0.00010578  0.59773180  -0.00513354  1
  Hf  Hf27  1  0.89580320  0.29604606  0.90296332  1
  Hf  Hf28  1  0.19928090  0.39405948  0.38876472  1
  Hf  Hf29  1  0.49402383  0.10092789  0.49694776  1
  Hf  Hf30  1  0.19633914  0.80175410  0.40108830  1
  Hf  Hf31  1  0.59498391  0.19327995  0.01832353  1
  Hf  Hf32  1  0.79992762  0.00479661  0.60306316  1
  Hf  Hf33  1  0.89836630  0.69523714  0.49562526  1
  Hf  Hf34  1  0.49586222  0.69439437  0.30006006  1
  Hf  Hf35  1  0.60146126  0.79451341  0.20515128  1
  Hf  Hf36  1  0.69550890  0.10626413  0.50020274  1
  Hf  Hf37  1  0.69229560  0.31591203  0.31350825  1
  Hf  Hf38  1  0.50193140  0.30203007  0.50076040  1
  Hf  Hf39  1  0.01509906  -0.00378540  0.81350734  1
  Hf  Hf40  1  0.40622792  0.40075319  0.00605859  1
  Hf  Hf41  1  0.59322504  0.39999969  0.79535835  1
  Hf  Hf42  1  0.01612630  0.18563877  -0.00003906  1
  Hf  Hf43  1  0.60741072  0.59970121  0.59515323  1
  Hf  Hf44  1  0.11067926  0.49793258  0.89646716  1
  Hf  Hf45  1  0.20447066  -0.00132403  0.19769434  1
  Hf  Hf46  1  0.69396641  0.49808721  0.29972791  1
  Hf  Hf47  1  -0.00964205  0.19846731  0.59884833  1
  Hf  Hf48  1  0.80183851  0.19496552  0.79293374  1
  Hf  Hf49  1  0.60047298  0.59834465  0.79598342  1
  Zr  Zr50  1  0.20642595  0.19914654  0.79762001  1
  Zr  Zr51  1  0.30374946  0.30313985  0.49683159  1
  Zr  Zr52  1  0.10090314  0.29450284  0.69478480  1
  Zr  Zr53  1  0.09649159  0.70274642  0.50142383  1
  Zr  Zr54  1  0.60244058  -0.00558698  0.60859672  1
  Zr  Zr55  1  0.10578291  0.90357763  0.68355500  1
  Zr  Zr56  1  0.00059577  0.59720940  0.79188289  1
  Zr  Zr57  1  0.49437100  0.90173277  0.31166288  1
  Zr  Zr58  1  0.50043242  0.29257197  0.90069143  1
  Zr  Zr59  1  0.11095462  0.29710715  0.90240744  1
  Zr  Zr60  1  0.70813463  0.48550196  0.48553947  1
  Zr  Zr61  1  0.19739068  0.80350891  0.79631007  1
  Zr  Zr62  1  0.00328351  0.80529490  -0.01300074  1
  Zr  Zr63  1  0.40292229  -0.00048489  0.60520136  1
  Zr  Zr64  1  -0.00922757  0.40677409  0.60547864  1
  Zr  Zr65  1  0.91094538  0.49896855  0.10692322  1
  Zr  Zr66  1  0.79032709  0.00494852  0.00669147  1
  Zr  Zr67  1  0.29739425  0.69132635  0.10585945  1
  Zr  Zr68  1  0.90291871  0.89402025  0.10724898  1
  Zr  Zr69  1  0.18786226  0.00897544  0.00065773  1
  Zr  Zr70  1  0.41275413  0.60031377  0.00779719  1
  Zr  Zr71  1  0.38783867  -0.00037928  0.01661511  1
  Zr  Zr72  1  0.09726659  0.49759294  0.49775294  1
  Zr  Zr73  1  0.30512555  0.50269313  0.29093092  1
  Zr  Zr74  1  0.20588971  0.40698366  0.60653283  1
  Zr  Zr75  1  0.80565988  0.39432741  0.59851108  1
  Zr  Zr76  1  0.59808648  0.01917765  0.19842540  1
  Zr  Zr77  1  0.19878195  0.60074119  0.40008743  1
  Zr  Zr78  1  0.70590895  0.49566729  0.89856937  1
  Zr  Zr79  1  0.49832093  0.89371899  0.49446537  1
  Zr  Zr80  1  0.80371069  0.80214785  0.39885345  1
  Zr  Zr81  1  0.39556953  0.20550921  0.79024971  1
  Zr  Zr82  1  0.91218973  0.70370857  0.29271461  1
  Zr  Zr83  1  0.60594802  0.80388696  0.78736919  1
  Zr  Zr84  1  0.30505806  0.91029030  0.88815187  1
  Zr  Zr85  1  0.59708890  0.59757826  0.40383547  1
  Zr  Zr86  1  0.39514068  0.80305293  0.19390602  1
  Zr  Zr87  1  0.79390562  0.19559634  0.20211374  1
  Zr  Zr88  1  0.10453431  0.09369933  0.69579680  1
  Zr  Zr89  1  0.90265651  0.10172519  0.10027326  1
  Zr  Zr90  1  0.59316784  0.79274936  0.00058582  1
  Zr  Zr91  1  0.59426763  -0.00485765  0.79036955  1
  Zr  Zr92  1  0.80295831  0.19795823  0.60097990  1
  Zr  Zr93  1  0.80213677  0.80317152  0.79553015  1
  Zr  Zr94  1  0.69379460  0.30629057  0.10809568  1
  Zr  Zr95  1  0.49387769  0.70374049  0.89152585  1
  Zr  Zr96  1  0.49599779  0.70636930  0.50000487  1
  Zr  Zr97  1  0.00079139  0.39742585  -0.00110982  1
  Zr  Zr98  1  0.10921043  0.69637152  0.89774963  1
  Zr  Zr99  1  0.50042075  0.90216878  0.09951282  1
  Ta  Ta100  1  0.49304281  0.90285904  0.89512366  1
  Ta  Ta101  1  0.61152524  0.79891058  0.59934617  1
  Ta  Ta102  1  -0.00308833  0.59587152  0.39343389  1
  Ta  Ta103  1  0.90005966  0.30421515  0.48782285  1
  Ta  Ta104  1  0.69238003  0.50151210  0.10817659  1
  Ta  Ta105  1  0.70293293  0.49859023  0.69738880  1
  Ta  Ta106  1  0.59982675  0.40222701  0.59492321  1
  Ta  Ta107  1  0.90565821  0.91371825  0.49342355  1
  Ta  Ta108  1  0.00375937  0.80982052  0.39928847  1
  Ta  Ta109  1  0.70009260  0.90395268  0.49372775  1
  Ta  Ta110  1  0.29925121  0.69492595  0.29802033  1
  Ta  Ta111  1  0.70273613  0.69228204  0.90016487  1
  Ta  Ta112  1  0.69929902  0.29789572  0.90188278  1
  Ta  Ta113  1  0.69682233  0.90062772  0.10273542  1
  Ta  Ta114  1  -0.00252041  0.59512599  0.60104097  1
  Ta  Ta115  1  0.20462367  0.60199099  0.60326927  1
  Ta  Ta116  1  0.09704642  0.09363293  0.49923297  1
  Ta  Ta117  1  0.30268925  0.89991814  0.49913432  1
  Ta  Ta118  1  0.19774256  0.80107790  0.21094360  1
  Ta  Ta119  1  0.39212588  0.00677425  0.20225555  1
  Ta  Ta120  1  0.00839498  0.19914252  0.20361422  1
  Ta  Ta121  1  0.90142920  0.09773646  0.90073008  1
  Ta  Ta122  1  -0.00459953  0.80530886  0.59407006  1
  Ta  Ta123  1  0.10889013  0.50141164  0.10657302  1
  Ta  Ta124  1  0.20357724  0.19751400  0.39890895  1
  Ta  Ta125  1  0.59570297  0.59474415  0.00523215  1
  Ta  Ta126  1  0.79520746  0.19938661  0.00305428  1
  Ta  Ta127  1  0.21247715  0.19050919  0.59497802  1
  Ta  Ta128  1  0.20007938  0.20162399  0.20740771  1
  Ta  Ta129  1  0.29782968  0.10391132  0.90195504  1
  Ta  Ta130  1  0.69283090  0.90033912  0.90605840  1
  Ta  Ta131  1  0.49458220  0.50184072  0.69097709  1
  Ta  Ta132  1  0.89563226  0.91045165  0.90167420  1
  Ta  Ta133  1  0.30671586  0.69472705  0.89055359  1
  Ta  Ta134  1  0.88915692  0.49892479  0.89562996  1
  Ta  Ta135  1  0.09263089  0.50090194  0.28600816  1
  Ta  Ta136  1  0.20833884  0.60073258  0.78650124  1
  Ta  Ta137  1  0.39394900  0.19725897  0.60086433  1
  Ta  Ta138  1  0.19816374  -0.00421491  0.40495240  1
  Ta  Ta139  1  0.39715053  0.59603633  0.40239017  1
  Ta  Ta140  1  0.09966393  0.70098247  0.68985146  1
  Ta  Ta141  1  0.30685541  0.50504093  0.89632947  1
  Ta  Ta142  1  0.39833333  0.39937267  0.79411612  1
  Ta  Ta143  1  0.09797887  0.89542166  0.10740677  1
  Ta  Ta144  1  0.30081115  0.90216432  0.69455447  1
  Ta  Ta145  1  0.30315383  0.29879856  0.10662885  1
  Ta  Ta146  1  0.39608380  0.20275397  0.39427744  1
  Ta  Ta147  1  0.30140814  0.90392625  0.30649552  1
  Ta  Ta148  1  0.19972503  0.39357455  0.20410549  1
  Ta  Ta149  1  0.40657791  0.40190386  0.39189447  1
  Ti  Ti150  1  0.21228756  0.79362751  0.59400121  1
  Ti  Ti151  1  0.31357907  0.50846281  0.70039869  1
  Ti  Ti152  1  0.00291324  0.19886123  0.39881719  1
  Ti  Ti153  1  0.30115833  0.09930266  0.30544158  1
  Ti  Ti154  1  0.79691283  0.20774663  0.40540174  1
  Ti  Ti155  1  0.89959470  0.69419972  0.69349083  1
  Ti  Ti156  1  0.40378168  0.20070022  0.01600317  1
  Ti  Ti157  1  0.79869531  0.39718249  0.00540006  1
  Ti  Ti158  1  0.48484237  0.10425901  0.29948209  1
  Ti  Ti159  1  0.58459540  0.20534682  0.20343357  1
  Ti  Ti160  1  0.89924006  0.09626597  0.31544057  1
  Ti  Ti161  1  0.59545980  0.00397877  0.00740564  1
  Ti  Ti162  1  0.49970047  0.29914344  0.69019451  1
  Ti  Ti163  1  0.30465750  0.49906264  0.49766688  1
  Ti  Ti164  1  0.09671973  0.90070093  0.30309242  1
  Ti  Ti165  1  0.21039285  0.40140942  0.00243534  1
  Ti  Ti166  1  0.79833118  0.59711338  0.58718147  1
  Ti  Ti167  1  -0.00200320  0.40732800  0.39247433  1
  Ti  Ti168  1  0.00042938  0.19636628  0.80345519  1
  Ti  Ti169  1  0.69987354  0.69480434  0.31067636  1
  Ti  Ti170  1  0.90586109  0.29669401  0.10188086  1
  Ti  Ti171  1  0.00831483  0.00040896  0.00036712  1
  Ti  Ti172  1  0.29901495  0.08628386  0.70734161  1
  Ti  Ti173  1  0.49173414  0.49735188  0.50410123  1
  Ti  Ti174  1  0.20421612  0.00027903  0.58883677  1
  Ti  Ti175  1  0.30218015  0.09535559  0.49120578  1
  Ti  Ti176  1  0.88896410  0.68928195  0.89247973  1
  Ti  Ti177  1  0.59701036  0.00743392  0.39821107  1
  Ti  Ti178  1  0.20650885  0.59812639  -0.00313365  1
  Ti  Ti179  1  0.59913986  0.19742101  0.79474291  1
  Ti  Ti180  1  0.88210906  0.51165843  0.70403246  1
  Ti  Ti181  1  0.39648706  0.80398947  0.78742973  1
  Ti  Ti182  1  0.71299399  0.68981999  0.69882351  1
  Ti  Ti183  1  0.39610999  0.79963300  0.00313084  1
  Ti  Ti184  1  0.29631959  0.11550263  0.10516318  1
  Ti  Ti185  1  0.50097387  0.10809824  0.69730031  1
  Ti  Ti186  1  0.70262669  0.10377444  0.30912149  1
  Ti  Ti187  1  0.91319484  0.09215649  0.70506509  1
  Ti  Ti188  1  0.38502631  0.60876406  0.59172837  1
  Ti  Ti189  1  0.90324154  0.09650415  0.48878459  1
  Ti  Ti190  1  0.79718323  0.80381762  0.20626829  1
  Ti  Ti191  1  0.38409705  0.79105444  0.40383580  1
  Ti  Ti192  1  0.79841482  0.59473152  0.00130539  1
  Ti  Ti193  1  0.30326364  0.29572133  0.91270164  1
  Ti  Ti194  1  0.30928596  0.29717282  0.29176571  1
  Ti  Ti195  1  0.50010498  0.49628208  0.28956873  1
  Ti  Ti196  1  0.39806440  0.39917156  0.60438902  1
  Ti  Ti197  1  0.80141498  0.39091846  0.79300126  1
  Ti  Ti198  1  0.90927470  0.91020114  0.69462212  1
  Ti  Ti199  1  0.49117687  0.50362214  0.88721578  1
  Mo  Mo200  1  0.40083391  0.00218921  0.79324389  1
  Mo  Mo201  1  0.09943740  0.90152743  0.90801285  1
  Mo  Mo202  1  0.90628817  0.49881949  0.30394107  1
  Mo  Mo203  1  0.38992217  0.00668006  0.39704907  1
  Mo  Mo204  1  0.80178515  0.00829585  0.40188210  1
  Mo  Mo205  1  0.70450041  0.89537948  0.69242987  1
  Mo  Mo206  1  0.38961892  0.80224929  0.60077528  1
  Mo  Mo207  1  0.58991085  0.40126392  0.20296130  1
  Mo  Mo208  1  0.40619793  0.59919888  0.20498777  1
  Mo  Mo209  1  0.40216185  0.39312924  0.20047311  1
  Mo  Mo210  1  0.10144867  0.69928999  0.30116175  1
  Mo  Mo211  1  0.48978763  0.10583653  0.10819059  1
  Mo  Mo212  1  0.39824387  0.59594422  0.79365211  1
  Mo  Mo213  1  0.09930887  0.29836055  0.30143347  1
  Mo  Mo214  1  0.50279839  0.50086553  0.11857388  1
  Mo  Mo215  1  0.29952684  0.70018933  0.49881637  1
  Mo  Mo216  1  0.69388998  0.10202565  0.10542732  1
  Mo  Mo217  1  0.49444085  0.30427152  0.29982646  1
  Mo  Mo218  1  -0.00355712  0.00182430  0.59287482  1
  Mo  Mo219  1  0.61219450  0.79489303  0.40531373  1
  Mo  Mo220  1  0.10374017  0.10286203  0.11190503  1
  Mo  Mo221  1  0.20583462  0.00210735  0.80019338  1
  Mo  Mo222  1  0.29776754  0.70278321  0.69554689  1
  Mo  Mo223  1  0.00793124  0.39411134  0.20027390  1
  Mo  Mo224  1  0.89968998  0.29155333  0.70675346  1
  Mo  Mo225  1  0.80683865  0.59759425  0.39857169  1
  Mo  Mo226  1  0.57886859  0.40311865  0.40147081  1
  Mo  Mo227  1  0.10816691  0.51059652  0.69787323  1
  Mo  Mo228  1  0.90052838  0.50365498  0.49283323  1
  Mo  Mo229  1  0.01116167  0.80535938  0.21271686  1
  Mo  Mo230  1  0.59949923  0.59879751  0.20033747  1
  Mo  Mo231  1  0.90252171  0.90277142  0.30627663  1
  Mo  Mo232  1  0.81834320  0.40231933  0.39733968  1
  Mo  Mo233  1  0.29397415  0.89647369  0.11137733  1
  Mo  Mo234  1  0.00422137  0.59789121  0.20128919  1
  Mo  Mo235  1  0.10195786  0.90241760  0.49993573  1
  Mo  Mo236  1  0.59260964  0.20227020  0.60026884  1
  Mo  Mo237  1  0.50344656  0.69123502  0.10615907  1
  Mo  Mo238  1  0.79796515  0.60251793  0.79645372  1
  Mo  Mo239  1  0.70377770  0.70401151  0.49858841  1
  Mo  Mo240  1  0.10427973  0.10017710  0.89944195  1
  Mo  Mo241  1  0.00058196  0.00016914  0.40025212  1
  Mo  Mo242  1  0.68472570  0.10796293  0.69863987  1
  Mo  Mo243  1  0.49283338  0.30055941  0.11411383  1
  Mo  Mo244  1  0.39546029  0.19787203  0.20543286  1
  Mo  Mo245  1  0.30860857  0.30157194  0.68899004  1
  Mo  Mo246  1  0.49264414  0.88665368  0.69759989  1
  Mo  Mo247  1  0.21199743  0.19982418  0.00560842  1
  Mo  Mo248  1  0.69980370  0.29969060  0.49600593  1
  Mo  Mo249  1  0.19717367  0.59916602  0.20345789  1
