# generated using pymatgen
data_HfZrTaTiMo
_symmetry_space_group_name_H-M   'P 1'
_cell_length_a   16.88363366
_cell_length_b   16.89084228
_cell_length_c   16.88825279
_cell_angle_alpha   90.03886479
_cell_angle_beta   90.00095275
_cell_angle_gamma   89.99749776
_symmetry_Int_Tables_number   1
_chemical_formula_structural   HfZrTaTiMo
_chemical_formula_sum   'Hf50 Zr50 Ta50 Ti50 Mo50'
_cell_volume   4816.17043477
_cell_formula_units_Z   50
loop_
 _symmetry_equiv_pos_site_id
 _symmetry_equiv_pos_as_xyz
  1  'x, y, z'
loop_
 _atom_site_type_symbol
 _atom_site_label
 _atom_site_symmetry_multiplicity
 _atom_site_fract_x
 _atom_site_fract_y
 _atom_site_fract_z
 _atom_site_occupancy
  Hf  Hf0  1  0.19305622  0.60447476  0.39985718  1
  Hf  Hf1  1  0.50404727  0.30336893  0.88936149  1
  Hf  Hf2  1  0.00557855  0.80081591  0.00076472  1
  Hf  Hf3  1  0.59458598  0.80378387  -0.00574090  1
  Hf  Hf4  1  0.39471995  0.39193810  0.39406202  1
  Hf  Hf5  1  0.49305789  0.70424448  0.89640020  1
  Hf  Hf6  1  0.00266120  0.80835300  0.61467640  1
  Hf  Hf7  1  0.80882956  0.80100863  0.40058939  1
  Hf  Hf8  1  0.40476600  0.80731630  0.20476974  1
  Hf  Hf9  1  0.30455468  0.50280686  0.29422111  1
  Hf  Hf10  1  0.81373623  0.00356742  0.19525503  1
  Hf  Hf11  1  0.59095931  0.39246110  0.60226884  1
  Hf  Hf12  1  0.09555436  0.49354085  0.50174165  1
  Hf  Hf13  1  0.10174319  0.29762601  0.90835745  1
  Hf  Hf14  1  0.69596482  0.70000984  0.50399773  1
  Hf  Hf15  1  0.49902803  0.29515000  0.29798173  1
  Hf  Hf16  1  0.20719850  0.38811776  0.19766650  1
  Hf  Hf17  1  0.10413549  0.90695555  0.50089036  1
  Hf  Hf18  1  0.29916457  0.28947434  0.69224470  1
  Hf  Hf19  1  0.00456965  0.60546091  0.39771987  1
  Hf  Hf20  1  0.40082132  0.18613966  0.79563281  1
  Hf  Hf21  1  0.79612953  0.39322161  0.59685987  1
  Hf  Hf22  1  0.00282006  0.00202870  0.19805204  1
  Hf  Hf23  1  0.59346566  0.40231076  0.00928173  1
  Hf  Hf24  1  -0.00435703  0.62289989  0.58994003  1
  Hf  Hf25  1  0.70004473  0.69692270  0.29262317  1
  Hf  Hf26  1  0.80310512  0.00678503  0.39849074  1
  Hf  Hf27  1  0.19895652  0.18143854  0.80543655  1
  Hf  Hf28  1  0.60694634  0.00625451  0.61745077  1
  Hf  Hf29  1  0.30118228  0.30558117  0.90145385  1
  Hf  Hf30  1  0.29421971  0.68716097  0.10184493  1
  Hf  Hf31  1  0.69206637  0.29700968  0.71212254  1
  Hf  Hf32  1  0.90109003  0.49566836  0.50042437  1
  Hf  Hf33  1  0.70036519  0.69930847  0.89640500  1
  Hf  Hf34  1  -0.00381319  0.40612028  0.80917328  1
  Hf  Hf35  1  0.80008402  0.59984234  0.40298586  1
  Hf  Hf36  1  0.68829143  0.49432507  0.88935415  1
  Hf  Hf37  1  0.69960480  0.91212394  0.90309103  1
  Hf  Hf38  1  0.09595190  0.51212674  0.69905054  1
  Hf  Hf39  1  0.90554670  0.30085502  0.10449020  1
  Hf  Hf40  1  0.20071597  0.40882672  0.79515960  1
  Hf  Hf41  1  0.20522366  0.39853462  0.59903603  1
  Hf  Hf42  1  0.90208380  0.70103839  0.29069280  1
  Hf  Hf43  1  0.39573767  0.79422771  0.60337246  1
  Hf  Hf44  1  0.29526221  0.90515308  0.69975735  1
  Hf  Hf45  1  0.01848540  0.60183345  0.20229279  1
  Hf  Hf46  1  0.29775583  0.50301257  0.90483959  1
  Hf  Hf47  1  0.79906068  0.40243697  -0.00013053  1
  Hf  Hf48  1  0.49125455  0.10973992  0.29618751  1
  Hf  Hf49  1  0.90986632  0.29809568  0.49736458  1
  Zr  Zr50  1  0.79684057  0.19548376  0.40187351  1
  Zr  Zr51  1  0.81022644  0.39167919  0.80984296  1
  Zr  Zr52  1  0.20126578  0.80067575  -0.00590165  1
  Zr  Zr53  1  0.39518529  0.39996794  0.77646713  1
  Zr  Zr54  1  0.50966991  0.09436727  0.90793940  1
  Zr  Zr55  1  0.69877917  0.30159386  0.29771083  1
  Zr  Zr56  1  0.49325167  0.49432021  0.89556583  1
  Zr  Zr57  1  0.29087150  0.90591438  0.30402398  1
  Zr  Zr58  1  0.59562985  0.80308125  0.19876699  1
  Zr  Zr59  1  0.49126614  0.50015699  0.69010265  1
  Zr  Zr60  1  0.69953059  0.10210191  0.09050652  1
  Zr  Zr61  1  0.90946628  0.91225194  0.50127699  1
  Zr  Zr62  1  0.49757403  0.90054456  0.50899032  1
  Zr  Zr63  1  0.81645790  0.79797346  0.60419453  1
  Zr  Zr64  1  0.00714891  -0.00257492  0.79420957  1
  Zr  Zr65  1  0.18623720  0.79438241  0.19867550  1
  Zr  Zr66  1  0.70317901  0.91048847  0.09197120  1
  Zr  Zr67  1  0.89968456  0.50862049  0.69498831  1
  Zr  Zr68  1  0.70539484  0.90338552  0.29435333  1
  Zr  Zr69  1  0.50062963  0.10964910  0.10481304  1
  Zr  Zr70  1  0.49339636  0.49776880  0.49486622  1
  Zr  Zr71  1  0.58686482  0.79928523  0.38777772  1
  Zr  Zr72  1  0.79914053  0.59633485  0.00253979  1
  Zr  Zr73  1  0.90433306  0.90758875  0.90285127  1
  Zr  Zr74  1  0.81074893  0.81102810  0.79537100  1
  Zr  Zr75  1  0.49408066  0.10025708  0.49925177  1
  Zr  Zr76  1  0.70459491  0.50420583  0.69802320  1
  Zr  Zr77  1  0.30076564  0.89870143  0.88890136  1
  Zr  Zr78  1  -0.00804086  0.19208522  0.81088766  1
  Zr  Zr79  1  0.39990996  0.80000087  0.39751791  1
  Zr  Zr80  1  0.29622280  0.09875919  0.10316048  1
  Zr  Zr81  1  0.81166454  0.20644076  -0.01246665  1
  Zr  Zr82  1  0.80834046  0.79596780  0.00237618  1
  Zr  Zr83  1  0.09789180  0.90255685  0.30539591  1
  Zr  Zr84  1  0.79269329  0.19487033  0.60296840  1
  Zr  Zr85  1  0.19660031  0.79193085  0.59884848  1
  Zr  Zr86  1  0.60016524  0.00288718  0.39427013  1
  Zr  Zr87  1  0.39952529  0.59988345  -0.00168719  1
  Zr  Zr88  1  0.19952763  0.38963878  0.40217586  1
  Zr  Zr89  1  0.59137495  0.40403734  0.19572826  1
  Zr  Zr90  1  0.90569694  0.30321191  0.30110113  1
  Zr  Zr91  1  0.71066579  0.69575575  0.69864000  1
  Zr  Zr92  1  0.58751240  0.60919897  0.79151935  1
  Zr  Zr93  1  0.09935450  0.29439521  0.70185232  1
  Zr  Zr94  1  0.89978030  0.49018645  0.29676727  1
  Zr  Zr95  1  0.39578821  0.20488039  0.00100249  1
  Zr  Zr96  1  0.30139857  0.69087383  0.29485778  1
  Zr  Zr97  1  0.49402942  0.69998761  0.10271071  1
  Zr  Zr98  1  0.90310246  0.49675096  0.10995145  1
  Zr  Zr99  1  0.69585398  0.89516984  0.51090591  1
  Ta  Ta100  1  0.68931520  0.29433707  0.89785508  1
  Ta  Ta101  1  0.39434893  -0.00296642  -0.00404979  1
  Ta  Ta102  1  0.81180055  0.80484478  0.19065339  1
  Ta  Ta103  1  0.49768932  0.69426808  0.50028692  1
  Ta  Ta104  1  0.59431097  0.60544454  0.59715061  1
  Ta  Ta105  1  0.59795782  0.80902717  0.79177736  1
  Ta  Ta106  1  0.70108290  0.29826143  0.10569642  1
  Ta  Ta107  1  0.00698284  0.19422184  0.60074473  1
  Ta  Ta108  1  0.91011720  0.10277075  0.09068973  1
  Ta  Ta109  1  0.59293438  0.00206574  0.19756608  1
  Ta  Ta110  1  0.69918915  0.10158978  0.90093952  1
  Ta  Ta111  1  0.19831250  -0.00041317  -0.00714999  1
  Ta  Ta112  1  0.30294095  0.28664310  0.49730031  1
  Ta  Ta113  1  0.09786255  0.69681501  0.89557183  1
  Ta  Ta114  1  0.79228947  0.40004521  0.40330000  1
  Ta  Ta115  1  0.09986301  0.29348360  0.30744716  1
  Ta  Ta116  1  0.80586588  0.19612259  0.19677452  1
  Ta  Ta117  1  0.29614861  0.91049402  0.50099481  1
  Ta  Ta118  1  0.00729359  0.19783242  0.20054673  1
  Ta  Ta119  1  0.59657915  0.59317994  0.19714305  1
  Ta  Ta120  1  0.59430044  0.59721814  0.39408232  1
  Ta  Ta121  1  0.49444700  0.29513311  0.49897261  1
  Ta  Ta122  1  0.19942299  0.20281852  0.20400139  1
  Ta  Ta123  1  0.20196574  0.40003624  0.00722524  1
  Ta  Ta124  1  0.69239548  0.50022877  0.49832764  1
  Ta  Ta125  1  0.19734951  0.19113663  0.59291948  1
  Ta  Ta126  1  0.29945381  0.10925840  0.30497613  1
  Ta  Ta127  1  0.20376415  0.60575431  0.80186831  1
  Ta  Ta128  1  -0.00172955  0.59836166  -0.00473151  1
  Ta  Ta129  1  0.00490962  0.40170582  0.00168688  1
  Ta  Ta130  1  0.20031155  0.01224612  0.40472695  1
  Ta  Ta131  1  0.90274130  0.29395844  0.69905664  1
  Ta  Ta132  1  0.59933965  0.20062065  0.40278094  1
  Ta  Ta133  1  0.30567951  0.50249922  0.50442315  1
  Ta  Ta134  1  0.60135545  -0.00255087  0.79844426  1
  Ta  Ta135  1  0.49621672  0.91026117  0.09098315  1
  Ta  Ta136  1  0.69537344  0.49517795  0.30193744  1
  Ta  Ta137  1  0.60079324  0.59359549  0.01132637  1
  Ta  Ta138  1  0.40154273  0.19276563  0.60303388  1
  Ta  Ta139  1  0.90732677  0.09954351  0.50484936  1
  Ta  Ta140  1  0.02026393  0.39507712  0.19754010  1
  Ta  Ta141  1  0.00580704  0.78973563  0.40758202  1
  Ta  Ta142  1  0.49714545  0.89985945  0.70301086  1
  Ta  Ta143  1  0.79888169  0.01116098  0.79515067  1
  Ta  Ta144  1  0.80016632  0.00156166  0.61371624  1
  Ta  Ta145  1  0.10429959  0.50700372  0.90590232  1
  Ta  Ta146  1  0.39666344  -0.00096459  0.19925849  1
  Ta  Ta147  1  0.10105448  0.10371436  0.09731989  1
  Ta  Ta148  1  0.90597534  0.69618805  0.10249573  1
  Ta  Ta149  1  0.30536596  0.49782596  0.10421544  1
  Ti  Ti150  1  0.19504877  0.79411153  0.40431172  1
  Ti  Ti151  1  0.10613356  0.68755442  0.09090788  1
  Ti  Ti152  1  0.82145326  0.59500028  0.82112292  1
  Ti  Ti153  1  0.68684291  0.30256841  0.49450377  1
  Ti  Ti154  1  0.18562692  0.80461955  0.80082511  1
  Ti  Ti155  1  0.59343133  0.19545129  0.60544106  1
  Ti  Ti156  1  0.19399330  0.00740831  0.60363720  1
  Ti  Ti157  1  0.59415156  0.18634420  0.78827480  1
  Ti  Ti158  1  0.01037256  0.19812105  0.40535245  1
  Ti  Ti159  1  0.00215333  0.80234787  0.19246826  1
  Ti  Ti160  1  0.00296894  0.00901226  0.39647688  1
  Ti  Ti161  1  0.29470719  0.70332747  0.70907647  1
  Ti  Ti162  1  0.39478044  0.80502586  -0.00467961  1
  Ti  Ti163  1  0.90052492  0.10319064  0.69777487  1
  Ti  Ti164  1  0.00384963  0.38976921  0.60161653  1
  Ti  Ti165  1  0.90939183  0.89766377  0.29935584  1
  Ti  Ti166  1  0.09481131  0.09925476  0.91600544  1
  Ti  Ti167  1  0.09615930  0.69948449  0.71149464  1
  Ti  Ti168  1  0.30246124  0.10002285  0.49673428  1
  Ti  Ti169  1  0.59763732  0.21160310  0.00723547  1
  Ti  Ti170  1  0.38432709  0.21916552  0.19692235  1
  Ti  Ti171  1  0.70111647  0.69927672  0.10221846  1
  Ti  Ti172  1  0.91039247  0.69490298  0.72105622  1
  Ti  Ti173  1  0.80495043  0.19693403  0.80492353  1
  Ti  Ti174  1  0.10343915  0.90898747  0.09621444  1
  Ti  Ti175  1  0.90816557  0.10794619  0.30148223  1
  Ti  Ti176  1  0.39922053  0.00515496  0.60645254  1
  Ti  Ti177  1  0.10375747  0.49090696  0.30088296  1
  Ti  Ti178  1  0.39627861  -0.00083591  0.39460463  1
  Ti  Ti179  1  0.30383874  0.69371743  0.49365773  1
  Ti  Ti180  1  0.39260148  0.60691264  0.60471276  1
  Ti  Ti181  1  0.49281439  0.50193590  0.29860848  1
  Ti  Ti182  1  0.20368464  0.60547236  0.60169588  1
  Ti  Ti183  1  0.40641125  0.00174732  0.80241623  1
  Ti  Ti184  1  0.10163821  0.28978838  0.09594989  1
  Ti  Ti185  1  0.38970543  0.60605612  0.79191489  1
  Ti  Ti186  1  0.00622303  0.00568743  0.61166302  1
  Ti  Ti187  1  0.19871707  0.00509906  0.20046688  1
  Ti  Ti188  1  0.18886905  0.00119342  0.80363551  1
  Ti  Ti189  1  0.69838371  0.09982918  0.50351707  1
  Ti  Ti190  1  0.20604200  0.19616278  0.00122271  1
  Ti  Ti191  1  0.29850960  0.90187278  0.09975279  1
  Ti  Ti192  1  0.29649167  0.09189064  0.69987086  1
  Ti  Ti193  1  0.79089276  0.59349288  0.19392139  1
  Ti  Ti194  1  0.00188096  -0.00030752  0.00088412  1
  Ti  Ti195  1  0.10663092  0.10630107  0.30234923  1
  Ti  Ti196  1  0.11306364  0.50509630  0.09586182  1
  Ti  Ti197  1  0.69375990  0.10785730  0.28889019  1
  Ti  Ti198  1  0.09856853  0.10056543  0.49962524  1
  Ti  Ti199  1  0.40212642  0.79781108  0.79618362  1
  Mo  Mo200  1  0.00645308  0.20155503  0.00628219  1
  Mo  Mo201  1  0.19901018  0.19253349  0.40231803  1
  Mo  Mo202  1  0.69898342  0.90354881  0.70653817  1
  Mo  Mo203  1  0.58996016  0.79580476  0.61233095  1
  Mo  Mo204  1  0.90933576  0.69698803  0.90141314  1
  Mo  Mo205  1  0.09999267  0.29225722  0.49990069  1
  Mo  Mo206  1  0.00458412  0.60323333  0.80584915  1
  Mo  Mo207  1  0.90548946  0.30245625  0.90344971  1
  Mo  Mo208  1  0.10672984  0.70308449  0.50006434  1
  Mo  Mo209  1  0.49444202  0.30229017  0.10359833  1
  Mo  Mo210  1  0.19493823  0.59007739  0.19727937  1
  Mo  Mo211  1  0.39338418  0.38763135  0.58915982  1
  Mo  Mo212  1  0.79824116  0.59961833  0.59132011  1
  Mo  Mo213  1  0.49507679  0.91906384  0.28996506  1
  Mo  Mo214  1  0.59392799  -0.00055006  -0.00309312  1
  Mo  Mo215  1  0.79044883  0.39761276  0.20006573  1
  Mo  Mo216  1  0.59859551  0.40050732  0.40222290  1
  Mo  Mo217  1  0.09950991  0.70568829  0.29772563  1
  Mo  Mo218  1  0.89949557  0.70168680  0.49462748  1
  Mo  Mo219  1  0.10610937  0.90282855  0.70232204  1
  Mo  Mo220  1  0.90262200  0.91275555  0.70208820  1
  Mo  Mo221  1  0.29694024  0.09077408  0.90032996  1
  Mo  Mo222  1  0.19625260  0.59753017  -0.00238617  1
  Mo  Mo223  1  0.49775186  0.09300749  0.70143712  1
  Mo  Mo224  1  0.00839238  0.79905838  0.80213510  1
  Mo  Mo225  1  0.59606483  0.39036321  0.79636832  1
  Mo  Mo226  1  0.10210165  0.90117145  0.90076514  1
  Mo  Mo227  1  0.49359030  0.70661342  0.69556898  1
  Mo  Mo228  1  0.40874725  0.59323521  0.20207598  1
  Mo  Mo229  1  0.00567140  0.39652560  0.39569948  1
  Mo  Mo230  1  0.39648543  0.19744871  0.40370292  1
  Mo  Mo231  1  0.90990362  0.90155261  0.10237565  1
  Mo  Mo232  1  0.49744479  0.67846433  0.30252198  1
  Mo  Mo233  1  0.10494857  0.09762129  0.69137475  1
  Mo  Mo234  1  0.49906320  0.28691235  0.69205044  1
  Mo  Mo235  1  0.49485190  0.89906219  0.89512383  1
  Mo  Mo236  1  0.89955227  0.09698878  0.90349278  1
  Mo  Mo237  1  0.40039307  0.59783407  0.40334748  1
  Mo  Mo238  1  0.60695717  0.20033308  0.19907980  1
  Mo  Mo239  1  0.81057770  0.01205455  -0.00568106  1
  Mo  Mo240  1  0.29742127  0.29249466  0.30069230  1
  Mo  Mo241  1  0.91053402  0.49950337  0.90848289  1
  Mo  Mo242  1  0.29704494  0.70314863  0.88872709  1
  Mo  Mo243  1  0.29688116  0.30135146  0.09816182  1
  Mo  Mo244  1  0.39999930  0.39776555  0.19632472  1
  Mo  Mo245  1  0.70041981  0.10468705  0.70935585  1
  Mo  Mo246  1  0.49214022  0.49916614  0.10401255  1
  Mo  Mo247  1  0.29490709  0.51548812  0.69003332  1
  Mo  Mo248  1  0.69864026  0.49966044  0.10742259  1
  Mo  Mo249  1  0.39737170  0.39781063  0.01590400  1
