# generated using pymatgen
data_HfZrTaTiMo
_symmetry_space_group_name_H-M   'P 1'
_cell_length_a   16.88409849
_cell_length_b   16.88535015
_cell_length_c   16.88153006
_cell_angle_alpha   90.02333536
_cell_angle_beta   89.93507908
_cell_angle_gamma   90.02062577
_symmetry_Int_Tables_number   1
_chemical_formula_structural   HfZrTaTiMo
_chemical_formula_sum   'Hf50 Zr50 Ta50 Ti50 Mo50'
_cell_volume   4812.81769285
_cell_formula_units_Z   50
loop_
 _symmetry_equiv_pos_site_id
 _symmetry_equiv_pos_as_xyz
  1  'x, y, z'
loop_
 _atom_site_type_symbol
 _atom_site_label
 _atom_site_symmetry_multiplicity
 _atom_site_fract_x
 _atom_site_fract_y
 _atom_site_fract_z
 _atom_site_occupancy
  Hf  Hf0  1  0.50598307  0.09450159  0.29312351  1
  Hf  Hf1  1  0.70075871  0.09480009  0.10194583  1
  Hf  Hf2  1  -0.00766614  0.01008111  0.40808048  1
  Hf  Hf3  1  -0.00264561  0.18579191  0.59635516  1
  Hf  Hf4  1  0.09285796  0.89982499  0.71546981  1
  Hf  Hf5  1  0.59723555  0.19135752  0.59168820  1
  Hf  Hf6  1  0.39217984  0.40427451  0.18866845  1
  Hf  Hf7  1  0.09273207  0.70635550  0.29495193  1
  Hf  Hf8  1  0.30116692  0.70342241  0.49876422  1
  Hf  Hf9  1  0.70717153  0.49651415  0.09440173  1
  Hf  Hf10  1  0.71242126  0.88074143  0.49345651  1
  Hf  Hf11  1  0.90207398  0.29054606  0.30175061  1
  Hf  Hf12  1  -0.00605812  0.79794747  0.60205931  1
  Hf  Hf13  1  0.79586408  0.80148261  -0.00287721  1
  Hf  Hf14  1  0.18947515  0.60838762  0.59910483  1
  Hf  Hf15  1  0.89469393  0.49880609  0.09592604  1
  Hf  Hf16  1  0.70626332  0.71116911  0.69326883  1
  Hf  Hf17  1  0.29554366  0.29701516  0.48912195  1
  Hf  Hf18  1  0.59846647  0.39457586  0.80962214  1
  Hf  Hf19  1  0.39696511  0.60190496  0.80889083  1
  Hf  Hf20  1  0.69871700  0.09778533  0.90599637  1
  Hf  Hf21  1  0.80849159  0.19304961  0.80225236  1
  Hf  Hf22  1  0.49994728  0.70468350  0.09901678  1
  Hf  Hf23  1  0.70293275  0.71045883  0.30350247  1
  Hf  Hf24  1  0.40885681  -0.00203721  0.40223367  1
  Hf  Hf25  1  0.59416400  -0.00620029  0.59310724  1
  Hf  Hf26  1  0.59129095  0.38994915  0.00745183  1
  Hf  Hf27  1  -0.00423461  0.59669238  0.39609430  1
  Hf  Hf28  1  0.09419948  0.50108162  0.70191375  1
  Hf  Hf29  1  0.69444331  0.90001585  0.10747432  1
  Hf  Hf30  1  0.49422958  0.29762077  0.30155909  1
  Hf  Hf31  1  0.19962151  0.60425268  0.81078470  1
  Hf  Hf32  1  0.59834586  0.39812995  0.19229309  1
  Hf  Hf33  1  0.30541006  0.10332974  0.89124049  1
  Hf  Hf34  1  0.29774235  0.70757542  0.70543050  1
  Hf  Hf35  1  0.58613606  -0.00095205  0.00329395  1
  Hf  Hf36  1  0.91150658  0.89578132  0.89758408  1
  Hf  Hf37  1  0.21105393  0.20993605  0.77851074  1
  Hf  Hf38  1  0.20917160  0.40020275  0.80533244  1
  Hf  Hf39  1  0.69732050  0.29311815  0.30505560  1
  Hf  Hf40  1  0.10221707  0.29559995  0.89788933  1
  Hf  Hf41  1  0.09899520  0.70533953  0.10128001  1
  Hf  Hf42  1  0.80734057  -0.00074270  0.80150036  1
  Hf  Hf43  1  0.60399821  0.60353512  0.59813136  1
  Hf  Hf44  1  0.59822130  0.19722365  0.19035551  1
  Hf  Hf45  1  0.89803122  0.29217431  0.49259485  1
  Hf  Hf46  1  0.89028955  0.49509724  0.89958494  1
  Hf  Hf47  1  0.29287501  0.09441245  0.49028960  1
  Hf  Hf48  1  0.81869601  -0.00310886  0.59347084  1
  Hf  Hf49  1  -0.01210825  0.19713909  -0.00130969  1
  Zr  Zr50  1  0.40311847  0.80648030  0.80806265  1
  Zr  Zr51  1  -0.00488898  0.39251332  0.00516381  1
  Zr  Zr52  1  0.39054510  0.18740760  0.60549884  1
  Zr  Zr53  1  0.79773773  0.19484973  0.59920839  1
  Zr  Zr54  1  -0.00196962  0.39954784  0.79671313  1
  Zr  Zr55  1  0.40221462  0.20393978  -0.00241999  1
  Zr  Zr56  1  0.21643025  0.40176364  0.00375584  1
  Zr  Zr57  1  0.29582386  0.90485786  0.10324863  1
  Zr  Zr58  1  0.50250680  0.49862269  0.30084067  1
  Zr  Zr59  1  0.19034283  0.40256564  0.38981399  1
  Zr  Zr60  1  0.50872130  0.70554003  0.29216566  1
  Zr  Zr61  1  0.50166853  0.30089947  0.48741526  1
  Zr  Zr62  1  0.10481096  0.70935736  0.90549493  1
  Zr  Zr63  1  0.60464599  0.60600946  0.79895503  1
  Zr  Zr64  1  0.70826236  0.08696105  0.48055224  1
  Zr  Zr65  1  0.29690864  0.89795421  0.49896493  1
  Zr  Zr66  1  0.61046354  0.39309682  0.59612767  1
  Zr  Zr67  1  0.00213014  0.00486419  0.00002738  1
  Zr  Zr68  1  0.61000039  0.60034786  0.40076872  1
  Zr  Zr69  1  0.39616954  0.39686945  0.59889100  1
  Zr  Zr70  1  0.09970173  0.89696096  0.10333761  1
  Zr  Zr71  1  0.71629317  0.49467028  0.70344473  1
  Zr  Zr72  1  0.59676551  0.20109326  0.80863442  1
  Zr  Zr73  1  0.90376448  0.89440842  0.10670352  1
  Zr  Zr74  1  0.69297774  0.08896082  0.70395771  1
  Zr  Zr75  1  0.51121367  0.70818425  0.49479704  1
  Zr  Zr76  1  0.10091448  0.50457457  0.09932728  1
  Zr  Zr77  1  0.09852764  0.09350539  0.70243545  1
  Zr  Zr78  1  0.41108148  0.81169192  0.39489179  1
  Zr  Zr79  1  0.49593028  0.29315435  0.70528414  1
  Zr  Zr80  1  0.50092069  0.49990340  0.70144018  1
  Zr  Zr81  1  0.69545704  0.90208240  0.30005351  1
  Zr  Zr82  1  0.09612705  0.50030134  0.50002418  1
  Zr  Zr83  1  0.29944411  0.50456824  0.29995590  1
  Zr  Zr84  1  0.20964692  0.20105117  0.00813964  1
  Zr  Zr85  1  0.09673988  0.90347991  0.29553562  1
  Zr  Zr86  1  0.10098533  0.29586500  0.11358518  1
  Zr  Zr87  1  0.19431821  0.00572917  0.59819304  1
  Zr  Zr88  1  0.10009438  0.10489642  0.29904427  1
  Zr  Zr89  1  0.18488111  0.79731166  0.60326341  1
  Zr  Zr90  1  0.29676095  0.90003527  0.70489082  1
  Zr  Zr91  1  0.39647939  0.40143994  0.00265348  1
  Zr  Zr92  1  0.50409254  0.70405649  0.90192969  1
  Zr  Zr93  1  0.80171021  0.40304516  0.39764397  1
  Zr  Zr94  1  0.70801888  0.49521372  0.90378447  1
  Zr  Zr95  1  0.30429642  0.70385874  0.29576478  1
  Zr  Zr96  1  0.19366465  0.38405288  0.60866734  1
  Zr  Zr97  1  0.10463891  0.09854405  0.89600824  1
  Zr  Zr98  1  0.88182882  0.71010880  0.49790347  1
  Zr  Zr99  1  0.30148901  0.50491772  0.69636885  1
  Ta  Ta100  1  0.80195610  0.39136421  0.19442714  1
  Ta  Ta101  1  0.79902549  0.60178275  0.19972024  1
  Ta  Ta102  1  0.39640636  0.39316753  0.81284630  1
  Ta  Ta103  1  0.59411495  0.20218497  0.00328865  1
  Ta  Ta104  1  0.70294795  0.49761903  0.29536213  1
  Ta  Ta105  1  -0.00183167  0.40455844  0.21026310  1
  Ta  Ta106  1  -0.00899924  0.60510151  0.60892332  1
  Ta  Ta107  1  0.20756628  0.00033534  -0.00082576  1
  Ta  Ta108  1  0.89687189  0.50175301  0.50466357  1
  Ta  Ta109  1  -0.00618613  0.39733362  0.59851339  1
  Ta  Ta110  1  -0.00766077  0.60389820  -0.00263827  1
  Ta  Ta111  1  0.19541628  0.60570132  0.39609622  1
  Ta  Ta112  1  0.40164108  0.60004140  0.40525903  1
  Ta  Ta113  1  0.19469480  0.19972090  0.59730822  1
  Ta  Ta114  1  0.59695475  0.80569346  -0.00142635  1
  Ta  Ta115  1  0.09077742  0.29159087  0.49299751  1
  Ta  Ta116  1  0.19923838  0.60078824  0.19847669  1
  Ta  Ta117  1  -0.01107733  0.00998047  0.20434415  1
  Ta  Ta118  1  0.09477264  0.90544395  0.49514193  1
  Ta  Ta119  1  0.70100954  0.89645972  0.70262450  1
  Ta  Ta120  1  0.89673237  0.30247136  0.69862010  1
  Ta  Ta121  1  0.40163805  -0.00282605  -0.00427883  1
  Ta  Ta122  1  0.39840090  0.81096726  -0.00078434  1
  Ta  Ta123  1  0.41487191  0.80420806  0.60716099  1
  Ta  Ta124  1  0.70736142  0.29912544  0.90939935  1
  Ta  Ta125  1  0.40936183  -0.00348688  0.60266570  1
  Ta  Ta126  1  -0.00461493  0.59731526  0.20161628  1
  Ta  Ta127  1  0.29997155  0.50676118  0.49874135  1
  Ta  Ta128  1  0.19490538  0.80393116  0.39684716  1
  Ta  Ta129  1  -0.00598518  0.60294492  0.79875473  1
  Ta  Ta130  1  0.80412828  0.80022215  0.80051892  1
  Ta  Ta131  1  -0.00789654  0.20055484  0.79594628  1
  Ta  Ta132  1  0.90115966  0.69975091  0.10462523  1
  Ta  Ta133  1  0.81048758  0.61011241  0.79889095  1
  Ta  Ta134  1  0.70084902  0.09301113  0.29835438  1
  Ta  Ta135  1  0.80595935  0.00364929  0.20356088  1
  Ta  Ta136  1  0.30013186  0.29053102  0.29759825  1
  Ta  Ta137  1  0.60437088  0.60299986  0.00406370  1
  Ta  Ta138  1  0.80433966  -0.00048203  -0.00198905  1
  Ta  Ta139  1  -0.00088564  0.40288508  0.39499342  1
  Ta  Ta140  1  0.79798428  0.61551395  -0.00076523  1
  Ta  Ta141  1  0.69143017  0.90051898  0.89130951  1
  Ta  Ta142  1  0.49998886  0.50290987  0.90873496  1
  Ta  Ta143  1  0.40801077  0.60931156  0.59809609  1
  Ta  Ta144  1  0.50181760  0.49730285  0.49592394  1
  Ta  Ta145  1  0.29634793  0.91046576  0.29620624  1
  Ta  Ta146  1  0.70660313  0.50104159  0.49808896  1
  Ta  Ta147  1  0.40484934  0.81176451  0.19522393  1
  Ta  Ta148  1  0.40518891  -0.00125505  0.80040827  1
  Ta  Ta149  1  0.60625562  0.59759819  0.19163593  1
  Ti  Ti150  1  0.09688122  0.50263871  0.90635805  1
  Ti  Ti151  1  0.89046784  0.30440821  0.89956073  1
  Ti  Ti152  1  0.79968444  0.60177950  0.39684338  1
  Ti  Ti153  1  0.39432020  0.59885928  0.00139009  1
  Ti  Ti154  1  0.20617327  0.79865872  0.20204200  1
  Ti  Ti155  1  -0.01324119  0.01437002  0.80014014  1
  Ti  Ti156  1  0.89566187  0.89841119  0.30376464  1
  Ti  Ti157  1  0.80172135  0.20470672  0.00879223  1
  Ti  Ti158  1  0.20940663  -0.00356678  0.80540681  1
  Ti  Ti159  1  0.58747938  -0.01526976  0.40268401  1
  Ti  Ti160  1  0.29893512  0.70492706  0.09504729  1
  Ti  Ti161  1  0.09211363  0.70499761  0.49136062  1
  Ti  Ti162  1  0.80350256  0.79919908  0.20099375  1
  Ti  Ti163  1  0.60005420  0.80147851  0.59986952  1
  Ti  Ti164  1  0.48683625  0.28768363  0.10869984  1
  Ti  Ti165  1  0.09640902  0.29443672  0.30019361  1
  Ti  Ti166  1  0.59669366  0.18922988  0.40227209  1
  Ti  Ti167  1  0.30119241  0.09621717  0.29792879  1
  Ti  Ti168  1  0.31168128  0.10138304  0.10757822  1
  Ti  Ti169  1  0.90340139  0.89758977  0.70077782  1
  Ti  Ti170  1  -0.00739411  0.80706049  0.40051957  1
  Ti  Ti171  1  0.88788041  0.10750252  0.31111849  1
  Ti  Ti172  1  -0.00809052  0.19548203  0.19631585  1
  Ti  Ti173  1  0.80532813  0.60172645  0.60342429  1
  Ti  Ti174  1  0.70810496  0.30011417  0.70830451  1
  Ti  Ti175  1  0.79890098  0.20045806  0.19640900  1
  Ti  Ti176  1  0.69817008  0.70645997  0.10494377  1
  Ti  Ti177  1  0.89926984  0.70562327  0.29548972  1
  Ti  Ti178  1  0.69864350  0.70750098  0.89638367  1
  Ti  Ti179  1  0.89453076  0.50162011  0.29591705  1
  Ti  Ti180  1  0.40187037  0.18938740  0.39815852  1
  Ti  Ti181  1  0.80492945  0.39879133  0.60027315  1
  Ti  Ti182  1  -0.00195346  0.78497920  0.79408350  1
  Ti  Ti183  1  0.51508783  0.89709302  0.71261805  1
  Ti  Ti184  1  0.10997429  0.89452214  0.90102958  1
  Ti  Ti185  1  0.21225704  0.60038047  -0.00052623  1
  Ti  Ti186  1  0.39898850  0.59849047  0.18889483  1
  Ti  Ti187  1  0.20089809  0.40513115  0.20106650  1
  Ti  Ti188  1  0.49765841  0.09920867  0.89471348  1
  Ti  Ti189  1  0.19192917  0.19492889  0.39957892  1
  Ti  Ti190  1  0.10136899  0.09917832  0.10323484  1
  Ti  Ti191  1  -0.00043946  0.79752290  0.00194159  1
  Ti  Ti192  1  0.20802070  0.19725375  0.20091001  1
  Ti  Ti193  1  0.41391794  -0.00258378  0.19201350  1
  Ti  Ti194  1  0.89418469  0.09907955  0.10170971  1
  Ti  Ti195  1  0.39495158  0.40529306  0.39820635  1
  Ti  Ti196  1  0.19898063  0.00887102  0.19855855  1
  Ti  Ti197  1  0.90105863  0.70237932  0.90304300  1
  Ti  Ti198  1  0.49758893  0.09508958  0.70841402  1
  Ti  Ti199  1  0.70071449  0.29821367  0.48901613  1
  Mo  Mo200  1  0.49857870  0.09481630  0.49295518  1
  Mo  Mo201  1  0.59820451  0.00022240  0.19801651  1
  Mo  Mo202  1  0.29966358  0.29348913  0.12215397  1
  Mo  Mo203  1  0.30701180  0.09140562  0.69939367  1
  Mo  Mo204  1  0.60554684  0.80420964  0.79994161  1
  Mo  Mo205  1  0.89858400  0.50166989  0.69502762  1
  Mo  Mo206  1  0.30456731  0.29736852  0.88912329  1
  Mo  Mo207  1  0.81066440  -0.00326034  0.39195562  1
  Mo  Mo208  1  0.49788436  0.89900434  0.09801958  1
  Mo  Mo209  1  0.90429954  0.89856386  0.49614045  1
  Mo  Mo210  1  0.09293731  0.69849958  0.70889654  1
  Mo  Mo211  1  0.59343837  -0.00341422  0.80245678  1
  Mo  Mo212  1  0.89557958  0.10327617  0.90574621  1
  Mo  Mo213  1  0.59792914  0.79910824  0.19347476  1
  Mo  Mo214  1  0.50172379  0.30093325  0.90595959  1
  Mo  Mo215  1  0.89734160  0.70060228  0.70367418  1
  Mo  Mo216  1  0.80000488  0.38278669  0.00506682  1
  Mo  Mo217  1  0.79558302  0.19424544  0.39620879  1
  Mo  Mo218  1  0.90047571  0.10017447  0.49564017  1
  Mo  Mo219  1  0.70733231  0.69902890  0.50115809  1
  Mo  Mo220  1  -0.01044739  0.79621669  0.20473018  1
  Mo  Mo221  1  0.80077266  0.38957505  0.79831436  1
  Mo  Mo222  1  0.90402799  0.09823180  0.70059285  1
  Mo  Mo223  1  -0.00172964  -0.00715288  0.59739427  1
  Mo  Mo224  1  0.09535275  0.50559875  0.29379212  1
  Mo  Mo225  1  0.30756193  0.30112504  0.69702234  1
  Mo  Mo226  1  0.50497640  0.89775638  0.50776048  1
  Mo  Mo227  1  0.00084706  0.20038009  0.39938842  1
  Mo  Mo228  1  0.39504780  0.19240520  0.20475739  1
  Mo  Mo229  1  0.29834893  0.51659310  0.10231166  1
  Mo  Mo230  1  0.50193643  0.51519689  0.09609412  1
  Mo  Mo231  1  0.70550742  0.29257133  0.09872896  1
  Mo  Mo232  1  0.50011253  0.90401388  0.89985619  1
  Mo  Mo233  1  0.60489666  0.80435283  0.39974759  1
  Mo  Mo234  1  0.80749191  0.80190404  0.38943817  1
  Mo  Mo235  1  0.60646817  0.40389785  0.40020966  1
  Mo  Mo236  1  0.40121477  0.19678718  0.79996222  1
  Mo  Mo237  1  0.20978764  0.80309591  -0.00038536  1
  Mo  Mo238  1  0.29928321  0.70705626  0.91324857  1
  Mo  Mo239  1  0.08700689  0.29673604  0.69285408  1
  Mo  Mo240  1  0.50531274  0.90272505  0.28620116  1
  Mo  Mo241  1  0.50327352  0.70846538  0.69565210  1
  Mo  Mo242  1  0.29836658  0.90625121  0.90432540  1
  Mo  Mo243  1  0.80437219  0.80749310  0.61146757  1
  Mo  Mo244  1  0.49449838  0.09699461  0.09904538  1
  Mo  Mo245  1  0.10179622  0.10070139  0.49692568  1
  Mo  Mo246  1  0.89839527  0.29456292  0.11225354  1
  Mo  Mo247  1  0.30614931  0.50653519  0.90548841  1
  Mo  Mo248  1  0.19769731  0.80367277  0.81024191  1
  Mo  Mo249  1  0.19842322  -0.00246455  0.39396929  1
