# generated using pymatgen
data_HfZrTaTiMo
_symmetry_space_group_name_H-M   'P 1'
_cell_length_a   16.89921732
_cell_length_b   16.88845446
_cell_length_c   16.88937847
_cell_angle_alpha   89.99188146
_cell_angle_beta   89.97164022
_cell_angle_gamma   90.03341984
_symmetry_Int_Tables_number   1
_chemical_formula_structural   HfZrTaTiMo
_chemical_formula_sum   'Hf50 Zr50 Ta50 Ti50 Mo50'
_cell_volume   4820.25522656
_cell_formula_units_Z   50
loop_
 _symmetry_equiv_pos_site_id
 _symmetry_equiv_pos_as_xyz
  1  'x, y, z'
loop_
 _atom_site_type_symbol
 _atom_site_label
 _atom_site_symmetry_multiplicity
 _atom_site_fract_x
 _atom_site_fract_y
 _atom_site_fract_z
 _atom_site_occupancy
  Hf  Hf0  1  0.60018041  0.20187180  0.00229793  1
  Hf  Hf1  1  0.49128075  0.09965243  0.10222877  1
  Hf  Hf2  1  0.59438928  0.40831951  0.00318506  1
  Hf  Hf3  1  0.29267466  0.69977538  0.30044481  1
  Hf  Hf4  1  0.50097776  0.10043988  0.90018841  1
  Hf  Hf5  1  0.19813178  0.20598884  0.39728103  1
  Hf  Hf6  1  0.19285457  -0.00065874  0.00079143  1
  Hf  Hf7  1  0.78828012  0.38364168  0.40287818  1
  Hf  Hf8  1  0.90500538  0.91159062  0.68530385  1
  Hf  Hf9  1  0.89314654  0.08134957  0.11530765  1
  Hf  Hf10  1  0.49404244  0.90482244  0.29978040  1
  Hf  Hf11  1  0.10883899  0.69409865  0.89471147  1
  Hf  Hf12  1  0.80277320  0.00127725  0.80527339  1
  Hf  Hf13  1  0.10023190  0.10122258  0.69560366  1
  Hf  Hf14  1  0.60112426  0.21599740  0.39739220  1
  Hf  Hf15  1  0.01243830  0.80993694  -0.00602816  1
  Hf  Hf16  1  0.90207602  0.49189337  0.70167452  1
  Hf  Hf17  1  0.90291017  0.91940462  0.28227943  1
  Hf  Hf18  1  0.49885264  0.90139922  0.69345294  1
  Hf  Hf19  1  0.91141747  0.69359368  0.30008769  1
  Hf  Hf20  1  0.39837084  0.41133137  -0.00354989  1
  Hf  Hf21  1  0.49664181  0.90540288  0.49774230  1
  Hf  Hf22  1  0.10221831  0.69581631  0.49334272  1
  Hf  Hf23  1  0.50643193  0.69694976  0.90372687  1
  Hf  Hf24  1  0.39995864  0.59349405  0.19923920  1
  Hf  Hf25  1  0.69170104  0.49972386  0.30090586  1
  Hf  Hf26  1  0.58820867  0.39506074  0.58733811  1
  Hf  Hf27  1  0.40042828  0.79070268  0.19367659  1
  Hf  Hf28  1  0.70209468  0.09697494  0.09765312  1
  Hf  Hf29  1  0.40663198  0.21333445  0.59312217  1
  Hf  Hf30  1  0.01486399  0.19461332  0.19878630  1
  Hf  Hf31  1  0.70639036  0.90391191  0.29934864  1
  Hf  Hf32  1  0.00055710  0.59762833  0.60592529  1
  Hf  Hf33  1  0.80653594  0.79682899  0.18628801  1
  Hf  Hf34  1  0.50682482  0.10448055  0.70070228  1
  Hf  Hf35  1  0.39764806  0.59169661  0.39693897  1
  Hf  Hf36  1  0.09798416  0.49180177  0.49136322  1
  Hf  Hf37  1  0.49867832  0.10122895  0.49333209  1
  Hf  Hf38  1  0.48929077  0.30097426  0.10183297  1
  Hf  Hf39  1  0.20191998  0.39828422  0.20410488  1
  Hf  Hf40  1  0.59042200  -0.01783494  0.00377157  1
  Hf  Hf41  1  0.39805226  0.20246557  0.80033766  1
  Hf  Hf42  1  0.00572938  -0.00563458  0.81635039  1
  Hf  Hf43  1  0.29759827  0.30510690  0.69867204  1
  Hf  Hf44  1  0.59992104  -0.00625077  0.80289281  1
  Hf  Hf45  1  0.00532873  -0.00256954  0.00984947  1
  Hf  Hf46  1  0.29588539  0.89745375  0.09908999  1
  Hf  Hf47  1  0.70216674  0.88705484  0.90760143  1
  Hf  Hf48  1  0.60550551  0.20625787  0.59478858  1
  Hf  Hf49  1  0.69346925  0.50574395  0.89677925  1
  Zr  Zr50  1  0.29638125  0.10646375  0.50303568  1
  Zr  Zr51  1  0.79095644  0.21231666  0.20906910  1
  Zr  Zr52  1  -0.00368451  0.81350349  0.40402276  1
  Zr  Zr53  1  0.29305847  0.70084601  0.91281190  1
  Zr  Zr54  1  -0.00151066  0.79814435  0.59886689  1
  Zr  Zr55  1  0.19485537  0.59412694  0.60655758  1
  Zr  Zr56  1  0.90679979  0.49795600  0.89905296  1
  Zr  Zr57  1  0.59491253  0.00098464  0.19768026  1
  Zr  Zr58  1  0.70723683  0.09702669  0.30779235  1
  Zr  Zr59  1  0.91246697  0.29798443  0.31031595  1
  Zr  Zr60  1  0.39293312  -0.00348419  0.80383074  1
  Zr  Zr61  1  0.59735201  0.80975151  0.17705050  1
  Zr  Zr62  1  0.00263933  0.20307943  0.58664221  1
  Zr  Zr63  1  0.58793486  0.39932074  0.20888560  1
  Zr  Zr64  1  0.28864451  0.10731506  0.69812720  1
  Zr  Zr65  1  0.50376062  0.30023361  0.89463043  1
  Zr  Zr66  1  0.12032492  0.69246357  0.08264335  1
  Zr  Zr67  1  0.39301048  0.79743499  0.60280949  1
  Zr  Zr68  1  0.59884643  0.79986029  0.40078163  1
  Zr  Zr69  1  0.80456978  0.20553239  -0.00047620  1
  Zr  Zr70  1  0.69737295  0.50229401  0.50491807  1
  Zr  Zr71  1  0.69087201  0.69659536  0.29048639  1
  Zr  Zr72  1  0.28883333  0.69957529  0.71168173  1
  Zr  Zr73  1  0.80511046  0.59856890  0.18691496  1
  Zr  Zr74  1  0.00144703  0.39013303  0.60099629  1
  Zr  Zr75  1  0.00698274  0.19710948  -0.00103397  1
  Zr  Zr76  1  0.91131197  0.31036263  0.10331518  1
  Zr  Zr77  1  0.80647989  0.60378345  0.79143782  1
  Zr  Zr78  1  0.19813739  0.00221329  0.40400859  1
  Zr  Zr79  1  0.00578498  0.80613103  0.18432650  1
  Zr  Zr80  1  0.40925995  0.39605376  0.40119253  1
  Zr  Zr81  1  0.69735626  0.69581149  0.90408193  1
  Zr  Zr82  1  0.81125198  0.79405972  0.79129833  1
  Zr  Zr83  1  0.70639395  0.90246909  0.69343329  1
  Zr  Zr84  1  0.91420758  0.49012317  0.30433639  1
  Zr  Zr85  1  0.00516780  0.58566551  0.18205113  1
  Zr  Zr86  1  0.39194559  0.19957231  0.21486955  1
  Zr  Zr87  1  0.69272638  0.50268649  0.70027718  1
  Zr  Zr88  1  0.69787317  0.69475922  0.50480872  1
  Zr  Zr89  1  0.80892537  0.80185894  0.40453789  1
  Zr  Zr90  1  0.79766453  0.40597292  0.19522961  1
  Zr  Zr91  1  0.29575169  0.90304780  0.29792260  1
  Zr  Zr92  1  0.80147389  0.59765003  0.39922502  1
  Zr  Zr93  1  0.09881745  0.69546589  0.30267350  1
  Zr  Zr94  1  0.90143909  0.10162205  0.30806067  1
  Zr  Zr95  1  0.90113865  0.10116025  0.69925592  1
  Zr  Zr96  1  0.49463280  0.70049790  0.50221207  1
  Zr  Zr97  1  0.79714612  0.38483686  0.60211559  1
  Zr  Zr98  1  0.40101567  0.80413079  0.80413201  1
  Zr  Zr99  1  0.29318236  0.29836063  0.90350392  1
  Ta  Ta100  1  0.49338391  0.50046638  0.70052956  1
  Ta  Ta101  1  0.39674876  0.59702291  0.60239184  1
  Ta  Ta102  1  0.19651875  0.39887911  0.60152261  1
  Ta  Ta103  1  0.29329875  0.10145212  0.90525015  1
  Ta  Ta104  1  0.29509411  0.29988326  0.09894090  1
  Ta  Ta105  1  0.91056105  0.69712364  0.90166692  1
  Ta  Ta106  1  0.39658357  -0.00394746  -0.00069371  1
  Ta  Ta107  1  0.10569661  0.29461247  0.70190811  1
  Ta  Ta108  1  0.69954963  0.10365080  0.89768477  1
  Ta  Ta109  1  0.10164043  0.70418319  0.70898925  1
  Ta  Ta110  1  0.59498283  0.79540467  0.79372113  1
  Ta  Ta111  1  0.70346508  0.10449608  0.70187490  1
  Ta  Ta112  1  0.39284726  0.79802069  0.39967226  1
  Ta  Ta113  1  0.39837409  0.40926079  0.80177366  1
  Ta  Ta114  1  0.29920551  0.49788242  0.70214247  1
  Ta  Ta115  1  0.69927445  0.30106473  0.89833052  1
  Ta  Ta116  1  0.80849697  0.79128642  0.59570286  1
  Ta  Ta117  1  0.59351245  0.20357160  0.20975431  1
  Ta  Ta118  1  0.00417486  0.00449642  0.41030152  1
  Ta  Ta119  1  0.20562030  0.58717716  0.39571111  1
  Ta  Ta120  1  0.60476067  0.00494598  0.59512969  1
  Ta  Ta121  1  0.19881277  0.79762738  0.19268781  1
  Ta  Ta122  1  0.09857814  0.49297799  0.30236436  1
  Ta  Ta123  1  0.58360351  0.58667990  0.40019719  1
  Ta  Ta124  1  0.39468278  0.00180331  0.59929991  1
  Ta  Ta125  1  0.19655992  0.40063959  -0.00361541  1
  Ta  Ta126  1  0.79868986  0.20301953  0.59483656  1
  Ta  Ta127  1  0.80011185  0.39053259  0.80321967  1
  Ta  Ta128  1  0.19613990  -0.00022143  0.80528710  1
  Ta  Ta129  1  0.00215651  0.20481099  0.80892875  1
  Ta  Ta130  1  0.30114880  0.49511607  0.50671443  1
  Ta  Ta131  1  0.90458215  0.49128471  0.49506359  1
  Ta  Ta132  1  0.29547433  0.49903920  0.09645856  1
  Ta  Ta133  1  0.19482400  0.40358039  0.79992663  1
  Ta  Ta134  1  0.49879450  0.30831094  0.70332068  1
  Ta  Ta135  1  0.40030893  0.59804657  0.00628825  1
  Ta  Ta136  1  0.10366810  0.50197792  0.89935806  1
  Ta  Ta137  1  0.79735598  0.40534206  0.00021460  1
  Ta  Ta138  1  0.20456561  0.59210572  0.19783162  1
  Ta  Ta139  1  0.00822608  0.39126445  0.80353020  1
  Ta  Ta140  1  0.11051416  0.29761043  0.09681720  1
  Ta  Ta141  1  0.80693340  0.59532834  0.00322206  1
  Ta  Ta142  1  0.10082188  0.90554501  0.29510796  1
  Ta  Ta143  1  0.00104257  0.80469453  0.80110098  1
  Ta  Ta144  1  0.70638392  0.90582896  0.50543573  1
  Ta  Ta145  1  0.60298869  0.79983033  0.60313310  1
  Ta  Ta146  1  0.69359176  0.30497288  0.09906471  1
  Ta  Ta147  1  0.29222257  0.69747749  0.49730240  1
  Ta  Ta148  1  0.28730762  0.90512098  0.69647746  1
  Ta  Ta149  1  0.39291854  0.40332509  0.20885385  1
  Ti  Ti150  1  0.90707706  0.70038596  0.08310835  1
  Ti  Ti151  1  0.59679195  0.40217944  0.79769595  1
  Ti  Ti152  1  0.09760189  0.90573477  0.50544855  1
  Ti  Ti153  1  0.58720184  0.59506096  0.19444132  1
  Ti  Ti154  1  0.00515153  0.58920883  0.00063635  1
  Ti  Ti155  1  0.69290478  0.69643945  0.69609989  1
  Ti  Ti156  1  0.39347452  0.01091493  0.39190021  1
  Ti  Ti157  1  0.19670420  0.80230429  0.59955655  1
  Ti  Ti158  1  0.90165145  0.29308061  0.70739818  1
  Ti  Ti159  1  0.09823412  0.09692155  0.30508684  1
  Ti  Ti160  1  0.10027273  0.90480497  0.69748834  1
  Ti  Ti161  1  0.60065390  0.00387371  0.40060412  1
  Ti  Ti162  1  0.50527166  0.51265085  0.89436492  1
  Ti  Ti163  1  0.89625198  0.10028840  0.90562404  1
  Ti  Ti164  1  0.69326419  0.69846168  0.08449325  1
  Ti  Ti165  1  0.88776335  0.89529470  0.91813802  1
  Ti  Ti166  1  0.19467961  0.00935600  0.19810105  1
  Ti  Ti167  1  0.19591060  0.00036813  0.59675837  1
  Ti  Ti168  1  0.40848579  0.80572278  0.00376339  1
  Ti  Ti169  1  0.29494117  0.89833566  0.90475716  1
  Ti  Ti170  1  0.90847111  0.68657965  0.49456099  1
  Ti  Ti171  1  0.29375303  0.50969850  0.89548951  1
  Ti  Ti172  1  0.81125908  0.60597402  0.60360463  1
  Ti  Ti173  1  0.19944059  0.80543478  0.40152637  1
  Ti  Ti174  1  0.58390219  0.60201553  0.60429765  1
  Ti  Ti175  1  0.09468226  0.30625850  0.30591335  1
  Ti  Ti176  1  0.70777384  0.10016720  0.50001891  1
  Ti  Ti177  1  0.40180652  0.60026645  0.79723451  1
  Ti  Ti178  1  0.80103756  0.20318478  0.80437774  1
  Ti  Ti179  1  0.10713286  0.10690857  0.90276985  1
  Ti  Ti180  1  0.72704019  0.90338016  0.08415849  1
  Ti  Ti181  1  0.50181884  0.69952048  0.29935811  1
  Ti  Ti182  1  0.39890504  0.20722165  0.39219893  1
  Ti  Ti183  1  0.00722842  0.59768997  0.79279198  1
  Ti  Ti184  1  0.80838571  -0.00332005  0.41197112  1
  Ti  Ti185  1  0.69184964  0.50691873  0.09592322  1
  Ti  Ti186  1  0.19131493  0.20469963  0.80957916  1
  Ti  Ti187  1  0.39316595  0.19674296  -0.00002684  1
  Ti  Ti188  1  0.69413476  0.29364008  0.71152156  1
  Ti  Ti189  1  0.20323056  0.19914404  0.20783033  1
  Ti  Ti190  1  0.30030185  0.89864042  0.50243730  1
  Ti  Ti191  1  0.00891085  0.40333328  0.00266669  1
  Ti  Ti192  1  0.20829939  0.39717577  0.39590065  1
  Ti  Ti193  1  0.39177736  0.00952985  0.20393451  1
  Ti  Ti194  1  0.50535715  0.69548465  0.08942507  1
  Ti  Ti195  1  0.19166471  0.81642777  0.80494168  1
  Ti  Ti196  1  0.29129642  0.10642824  0.09702631  1
  Ti  Ti197  1  0.90181636  0.30438381  0.90132046  1
  Ti  Ti198  1  0.29683005  0.30664131  0.50417919  1
  Ti  Ti199  1  0.90170824  0.10050273  0.50004110  1
  Mo  Mo200  1  0.81017692  0.78647993  0.00028684  1
  Mo  Mo201  1  0.10422075  0.89975007  0.89712257  1
  Mo  Mo202  1  0.49671344  0.30108761  0.49856570  1
  Mo  Mo203  1  0.10860327  0.30161275  0.49653197  1
  Mo  Mo204  1  0.49974470  0.89230440  0.90392584  1
  Mo  Mo205  1  0.02117014  0.00341219  0.20163628  1
  Mo  Mo206  1  0.80143241  0.19905169  0.41368140  1
  Mo  Mo207  1  0.19612447  0.21271071  0.59266764  1
  Mo  Mo208  1  0.50300137  0.69467005  0.70205376  1
  Mo  Mo209  1  0.79673475  0.01176599  0.59433268  1
  Mo  Mo210  1  0.90700870  0.49790969  0.08859629  1
  Mo  Mo211  1  0.59794257  0.79855835  0.00204993  1
  Mo  Mo212  1  0.59618961  0.59701026  0.00910084  1
  Mo  Mo213  1  0.29567942  0.49723020  0.30031338  1
  Mo  Mo214  1  0.49353102  0.50199121  0.50721356  1
  Mo  Mo215  1  0.69343059  0.30196050  0.29865002  1
  Mo  Mo216  1  0.00748761  0.00291833  0.58995509  1
  Mo  Mo217  1  0.90150989  0.90060324  0.09397702  1
  Mo  Mo218  1  0.29569908  0.10201814  0.29955883  1
  Mo  Mo219  1  0.01563651  0.39482000  0.19670609  1
  Mo  Mo220  1  0.00751451  0.38845884  0.40650041  1
  Mo  Mo221  1  0.10478715  0.49049216  0.09458436  1
  Mo  Mo222  1  0.39590812  0.40427191  0.60342560  1
  Mo  Mo223  1  0.20464490  0.80782754  -0.00184508  1
  Mo  Mo224  1  0.19754153  0.58925087  0.80131488  1
  Mo  Mo225  1  0.91153953  0.70121397  0.70209217  1
  Mo  Mo226  1  0.09897322  0.30318100  0.90045885  1
  Mo  Mo227  1  0.20679725  0.58557135  -0.00091416  1
  Mo  Mo228  1  0.29757848  0.30162883  0.30033801  1
  Mo  Mo229  1  0.70012488  0.29510827  0.50024137  1
  Mo  Mo230  1  0.59509158  0.40064196  0.40232417  1
  Mo  Mo231  1  0.60765540  0.20250128  0.79863877  1
  Mo  Mo232  1  0.11029909  0.10351825  0.10714590  1
  Mo  Mo233  1  0.89663113  0.91540547  0.50616294  1
  Mo  Mo234  1  0.00822962  0.19509622  0.40301879  1
  Mo  Mo235  1  0.00504036  0.58837035  0.40349500  1
  Mo  Mo236  1  0.09972972  0.10127376  0.49985805  1
  Mo  Mo237  1  0.49478556  0.09932432  0.30595930  1
  Mo  Mo238  1  0.30320828  0.69614954  0.09868561  1
  Mo  Mo239  1  0.47948462  0.90367319  0.10006149  1
  Mo  Mo240  1  0.09989105  0.49346529  0.70754846  1
  Mo  Mo241  1  0.49601542  0.30201380  0.30119490  1
  Mo  Mo242  1  0.10859750  0.90323861  0.10557804  1
  Mo  Mo243  1  0.49209698  0.50321635  0.10257484  1
  Mo  Mo244  1  0.89777941  0.29100911  0.49577735  1
  Mo  Mo245  1  0.79047328  -0.00753924  0.19501193  1
  Mo  Mo246  1  0.20154108  0.19910708  0.00589698  1
  Mo  Mo247  1  0.80139260  0.00385485  -0.00705013  1
  Mo  Mo248  1  0.49800965  0.50102396  0.30001207  1
  Mo  Mo249  1  0.59094177  0.60203762  0.78932587  1
