# generated using pymatgen
data_HfZrTaTiMo
_symmetry_space_group_name_H-M   'P 1'
_cell_length_a   16.87838187
_cell_length_b   16.88766041
_cell_length_c   16.88150434
_cell_angle_alpha   90.03273275
_cell_angle_beta   90.00662403
_cell_angle_gamma   89.97396371
_symmetry_Int_Tables_number   1
_chemical_formula_structural   HfZrTaTiMo
_chemical_formula_sum   'Hf50 Zr50 Ta50 Ti50 Mo50'
_cell_volume   4811.84159422
_cell_formula_units_Z   50
loop_
 _symmetry_equiv_pos_site_id
 _symmetry_equiv_pos_as_xyz
  1  'x, y, z'
loop_
 _atom_site_type_symbol
 _atom_site_label
 _atom_site_symmetry_multiplicity
 _atom_site_fract_x
 _atom_site_fract_y
 _atom_site_fract_z
 _atom_site_occupancy
  Hf  Hf0  1  0.51183329  0.31250335  0.08782836  1
  Hf  Hf1  1  0.68836747  0.70052362  0.10109426  1
  Hf  Hf2  1  0.49723786  0.69906909  0.90445741  1
  Hf  Hf3  1  0.69418273  0.49106311  0.09390904  1
  Hf  Hf4  1  0.59889451  0.40614618  0.39909361  1
  Hf  Hf5  1  0.10713837  0.09875094  0.10346512  1
  Hf  Hf6  1  -0.00059946  0.20246313  -0.00288935  1
  Hf  Hf7  1  0.19237247  0.01284438  0.80245047  1
  Hf  Hf8  1  0.50211820  0.09921177  0.30133707  1
  Hf  Hf9  1  0.39831853  0.80147736  0.39912525  1
  Hf  Hf10  1  0.50333070  0.50394264  0.09546422  1
  Hf  Hf11  1  0.20545853  0.40385514  0.19129924  1
  Hf  Hf12  1  0.89954121  0.90763686  0.50715107  1
  Hf  Hf13  1  0.00233397  0.20184542  0.41233715  1
  Hf  Hf14  1  0.89021711  0.10256392  0.51064680  1
  Hf  Hf15  1  0.79220298  0.79854236  0.20408333  1
  Hf  Hf16  1  0.89977368  0.09720494  0.09794486  1
  Hf  Hf17  1  0.71238594  0.28912114  0.49803309  1
  Hf  Hf18  1  0.80016957  0.41052574  0.39979661  1
  Hf  Hf19  1  0.40989659  0.01426818  0.00977572  1
  Hf  Hf20  1  0.19130749  0.78863156  0.60521993  1
  Hf  Hf21  1  0.40575719  -0.00382985  0.41049518  1
  Hf  Hf22  1  0.19497139  0.80850135  0.39682919  1
  Hf  Hf23  1  0.30606152  0.10529056  0.89787400  1
  Hf  Hf24  1  0.00372567  0.80410839  0.40448717  1
  Hf  Hf25  1  0.10535393  0.89840737  0.10524569  1
  Hf  Hf26  1  0.10398975  0.10027343  0.30191695  1
  Hf  Hf27  1  0.21115371  -0.00370198  -0.00359922  1
  Hf  Hf28  1  0.60258209  0.20043897  0.60120618  1
  Hf  Hf29  1  0.09858496  0.69205927  0.30153771  1
  Hf  Hf30  1  0.30481620  0.10490819  0.52091202  1
  Hf  Hf31  1  0.79477054  0.20487323  -0.00062859  1
  Hf  Hf32  1  -0.00051835  0.40605752  0.00364464  1
  Hf  Hf33  1  0.60520434  0.79785415  0.79521785  1
  Hf  Hf34  1  0.89881716  0.29301427  0.69879353  1
  Hf  Hf35  1  0.29381972  0.69428471  0.89582728  1
  Hf  Hf36  1  0.00040536  -0.00557594  0.21072206  1
  Hf  Hf37  1  0.19981707  0.40300077  0.79508981  1
  Hf  Hf38  1  0.30796312  0.09516577  0.29854273  1
  Hf  Hf39  1  0.29292467  0.90545091  0.51109015  1
  Hf  Hf40  1  0.70545947  0.09406353  0.69132975  1
  Hf  Hf41  1  0.38907026  0.80233867  0.79944497  1
  Hf  Hf42  1  0.20216803  0.79806062  0.20595771  1
  Hf  Hf43  1  0.49717313  0.09775799  0.70539698  1
  Hf  Hf44  1  0.10863602  0.88391000  0.88847769  1
  Hf  Hf45  1  0.19854644  0.59537627  0.19160880  1
  Hf  Hf46  1  -0.00752912  0.20261857  0.20131202  1
  Hf  Hf47  1  0.79874972  0.79407024  0.59721117  1
  Hf  Hf48  1  0.09414387  0.30297583  0.89189826  1
  Hf  Hf49  1  0.90640631  0.89715860  0.88377001  1
  Zr  Zr50  1  0.50620363  0.90705196  0.90216286  1
  Zr  Zr51  1  0.39486871  0.59968964  0.59502215  1
  Zr  Zr52  1  0.90159987  0.69639227  0.89501909  1
  Zr  Zr53  1  0.20587143  0.20362334  -0.00060712  1
  Zr  Zr54  1  0.80068200  0.79969324  -0.00073678  1
  Zr  Zr55  1  0.78888119  0.20225798  0.80102030  1
  Zr  Zr56  1  0.01009518  0.00063231  -0.01071581  1
  Zr  Zr57  1  0.19573975  0.19718795  0.41446491  1
  Zr  Zr58  1  0.09273336  0.51202195  0.50244435  1
  Zr  Zr59  1  0.41179238  0.20507729  0.80861515  1
  Zr  Zr60  1  0.60764575  0.59381870  0.80657594  1
  Zr  Zr61  1  0.31192764  0.90181937  0.11550543  1
  Zr  Zr62  1  0.20385631  0.40381482  0.00381901  1
  Zr  Zr63  1  0.19719827  0.40265474  0.40575755  1
  Zr  Zr64  1  0.30534695  0.29984764  0.50618732  1
  Zr  Zr65  1  0.69618430  0.89958013  0.89685648  1
  Zr  Zr66  1  0.40275124  0.40039767  0.79797054  1
  Zr  Zr67  1  0.49687715  0.69214759  0.70162619  1
  Zr  Zr68  1  0.50467644  0.88436311  0.10070476  1
  Zr  Zr69  1  0.89393811  0.50817919  0.51407622  1
  Zr  Zr70  1  0.79693154  0.00104738  0.19639169  1
  Zr  Zr71  1  0.69954620  0.10515745  0.30888688  1
  Zr  Zr72  1  0.79623143  0.39880591  0.20067383  1
  Zr  Zr73  1  0.59117699  0.00991421  0.18522056  1
  Zr  Zr74  1  0.90259961  0.69456861  0.10044790  1
  Zr  Zr75  1  0.31170747  0.30177486  0.30857021  1
  Zr  Zr76  1  0.79861576  0.00274111  -0.00621395  1
  Zr  Zr77  1  0.89435679  0.90334315  0.31038719  1
  Zr  Zr78  1  0.59109947  -0.00250454  0.58845544  1
  Zr  Zr79  1  0.29490463  0.69488328  0.49526652  1
  Zr  Zr80  1  0.60531638  0.39977496  0.59863444  1
  Zr  Zr81  1  0.90803337  0.09500260  0.69699894  1
  Zr  Zr82  1  0.50470734  0.50500143  0.69768080  1
  Zr  Zr83  1  -0.00640720  0.39960689  0.40374302  1
  Zr  Zr84  1  0.90140489  0.69825245  0.29778712  1
  Zr  Zr85  1  0.59983839  0.79948435  0.59730433  1
  Zr  Zr86  1  0.50619927  0.70256679  0.29398928  1
  Zr  Zr87  1  0.40591759  0.80584595  0.59890413  1
  Zr  Zr88  1  0.60526744  0.20974309  0.19106969  1
  Zr  Zr89  1  0.40575310  0.39848696  0.20214974  1
  Zr  Zr90  1  0.00885552  0.79159063  0.00718793  1
  Zr  Zr91  1  0.09779744  0.30497026  0.29661133  1
  Zr  Zr92  1  0.19773447  0.40623889  0.60461771  1
  Zr  Zr93  1  0.21549670  0.20683330  0.19029227  1
  Zr  Zr94  1  0.70020933  0.90477136  0.49367331  1
  Zr  Zr95  1  0.59647624  0.19445303  -0.01298477  1
  Zr  Zr96  1  0.68332809  0.89914798  0.29825573  1
  Zr  Zr97  1  0.08613825  0.90636768  0.70026193  1
  Zr  Zr98  1  0.30315113  0.28459914  0.69068220  1
  Zr  Zr99  1  0.28894977  0.90550402  0.70505266  1
  Ta  Ta100  1  0.30351450  0.50523915  0.30318261  1
  Ta  Ta101  1  0.39153095  0.80129253  -0.00310500  1
  Ta  Ta102  1  0.60493597  0.39534217  0.79808682  1
  Ta  Ta103  1  -0.00115495  0.39708833  0.60313163  1
  Ta  Ta104  1  0.89683440  0.90005980  0.69807457  1
  Ta  Ta105  1  0.30924348  0.69734041  0.10155732  1
  Ta  Ta106  1  -0.00278812  0.59569664  0.79860421  1
  Ta  Ta107  1  0.89922494  0.49964630  0.90030590  1
  Ta  Ta108  1  0.68568061  0.89493681  0.08955556  1
  Ta  Ta109  1  0.19733347  -0.00192263  0.40422046  1
  Ta  Ta110  1  0.89113118  0.29675693  0.30502847  1
  Ta  Ta111  1  0.79666370  0.20512248  0.19592067  1
  Ta  Ta112  1  0.80216423  0.59634895  0.80016026  1
  Ta  Ta113  1  0.40646304  0.19733562  0.18534214  1
  Ta  Ta114  1  0.49879836  0.29957600  0.50048992  1
  Ta  Ta115  1  0.90139609  0.69150949  0.50323768  1
  Ta  Ta116  1  0.30604769  0.69526489  0.29593692  1
  Ta  Ta117  1  0.19429846  0.19486773  0.79341401  1
  Ta  Ta118  1  0.90534015  0.10350705  0.88836753  1
  Ta  Ta119  1  0.79702240  0.59350881  0.20393474  1
  Ta  Ta120  1  0.49382701  0.89840693  0.29169451  1
  Ta  Ta121  1  0.09691096  0.50730520  0.89902551  1
  Ta  Ta122  1  0.08939776  0.29535095  0.70153354  1
  Ta  Ta123  1  0.70151950  0.29594771  0.30774490  1
  Ta  Ta124  1  0.70700599  0.69101916  0.69595996  1
  Ta  Ta125  1  0.29891371  0.50767650  0.89893188  1
  Ta  Ta126  1  -0.00250621  0.79219436  0.59973736  1
  Ta  Ta127  1  0.09789785  0.50118301  0.29693058  1
  Ta  Ta128  1  0.40004212  0.39810593  -0.01009158  1
  Ta  Ta129  1  0.19267358  0.59966638  0.00799323  1
  Ta  Ta130  1  0.69756184  0.31086668  0.90298450  1
  Ta  Ta131  1  0.79560204  0.59505844  -0.00339007  1
  Ta  Ta132  1  0.60126106  0.59515011  0.20530087  1
  Ta  Ta133  1  0.51221389  0.69210422  0.49292211  1
  Ta  Ta134  1  0.19818510  0.59964474  0.60864823  1
  Ta  Ta135  1  0.20719517  0.79337485  0.00184893  1
  Ta  Ta136  1  0.79304064  0.60355851  0.39698666  1
  Ta  Ta137  1  0.40492434  0.40414429  0.59597982  1
  Ta  Ta138  1  0.00357015  0.59199856  0.19061798  1
  Ta  Ta139  1  0.40913414  0.19565046  0.40872353  1
  Ta  Ta140  1  0.79712301  0.40376096  0.79773876  1
  Ta  Ta141  1  0.89691843  0.50361760  0.09546906  1
  Ta  Ta142  1  0.89810195  0.30550026  0.89398726  1
  Ta  Ta143  1  0.10141021  0.69182936  0.89772645  1
  Ta  Ta144  1  0.79926287  -0.00069612  0.79847986  1
  Ta  Ta145  1  0.60213231  0.59819185  -0.00412524  1
  Ta  Ta146  1  0.70766084  0.50386595  0.69443890  1
  Ta  Ta147  1  0.09311441  0.30533358  0.10299000  1
  Ta  Ta148  1  0.79245411  0.78710101  0.40310588  1
  Ta  Ta149  1  0.40869208  0.59362954  0.39560181  1
  Ti  Ti150  1  0.89758337  0.50410684  0.69877056  1
  Ti  Ti151  1  0.69867307  0.51671916  0.50778775  1
  Ti  Ti152  1  0.79727529  0.39612927  0.60678383  1
  Ti  Ti153  1  0.70493366  0.70235266  0.89743800  1
  Ti  Ti154  1  0.89640061  0.69353292  0.69656065  1
  Ti  Ti155  1  -0.00140379  0.78740906  0.78959879  1
  Ti  Ti156  1  0.09557802  0.90923728  0.51059828  1
  Ti  Ti157  1  -0.01251005  0.59008755  0.38861286  1
  Ti  Ti158  1  0.08949959  0.68769462  0.50151947  1
  Ti  Ti159  1  0.00873022  0.00352202  0.40596210  1
  Ti  Ti160  1  0.39824554  0.59894654  -0.00212068  1
  Ti  Ti161  1  0.19663936  0.59917206  0.79415174  1
  Ti  Ti162  1  0.69572790  0.50556592  0.30315588  1
  Ti  Ti163  1  0.50411039  0.29576100  0.30695108  1
  Ti  Ti164  1  0.40424574  0.59700684  0.20354458  1
  Ti  Ti165  1  0.30612993  0.51079633  0.70659312  1
  Ti  Ti166  1  0.79148032  0.00890619  0.40500240  1
  Ti  Ti167  1  0.89788609  0.30470857  0.10040167  1
  Ti  Ti168  1  0.60341832  0.79371472  0.39928757  1
  Ti  Ti169  1  -0.00734835  0.40760608  0.20144023  1
  Ti  Ti170  1  0.40392597  0.20569564  0.00204672  1
  Ti  Ti171  1  -0.00629881  0.40597555  0.79661772  1
  Ti  Ti172  1  0.50453488  0.90807490  0.71109557  1
  Ti  Ti173  1  0.49817539  0.69987749  0.09913575  1
  Ti  Ti174  1  0.89594532  0.29493836  0.50801833  1
  Ti  Ti175  1  0.50254544  0.30079233  0.69672189  1
  Ti  Ti176  1  0.89356532  0.10628839  0.30855640  1
  Ti  Ti177  1  0.09607076  0.69243078  0.70435469  1
  Ti  Ti178  1  0.69713199  0.09789024  0.09017239  1
  Ti  Ti179  1  0.80031185  0.39770597  -0.00164795  1
  Ti  Ti180  1  0.50760855  0.50805783  0.49870869  1
  Ti  Ti181  1  0.30119565  0.50087332  0.49659774  1
  Ti  Ti182  1  0.18657179  0.01625000  0.60795435  1
  Ti  Ti183  1  0.17942464  0.19351680  0.60511418  1
  Ti  Ti184  1  0.60172257  0.40068198  0.21020511  1
  Ti  Ti185  1  0.60243179  0.20296833  0.80191440  1
  Ti  Ti186  1  0.41027113  0.40831361  0.40225538  1
  Ti  Ti187  1  0.39478723  -0.00030632  0.80493589  1
  Ti  Ti188  1  0.59792510  0.19127689  0.41215563  1
  Ti  Ti189  1  0.70665214  0.90178134  0.70159987  1
  Ti  Ti190  1  0.40669858  -0.00115504  0.60335383  1
  Ti  Ti191  1  0.70419327  0.49556072  0.90074405  1
  Ti  Ti192  1  0.00591178  0.80049424  0.20361437  1
  Ti  Ti193  1  0.09088895  0.50306021  0.70063519  1
  Ti  Ti194  1  0.20267093  0.59735162  0.39763522  1
  Ti  Ti195  1  0.29979710  0.30220720  0.89782967  1
  Ti  Ti196  1  0.90156774  0.89828792  0.10028493  1
  Ti  Ti197  1  0.31087848  0.50287035  0.09532734  1
  Ti  Ti198  1  0.20715387  -0.00725859  0.21281469  1
  Ti  Ti199  1  0.49711713  0.50005263  0.90018507  1
  Mo  Mo200  1  0.19533308  0.78722981  0.79802231  1
  Mo  Mo201  1  0.00177372  0.59471625  -0.00251696  1
  Mo  Mo202  1  0.41522101  0.20186679  0.60170173  1
  Mo  Mo203  1  0.39871271  0.79127493  0.20120630  1
  Mo  Mo204  1  0.79872491  0.20226141  0.59890389  1
  Mo  Mo205  1  0.50205844  0.50198801  0.30006476  1
  Mo  Mo206  1  0.70016447  0.09960338  0.49895558  1
  Mo  Mo207  1  0.30023099  0.89883900  0.90375764  1
  Mo  Mo208  1  0.09186960  0.10559623  0.70007775  1
  Mo  Mo209  1  0.40100353  0.00378831  0.20401032  1
  Mo  Mo210  1  0.30073392  0.90243799  0.30454602  1
  Mo  Mo211  1  0.79802957  -0.00680269  0.60457292  1
  Mo  Mo212  1  0.50382639  0.89323612  0.48639751  1
  Mo  Mo213  1  0.50448982  0.09870960  0.89510559  1
  Mo  Mo214  1  0.10201368  0.90431534  0.30532523  1
  Mo  Mo215  1  0.60427668  0.59807507  0.39984235  1
  Mo  Mo216  1  -0.00135819  0.00451739  0.79787957  1
  Mo  Mo217  1  0.00041464  0.60481019  0.61502198  1
  Mo  Mo218  1  0.10531226  0.69874759  0.09934049  1
  Mo  Mo219  1  0.50665055  0.30653200  0.89697977  1
  Mo  Mo220  1  0.59774944  0.40753507  -0.01692632  1
  Mo  Mo221  1  0.60065033  0.01061446  -0.00638515  1
  Mo  Mo222  1  0.30622127  0.10264425  0.10202517  1
  Mo  Mo223  1  0.49945183  0.10307901  0.50362367  1
  Mo  Mo224  1  0.70069287  0.69437228  0.49706437  1
  Mo  Mo225  1  0.09129712  0.29960823  0.51618433  1
  Mo  Mo226  1  0.39378684  0.59675766  0.80616489  1
  Mo  Mo227  1  0.00098180  -0.00146977  0.59847049  1
  Mo  Mo228  1  0.31542841  0.30291428  0.08941498  1
  Mo  Mo229  1  0.70120183  0.30577779  0.70240647  1
  Mo  Mo230  1  0.00210968  0.20335530  0.59915928  1
  Mo  Mo231  1  0.69659142  0.09477043  0.88929234  1
  Mo  Mo232  1  0.30037560  0.09899944  0.69940523  1
  Mo  Mo233  1  0.69789340  0.69372729  0.30032750  1
  Mo  Mo234  1  0.60760864  0.60213128  0.59455005  1
  Mo  Mo235  1  0.70246533  0.30571824  0.09708530  1
  Mo  Mo236  1  0.60524675  0.00308661  0.79769047  1
  Mo  Mo237  1  0.59665228  0.79483163  0.19790524  1
  Mo  Mo238  1  0.80634813  0.20048405  0.39742357  1
  Mo  Mo239  1  0.09179283  0.49865360  0.09939556  1
  Mo  Mo240  1  0.09827335  0.10734557  0.89528985  1
  Mo  Mo241  1  0.59174095  -0.00182494  0.40011519  1
  Mo  Mo242  1  0.89893620  0.50127374  0.29203011  1
  Mo  Mo243  1  0.28897299  0.69370392  0.70588952  1
  Mo  Mo244  1  0.80236825  0.60200017  0.60376225  1
  Mo  Mo245  1  0.50007286  0.10931015  0.09619674  1
  Mo  Mo246  1  0.00118429  0.20058043  0.80205875  1
  Mo  Mo247  1  0.79927815  0.79596391  0.78784689  1
  Mo  Mo248  1  0.09428153  0.09136042  0.50595995  1
  Mo  Mo249  1  0.59555768  0.78503789  -0.00354162  1
