# generated using pymatgen
data_HfZrTaTiMo
_symmetry_space_group_name_H-M   'P 1'
_cell_length_a   16.89828963
_cell_length_b   16.89524773
_cell_length_c   16.89617660
_cell_angle_alpha   89.96041384
_cell_angle_beta   90.05705553
_cell_angle_gamma   89.98132661
_symmetry_Int_Tables_number   1
_chemical_formula_structural   HfZrTaTiMo
_chemical_formula_sum   'Hf50 Zr50 Ta50 Ti50 Mo50'
_cell_volume   4823.86795871
_cell_formula_units_Z   50
loop_
 _symmetry_equiv_pos_site_id
 _symmetry_equiv_pos_as_xyz
  1  'x, y, z'
loop_
 _atom_site_type_symbol
 _atom_site_label
 _atom_site_symmetry_multiplicity
 _atom_site_fract_x
 _atom_site_fract_y
 _atom_site_fract_z
 _atom_site_occupancy
  Hf  Hf0  1  0.29422274  0.70368757  0.10975537  1
  Hf  Hf1  1  0.09891754  0.89603770  0.88459458  1
  Hf  Hf2  1  0.60075095  0.38490349  0.79829819  1
  Hf  Hf3  1  0.40040612  0.80066911  0.20502947  1
  Hf  Hf4  1  0.39941638  0.59916615  0.00104263  1
  Hf  Hf5  1  0.50443769  0.09518213  0.70657250  1
  Hf  Hf6  1  0.50046362  0.50186669  0.31091523  1
  Hf  Hf7  1  0.79449868  0.39582169  0.80101808  1
  Hf  Hf8  1  0.41140700  0.60353373  0.20366703  1
  Hf  Hf9  1  0.78929803  0.39552672  0.59892249  1
  Hf  Hf10  1  0.50710711  0.89792617  0.30639233  1
  Hf  Hf11  1  0.09812099  0.10664283  0.10117654  1
  Hf  Hf12  1  0.79876176  0.20388879  0.79347918  1
  Hf  Hf13  1  0.61466412  0.80303507  0.81736780  1
  Hf  Hf14  1  0.69341534  0.49198365  0.91366498  1
  Hf  Hf15  1  0.78989664  0.60303922  0.01267474  1
  Hf  Hf16  1  0.28863254  0.69444295  0.30993895  1
  Hf  Hf17  1  0.90205768  0.50558170  0.90121547  1
  Hf  Hf18  1  0.89238056  0.69540152  0.88686686  1
  Hf  Hf19  1  0.49102996  0.48259452  0.90751952  1
  Hf  Hf20  1  0.10437180  0.09900715  0.30053673  1
  Hf  Hf21  1  0.71012927  0.90231348  0.70491042  1
  Hf  Hf22  1  0.30809757  0.10202174  0.89980585  1
  Hf  Hf23  1  0.68889811  0.50993879  0.69751675  1
  Hf  Hf24  1  0.29943390  0.89551280  0.89125363  1
  Hf  Hf25  1  0.69822051  0.30671049  0.09448696  1
  Hf  Hf26  1  -0.00908754  0.40121206  0.38937335  1
  Hf  Hf27  1  0.80571270  0.80694510  0.59207736  1
  Hf  Hf28  1  0.79568603  -0.00112409  0.20634562  1
  Hf  Hf29  1  0.49647826  0.69166511  0.69420658  1
  Hf  Hf30  1  0.89804998  0.69925874  0.69949120  1
  Hf  Hf31  1  0.20416851  -0.00598848  0.40813748  1
  Hf  Hf32  1  0.00137887  0.40980574  0.79227952  1
  Hf  Hf33  1  0.89804119  0.10025170  0.90923500  1
  Hf  Hf34  1  -0.00386824  0.20022823  0.40320268  1
  Hf  Hf35  1  0.28965235  0.69918860  0.88927887  1
  Hf  Hf36  1  0.50705772  0.89414454  0.49851572  1
  Hf  Hf37  1  0.39758457  0.79369333  0.40379298  1
  Hf  Hf38  1  0.48943187  0.49903293  0.69836242  1
  Hf  Hf39  1  0.70182624  0.10891621  0.31536560  1
  Hf  Hf40  1  0.10410004  0.49764449  0.50892152  1
  Hf  Hf41  1  0.20331602  0.40328590  0.40484191  1
  Hf  Hf42  1  0.20814845  0.41316423  0.80490576  1
  Hf  Hf43  1  0.20266108  -0.00730266  0.00524075  1
  Hf  Hf44  1  0.09871864  0.30178360  0.89897639  1
  Hf  Hf45  1  0.60228070  0.00346004  0.20165718  1
  Hf  Hf46  1  0.10294036  0.30707240  0.68846574  1
  Hf  Hf47  1  0.10366320  0.10597243  0.90372907  1
  Hf  Hf48  1  0.59896863  0.39150040  0.59899658  1
  Hf  Hf49  1  0.70053851  0.29863521  0.30460826  1
  Zr  Zr50  1  0.19576896  0.80182600  0.00392052  1
  Zr  Zr51  1  0.09668521  0.70022655  0.11516338  1
  Zr  Zr52  1  0.61439606  0.78946767  0.59389217  1
  Zr  Zr53  1  0.00038365  0.60071210  0.59911022  1
  Zr  Zr54  1  0.30595641  0.49459838  0.10727378  1
  Zr  Zr55  1  0.80199043  0.20733548  0.19995741  1
  Zr  Zr56  1  0.00631946  -0.01114343  0.00414437  1
  Zr  Zr57  1  0.60931438  0.60499300  0.19741587  1
  Zr  Zr58  1  -0.00561187  0.58971333  0.20617120  1
  Zr  Zr59  1  0.59356797  0.60351078  0.81863679  1
  Zr  Zr60  1  0.60139035  0.40424260  0.19771847  1
  Zr  Zr61  1  0.29952647  0.10438053  0.09644256  1
  Zr  Zr62  1  0.89169939  0.70321266  0.30111811  1
  Zr  Zr63  1  0.89690073  0.70404695  0.49220951  1
  Zr  Zr64  1  0.61782730  0.60186770  0.42061680  1
  Zr  Zr65  1  0.89479171  0.70507845  0.10625664  1
  Zr  Zr66  1  0.49880851  0.10092464  0.08481205  1
  Zr  Zr67  1  0.39956773  -0.00293570  0.20114470  1
  Zr  Zr68  1  0.71636260  0.69331333  0.71641056  1
  Zr  Zr69  1  0.50280656  0.89406838  0.69798759  1
  Zr  Zr70  1  0.39754116  -0.00211379  0.59957849  1
  Zr  Zr71  1  0.40760753  0.21474001  0.18586828  1
  Zr  Zr72  1  0.60107175  0.20242843  0.60486583  1
  Zr  Zr73  1  -0.00524594  0.00319366  0.78886248  1
  Zr  Zr74  1  0.10162930  0.09132529  0.50383494  1
  Zr  Zr75  1  0.30339855  0.50358761  0.30656622  1
  Zr  Zr76  1  -0.00016270  0.59389582  0.39533892  1
  Zr  Zr77  1  0.10468629  0.09840806  0.69032058  1
  Zr  Zr78  1  0.29736693  0.68998731  0.68754537  1
  Zr  Zr79  1  0.48441199  0.71024261  0.90145382  1
  Zr  Zr80  1  -0.01147607  0.21378558  0.20353042  1
  Zr  Zr81  1  0.19871584  0.59542785  -0.00325071  1
  Zr  Zr82  1  0.49296488  0.50505221  0.50854110  1
  Zr  Zr83  1  -0.00450206  0.19809140  0.79372175  1
  Zr  Zr84  1  0.89364637  0.89784151  0.10063253  1
  Zr  Zr85  1  0.90106113  0.10145808  0.09523180  1
  Zr  Zr86  1  0.10477268  0.30366990  0.29595134  1
  Zr  Zr87  1  0.70633105  0.09707491  0.69607398  1
  Zr  Zr88  1  0.60170184  -0.00627540  -0.00971424  1
  Zr  Zr89  1  0.40253756  0.19556240  0.59909206  1
  Zr  Zr90  1  0.30355514  0.10273467  0.30373049  1
  Zr  Zr91  1  0.09723280  0.30248110  0.51125750  1
  Zr  Zr92  1  0.00020292  0.79506684  -0.00386086  1
  Zr  Zr93  1  0.48939375  0.90327585  0.89454587  1
  Zr  Zr94  1  0.90244652  0.30446438  0.68742247  1
  Zr  Zr95  1  0.70698236  0.28086932  0.49055930  1
  Zr  Zr96  1  0.09454961  0.30319499  0.09704553  1
  Zr  Zr97  1  0.30081184  0.30434987  0.69827435  1
  Zr  Zr98  1  0.88406002  0.51654508  0.69941009  1
  Zr  Zr99  1  0.30857507  0.30710872  0.29779649  1
  Ta  Ta100  1  0.10143384  0.70056802  0.69457443  1
  Ta  Ta101  1  0.89217301  0.89764552  0.89456777  1
  Ta  Ta102  1  0.20627927  -0.00020343  0.78810420  1
  Ta  Ta103  1  0.49552536  0.29473606  0.90361904  1
  Ta  Ta104  1  0.20972008  0.21233544  -0.00095915  1
  Ta  Ta105  1  0.90373973  0.30191690  0.91030752  1
  Ta  Ta106  1  0.50277765  0.70682898  0.09996324  1
  Ta  Ta107  1  0.09596883  0.69246794  0.87977813  1
  Ta  Ta108  1  0.60140957  0.60347181  0.01059064  1
  Ta  Ta109  1  0.70535404  0.09715337  0.49493205  1
  Ta  Ta110  1  0.20205832  0.80060825  0.59400879  1
  Ta  Ta111  1  0.89916234  0.09609937  0.30712314  1
  Ta  Ta112  1  0.70849331  0.90455473  0.48328563  1
  Ta  Ta113  1  0.60732056  0.79481355  0.00281110  1
  Ta  Ta114  1  0.38535922  0.58521921  0.80390901  1
  Ta  Ta115  1  0.10632934  0.70008590  0.49926888  1
  Ta  Ta116  1  0.29930521  0.49737883  0.68696188  1
  Ta  Ta117  1  0.59970274  0.20188245  -0.00312849  1
  Ta  Ta118  1  0.70872483  0.49980576  0.30606537  1
  Ta  Ta119  1  0.31155826  0.30440855  0.89940693  1
  Ta  Ta120  1  0.29271337  0.89479816  0.30274848  1
  Ta  Ta121  1  0.09639303  0.49294443  0.10068576  1
  Ta  Ta122  1  0.50342333  0.89205010  0.09821212  1
  Ta  Ta123  1  0.20747314  0.20348350  0.40870636  1
  Ta  Ta124  1  0.70304978  0.10112334  0.09069644  1
  Ta  Ta125  1  0.70618858  0.70635510  0.30821220  1
  Ta  Ta126  1  -0.01446969  0.18667218  0.59683957  1
  Ta  Ta127  1  0.00089802  -0.00582022  0.21007172  1
  Ta  Ta128  1  0.09689838  0.89814236  0.68618036  1
  Ta  Ta129  1  0.89163213  0.49696586  0.49985930  1
  Ta  Ta130  1  0.70531768  0.10186970  0.90439631  1
  Ta  Ta131  1  0.10385247  0.70512464  0.30787118  1
  Ta  Ta132  1  0.69861774  0.90083145  0.09787459  1
  Ta  Ta133  1  0.09727534  0.50701256  0.89904852  1
  Ta  Ta134  1  0.00054711  0.80739151  0.40429011  1
  Ta  Ta135  1  -0.00437443  -0.00722245  0.40160688  1
  Ta  Ta136  1  0.60536884  0.80008140  0.20213470  1
  Ta  Ta137  1  0.59746651  0.20048388  0.19626898  1
  Ta  Ta138  1  0.60137688  0.39808197  0.40469819  1
  Ta  Ta139  1  0.50903008  0.09762069  0.48929828  1
  Ta  Ta140  1  -0.00163024  0.80080265  0.78850043  1
  Ta  Ta141  1  0.10259230  0.89742175  0.30602254  1
  Ta  Ta142  1  0.60823389  -0.00163930  0.59160568  1
  Ta  Ta143  1  0.78576984  0.80019256  -0.00904899  1
  Ta  Ta144  1  0.20547517  0.40178569  -0.00271088  1
  Ta  Ta145  1  0.30346179  0.30887316  0.50656699  1
  Ta  Ta146  1  0.19958967  -0.00797631  0.19969729  1
  Ta  Ta147  1  0.50118657  0.30419018  0.30276595  1
  Ta  Ta148  1  0.49115774  0.69540387  0.50660561  1
  Ta  Ta149  1  0.77054089  0.60305592  0.56843706  1
  Ti  Ti150  1  0.49810142  0.10288705  0.89560225  1
  Ti  Ti151  1  0.00205548  0.60137052  0.00336370  1
  Ti  Ti152  1  0.90319276  0.49444149  0.10421067  1
  Ti  Ti153  1  0.49482899  0.29781337  0.49496172  1
  Ti  Ti154  1  0.60428500  0.20162276  0.80374168  1
  Ti  Ti155  1  0.78673620  0.80590584  0.20224981  1
  Ti  Ti156  1  0.40089520  0.40222910  0.40760377  1
  Ti  Ti157  1  0.19473822  0.59467537  0.20378784  1
  Ti  Ti158  1  0.30599410  0.88974394  0.50505692  1
  Ti  Ti159  1  0.39415814  -0.01049148  0.00556382  1
  Ti  Ti160  1  0.89883047  0.30160177  0.50194951  1
  Ti  Ti161  1  0.79326812  0.59301498  0.19939317  1
  Ti  Ti162  1  0.10581303  0.49766291  0.29570272  1
  Ti  Ti163  1  0.89144728  0.09317723  0.49534992  1
  Ti  Ti164  1  0.39927703  0.38377081  0.01657722  1
  Ti  Ti165  1  0.80688378  -0.00052558  0.59298082  1
  Ti  Ti166  1  0.60752348  0.00020103  0.80435927  1
  Ti  Ti167  1  0.80319142  0.20783836  0.00191503  1
  Ti  Ti168  1  0.69945343  0.29807086  0.90756894  1
  Ti  Ti169  1  0.80271556  0.39988644  0.39870327  1
  Ti  Ti170  1  0.39292833  0.80591897  0.01003193  1
  Ti  Ti171  1  0.09150129  0.89796136  0.50882098  1
  Ti  Ti172  1  0.40019175  0.20288996  0.40263305  1
  Ti  Ti173  1  0.89253188  0.90085681  0.30998234  1
  Ti  Ti174  1  0.50925776  0.69936951  0.31387275  1
  Ti  Ti175  1  0.39886989  0.19892270  0.79836401  1
  Ti  Ti176  1  0.48801747  0.30342246  0.70577121  1
  Ti  Ti177  1  0.30520872  0.10245759  0.49879163  1
  Ti  Ti178  1  0.19736452  0.80158481  0.40969887  1
  Ti  Ti179  1  0.20756723  0.19792409  0.79802568  1
  Ti  Ti180  1  0.21415487  -0.00656998  0.60471696  1
  Ti  Ti181  1  -0.00028256  0.80738094  0.21375570  1
  Ti  Ti182  1  0.20432609  0.39763760  0.19353135  1
  Ti  Ti183  1  0.80466074  0.00192096  0.80161808  1
  Ti  Ti184  1  0.81158205  0.40132389  0.20173189  1
  Ti  Ti185  1  0.90582125  0.90109590  0.69157299  1
  Ti  Ti186  1  0.30082249  0.51295091  0.50720846  1
  Ti  Ti187  1  0.80420408  0.40194610  0.00828786  1
  Ti  Ti188  1  0.10923008  0.50919201  0.69653330  1
  Ti  Ti189  1  0.20650818  0.20444486  0.19736502  1
  Ti  Ti190  1  0.50424426  0.49297819  0.09604402  1
  Ti  Ti191  1  -0.00107331  0.40300694  0.00231355  1
  Ti  Ti192  1  0.39921369  -0.00185270  0.40140625  1
  Ti  Ti193  1  0.10350087  0.89284308  0.11602296  1
  Ti  Ti194  1  0.20913015  0.19542448  0.59786865  1
  Ti  Ti195  1  0.60504478  0.00000884  0.39805079  1
  Ti  Ti196  1  0.38735655  0.00059616  0.78522234  1
  Ti  Ti197  1  0.38964187  0.80149311  0.78099165  1
  Ti  Ti198  1  0.50185293  0.10758390  0.30829636  1
  Ti  Ti199  1  0.19682287  0.80300156  0.78287020  1
  Mo  Mo200  1  0.80746134  0.19209083  0.59309912  1
  Mo  Mo201  1  0.89434692  0.30323037  0.30605479  1
  Mo  Mo202  1  0.00066819  0.21013901  -0.00235749  1
  Mo  Mo203  1  0.80267393  0.00174687  0.39992489  1
  Mo  Mo204  1  0.00577663  0.60113826  0.79402621  1
  Mo  Mo205  1  0.81764286  0.19974858  0.40198893  1
  Mo  Mo206  1  0.69813069  0.70694312  0.10840370  1
  Mo  Mo207  1  0.79940315  0.59144635  0.39644741  1
  Mo  Mo208  1  0.29638003  0.30318674  0.09596037  1
  Mo  Mo209  1  -0.00719801  0.40776910  0.19852994  1
  Mo  Mo210  1  0.29263909  0.89526674  0.69431115  1
  Mo  Mo211  1  0.39490468  0.59798775  0.59851727  1
  Mo  Mo212  1  0.70645280  0.49715735  0.10600714  1
  Mo  Mo213  1  0.19727137  0.59483912  0.79391943  1
  Mo  Mo214  1  0.30177318  0.49360613  0.90235418  1
  Mo  Mo215  1  0.70072177  0.47859202  0.49668823  1
  Mo  Mo216  1  0.19642846  0.80364396  0.21142335  1
  Mo  Mo217  1  0.39505473  0.79582230  0.59348494  1
  Mo  Mo218  1  0.88511470  0.49661819  0.30082163  1
  Mo  Mo219  1  0.69921195  0.90031645  0.29766534  1
  Mo  Mo220  1  0.80813358  0.81091761  0.79848857  1
  Mo  Mo221  1  0.58387986  0.20227058  0.39667619  1
  Mo  Mo222  1  0.60070819  0.60327880  0.59694589  1
  Mo  Mo223  1  0.89806871  0.31351635  0.09289597  1
  Mo  Mo224  1  0.70187566  0.69774116  0.90898872  1
  Mo  Mo225  1  0.40314568  0.20355459  -0.00978935  1
  Mo  Mo226  1  0.39752719  0.60536745  0.40557219  1
  Mo  Mo227  1  0.69942731  0.29285530  0.70420758  1
  Mo  Mo228  1  0.70535000  0.72038692  0.48476394  1
  Mo  Mo229  1  0.50671332  0.30199389  0.09587641  1
  Mo  Mo230  1  0.80064604  0.81199374  0.39341148  1
  Mo  Mo231  1  0.39922525  0.39784045  0.59541872  1
  Mo  Mo232  1  0.40047105  0.39611836  0.79778792  1
  Mo  Mo233  1  0.59628166  0.39355728  0.00114788  1
  Mo  Mo234  1  0.79574395  -0.00323123  -0.00197088  1
  Mo  Mo235  1  0.90272405  0.90580432  0.49755839  1
  Mo  Mo236  1  -0.00743025  0.40659290  0.59596880  1
  Mo  Mo237  1  0.89307447  0.09338398  0.68679591  1
  Mo  Mo238  1  0.71078257  0.90862792  0.90096368  1
  Mo  Mo239  1  0.20472837  0.40747650  0.59943890  1
  Mo  Mo240  1  0.41046032  0.40408414  0.19830286  1
  Mo  Mo241  1  0.29521012  0.69454095  0.49764523  1
  Mo  Mo242  1  0.19550304  0.59951187  0.40280038  1
  Mo  Mo243  1  -0.01141180  -0.00487506  0.59273646  1
  Mo  Mo244  1  0.19973546  0.60345956  0.59539188  1
  Mo  Mo245  1  0.60214428  0.79832345  0.39553702  1
  Mo  Mo246  1  0.00549946  0.80267292  0.59682235  1
  Mo  Mo247  1  0.29922056  0.10076549  0.70270415  1
  Mo  Mo248  1  0.30248255  0.89769734  0.10706257  1
  Mo  Mo249  1  0.79337470  0.59219867  0.81794621  1
