# generated using pymatgen
data_HfZrTaTiMo
_symmetry_space_group_name_H-M   'P 1'
_cell_length_a   16.88224206
_cell_length_b   16.89192854
_cell_length_c   16.88102858
_cell_angle_alpha   89.95955436
_cell_angle_beta   89.99647986
_cell_angle_gamma   90.04056886
_symmetry_Int_Tables_number   1
_chemical_formula_structural   HfZrTaTiMo
_chemical_formula_sum   'Hf50 Zr50 Ta50 Ti50 Mo50'
_cell_volume   4814.02172302
_cell_formula_units_Z   50
loop_
 _symmetry_equiv_pos_site_id
 _symmetry_equiv_pos_as_xyz
  1  'x, y, z'
loop_
 _atom_site_type_symbol
 _atom_site_label
 _atom_site_symmetry_multiplicity
 _atom_site_fract_x
 _atom_site_fract_y
 _atom_site_fract_z
 _atom_site_occupancy
  Hf  Hf0  1  0.69804145  0.10134029  0.70391784  1
  Hf  Hf1  1  0.40419641  -0.00178368  0.40228538  1
  Hf  Hf2  1  0.89315635  0.29151024  0.50368519  1
  Hf  Hf3  1  0.68513076  0.88939062  0.70368892  1
  Hf  Hf4  1  0.39732014  -0.01034660  0.80451879  1
  Hf  Hf5  1  0.89876432  0.09446940  0.50601032  1
  Hf  Hf6  1  0.89481800  0.90670314  0.10616020  1
  Hf  Hf7  1  0.19316404  0.79970077  0.20299158  1
  Hf  Hf8  1  0.71377297  0.50945977  0.09646011  1
  Hf  Hf9  1  0.90319886  0.89807629  0.50162533  1
  Hf  Hf10  1  0.08968887  0.29181675  0.70982537  1
  Hf  Hf11  1  0.70507841  0.30031090  0.09609834  1
  Hf  Hf12  1  0.51165670  0.70416379  0.30344341  1
  Hf  Hf13  1  0.60440072  0.20470174  0.39782249  1
  Hf  Hf14  1  0.59749917  0.00217622  0.20065898  1
  Hf  Hf15  1  0.30519228  0.70922064  0.70101319  1
  Hf  Hf16  1  0.89483435  0.90063194  0.28973022  1
  Hf  Hf17  1  0.60671776  0.61126419  0.60292155  1
  Hf  Hf18  1  0.19981031  0.00106324  0.40312127  1
  Hf  Hf19  1  0.10563223  0.29820125  0.29867354  1
  Hf  Hf20  1  0.89156634  0.50996698  0.90374032  1
  Hf  Hf21  1  0.49971333  0.30165939  0.90238562  1
  Hf  Hf22  1  0.29781737  0.50334077  0.50187623  1
  Hf  Hf23  1  0.51210233  0.50496981  0.49716485  1
  Hf  Hf24  1  0.50527296  0.10767020  0.89258925  1
  Hf  Hf25  1  0.09627554  0.90010814  0.90718455  1
  Hf  Hf26  1  0.00936509  -0.00743443  0.39704542  1
  Hf  Hf27  1  0.90269215  0.69297171  0.69485507  1
  Hf  Hf28  1  0.60713330  0.40282628  0.80559876  1
  Hf  Hf29  1  0.70104808  0.10789870  0.89278874  1
  Hf  Hf30  1  0.59361521  0.60262860  -0.00439580  1
  Hf  Hf31  1  0.90120701  0.51272222  0.69661013  1
  Hf  Hf32  1  0.19945630  -0.00836177  0.20350595  1
  Hf  Hf33  1  0.29394274  0.30690289  0.90620462  1
  Hf  Hf34  1  0.79369756  -0.00625623  0.60250515  1
  Hf  Hf35  1  0.28895781  0.09693297  0.90411460  1
  Hf  Hf36  1  -0.00531928  0.79263292  0.00538085  1
  Hf  Hf37  1  0.49299021  0.88597614  0.69762783  1
  Hf  Hf38  1  0.79826409  0.40089435  0.20448489  1
  Hf  Hf39  1  0.40354253  0.39502626  0.60495862  1
  Hf  Hf40  1  0.21231714  0.20327687  0.19623724  1
  Hf  Hf41  1  0.50421833  0.28755954  0.70096641  1
  Hf  Hf42  1  0.60062134  0.40829532  0.00153836  1
  Hf  Hf43  1  0.89668161  0.51272428  0.50531217  1
  Hf  Hf44  1  0.59270576  0.80608185  -0.01449835  1
  Hf  Hf45  1  0.50993056  0.49819993  0.30636508  1
  Hf  Hf46  1  0.39131648  0.40440953  0.79773434  1
  Hf  Hf47  1  0.00456430  0.61555678  0.39049726  1
  Hf  Hf48  1  0.89774830  0.10346009  0.70743979  1
  Hf  Hf49  1  0.00760961  0.80602236  0.60661425  1
  Zr  Zr50  1  0.69505493  0.89034294  0.29416112  1
  Zr  Zr51  1  0.30451013  0.28453241  0.50756250  1
  Zr  Zr52  1  0.79688647  0.39898996  0.59891170  1
  Zr  Zr53  1  0.80400574  0.80637979  0.80354789  1
  Zr  Zr54  1  0.00255622  0.40823110  0.80408306  1
  Zr  Zr55  1  0.70795758  0.50817147  0.70169257  1
  Zr  Zr56  1  0.10590370  0.50871002  0.50297885  1
  Zr  Zr57  1  0.39777371  0.60774527  0.40601009  1
  Zr  Zr58  1  0.50430710  0.10769286  0.09998105  1
  Zr  Zr59  1  0.29448608  0.49512252  0.09483714  1
  Zr  Zr60  1  0.40236482  0.59410893  0.19903978  1
  Zr  Zr61  1  0.09514808  0.09190945  0.09413392  1
  Zr  Zr62  1  0.78887817  0.78737349  0.60274156  1
  Zr  Zr63  1  0.71040296  0.28662105  0.71368265  1
  Zr  Zr64  1  0.70278153  0.70474433  0.10139781  1
  Zr  Zr65  1  0.29946250  0.09772285  0.69534236  1
  Zr  Zr66  1  0.89891702  0.09121442  0.28854493  1
  Zr  Zr67  1  0.70406971  0.89547535  0.10387468  1
  Zr  Zr68  1  0.89052568  0.30031225  0.30875343  1
  Zr  Zr69  1  0.39055965  0.20024130  0.79203096  1
  Zr  Zr70  1  0.29867450  0.70530884  0.09573636  1
  Zr  Zr71  1  0.39253499  0.20190723  0.00974524  1
  Zr  Zr72  1  0.40465224  -0.00731358  -0.00316876  1
  Zr  Zr73  1  0.39722377  0.00521640  0.20181361  1
  Zr  Zr74  1  0.70478160  0.09911754  0.09602016  1
  Zr  Zr75  1  0.60548785  0.20258205  0.58861173  1
  Zr  Zr76  1  0.40364160  -0.00018243  0.59993871  1
  Zr  Zr77  1  0.11013211  0.50215192  0.29654045  1
  Zr  Zr78  1  0.00089134  0.20361454  0.19327860  1
  Zr  Zr79  1  0.20380714  0.39394058  0.61074470  1
  Zr  Zr80  1  0.40343631  0.39097255  0.40279522  1
  Zr  Zr81  1  0.39986998  0.59746897  -0.00719010  1
  Zr  Zr82  1  0.08499675  0.10111869  0.90511053  1
  Zr  Zr83  1  -0.00582344  0.40667729  0.19453018  1
  Zr  Zr84  1  0.60319505  0.39658115  0.59494756  1
  Zr  Zr85  1  0.19301336  0.79383386  0.39798424  1
  Zr  Zr86  1  0.00764239  0.19044360  0.40312009  1
  Zr  Zr87  1  0.40000369  0.39540407  0.19986529  1
  Zr  Zr88  1  0.11078317  0.70819635  0.70546119  1
  Zr  Zr89  1  0.01086528  0.60744260  0.81533075  1
  Zr  Zr90  1  0.90438715  0.28638320  0.89415136  1
  Zr  Zr91  1  0.00209670  0.39940234  0.60171691  1
  Zr  Zr92  1  0.49794312  0.71033477  0.10733713  1
  Zr  Zr93  1  0.68629327  0.89462624  0.49632860  1
  Zr  Zr94  1  0.19197062  0.18970725  0.60292495  1
  Zr  Zr95  1  0.29820566  0.88848767  0.51058443  1
  Zr  Zr96  1  0.00323103  0.79138326  0.20626963  1
  Zr  Zr97  1  -0.00100122  0.40572668  0.40006438  1
  Zr  Zr98  1  0.80420311  0.79314171  0.39791616  1
  Zr  Zr99  1  -0.00435786  0.60353485  0.19647868  1
  Ta  Ta100  1  0.19626589  0.59977848  -0.00990403  1
  Ta  Ta101  1  0.50241440  0.10420587  0.30232731  1
  Ta  Ta102  1  0.20768280  0.38957558  0.39905520  1
  Ta  Ta103  1  0.10357204  0.09654553  0.29375209  1
  Ta  Ta104  1  0.29490358  0.49859405  0.30279319  1
  Ta  Ta105  1  0.30723331  0.89171781  0.30000713  1
  Ta  Ta106  1  0.89939851  0.29742434  0.08947582  1
  Ta  Ta107  1  0.50043294  0.70604469  0.70216434  1
  Ta  Ta108  1  0.18462406  -0.00555858  0.60580017  1
  Ta  Ta109  1  0.49437115  0.50049658  0.89606273  1
  Ta  Ta110  1  0.29743977  0.70696236  0.89687235  1
  Ta  Ta111  1  0.30464511  0.88947030  0.09913269  1
  Ta  Ta112  1  0.90582790  0.69573924  0.50537446  1
  Ta  Ta113  1  0.69780515  0.70507175  0.89626600  1
  Ta  Ta114  1  0.10230187  0.29473220  0.49772532  1
  Ta  Ta115  1  0.50031527  0.89286081  0.30177202  1
  Ta  Ta116  1  0.19473542  -0.00390758  0.79808607  1
  Ta  Ta117  1  0.60267194  0.59037920  0.19781833  1
  Ta  Ta118  1  0.60577274  0.20768816  0.20533725  1
  Ta  Ta119  1  0.40488303  0.60740492  0.60049645  1
  Ta  Ta120  1  0.49872878  0.50889942  0.70343240  1
  Ta  Ta121  1  0.79880075  0.60581850  0.39948153  1
  Ta  Ta122  1  0.49797182  0.10675579  0.50036108  1
  Ta  Ta123  1  0.30100103  0.51053289  0.70043710  1
  Ta  Ta124  1  0.40239618  0.19961602  0.39658728  1
  Ta  Ta125  1  0.49789240  0.89231326  0.10741065  1
  Ta  Ta126  1  0.90256193  0.09702597  0.09059790  1
  Ta  Ta127  1  0.19861770  0.40631937  0.80195708  1
  Ta  Ta128  1  0.50618978  0.29951304  0.29994727  1
  Ta  Ta129  1  0.40112566  0.79389145  0.40626609  1
  Ta  Ta130  1  0.89833215  0.28528985  0.70071179  1
  Ta  Ta131  1  0.59383302  -0.00554442  0.80065621  1
  Ta  Ta132  1  0.40015966  0.80596104  -0.01682029  1
  Ta  Ta133  1  0.09729152  0.29702652  0.90474141  1
  Ta  Ta134  1  0.59617117  0.60652625  0.80343247  1
  Ta  Ta135  1  0.79267800  0.00156029  0.39704088  1
  Ta  Ta136  1  0.79739854  0.20114744  0.19900958  1
  Ta  Ta137  1  0.10598285  0.51384251  0.69916526  1
  Ta  Ta138  1  0.20631621  0.59544423  0.80974686  1
  Ta  Ta139  1  0.60020434  -0.00829828  -0.00941619  1
  Ta  Ta140  1  0.10362115  0.50114864  0.09452326  1
  Ta  Ta141  1  0.29278612  0.89201551  0.70027673  1
  Ta  Ta142  1  0.69948125  0.69383075  0.29283061  1
  Ta  Ta143  1  0.50212814  0.30405736  0.10243927  1
  Ta  Ta144  1  0.00012627  0.40595282  -0.00098010  1
  Ta  Ta145  1  0.19572221  0.20158742  0.80063661  1
  Ta  Ta146  1  0.59153370  0.00272958  0.60037992  1
  Ta  Ta147  1  0.79947235  -0.00143650  -0.01064850  1
  Ta  Ta148  1  0.60478895  0.40053855  0.20070151  1
  Ta  Ta149  1  0.10234972  0.30782962  0.08985512  1
  Ti  Ti150  1  0.29641452  0.09273978  0.09737941  1
  Ti  Ti151  1  0.70023068  0.49962195  0.31014544  1
  Ti  Ti152  1  0.80010556  0.39696940  -0.00953266  1
  Ti  Ti153  1  0.00695421  0.79733275  0.39374916  1
  Ti  Ti154  1  0.90699581  0.90709506  0.69957020  1
  Ti  Ti155  1  0.70590983  0.51030151  0.90012509  1
  Ti  Ti156  1  0.79751838  -0.00568492  0.80662959  1
  Ti  Ti157  1  0.50443962  0.88561861  0.50043848  1
  Ti  Ti158  1  0.20709964  -0.01647519  0.00076978  1
  Ti  Ti159  1  0.10756718  0.69616186  0.09381820  1
  Ti  Ti160  1  0.20781418  0.61171501  0.60020078  1
  Ti  Ti161  1  0.89337909  0.50776590  0.09146900  1
  Ti  Ti162  1  -0.00367966  -0.00323041  0.80303469  1
  Ti  Ti163  1  -0.00250813  0.80359319  0.80344118  1
  Ti  Ti164  1  0.08841685  0.09228699  0.70443423  1
  Ti  Ti165  1  0.00486093  0.19067353  0.59734325  1
  Ti  Ti166  1  0.68555828  0.70067681  0.48593430  1
  Ti  Ti167  1  0.70220499  0.50502126  0.48993146  1
  Ti  Ti168  1  0.30300625  0.10275190  0.30349088  1
  Ti  Ti169  1  0.30449403  0.70246463  0.29563929  1
  Ti  Ti170  1  0.60538882  0.20756958  -0.00287617  1
  Ti  Ti171  1  0.09426508  0.90185627  0.09807074  1
  Ti  Ti172  1  0.70224452  0.09705074  0.49969801  1
  Ti  Ti173  1  0.70906426  0.31288944  0.47853978  1
  Ti  Ti174  1  0.20340361  0.61099104  0.39776105  1
  Ti  Ti175  1  0.40105747  0.60489703  0.80242602  1
  Ti  Ti176  1  0.79858548  0.80493539  -0.00789644  1
  Ti  Ti177  1  0.19406498  0.41161002  -0.01164662  1
  Ti  Ti178  1  0.20297643  0.81057813  0.80825846  1
  Ti  Ti179  1  0.79191082  0.61287378  0.79858249  1
  Ti  Ti180  1  0.90479418  0.90485260  0.90454152  1
  Ti  Ti181  1  0.88120184  0.69316198  0.10204701  1
  Ti  Ti182  1  0.30208874  0.09941064  0.50296100  1
  Ti  Ti183  1  0.09977346  0.89912007  0.50703656  1
  Ti  Ti184  1  0.79265624  0.19250699  0.39654674  1
  Ti  Ti185  1  0.29898300  0.31032439  0.09247450  1
  Ti  Ti186  1  0.89332939  0.69789949  0.90529529  1
  Ti  Ti187  1  0.39790232  0.20607449  0.20500609  1
  Ti  Ti188  1  0.70040996  0.09704281  0.29766998  1
  Ti  Ti189  1  0.00348178  0.60043530  0.00182596  1
  Ti  Ti190  1  0.19573720  0.20294603  0.00414245  1
  Ti  Ti191  1  0.10919919  0.70990972  0.90730734  1
  Ti  Ti192  1  0.88859874  0.51003243  0.30260325  1
  Ti  Ti193  1  0.59614854  0.00332444  0.40201700  1
  Ti  Ti194  1  0.20229909  0.19466207  0.39970525  1
  Ti  Ti195  1  0.80541625  0.19633763  -0.00549334  1
  Ti  Ti196  1  0.80044633  0.39573067  0.80633242  1
  Ti  Ti197  1  0.10175510  0.70207764  0.50821037  1
  Ti  Ti198  1  0.19945627  0.60457367  0.20132973  1
  Ti  Ti199  1  0.20492571  0.39576969  0.20174301  1
  Mo  Mo200  1  0.79621554  0.01349791  0.19682437  1
  Mo  Mo201  1  0.29894928  0.69864713  0.50599838  1
  Mo  Mo202  1  0.29142498  0.30286126  0.70632888  1
  Mo  Mo203  1  0.30023919  0.50416493  0.89590324  1
  Mo  Mo204  1  0.59561373  0.79623573  0.39986179  1
  Mo  Mo205  1  0.49467421  0.70104656  0.88894036  1
  Mo  Mo206  1  0.10057915  0.90139116  0.30008899  1
  Mo  Mo207  1  0.69481762  0.70191791  0.71116997  1
  Mo  Mo208  1  0.50124968  0.89851555  0.89336374  1
  Mo  Mo209  1  0.59191250  0.79378206  0.59625886  1
  Mo  Mo210  1  0.40426005  0.40168145  0.00074275  1
  Mo  Mo211  1  0.60800313  0.39832244  0.39587521  1
  Mo  Mo212  1  0.39774778  0.80254011  0.20945673  1
  Mo  Mo213  1  -0.00150955  0.20597107  0.00166247  1
  Mo  Mo214  1  0.59468298  0.79534326  0.80141951  1
  Mo  Mo215  1  0.80015494  0.19622853  0.59306488  1
  Mo  Mo216  1  0.50196154  0.29626497  0.49475183  1
  Mo  Mo217  1  0.01321088  0.60798422  0.59726532  1
  Mo  Mo218  1  0.19705339  0.80285693  0.60265615  1
  Mo  Mo219  1  0.80431989  0.19406491  0.80475373  1
  Mo  Mo220  1  0.29303637  0.89770906  0.90019862  1
  Mo  Mo221  1  0.00652473  -0.00225306  0.19596945  1
  Mo  Mo222  1  0.39588505  0.79749037  0.80251342  1
  Mo  Mo223  1  0.79761692  0.41410143  0.39898924  1
  Mo  Mo224  1  0.89433385  0.69961029  0.30347263  1
  Mo  Mo225  1  0.79830222  0.60883334  -0.01098425  1
  Mo  Mo226  1  0.40606533  0.19681755  0.59418367  1
  Mo  Mo227  1  0.70012159  0.90404934  0.89633050  1
  Mo  Mo228  1  0.89602063  0.09168956  0.90072032  1
  Mo  Mo229  1  0.50176716  0.70519069  0.50364725  1
  Mo  Mo230  1  0.10020335  0.49975025  0.90437709  1
  Mo  Mo231  1  0.09876333  0.90437125  0.71172870  1
  Mo  Mo232  1  0.50748257  0.09556621  0.69639437  1
  Mo  Mo233  1  0.30075859  0.29510136  0.30096974  1
  Mo  Mo234  1  -0.01059660  -0.00829441  0.00046078  1
  Mo  Mo235  1  0.00400000  -0.00186759  0.60509221  1
  Mo  Mo236  1  0.39907306  0.79228138  0.59546297  1
  Mo  Mo237  1  0.19699780  0.79867930  0.00257500  1
  Mo  Mo238  1  0.10584716  0.69806025  0.29767197  1
  Mo  Mo239  1  0.00226037  0.19282300  0.80142045  1
  Mo  Mo240  1  0.59825338  0.79997120  0.20185648  1
  Mo  Mo241  1  0.10089158  0.09666186  0.50077397  1
  Mo  Mo242  1  0.70047486  0.30145459  0.29929297  1
  Mo  Mo243  1  0.50829762  0.49363352  0.09867484  1
  Mo  Mo244  1  0.70618692  0.29960222  0.90541226  1
  Mo  Mo245  1  0.80392306  0.78360750  0.20148538  1
  Mo  Mo246  1  0.60897918  0.60023783  0.39806681  1
  Mo  Mo247  1  0.79788067  0.59492989  0.20816080  1
  Mo  Mo248  1  0.59998981  0.19807125  0.80452040  1
  Mo  Mo249  1  0.79132995  0.60925272  0.58938780  1
