# generated using pymatgen
data_HfZrTaTiMo
_symmetry_space_group_name_H-M   'P 1'
_cell_length_a   16.88017366
_cell_length_b   16.88308614
_cell_length_c   16.88378799
_cell_angle_alpha   90.00493940
_cell_angle_beta   90.03760818
_cell_angle_gamma   89.96240611
_symmetry_Int_Tables_number   1
_chemical_formula_structural   HfZrTaTiMo
_chemical_formula_sum   'Hf50 Zr50 Ta50 Ti50 Mo50'
_cell_volume   4811.69895862
_cell_formula_units_Z   50
loop_
 _symmetry_equiv_pos_site_id
 _symmetry_equiv_pos_as_xyz
  1  'x, y, z'
loop_
 _atom_site_type_symbol
 _atom_site_label
 _atom_site_symmetry_multiplicity
 _atom_site_fract_x
 _atom_site_fract_y
 _atom_site_fract_z
 _atom_site_occupancy
  Hf  Hf0  1  0.79677355  0.40158250  0.38979674  1
  Hf  Hf1  1  0.69264978  0.29449909  0.09133793  1
  Hf  Hf2  1  0.40798551  0.60868347  0.40321571  1
  Hf  Hf3  1  0.29926431  0.49166793  0.50263017  1
  Hf  Hf4  1  0.70055774  0.08636102  0.50622143  1
  Hf  Hf5  1  0.10114620  0.90403851  0.09303414  1
  Hf  Hf6  1  0.79022572  0.60075484  0.39757143  1
  Hf  Hf7  1  0.88887113  0.71716020  0.30314551  1
  Hf  Hf8  1  -0.00405707  0.40248811  0.39728909  1
  Hf  Hf9  1  0.79396340  0.59458237  0.21239685  1
  Hf  Hf10  1  0.50036082  0.30631393  0.90255276  1
  Hf  Hf11  1  0.40217173  0.80705484  0.80496229  1
  Hf  Hf12  1  0.30178806  0.30796097  0.70903632  1
  Hf  Hf13  1  0.40801841  0.60305331  -0.00133381  1
  Hf  Hf14  1  0.00238392  0.79739139  -0.00237007  1
  Hf  Hf15  1  0.00022704  0.19838164  0.60719933  1
  Hf  Hf16  1  0.80504708  0.39516944  -0.00784840  1
  Hf  Hf17  1  0.29109320  0.29558856  0.30058930  1
  Hf  Hf18  1  0.20813659  0.00567679  0.20367529  1
  Hf  Hf19  1  0.91153706  0.50647503  0.91303796  1
  Hf  Hf20  1  0.00321937  -0.01608714  0.60061717  1
  Hf  Hf21  1  -0.00963024  0.60625638  0.19962420  1
  Hf  Hf22  1  0.59883332  0.40508212  0.19283755  1
  Hf  Hf23  1  0.50047866  0.49384648  0.30255610  1
  Hf  Hf24  1  0.30715861  0.48804947  0.89747725  1
  Hf  Hf25  1  0.60093260  -0.01515180  0.39345283  1
  Hf  Hf26  1  -0.01133242  0.19985586  -0.01947715  1
  Hf  Hf27  1  0.00782235  0.40807378  0.60843726  1
  Hf  Hf28  1  0.89390991  0.09583310  0.50515482  1
  Hf  Hf29  1  0.60166027  0.60296962  0.20730352  1
  Hf  Hf30  1  -0.00503065  -0.00577475  0.80411152  1
  Hf  Hf31  1  -0.00193602  0.19999815  0.39974414  1
  Hf  Hf32  1  0.29156178  0.29326738  0.50171572  1
  Hf  Hf33  1  0.81099920  0.80560604  0.60034392  1
  Hf  Hf34  1  0.80688901  0.60418307  0.80548492  1
  Hf  Hf35  1  0.79125379  0.19727080  0.19866550  1
  Hf  Hf36  1  0.60125325  -0.00485593  0.19135214  1
  Hf  Hf37  1  0.19449320  0.59499943  0.80118187  1
  Hf  Hf38  1  0.19200191  0.60221062  0.40760367  1
  Hf  Hf39  1  0.19298071  0.19848173  -0.00489467  1
  Hf  Hf40  1  0.19129564  0.39741222  0.19316701  1
  Hf  Hf41  1  0.29970615  0.49642910  0.30034600  1
  Hf  Hf42  1  0.09619157  0.50308516  0.29781587  1
  Hf  Hf43  1  0.09066645  0.09829634  0.09979313  1
  Hf  Hf44  1  0.80536716  0.19859168  0.80780502  1
  Hf  Hf45  1  0.61814160  -0.00423362  0.80417140  1
  Hf  Hf46  1  0.70320519  0.70429863  0.70309341  1
  Hf  Hf47  1  0.89437208  0.49731547  0.50402269  1
  Hf  Hf48  1  0.40395012  0.20063019  0.60007585  1
  Hf  Hf49  1  0.70323639  0.89531983  0.09416298  1
  Zr  Zr50  1  0.17834746  0.80972550  0.59181586  1
  Zr  Zr51  1  0.39433526  0.19354789  0.19622400  1
  Zr  Zr52  1  0.69443132  0.51091101  0.07961308  1
  Zr  Zr53  1  0.19198638  0.60691684  0.19199688  1
  Zr  Zr54  1  0.50594672  0.08786198  0.49620334  1
  Zr  Zr55  1  0.40046676  0.80101700  -0.00297117  1
  Zr  Zr56  1  0.40441668  0.60350851  0.19495252  1
  Zr  Zr57  1  0.19504299  0.79851297  0.19290565  1
  Zr  Zr58  1  0.29944624  0.49386713  0.08873515  1
  Zr  Zr59  1  0.10224622  0.29522641  0.50085019  1
  Zr  Zr60  1  0.18652010  0.59217327  0.60390738  1
  Zr  Zr61  1  0.90144295  0.09893483  0.29588918  1
  Zr  Zr62  1  0.10904551  0.09664235  0.49684883  1
  Zr  Zr63  1  0.69094605  0.10141674  0.30261303  1
  Zr  Zr64  1  0.90020100  0.29506185  0.09845888  1
  Zr  Zr65  1  0.49820378  0.88906433  0.28299574  1
  Zr  Zr66  1  0.40076243  -0.00310094  0.00212101  1
  Zr  Zr67  1  0.00243206  0.60376280  0.60269912  1
  Zr  Zr68  1  0.50525361  0.49081214  0.50438677  1
  Zr  Zr69  1  0.29387975  0.70586843  0.70484382  1
  Zr  Zr70  1  0.30344757  0.30013797  0.08678719  1
  Zr  Zr71  1  0.30604034  0.30215852  0.89866493  1
  Zr  Zr72  1  0.40748056  -0.01058855  0.59952811  1
  Zr  Zr73  1  0.70512203  0.70486186  0.09885687  1
  Zr  Zr74  1  0.60440979  0.60464301  0.59743339  1
  Zr  Zr75  1  0.80235653  0.60583396  0.60070553  1
  Zr  Zr76  1  0.19165168  0.60914961  -0.00422309  1
  Zr  Zr77  1  0.89452096  0.89856640  0.10430155  1
  Zr  Zr78  1  0.29705563  0.89451378  0.69766601  1
  Zr  Zr79  1  0.29762251  0.09603806  0.70253252  1
  Zr  Zr80  1  0.50979681  0.09024931  0.70330514  1
  Zr  Zr81  1  0.40073492  0.19101929  0.39807008  1
  Zr  Zr82  1  0.89921156  0.09754558  0.10015887  1
  Zr  Zr83  1  0.79459174  0.20666669  0.40214433  1
  Zr  Zr84  1  0.40033117  0.60065838  0.60378770  1
  Zr  Zr85  1  0.60431280  0.20711537  0.60335726  1
  Zr  Zr86  1  0.79538123  0.20747711  0.61141578  1
  Zr  Zr87  1  0.40785289  0.38432248  0.40273228  1
  Zr  Zr88  1  0.50214051  0.10456804  0.90215382  1
  Zr  Zr89  1  0.30099693  0.71014026  0.29798716  1
  Zr  Zr90  1  0.79661318  0.40737445  0.20481685  1
  Zr  Zr91  1  0.41498283  0.79887635  0.40390589  1
  Zr  Zr92  1  0.50050851  0.49534575  0.71319436  1
  Zr  Zr93  1  0.59870887  0.61546019  0.39904874  1
  Zr  Zr94  1  0.49966582  0.70688523  0.70298181  1
  Zr  Zr95  1  0.30187009  0.71295072  0.50975210  1
  Zr  Zr96  1  0.51008307  0.90887180  0.90156085  1
  Zr  Zr97  1  0.10080982  0.89937636  0.30315061  1
  Zr  Zr98  1  0.80020221  0.00337475  -0.01514535  1
  Zr  Zr99  1  0.07666283  0.50002450  0.08323102  1
  Ta  Ta100  1  0.18896221  0.40047529  0.40291907  1
  Ta  Ta101  1  0.70165788  0.49890406  0.70684318  1
  Ta  Ta102  1  0.19314645  0.40378493  0.60718722  1
  Ta  Ta103  1  0.20018348  0.19678253  0.60908015  1
  Ta  Ta104  1  0.29947184  0.09884669  0.09136732  1
  Ta  Ta105  1  0.19851035  -0.00740522  0.80792535  1
  Ta  Ta106  1  0.90071911  0.09485947  0.70160318  1
  Ta  Ta107  1  0.69792944  0.50193907  0.89926705  1
  Ta  Ta108  1  0.00335156  0.39763807  0.81015988  1
  Ta  Ta109  1  0.29988377  0.10014104  0.89853238  1
  Ta  Ta110  1  0.10237601  0.09612064  0.70655208  1
  Ta  Ta111  1  0.89602498  0.30513355  0.50908113  1
  Ta  Ta112  1  -0.00203924  0.19952199  0.79889746  1
  Ta  Ta113  1  0.50107364  0.29760002  0.09073941  1
  Ta  Ta114  1  0.09423262  0.70979431  0.71011308  1
  Ta  Ta115  1  0.69861292  0.49060803  0.50357998  1
  Ta  Ta116  1  0.50845884  0.28881515  0.28790498  1
  Ta  Ta117  1  0.80417616  -0.00631374  0.79757296  1
  Ta  Ta118  1  0.50419980  0.10274358  0.09626193  1
  Ta  Ta119  1  0.40293414  0.60247777  0.81163085  1
  Ta  Ta120  1  0.08819932  0.70632208  0.30701318  1
  Ta  Ta121  1  0.40711060  0.39802279  0.19223854  1
  Ta  Ta122  1  0.70047806  0.89688879  0.50131213  1
  Ta  Ta123  1  0.49856336  0.09516157  0.29412665  1
  Ta  Ta124  1  0.00591500  0.60064178  0.80404804  1
  Ta  Ta125  1  0.90292504  0.30654845  0.70588882  1
  Ta  Ta126  1  0.60315412  0.80505942  -0.00353937  1
  Ta  Ta127  1  0.69852588  0.30159474  0.90234317  1
  Ta  Ta128  1  0.10258148  0.29711501  0.70704228  1
  Ta  Ta129  1  0.30068767  0.89846261  0.09884465  1
  Ta  Ta130  1  0.10019900  0.09579646  0.89497794  1
  Ta  Ta131  1  0.60360614  0.60389841  0.80974568  1
  Ta  Ta132  1  -0.00314356  0.79812539  0.19648752  1
  Ta  Ta133  1  0.60975899  0.80150559  0.80584461  1
  Ta  Ta134  1  0.61108723  0.20470123  0.79586598  1
  Ta  Ta135  1  0.50890407  0.71158852  0.10232386  1
  Ta  Ta136  1  0.80639679  -0.01807204  0.39808978  1
  Ta  Ta137  1  0.08827687  0.29499881  0.10033528  1
  Ta  Ta138  1  0.30073740  0.90747870  0.49215079  1
  Ta  Ta139  1  0.90908378  0.70825717  0.70918058  1
  Ta  Ta140  1  0.17505616  0.39377144  -0.01415077  1
  Ta  Ta141  1  0.50194029  0.30361532  0.70974342  1
  Ta  Ta142  1  0.29639881  0.09394705  0.49301780  1
  Ta  Ta143  1  -0.00712794  0.60026041  0.40134370  1
  Ta  Ta144  1  0.40409852  0.19893656  0.79970527  1
  Ta  Ta145  1  -0.00873487  0.40128715  0.20224321  1
  Ta  Ta146  1  0.19682808  0.19483402  0.19803053  1
  Ta  Ta147  1  0.60715125  0.39338516  0.60751631  1
  Ta  Ta148  1  -0.00308900  -0.00570020  0.40275339  1
  Ta  Ta149  1  0.89072041  0.69922425  0.08996040  1
  Ti  Ti150  1  0.18532791  0.40542246  0.80051363  1
  Ti  Ti151  1  0.08669708  0.70712911  0.49344120  1
  Ti  Ti152  1  0.90369140  0.29568728  0.29369085  1
  Ti  Ti153  1  0.60091778  0.38920151  0.40343052  1
  Ti  Ti154  1  -0.00228499  -0.00195965  -0.01378390  1
  Ti  Ti155  1  0.20563522  0.00244752  0.39272533  1
  Ti  Ti156  1  0.51042343  0.49640884  0.90921790  1
  Ti  Ti157  1  0.68635495  0.29559198  0.29525883  1
  Ti  Ti158  1  0.19632333  0.19729302  0.80233308  1
  Ti  Ti159  1  0.79635430  0.39938980  0.61176689  1
  Ti  Ti160  1  -0.00197096  0.80340585  0.80703108  1
  Ti  Ti161  1  0.39609128  -0.00478819  0.80183326  1
  Ti  Ti162  1  0.89446121  0.89064108  0.90234995  1
  Ti  Ti163  1  0.80404523  0.39945945  0.80272193  1
  Ti  Ti164  1  0.30048137  0.70893536  0.09457407  1
  Ti  Ti165  1  0.51009628  0.70104720  0.90305316  1
  Ti  Ti166  1  0.70163444  0.89758305  0.69673664  1
  Ti  Ti167  1  0.89743116  0.50756132  0.09200647  1
  Ti  Ti168  1  0.90079947  0.70634334  0.49630864  1
  Ti  Ti169  1  0.19699555  0.80536855  0.40298083  1
  Ti  Ti170  1  -0.00308594  0.80826845  0.59948171  1
  Ti  Ti171  1  -0.00953046  0.81402584  0.40591088  1
  Ti  Ti172  1  0.50822876  0.89402140  0.50371825  1
  Ti  Ti173  1  0.09791519  0.29341028  0.29432346  1
  Ti  Ti174  1  0.79520677  -0.00524503  0.20852375  1
  Ti  Ti175  1  0.69709650  0.71932818  0.49326380  1
  Ti  Ti176  1  -0.00075176  -0.00551150  0.21082130  1
  Ti  Ti177  1  0.10055384  0.89503492  0.71527015  1
  Ti  Ti178  1  0.59405551  0.20478796  0.40554950  1
  Ti  Ti179  1  0.10196793  0.70976878  0.89736026  1
  Ti  Ti180  1  0.59959626  0.19800890  -0.00291271  1
  Ti  Ti181  1  0.10291223  0.10591773  0.30074558  1
  Ti  Ti182  1  0.70646217  0.09084638  0.69640806  1
  Ti  Ti183  1  0.60888619  0.39965778  0.80223936  1
  Ti  Ti184  1  0.70889495  0.70058629  0.90988046  1
  Ti  Ti185  1  0.70216873  0.30555081  0.50385139  1
  Ti  Ti186  1  0.70011254  0.10650275  0.90552136  1
  Ti  Ti187  1  0.30558941  0.49372509  0.70734595  1
  Ti  Ti188  1  0.59634923  0.80731679  0.60392717  1
  Ti  Ti189  1  0.90148954  0.50015143  0.70745425  1
  Ti  Ti190  1  0.39872222  -0.00027155  0.19512165  1
  Ti  Ti191  1  0.20242281  -0.00560023  -0.00923926  1
  Ti  Ti192  1  0.80230302  0.80463658  0.80423796  1
  Ti  Ti193  1  0.80817209  -0.01280653  0.60651837  1
  Ti  Ti194  1  0.40623638  0.39220125  0.60334886  1
  Ti  Ti195  1  0.69599019  0.10022230  0.09066482  1
  Ti  Ti196  1  0.70838531  0.87925221  0.29790281  1
  Ti  Ti197  1  0.29106020  0.70988747  0.89843726  1
  Ti  Ti198  1  0.19550546  -0.00429006  0.60027843  1
  Ti  Ti199  1  0.30880201  0.90219238  0.30074632  1
  Mo  Mo200  1  0.80232259  0.79786558  -0.00904431  1
  Mo  Mo201  1  0.60737077  0.00424131  0.00207966  1
  Mo  Mo202  1  0.79249344  0.19748991  -0.00534457  1
  Mo  Mo203  1  0.40088331  0.19413252  -0.00329403  1
  Mo  Mo204  1  0.20014877  0.19472633  0.39101887  1
  Mo  Mo205  1  0.10241733  0.90305056  0.48793318  1
  Mo  Mo206  1  0.41015159  0.40473267  0.80297560  1
  Mo  Mo207  1  0.50414541  0.70421319  0.28521754  1
  Mo  Mo208  1  0.51135209  0.89741169  0.70509019  1
  Mo  Mo209  1  0.80165507  0.60289255  -0.00734044  1
  Mo  Mo210  1  0.50726021  0.71563113  0.51190871  1
  Mo  Mo211  1  0.41220165  0.80715010  0.59809352  1
  Mo  Mo212  1  0.39774240  -0.00522559  0.39482374  1
  Mo  Mo213  1  0.20097896  0.80420071  -0.00448675  1
  Mo  Mo214  1  0.00594673  0.20343185  0.20633698  1
  Mo  Mo215  1  0.19235064  0.80276379  0.80849929  1
  Mo  Mo216  1  0.89986653  0.89556697  0.70570880  1
  Mo  Mo217  1  0.41698384  0.40735712  0.00404319  1
  Mo  Mo218  1  0.90044449  0.09584410  0.89197832  1
  Mo  Mo219  1  0.79750341  0.80178597  0.40576736  1
  Mo  Mo220  1  0.09738244  0.29481595  0.89253173  1
  Mo  Mo221  1  0.09679192  0.49672859  0.70895522  1
  Mo  Mo222  1  0.50966581  0.29694139  0.50861407  1
  Mo  Mo223  1  0.89723309  0.30356724  0.89294467  1
  Mo  Mo224  1  0.50153863  0.50126977  0.09286455  1
  Mo  Mo225  1  0.29284883  0.90246875  0.90197543  1
  Mo  Mo226  1  -0.00302321  0.61869966  -0.00457401  1
  Mo  Mo227  1  0.70424811  0.31332386  0.71256895  1
  Mo  Mo228  1  0.90035284  0.90105007  0.29909583  1
  Mo  Mo229  1  0.09560166  0.49986950  0.89842451  1
  Mo  Mo230  1  0.69725114  0.71644825  0.29993791  1
  Mo  Mo231  1  0.68877341  0.48873329  0.31469085  1
  Mo  Mo232  1  0.09855438  0.49991956  0.49592560  1
  Mo  Mo233  1  0.59754625  0.60981316  -0.00813814  1
  Mo  Mo234  1  0.08852426  0.70433433  0.09990106  1
  Mo  Mo235  1  0.90291175  0.70416204  0.89532793  1
  Mo  Mo236  1  0.90278733  0.50519634  0.30219856  1
  Mo  Mo237  1  0.59520496  0.19516046  0.19180850  1
  Mo  Mo238  1  -0.00316365  0.38776220  -0.00115127  1
  Mo  Mo239  1  0.60229079  0.40236735  -0.00574261  1
  Mo  Mo240  1  0.10088231  0.90074654  0.90180299  1
  Mo  Mo241  1  0.70701165  0.89032370  0.89826966  1
  Mo  Mo242  1  0.61034872  -0.01497998  0.60518254  1
  Mo  Mo243  1  0.89974071  0.89879552  0.49941083  1
  Mo  Mo244  1  0.80126645  0.79964349  0.19926748  1
  Mo  Mo245  1  0.50218317  0.90114192  0.09661219  1
  Mo  Mo246  1  0.39850123  0.80328601  0.18870484  1
  Mo  Mo247  1  0.60267434  0.79861796  0.19673620  1
  Mo  Mo248  1  0.60451898  0.80144529  0.39760439  1
  Mo  Mo249  1  0.30164106  0.09372380  0.29685391  1
