# generated using pymatgen
data_HfZrTaTiMo
_symmetry_space_group_name_H-M   'P 1'
_cell_length_a   16.89121166
_cell_length_b   16.88905783
_cell_length_c   16.89618986
_cell_angle_alpha   89.96734200
_cell_angle_beta   90.05365943
_cell_angle_gamma   90.01951929
_symmetry_Int_Tables_number   1
_chemical_formula_structural   HfZrTaTiMo
_chemical_formula_sum   'Hf50 Zr50 Ta50 Ti50 Mo50'
_cell_volume   4820.08527501
_cell_formula_units_Z   50
loop_
 _symmetry_equiv_pos_site_id
 _symmetry_equiv_pos_as_xyz
  1  'x, y, z'
loop_
 _atom_site_type_symbol
 _atom_site_label
 _atom_site_symmetry_multiplicity
 _atom_site_fract_x
 _atom_site_fract_y
 _atom_site_fract_z
 _atom_site_occupancy
  Hf  Hf0  1  0.49691244  0.69690459  0.90408632  1
  Hf  Hf1  1  0.00630664  0.41015011  0.19507255  1
  Hf  Hf2  1  0.39393060  0.38978175  0.40190207  1
  Hf  Hf3  1  0.39355887  0.80608760  0.60123081  1
  Hf  Hf4  1  0.59598699  0.59124590  0.80205822  1
  Hf  Hf5  1  0.60398588  0.59418370  0.00662408  1
  Hf  Hf6  1  0.39679699  0.20225019  0.21012875  1
  Hf  Hf7  1  0.21111818  0.79042339  0.20320326  1
  Hf  Hf8  1  0.90196816  0.10598185  0.89217424  1
  Hf  Hf9  1  0.50861648  0.09920066  0.50279029  1
  Hf  Hf10  1  0.00936880  0.19957596  0.60062100  1
  Hf  Hf11  1  0.79865305  0.80456124  -0.01006249  1
  Hf  Hf12  1  0.10226014  0.10647751  0.09986670  1
  Hf  Hf13  1  0.49043945  0.48208185  0.70242030  1
  Hf  Hf14  1  0.49531676  0.69840736  0.48789671  1
  Hf  Hf15  1  0.39228220  0.80928627  0.79859231  1
  Hf  Hf16  1  -0.00479545  0.00399201  0.21026363  1
  Hf  Hf17  1  0.10193713  0.89445876  0.09888669  1
  Hf  Hf18  1  0.20511870  0.00502177  0.19936696  1
  Hf  Hf19  1  0.50521415  0.90305653  0.49546742  1
  Hf  Hf20  1  0.10657582  0.10939713  0.31206306  1
  Hf  Hf21  1  0.70189878  0.29966208  0.30217807  1
  Hf  Hf22  1  0.19670610  0.59097461  0.60630935  1
  Hf  Hf23  1  0.79957186  0.19098149  0.20825531  1
  Hf  Hf24  1  0.20484038  -0.00125151  0.79435828  1
  Hf  Hf25  1  0.90890130  0.50190765  0.30671817  1
  Hf  Hf26  1  0.90317825  0.09387239  0.70179197  1
  Hf  Hf27  1  0.39352559  0.59190059  0.60271620  1
  Hf  Hf28  1  0.00780064  0.39460671  0.61094914  1
  Hf  Hf29  1  0.20021526  0.60523953  -0.00396534  1
  Hf  Hf30  1  0.09559218  0.49725892  0.48873550  1
  Hf  Hf31  1  0.60431034  0.19243204  0.20113908  1
  Hf  Hf32  1  0.40147523  0.79905651  0.20081000  1
  Hf  Hf33  1  0.29708524  0.69062814  0.49473889  1
  Hf  Hf34  1  0.89774135  0.29763683  0.89766175  1
  Hf  Hf35  1  0.10162686  0.31266397  0.31046303  1
  Hf  Hf36  1  0.79652318  0.40485936  0.00699359  1
  Hf  Hf37  1  0.07715100  0.90008168  0.68831362  1
  Hf  Hf38  1  0.60071106  0.40675519  0.40903942  1
  Hf  Hf39  1  0.10271445  0.29910289  0.10099753  1
  Hf  Hf40  1  0.60621009  -0.00145434  0.61125323  1
  Hf  Hf41  1  0.09089169  0.49756226  0.89279638  1
  Hf  Hf42  1  0.49534235  0.29800825  0.89798452  1
  Hf  Hf43  1  0.29679931  0.50144501  0.30265562  1
  Hf  Hf44  1  0.00696454  0.59662193  0.19492291  1
  Hf  Hf45  1  0.88764036  0.70583049  0.11206053  1
  Hf  Hf46  1  0.70148371  0.90390052  0.48928955  1
  Hf  Hf47  1  0.60182928  0.58732662  0.59148862  1
  Hf  Hf48  1  0.21392013  0.21223760  0.40969244  1
  Hf  Hf49  1  0.78979012  0.40736965  0.40615121  1
  Zr  Zr50  1  0.50789428  0.29953781  0.30395307  1
  Zr  Zr51  1  0.39434849  0.39822000  0.19828738  1
  Zr  Zr52  1  0.69377688  0.70899775  0.89712419  1
  Zr  Zr53  1  -0.00227566  0.80174756  0.21254793  1
  Zr  Zr54  1  0.20489161  -0.00524798  -0.01018375  1
  Zr  Zr55  1  -0.00508540  0.60093359  -0.00106840  1
  Zr  Zr56  1  0.30554368  0.10692926  0.09363623  1
  Zr  Zr57  1  0.18436634  0.00671408  0.58491869  1
  Zr  Zr58  1  0.90859410  0.50181661  0.50247877  1
  Zr  Zr59  1  0.40630707  -0.00218960  0.20589372  1
  Zr  Zr60  1  0.39266458  0.78672564  0.00910790  1
  Zr  Zr61  1  0.90480444  0.89553521  0.52118340  1
  Zr  Zr62  1  0.90693194  0.30110427  0.49482563  1
  Zr  Zr63  1  0.69871162  0.71483719  0.29225816  1
  Zr  Zr64  1  0.80173343  0.59510166  0.00140632  1
  Zr  Zr65  1  0.50123530  0.10089672  0.09155261  1
  Zr  Zr66  1  0.79931197  -0.00403677  -0.00031952  1
  Zr  Zr67  1  0.40215301  0.00127303  0.39974312  1
  Zr  Zr68  1  0.70214597  0.11134750  0.89570573  1
  Zr  Zr69  1  0.60623076  -0.00327649  -0.01175005  1
  Zr  Zr70  1  0.70410510  0.70135143  0.69878739  1
  Zr  Zr71  1  0.50688310  0.29979039  0.69516675  1
  Zr  Zr72  1  0.39623484  0.61503103  0.18413804  1
  Zr  Zr73  1  0.70022317  0.88871074  0.11629392  1
  Zr  Zr74  1  0.40064746  0.00073146  0.79483409  1
  Zr  Zr75  1  0.39395175  0.80343911  0.39144761  1
  Zr  Zr76  1  0.50874795  0.89455292  0.09852032  1
  Zr  Zr77  1  0.59413494  0.80464954  0.60652807  1
  Zr  Zr78  1  0.20162040  0.39844119  0.79004682  1
  Zr  Zr79  1  -0.00331911  -0.00434117  -0.00038414  1
  Zr  Zr80  1  0.69568210  0.48835212  0.69940483  1
  Zr  Zr81  1  0.49403774  0.69545427  0.70558614  1
  Zr  Zr82  1  -0.00502364  0.40758414  0.00733063  1
  Zr  Zr83  1  0.80635608  0.60139666  0.80320409  1
  Zr  Zr84  1  0.49480541  0.30042278  0.08639912  1
  Zr  Zr85  1  0.79714244  0.60144417  0.40225738  1
  Zr  Zr86  1  0.70557769  0.71434066  0.49740146  1
  Zr  Zr87  1  0.60111034  0.59172762  0.39947562  1
  Zr  Zr88  1  -0.00309029  0.79197407  -0.00907283  1
  Zr  Zr89  1  0.09771194  0.10422080  0.89264831  1
  Zr  Zr90  1  0.39030507  0.19696979  0.59808222  1
  Zr  Zr91  1  0.90379269  0.30040981  0.30594555  1
  Zr  Zr92  1  0.01506186  0.00164248  0.42421001  1
  Zr  Zr93  1  0.10738320  0.90282953  0.30987159  1
  Zr  Zr94  1  0.19651649  0.79934666  0.80214702  1
  Zr  Zr95  1  0.19953260  0.40145575  -0.00224751  1
  Zr  Zr96  1  0.78962447  -0.00529133  0.79743392  1
  Zr  Zr97  1  0.20067424  0.59886673  0.80193416  1
  Zr  Zr98  1  0.60271178  0.41076891  0.19027139  1
  Zr  Zr99  1  0.90007894  0.10478403  0.10098855  1
  Ta  Ta100  1  0.79327266  0.19246100  0.41142522  1
  Ta  Ta101  1  0.09476751  0.70005150  0.69663212  1
  Ta  Ta102  1  0.49208753  0.50422701  0.08923554  1
  Ta  Ta103  1  0.80313248  -0.00370768  0.22041804  1
  Ta  Ta104  1  0.90141854  0.10222002  0.50585669  1
  Ta  Ta105  1  -0.00718109  0.79395109  0.79496189  1
  Ta  Ta106  1  0.10472127  0.30761453  0.49754973  1
  Ta  Ta107  1  0.20481316  0.39679374  0.60138596  1
  Ta  Ta108  1  0.20142661  0.20565571  0.60597475  1
  Ta  Ta109  1  -0.00501534  0.61107945  0.80023574  1
  Ta  Ta110  1  0.59914787  0.81580363  0.79799408  1
  Ta  Ta111  1  0.80349913  0.59695141  0.59971511  1
  Ta  Ta112  1  0.00733671  0.20956065  0.79096901  1
  Ta  Ta113  1  0.70180304  0.10928583  0.70164278  1
  Ta  Ta114  1  0.59594475  -0.00391520  0.79537685  1
  Ta  Ta115  1  0.40048545  0.20287321  0.40382547  1
  Ta  Ta116  1  0.39982268  -0.00206338  -0.01374269  1
  Ta  Ta117  1  0.30679207  0.29699776  0.89612610  1
  Ta  Ta118  1  0.89454994  0.89753987  0.11262146  1
  Ta  Ta119  1  0.29989231  0.89812143  0.09547758  1
  Ta  Ta120  1  0.09175459  0.89855026  0.88954022  1
  Ta  Ta121  1  0.29457817  0.69891322  0.69808416  1
  Ta  Ta122  1  0.89629620  0.29965320  0.70275002  1
  Ta  Ta123  1  0.19286586  0.79599950  0.59432637  1
  Ta  Ta124  1  0.89894078  0.29725109  0.10541484  1
  Ta  Ta125  1  0.79770173  0.20278732  0.60089118  1
  Ta  Ta126  1  0.90039036  0.49480126  0.70341245  1
  Ta  Ta127  1  0.20757421  0.21143213  0.20360973  1
  Ta  Ta128  1  0.70001757  0.29813674  0.89746977  1
  Ta  Ta129  1  0.50726372  0.69877911  0.29674583  1
  Ta  Ta130  1  0.60729321  0.19759164  0.41107885  1
  Ta  Ta131  1  0.90059660  0.89923816  0.88204372  1
  Ta  Ta132  1  0.39443949  0.00061401  0.60641379  1
  Ta  Ta133  1  0.19676582  0.79653589  0.40434215  1
  Ta  Ta134  1  0.29731861  0.49476344  0.49708715  1
  Ta  Ta135  1  0.30276334  0.10815455  0.89450245  1
  Ta  Ta136  1  0.10443292  0.70161491  0.10026562  1
  Ta  Ta137  1  0.09304146  0.69296480  0.49963247  1
  Ta  Ta138  1  0.79541144  0.39661894  0.60307644  1
  Ta  Ta139  1  0.20266832  0.20600640  -0.00744374  1
  Ta  Ta140  1  0.00337419  0.20256876  0.20616711  1
  Ta  Ta141  1  0.30338012  0.50281242  0.09124326  1
  Ta  Ta142  1  0.49127399  0.48988519  0.90342189  1
  Ta  Ta143  1  0.00022884  0.79678461  0.40429891  1
  Ta  Ta144  1  0.10073392  0.69330299  0.30686450  1
  Ta  Ta145  1  0.39862714  0.19385614  0.79378790  1
  Ta  Ta146  1  0.80065212  0.40575055  0.19545560  1
  Ta  Ta147  1  0.29808472  0.10267099  0.30806721  1
  Ta  Ta148  1  0.50131937  0.89352882  0.90229208  1
  Ta  Ta149  1  0.79669182  0.39419014  0.79833121  1
  Ti  Ti150  1  0.90303164  0.70007295  0.50018056  1
  Ti  Ti151  1  0.20316156  0.20212450  0.78961712  1
  Ti  Ti152  1  0.70283838  0.09489866  0.10227278  1
  Ti  Ti153  1  0.49233126  0.51210953  0.29565335  1
  Ti  Ti154  1  0.69584165  0.50600795  0.29018256  1
  Ti  Ti155  1  0.00293759  0.20574695  -0.00114706  1
  Ti  Ti156  1  0.28930211  0.90233348  0.68851128  1
  Ti  Ti157  1  0.60111585  0.19809792  -0.00390384  1
  Ti  Ti158  1  0.20196660  0.40444986  0.19879078  1
  Ti  Ti159  1  0.79718667  0.20355357  0.00545204  1
  Ti  Ti160  1  0.69728721  0.09201932  0.31671067  1
  Ti  Ti161  1  0.81411136  0.81252122  0.38879942  1
  Ti  Ti162  1  -0.00578370  0.60294604  0.60791551  1
  Ti  Ti163  1  0.19373713  0.59576475  0.39646583  1
  Ti  Ti164  1  0.28999243  0.90377656  0.49589101  1
  Ti  Ti165  1  0.50757839  0.09890786  0.31015751  1
  Ti  Ti166  1  0.50231328  0.30138506  0.50879748  1
  Ti  Ti167  1  0.60877552  0.00093117  0.21041460  1
  Ti  Ti168  1  0.09721890  0.09669883  0.70156683  1
  Ti  Ti169  1  0.48811498  0.49159524  0.50310830  1
  Ti  Ti170  1  0.71790672  0.88858016  0.69439855  1
  Ti  Ti171  1  0.31265510  0.49146075  0.90142332  1
  Ti  Ti172  1  0.19632763  0.59601742  0.19518136  1
  Ti  Ti173  1  0.61137348  0.20034021  0.60002853  1
  Ti  Ti174  1  0.50315975  0.10188767  0.69876194  1
  Ti  Ti175  1  0.69795261  0.49162804  0.89811644  1
  Ti  Ti176  1  0.60330521  0.39131851  0.80334929  1
  Ti  Ti177  1  0.29739615  0.09505537  0.49850035  1
  Ti  Ti178  1  0.90260251  0.49100298  0.88815603  1
  Ti  Ti179  1  0.90815210  0.10650212  0.31791864  1
  Ti  Ti180  1  0.89351739  0.71118890  0.69248708  1
  Ti  Ti181  1  0.70109368  0.29697604  0.09931786  1
  Ti  Ti182  1  0.30437435  0.30043940  0.08843281  1
  Ti  Ti183  1  0.80646246  0.00348445  0.40229132  1
  Ti  Ti184  1  0.31055607  0.30745574  0.70083140  1
  Ti  Ti185  1  0.09864169  0.30240308  0.89221111  1
  Ti  Ti186  1  0.08920405  0.50086278  0.70597915  1
  Ti  Ti187  1  0.59833758  0.19609722  0.79842496  1
  Ti  Ti188  1  0.52405813  0.89524623  0.30452426  1
  Ti  Ti189  1  0.30156772  0.68768493  0.30834845  1
  Ti  Ti190  1  0.69691886  0.30161958  0.50872001  1
  Ti  Ti191  1  0.29274415  0.90833495  0.30590408  1
  Ti  Ti192  1  0.79373244  0.59163794  0.19535772  1
  Ti  Ti193  1  0.69299271  0.70465755  0.10771858  1
  Ti  Ti194  1  0.79769581  0.00513913  0.60008758  1
  Ti  Ti195  1  0.30411155  0.69613063  0.89824922  1
  Ti  Ti196  1  0.39055125  0.59052986  0.79820453  1
  Ti  Ti197  1  0.60434159  0.40094646  0.00008465  1
  Ti  Ti198  1  0.90020473  0.69706242  0.30266799  1
  Ti  Ti199  1  0.20044166  0.79651859  -0.00917548  1
  Mo  Mo200  1  0.20627040  0.00021262  0.40444550  1
  Mo  Mo201  1  0.00124477  0.60976711  0.39461280  1
  Mo  Mo202  1  -0.00608497  0.39865638  0.79722809  1
  Mo  Mo203  1  0.70715933  0.09939447  0.50694472  1
  Mo  Mo204  1  -0.00047199  0.01371094  0.60262985  1
  Mo  Mo205  1  0.51825868  0.69853330  0.10178617  1
  Mo  Mo206  1  0.60106086  0.79508643  -0.00074648  1
  Mo  Mo207  1  0.70035059  0.29425688  0.70235001  1
  Mo  Mo208  1  0.80419498  0.80443168  0.21088748  1
  Mo  Mo209  1  0.11535558  0.50362377  0.10223198  1
  Mo  Mo210  1  0.59496680  0.60269421  0.19612923  1
  Mo  Mo211  1  0.59921956  0.39305851  0.59036715  1
  Mo  Mo212  1  0.00009611  0.20118567  0.40437794  1
  Mo  Mo213  1  0.39611640  0.39884436  -0.00379268  1
  Mo  Mo214  1  0.79951071  0.20624814  0.79249380  1
  Mo  Mo215  1  0.60509569  0.00408217  0.39903380  1
  Mo  Mo216  1  0.89508112  0.89648249  0.69840347  1
  Mo  Mo217  1  0.69578023  0.49895730  0.10194882  1
  Mo  Mo218  1  0.59727982  0.80256147  0.39634183  1
  Mo  Mo219  1  0.90076082  0.90757265  0.31095346  1
  Mo  Mo220  1  0.88993415  0.50264648  0.11015909  1
  Mo  Mo221  1  0.09899915  0.87945293  0.50342536  1
  Mo  Mo222  1  0.29656797  0.30111225  0.29982706  1
  Mo  Mo223  1  0.29246530  0.10263033  0.69848573  1
  Mo  Mo224  1  0.80283480  0.80328825  0.79357693  1
  Mo  Mo225  1  0.30009487  0.89953078  0.90507230  1
  Mo  Mo226  1  0.39656256  0.39434275  0.80025714  1
  Mo  Mo227  1  0.10595440  0.29883466  0.70062406  1
  Mo  Mo228  1  0.20246557  0.40318556  0.40459274  1
  Mo  Mo229  1  0.59721967  0.79944269  0.20240916  1
  Mo  Mo230  1  0.70464900  0.49598108  0.50944614  1
  Mo  Mo231  1  -0.00005824  -0.00308965  0.79692332  1
  Mo  Mo232  1  0.10914953  0.50492709  0.29876506  1
  Mo  Mo233  1  0.39693116  0.59585992  -0.00494487  1
  Mo  Mo234  1  0.10168184  0.12233899  0.49934316  1
  Mo  Mo235  1  -0.00311834  0.77908643  0.59980551  1
  Mo  Mo236  1  0.49275067  0.90626623  0.70133655  1
  Mo  Mo237  1  0.00631097  0.40542861  0.39809202  1
  Mo  Mo238  1  0.30110316  0.30576985  0.50763487  1
  Mo  Mo239  1  0.30142994  0.49731389  0.69754957  1
  Mo  Mo240  1  0.09431197  0.70373000  0.89552762  1
  Mo  Mo241  1  0.28333918  0.70014703  0.09676111  1
  Mo  Mo242  1  0.39667269  0.19670428  -0.01296659  1
  Mo  Mo243  1  0.89685450  0.70498770  0.89026837  1
  Mo  Mo244  1  0.70324279  0.90807866  0.30716350  1
  Mo  Mo245  1  0.69496297  0.89818913  0.89127698  1
  Mo  Mo246  1  0.39968282  0.59029685  0.39535739  1
  Mo  Mo247  1  0.39467635  0.39703656  0.59585324  1
  Mo  Mo248  1  0.49990247  0.10148240  0.89175113  1
  Mo  Mo249  1  0.80504696  0.79646189  0.59810329  1
