# generated using pymatgen
data_HfZrTaTiMo
_symmetry_space_group_name_H-M   'P 1'
_cell_length_a   16.87395404
_cell_length_b   16.88017766
_cell_length_c   16.88969537
_cell_angle_alpha   90.05847408
_cell_angle_beta   89.99057245
_cell_angle_gamma   90.03710972
_symmetry_Int_Tables_number   1
_chemical_formula_structural   HfZrTaTiMo
_chemical_formula_sum   'Hf50 Zr50 Ta50 Ti50 Mo50'
_cell_volume   4810.77858074
_cell_formula_units_Z   50
loop_
 _symmetry_equiv_pos_site_id
 _symmetry_equiv_pos_as_xyz
  1  'x, y, z'
loop_
 _atom_site_type_symbol
 _atom_site_label
 _atom_site_symmetry_multiplicity
 _atom_site_fract_x
 _atom_site_fract_y
 _atom_site_fract_z
 _atom_site_occupancy
  Hf  Hf0  1  0.80854968  0.40482560  0.60633773  1
  Hf  Hf1  1  0.09504530  0.69882480  0.50079576  1
  Hf  Hf2  1  0.49721903  0.69985349  0.29385921  1
  Hf  Hf3  1  0.80527027  0.19264688  0.60346693  1
  Hf  Hf4  1  0.29801565  0.89403966  0.70227300  1
  Hf  Hf5  1  0.79995575  0.60410758  0.39572660  1
  Hf  Hf6  1  0.29449470  0.50391110  0.30648476  1
  Hf  Hf7  1  0.60186399  0.80215515  0.40110609  1
  Hf  Hf8  1  0.50145643  0.09534303  0.08652893  1
  Hf  Hf9  1  0.28443605  0.69257818  0.50354482  1
  Hf  Hf10  1  -0.00818144  0.00747973  0.20469703  1
  Hf  Hf11  1  0.90296311  0.29592805  0.49929870  1
  Hf  Hf12  1  0.10570679  0.51331283  0.49769568  1
  Hf  Hf13  1  0.10174755  0.89230864  0.69469247  1
  Hf  Hf14  1  0.89114577  0.09692922  0.90563596  1
  Hf  Hf15  1  0.60357711  0.19164184  0.59927115  1
  Hf  Hf16  1  0.10345468  0.30286059  0.70392753  1
  Hf  Hf17  1  0.70999224  0.10425439  0.30059307  1
  Hf  Hf18  1  0.00168923  0.20037948  0.80839910  1
  Hf  Hf19  1  0.60536699  0.39957251  0.81143707  1
  Hf  Hf20  1  0.40325332  0.19139382  0.80455935  1
  Hf  Hf21  1  0.48881011  0.49170984  0.70776586  1
  Hf  Hf22  1  0.10110624  0.29772001  0.10246992  1
  Hf  Hf23  1  0.29746549  0.10785544  0.09868265  1
  Hf  Hf24  1  0.80305856  0.39670571  0.39151443  1
  Hf  Hf25  1  -0.00348347  0.59555022  0.61593732  1
  Hf  Hf26  1  0.39858439  0.80450751  0.00302409  1
  Hf  Hf27  1  0.69883790  0.49568400  0.28859403  1
  Hf  Hf28  1  0.19981451  0.20236131  0.59138179  1
  Hf  Hf29  1  0.59909225  0.60401944  0.40213010  1
  Hf  Hf30  1  0.71819426  0.89979060  0.49596325  1
  Hf  Hf31  1  0.80314083  0.40772724  0.80659496  1
  Hf  Hf32  1  0.09380924  0.90180445  0.29760373  1
  Hf  Hf33  1  0.09113309  0.89551684  0.50204657  1
  Hf  Hf34  1  0.49645902  0.90424495  0.70630723  1
  Hf  Hf35  1  0.80137770  0.79576306  0.18791863  1
  Hf  Hf36  1  0.91122070  0.50475756  0.49113741  1
  Hf  Hf37  1  0.39196200  0.79859858  0.81475098  1
  Hf  Hf38  1  0.28633271  0.50024005  0.91370924  1
  Hf  Hf39  1  0.00451211  0.39336203  0.39531672  1
  Hf  Hf40  1  0.29114509  0.70462864  0.10537937  1
  Hf  Hf41  1  0.30584871  0.30975906  0.70633638  1
  Hf  Hf42  1  0.10997089  0.09829285  0.71012358  1
  Hf  Hf43  1  0.70250650  0.29390790  0.49468846  1
  Hf  Hf44  1  0.00237935  0.19599236  0.59925859  1
  Hf  Hf45  1  0.69679802  0.69170592  0.90210105  1
  Hf  Hf46  1  -0.00120201  0.79020621  0.80896414  1
  Hf  Hf47  1  0.80773312  0.00185078  0.19705479  1
  Hf  Hf48  1  0.60021040  0.19655849  0.19893531  1
  Hf  Hf49  1  0.29552919  0.29814460  0.90316942  1
  Zr  Zr50  1  0.80410056  0.59935157  0.60798341  1
  Zr  Zr51  1  0.50747886  0.09392531  0.49427292  1
  Zr  Zr52  1  0.19613394  -0.00614688  0.00537424  1
  Zr  Zr53  1  0.49618792  0.70144121  0.70654818  1
  Zr  Zr54  1  0.19230569  0.39238508  0.40584408  1
  Zr  Zr55  1  0.90445118  0.49773735  0.09277771  1
  Zr  Zr56  1  -0.00433687  -0.00616539  0.79789109  1
  Zr  Zr57  1  0.80760692  0.60795538  0.00168731  1
  Zr  Zr58  1  0.30801320  0.30514161  0.50097760  1
  Zr  Zr59  1  0.70722193  0.09401986  0.08621865  1
  Zr  Zr60  1  0.70283906  0.29320846  0.70599967  1
  Zr  Zr61  1  0.19358854  0.60401947  0.19725449  1
  Zr  Zr62  1  0.70085448  0.50016172  0.09518742  1
  Zr  Zr63  1  0.69717511  0.50088687  0.50021388  1
  Zr  Zr64  1  0.30056914  0.89244356  0.29216176  1
  Zr  Zr65  1  0.79503739  -0.00521526  0.79819596  1
  Zr  Zr66  1  0.60214897  0.19887004  -0.01220300  1
  Zr  Zr67  1  0.19421801  0.60354866  0.80183488  1
  Zr  Zr68  1  0.59904191  0.81212706  0.59726825  1
  Zr  Zr69  1  0.48451402  0.70203579  0.51229250  1
  Zr  Zr70  1  0.79902061  0.80463370  0.80410300  1
  Zr  Zr71  1  0.40315984  0.19832291  0.19983132  1
  Zr  Zr72  1  0.50383054  0.30737983  0.29491940  1
  Zr  Zr73  1  -0.00288333  0.79239322  0.00403654  1
  Zr  Zr74  1  0.40172226  -0.00424501  0.19769428  1
  Zr  Zr75  1  0.69919600  0.30695307  0.10210323  1
  Zr  Zr76  1  0.39761717  0.60475648  0.00631951  1
  Zr  Zr77  1  0.39361581  -0.00994670  -0.00439880  1
  Zr  Zr78  1  0.39838888  0.18969164  0.60135849  1
  Zr  Zr79  1  0.37897139  0.59069918  0.61511032  1
  Zr  Zr80  1  0.48838284  0.49554278  0.50120415  1
  Zr  Zr81  1  0.49761316  0.30210243  0.69931752  1
  Zr  Zr82  1  0.60544990  0.60845947  0.19273287  1
  Zr  Zr83  1  0.29445546  0.29326935  0.29573668  1
  Zr  Zr84  1  0.80112130  0.00365895  0.60952440  1
  Zr  Zr85  1  0.40167521  0.80131691  0.39960710  1
  Zr  Zr86  1  0.40385923  -0.00337349  0.59344432  1
  Zr  Zr87  1  0.89817355  0.71320555  0.50455982  1
  Zr  Zr88  1  0.10137470  0.30488801  0.90193337  1
  Zr  Zr89  1  0.20197097  0.00672478  0.59649873  1
  Zr  Zr90  1  0.00158455  0.60739553  0.18479684  1
  Zr  Zr91  1  0.90488097  0.90208301  0.49613518  1
  Zr  Zr92  1  0.69284430  0.50665313  0.70586818  1
  Zr  Zr93  1  0.69913856  0.70371542  0.69986078  1
  Zr  Zr94  1  0.29961294  0.88581367  0.50428489  1
  Zr  Zr95  1  0.49252624  0.30254811  0.90078838  1
  Zr  Zr96  1  0.39413889  0.40625745  0.00823283  1
  Zr  Zr97  1  0.10322438  0.28393027  0.29313164  1
  Zr  Zr98  1  0.60206780  0.79993844  0.00601550  1
  Zr  Zr99  1  0.20255824  -0.00220191  0.39516202  1
  Ta  Ta100  1  0.39429755  0.40820770  0.19574443  1
  Ta  Ta101  1  0.19440308  0.00329337  0.19882799  1
  Ta  Ta102  1  0.71035292  0.09671293  0.48563149  1
  Ta  Ta103  1  0.50014283  0.30000211  0.49663957  1
  Ta  Ta104  1  0.00068010  0.00406413  0.00687036  1
  Ta  Ta105  1  0.09464603  0.10103961  0.48570129  1
  Ta  Ta106  1  0.39827959  0.59492400  0.19635319  1
  Ta  Ta107  1  0.89840072  0.90113372  0.91279950  1
  Ta  Ta108  1  0.90259318  0.30438516  0.90178594  1
  Ta  Ta109  1  0.09728519  0.90124149  0.90185887  1
  Ta  Ta110  1  0.70610836  0.89837790  0.29875600  1
  Ta  Ta111  1  0.39018651  0.60095384  0.80911341  1
  Ta  Ta112  1  0.70594991  0.70482185  0.29565510  1
  Ta  Ta113  1  0.10458234  0.09872049  0.90194962  1
  Ta  Ta114  1  0.29668084  0.10072777  0.89966990  1
  Ta  Ta115  1  0.60182522  0.19930561  0.39534206  1
  Ta  Ta116  1  0.50390836  0.90761097  0.90045840  1
  Ta  Ta117  1  0.60407628  0.80584604  0.19528921  1
  Ta  Ta118  1  0.18989936  0.78994884  0.38866476  1
  Ta  Ta119  1  0.89854229  0.90450056  0.09444182  1
  Ta  Ta120  1  0.60283552  -0.00730464  0.19743456  1
  Ta  Ta121  1  0.80861908  0.20524044  0.00099705  1
  Ta  Ta122  1  0.60549085  -0.00471685  0.39646893  1
  Ta  Ta123  1  0.29250765  0.30008654  0.09872021  1
  Ta  Ta124  1  0.00175588  0.40091229  0.19922251  1
  Ta  Ta125  1  0.90376433  0.50493082  0.29350961  1
  Ta  Ta126  1  -0.00354913  0.19556059  0.00575146  1
  Ta  Ta127  1  0.59695999  0.39738856  0.59618062  1
  Ta  Ta128  1  0.40513009  0.19506347  0.39588470  1
  Ta  Ta129  1  0.49836119  0.30559126  0.09662687  1
  Ta  Ta130  1  0.10217964  0.70312716  0.69655242  1
  Ta  Ta131  1  0.19587067  0.19802889  0.00003043  1
  Ta  Ta132  1  0.81338857  0.39479165  0.19817215  1
  Ta  Ta133  1  0.19785384  0.40895492  0.19407141  1
  Ta  Ta134  1  -0.00298920  0.79807862  0.19669165  1
  Ta  Ta135  1  -0.00527268  0.79778768  0.38586629  1
  Ta  Ta136  1  0.50088225  0.50596840  0.90486500  1
  Ta  Ta137  1  0.50816638  0.09071272  0.71162865  1
  Ta  Ta138  1  0.89732746  0.69631463  0.29327216  1
  Ta  Ta139  1  0.50490524  0.90267127  0.29961162  1
  Ta  Ta140  1  0.50816644  0.49519977  0.10272031  1
  Ta  Ta141  1  0.90765928  0.30468789  0.70966802  1
  Ta  Ta142  1  0.60434089  0.81057405  0.80718248  1
  Ta  Ta143  1  0.60002067  0.39730946  0.39706672  1
  Ta  Ta144  1  0.19784383  0.40731666  0.80123572  1
  Ta  Ta145  1  0.09490591  0.50880859  0.30340126  1
  Ta  Ta146  1  0.20226382  0.41209528  0.60602997  1
  Ta  Ta147  1  0.49890747  0.49938369  0.29581906  1
  Ta  Ta148  1  0.19155233  0.79871608  -0.00199320  1
  Ta  Ta149  1  0.91484842  0.50089903  0.89753722  1
  Ti  Ti150  1  0.09526631  0.49894897  0.70853732  1
  Ti  Ti151  1  0.10641037  0.49910960  0.08480907  1
  Ti  Ti152  1  0.28755905  0.69818646  0.91030343  1
  Ti  Ti153  1  0.19610234  0.79898564  0.81114406  1
  Ti  Ti154  1  0.30135933  0.09326203  0.71389038  1
  Ti  Ti155  1  0.81945097  -0.00117200  0.38212949  1
  Ti  Ti156  1  0.80027801  0.39886742  -0.00741688  1
  Ti  Ti157  1  0.71001053  0.70948884  0.50228678  1
  Ti  Ti158  1  0.29343655  0.50362866  0.49846048  1
  Ti  Ti159  1  0.20667628  -0.00832580  0.81074253  1
  Ti  Ti160  1  0.28753007  0.70907511  0.69380821  1
  Ti  Ti161  1  0.29582217  0.10197182  0.30129149  1
  Ti  Ti162  1  0.70277756  0.90497166  0.09321313  1
  Ti  Ti163  1  0.60675431  0.40409193  -0.00781998  1
  Ti  Ti164  1  0.10088284  0.10564437  0.10558073  1
  Ti  Ti165  1  0.80251890  0.79480170  0.00034994  1
  Ti  Ti166  1  0.71029402  0.28531076  0.89317016  1
  Ti  Ti167  1  0.39518183  0.60243943  0.39528050  1
  Ti  Ti168  1  0.30260268  0.09998944  0.48331217  1
  Ti  Ti169  1  0.90089456  0.70152476  0.70478165  1
  Ti  Ti170  1  0.90074854  0.29312269  0.29557277  1
  Ti  Ti171  1  0.40073318  0.39980090  0.39577149  1
  Ti  Ti172  1  -0.00282241  0.00977275  0.59957285  1
  Ti  Ti173  1  0.50175167  0.09064925  0.89789816  1
  Ti  Ti174  1  0.50421061  0.69854536  0.90295406  1
  Ti  Ti175  1  -0.00123155  0.39401999  0.00257182  1
  Ti  Ti176  1  0.00639060  0.61393414  -0.00862849  1
  Ti  Ti177  1  0.90385299  0.88614213  0.68632873  1
  Ti  Ti178  1  0.60992711  -0.00150473  0.60055698  1
  Ti  Ti179  1  0.59566128  0.59967680  0.59900518  1
  Ti  Ti180  1  0.50408846  0.69685428  0.09732880  1
  Ti  Ti181  1  0.28778597  0.89217129  0.10764253  1
  Ti  Ti182  1  0.59491315  0.59712205  0.80854368  1
  Ti  Ti183  1  0.41177003  0.80243168  0.19029659  1
  Ti  Ti184  1  -0.00044471  0.19859197  0.39724952  1
  Ti  Ti185  1  0.70363607  0.29819571  0.29532256  1
  Ti  Ti186  1  0.69650450  0.10620476  0.71857984  1
  Ti  Ti187  1  0.10019227  0.10342924  0.30183614  1
  Ti  Ti188  1  0.70184881  0.91080997  0.91271945  1
  Ti  Ti189  1  0.81288048  0.59629243  0.80591943  1
  Ti  Ti190  1  0.81152791  0.20302050  0.19121274  1
  Ti  Ti191  1  0.09564288  0.50155353  0.90483213  1
  Ti  Ti192  1  0.09745773  0.89648762  0.10545240  1
  Ti  Ti193  1  0.90074203  0.10585668  0.71015474  1
  Ti  Ti194  1  -0.01194277  0.19706040  0.19228027  1
  Ti  Ti195  1  0.90167755  0.09860191  0.48379245  1
  Ti  Ti196  1  0.29523474  0.70274440  0.29474355  1
  Ti  Ti197  1  0.60739529  -0.00059161  0.80744293  1
  Ti  Ti198  1  0.50181983  0.09102688  0.30350698  1
  Ti  Ti199  1  0.00693911  0.40015470  0.60154365  1
  Mo  Mo200  1  0.39376900  0.41291749  0.81029186  1
  Mo  Mo201  1  0.10077030  0.70597293  0.09624733  1
  Mo  Mo202  1  0.09365180  0.70167357  0.29877801  1
  Mo  Mo203  1  0.50726440  0.89954351  0.10214072  1
  Mo  Mo204  1  0.90307273  0.10436416  0.09790520  1
  Mo  Mo205  1  0.39468445  0.79679764  0.60698947  1
  Mo  Mo206  1  0.09827831  0.29495812  0.50541906  1
  Mo  Mo207  1  0.29181797  0.89611572  0.89854911  1
  Mo  Mo208  1  0.80640533  0.20350929  0.80349331  1
  Mo  Mo209  1  0.20414324  0.19558207  0.80449553  1
  Mo  Mo210  1  0.80303840  0.60062975  0.19971740  1
  Mo  Mo211  1  0.69995776  0.50410307  0.90286732  1
  Mo  Mo212  1  0.80238386  -0.00306924  0.00015292  1
  Mo  Mo213  1  -0.00358686  0.00670105  0.39530900  1
  Mo  Mo214  1  0.59604046  0.59917607  -0.00191222  1
  Mo  Mo215  1  0.89876755  0.69615317  0.89744400  1
  Mo  Mo216  1  0.20167978  0.19086820  0.40033995  1
  Mo  Mo217  1  0.50439252  0.90701868  0.49506993  1
  Mo  Mo218  1  0.79970852  0.80238861  0.61081415  1
  Mo  Mo219  1  0.60288036  -0.00408227  -0.00445575  1
  Mo  Mo220  1  0.70098557  0.10224179  0.89501054  1
  Mo  Mo221  1  0.89894353  0.89123534  0.29382398  1
  Mo  Mo222  1  0.70241981  0.70312615  0.09972511  1
  Mo  Mo223  1  0.39654999  0.40267278  0.59292478  1
  Mo  Mo224  1  0.29415619  0.50081592  0.10595931  1
  Mo  Mo225  1  0.80270742  0.20011957  0.39510171  1
  Mo  Mo226  1  0.60039685  0.19041495  0.80358541  1
  Mo  Mo227  1  0.59739866  0.39858425  0.19952178  1
  Mo  Mo228  1  0.39447233  0.19975639  -0.00051702  1
  Mo  Mo229  1  0.90246769  0.11691344  0.29983970  1
  Mo  Mo230  1  0.90081741  0.70323031  0.09766842  1
  Mo  Mo231  1  0.29585978  0.49419582  0.71345755  1
  Mo  Mo232  1  0.39798225  0.00056563  0.80459789  1
  Mo  Mo233  1  -0.00045397  0.59962093  0.80386947  1
  Mo  Mo234  1  0.40747064  0.00307595  0.39293453  1
  Mo  Mo235  1  0.18762786  0.80273455  0.19596092  1
  Mo  Mo236  1  0.19294052  0.40025106  0.00415091  1
  Mo  Mo237  1  0.19724465  0.19047604  0.19638246  1
  Mo  Mo238  1  0.19933288  0.60522542  0.39148894  1
  Mo  Mo239  1  0.10128832  0.70066775  0.89962208  1
  Mo  Mo240  1  0.91257566  0.49503748  0.71125520  1
  Mo  Mo241  1  0.00011689  0.60682592  0.38728486  1
  Mo  Mo242  1  0.18613211  0.60524175  0.00243205  1
  Mo  Mo243  1  0.69181462  0.90616488  0.70080816  1
  Mo  Mo244  1  0.19388433  0.59444144  0.61110217  1
  Mo  Mo245  1  0.80169463  0.79978276  0.38629540  1
  Mo  Mo246  1  0.19442418  0.79531792  0.60066998  1
  Mo  Mo247  1  0.00324334  0.40375540  0.80332359  1
  Mo  Mo248  1  0.90248923  0.30312745  0.09612841  1
  Mo  Mo249  1  -0.00215209  0.79247409  0.60741362  1
