# generated using pymatgen
data_HfZrTaTiMo
_symmetry_space_group_name_H-M   'P 1'
_cell_length_a   16.88541183
_cell_length_b   16.87827765
_cell_length_c   16.88922176
_cell_angle_alpha   89.98425022
_cell_angle_beta   89.97767505
_cell_angle_gamma   90.01983402
_symmetry_Int_Tables_number   1
_chemical_formula_structural   HfZrTaTiMo
_chemical_formula_sum   'Hf50 Zr50 Ta50 Ti50 Mo50'
_cell_volume   4813.37110849
_cell_formula_units_Z   50
loop_
 _symmetry_equiv_pos_site_id
 _symmetry_equiv_pos_as_xyz
  1  'x, y, z'
loop_
 _atom_site_type_symbol
 _atom_site_label
 _atom_site_symmetry_multiplicity
 _atom_site_fract_x
 _atom_site_fract_y
 _atom_site_fract_z
 _atom_site_occupancy
  Hf  Hf0  1  0.79574097  0.20448231  0.40055941  1
  Hf  Hf1  1  0.29344942  0.30168492  0.90820271  1
  Hf  Hf2  1  0.70671894  0.70598080  0.70620470  1
  Hf  Hf3  1  -0.00247496  0.00029914  0.20129598  1
  Hf  Hf4  1  0.30796090  0.90178324  0.09763133  1
  Hf  Hf5  1  0.10404266  0.69783048  0.71106875  1
  Hf  Hf6  1  0.40949376  0.19949614  0.20260475  1
  Hf  Hf7  1  0.20782856  0.79531524  0.40327578  1
  Hf  Hf8  1  0.90286420  0.10248450  0.89665324  1
  Hf  Hf9  1  0.89725437  0.49476027  0.49333009  1
  Hf  Hf10  1  -0.00598251  0.40258867  -0.00452455  1
  Hf  Hf11  1  0.59833133  0.59824817  0.20672714  1
  Hf  Hf12  1  0.89963800  0.51014917  0.89900595  1
  Hf  Hf13  1  -0.00006987  0.39213238  0.79743090  1
  Hf  Hf14  1  0.40982193  0.79324647  -0.01161103  1
  Hf  Hf15  1  0.01567859  0.00182181  0.78816957  1
  Hf  Hf16  1  0.49303050  0.89712957  0.69621157  1
  Hf  Hf17  1  0.40077497  0.21087095  0.58754403  1
  Hf  Hf18  1  0.79792787  0.39506758  0.80556272  1
  Hf  Hf19  1  0.09644002  0.70019127  0.89531593  1
  Hf  Hf20  1  0.49958642  0.49871193  0.09772099  1
  Hf  Hf21  1  0.51081257  0.30866188  0.69631995  1
  Hf  Hf22  1  0.20171558  0.20621240  0.19759145  1
  Hf  Hf23  1  0.58800247  0.79603586  0.81146100  1
  Hf  Hf24  1  0.68992345  0.10190369  0.30253932  1
  Hf  Hf25  1  0.40741221  0.18922399  -0.00093397  1
  Hf  Hf26  1  -0.00560801  0.20240865  0.20385076  1
  Hf  Hf27  1  0.29577607  0.09522149  0.09591637  1
  Hf  Hf28  1  0.19947527  0.59570242  0.41229938  1
  Hf  Hf29  1  0.71073041  0.68937784  0.10462601  1
  Hf  Hf30  1  0.10965541  0.50518794  0.09474434  1
  Hf  Hf31  1  0.80041881  0.19995130  0.20741668  1
  Hf  Hf32  1  0.59613118  0.79339614  0.60085116  1
  Hf  Hf33  1  0.80775888  0.78983361  0.00133330  1
  Hf  Hf34  1  0.29964328  0.10610224  0.89687147  1
  Hf  Hf35  1  0.89962057  0.70227848  0.49192824  1
  Hf  Hf36  1  0.29286832  0.50670258  0.69984093  1
  Hf  Hf37  1  0.29901118  0.49801346  0.30469922  1
  Hf  Hf38  1  0.79414929  -0.00363034  0.39944821  1
  Hf  Hf39  1  0.49819604  0.90038780  0.30270574  1
  Hf  Hf40  1  0.49312709  0.70122980  0.50074277  1
  Hf  Hf41  1  0.19832099  -0.01059057  -0.00913548  1
  Hf  Hf42  1  0.69553418  0.90132478  0.70151876  1
  Hf  Hf43  1  0.00588043  0.80144606  0.60653574  1
  Hf  Hf44  1  0.01066833  0.20687201  0.60473986  1
  Hf  Hf45  1  0.40500746  0.00906168  0.80392419  1
  Hf  Hf46  1  -0.00294275  0.40464618  0.19641218  1
  Hf  Hf47  1  0.49730631  0.30976401  0.09482699  1
  Hf  Hf48  1  0.30061360  0.88889679  0.70397676  1
  Hf  Hf49  1  0.30073582  0.30600710  0.30642854  1
  Zr  Zr50  1  -0.00944417  0.60347120  0.20151571  1
  Zr  Zr51  1  0.20491104  -0.00052499  0.40376070  1
  Zr  Zr52  1  0.11192311  0.69090875  0.29786769  1
  Zr  Zr53  1  0.21133240  0.79859256  0.19872405  1
  Zr  Zr54  1  0.89605587  0.89936682  0.10073590  1
  Zr  Zr55  1  0.39287839  0.01862686  0.60096889  1
  Zr  Zr56  1  0.59091916  0.59566785  0.79861211  1
  Zr  Zr57  1  0.60111090  0.19791735  0.00031737  1
  Zr  Zr58  1  0.59678118  0.39404636  0.21267334  1
  Zr  Zr59  1  0.30986176  0.89531200  0.50628275  1
  Zr  Zr60  1  0.80013218  0.59120131  0.59759928  1
  Zr  Zr61  1  0.68458093  0.47812327  0.68741231  1
  Zr  Zr62  1  0.00161800  0.79656809  0.39224857  1
  Zr  Zr63  1  0.79724208  0.58800819  0.79342931  1
  Zr  Zr64  1  -0.00259015  0.21540094  -0.00768395  1
  Zr  Zr65  1  0.79453107  0.00283569  0.79867244  1
  Zr  Zr66  1  0.70155910  0.09678610  0.90542287  1
  Zr  Zr67  1  0.11330803  0.30494597  0.08909890  1
  Zr  Zr68  1  -0.00362917  0.79595475  0.19724746  1
  Zr  Zr69  1  0.80107347  0.80320923  0.59105375  1
  Zr  Zr70  1  0.18289959  0.20365595  0.78854155  1
  Zr  Zr71  1  0.89727442  0.09797334  0.09277706  1
  Zr  Zr72  1  0.50217326  0.90098805  0.09633997  1
  Zr  Zr73  1  0.50119460  0.90617250  0.50418487  1
  Zr  Zr74  1  0.30157661  0.10147647  0.29922326  1
  Zr  Zr75  1  0.49789473  0.49500726  0.90553649  1
  Zr  Zr76  1  0.10957793  0.69872940  0.09423725  1
  Zr  Zr77  1  0.39629300  0.40189469  0.59992720  1
  Zr  Zr78  1  0.71166526  0.49283347  0.29273651  1
  Zr  Zr79  1  0.60618068  0.79318730  0.21118504  1
  Zr  Zr80  1  0.90439216  0.89512962  0.89487665  1
  Zr  Zr81  1  0.09985436  0.10606454  0.90481740  1
  Zr  Zr82  1  0.19360474  0.39722488  0.79951376  1
  Zr  Zr83  1  0.59529154  0.59454659  0.60072581  1
  Zr  Zr84  1  0.69724458  0.28922332  0.69369345  1
  Zr  Zr85  1  0.90226567  0.10064900  0.50610028  1
  Zr  Zr86  1  0.10462297  0.10103525  0.29615215  1
  Zr  Zr87  1  0.49247250  0.30111189  0.89707280  1
  Zr  Zr88  1  0.68444864  0.09954094  0.51209520  1
  Zr  Zr89  1  0.69600408  0.90049463  0.09871467  1
  Zr  Zr90  1  0.19584041  0.21307138  0.40984533  1
  Zr  Zr91  1  0.09920835  0.51521121  0.89739642  1
  Zr  Zr92  1  -0.00665429  0.00301096  0.39122798  1
  Zr  Zr93  1  0.10008939  0.90170566  0.50439236  1
  Zr  Zr94  1  0.60321627  0.59716456  0.39768956  1
  Zr  Zr95  1  0.51314325  0.10895358  0.68903510  1
  Zr  Zr96  1  0.19807996  0.01417123  0.61145461  1
  Zr  Zr97  1  0.70202682  0.30320317  0.11070243  1
  Zr  Zr98  1  0.89995337  0.89460694  0.70407396  1
  Zr  Zr99  1  -0.00216737  0.59547611  0.60021664  1
  Ta  Ta100  1  0.79922333  0.40012132  -0.00566895  1
  Ta  Ta101  1  0.89808202  0.29601676  0.69767720  1
  Ta  Ta102  1  0.40253470  0.59933440  0.60854139  1
  Ta  Ta103  1  0.00338578  0.40055189  0.60015408  1
  Ta  Ta104  1  0.89912467  0.10793210  0.70093450  1
  Ta  Ta105  1  0.59493781  -0.00026673  0.80406648  1
  Ta  Ta106  1  0.40681363  0.00517039  0.20134394  1
  Ta  Ta107  1  0.39892199  0.40512488  0.79511623  1
  Ta  Ta108  1  0.19098681  0.39475238  0.59755184  1
  Ta  Ta109  1  0.30359581  0.49918886  0.90096629  1
  Ta  Ta110  1  0.69548771  0.09541097  0.10225716  1
  Ta  Ta111  1  0.79372615  0.00056924  0.20789570  1
  Ta  Ta112  1  0.30273430  0.30623176  0.09164126  1
  Ta  Ta113  1  0.20117135  0.20917781  0.60039567  1
  Ta  Ta114  1  0.78841060  0.79973075  0.39113844  1
  Ta  Ta115  1  0.70723110  0.50092617  0.09774227  1
  Ta  Ta116  1  0.79986800  0.00092516  0.60030548  1
  Ta  Ta117  1  0.39794126  0.79500875  0.39725315  1
  Ta  Ta118  1  0.40749608  0.01315223  0.39801242  1
  Ta  Ta119  1  0.30548202  0.89634002  0.89439974  1
  Ta  Ta120  1  0.00467447  0.40059216  0.40448768  1
  Ta  Ta121  1  0.00298102  0.79887819  -0.00012887  1
  Ta  Ta122  1  0.10104826  0.50822039  0.69877295  1
  Ta  Ta123  1  0.79886364  0.21210738  -0.00406373  1
  Ta  Ta124  1  0.48713482  0.49459390  0.30931017  1
  Ta  Ta125  1  0.10304631  0.49572986  0.30087516  1
  Ta  Ta126  1  0.09808283  0.31072710  0.30062797  1
  Ta  Ta127  1  0.89536553  0.31285214  0.30449117  1
  Ta  Ta128  1  0.80030296  0.60388771  0.39231849  1
  Ta  Ta129  1  0.20202178  0.79008052  0.60752257  1
  Ta  Ta130  1  0.90026930  0.30297297  0.50109920  1
  Ta  Ta131  1  -0.00393388  0.20805031  0.39738002  1
  Ta  Ta132  1  0.60417326  0.79892865  0.39757237  1
  Ta  Ta133  1  0.70551226  0.69222387  0.90298793  1
  Ta  Ta134  1  0.09738675  0.10490343  0.50224876  1
  Ta  Ta135  1  0.88757358  0.89355084  0.29601086  1
  Ta  Ta136  1  0.40023129  0.78364022  0.80140823  1
  Ta  Ta137  1  0.49973082  0.49517930  0.49883222  1
  Ta  Ta138  1  0.21814027  0.60587359  -0.00324693  1
  Ta  Ta139  1  0.30831092  0.90431015  0.29590134  1
  Ta  Ta140  1  0.89839328  0.49831776  0.30110225  1
  Ta  Ta141  1  0.39952486  0.60415117  -0.00438672  1
  Ta  Ta142  1  0.39497904  0.59705964  0.40957715  1
  Ta  Ta143  1  0.58859140  0.20734331  0.40326132  1
  Ta  Ta144  1  0.59997078  0.19670002  0.80731478  1
  Ta  Ta145  1  0.10484896  0.09695662  0.09647222  1
  Ta  Ta146  1  0.70017440  0.69731789  0.49447956  1
  Ta  Ta147  1  0.20212278  0.00006801  0.79364909  1
  Ta  Ta148  1  0.00107042  0.59414079  0.39749374  1
  Ta  Ta149  1  0.39604569  0.40149720  0.20007865  1
  Ti  Ti150  1  0.59790360  0.79061736  -0.00662496  1
  Ti  Ti151  1  0.90261672  0.70233868  0.71396163  1
  Ti  Ti152  1  0.00238285  0.00087886  0.60599055  1
  Ti  Ti153  1  0.89144023  0.30844867  0.10384746  1
  Ti  Ti154  1  0.59411729  0.20145777  0.20941413  1
  Ti  Ti155  1  0.59850497  0.00022629  0.20677619  1
  Ti  Ti156  1  0.88263362  0.50895102  0.10260925  1
  Ti  Ti157  1  0.39541091  0.39576808  0.41325055  1
  Ti  Ti158  1  0.21394358  0.59619936  0.19559630  1
  Ti  Ti159  1  0.60636175  0.39779899  0.81390354  1
  Ti  Ti160  1  0.50189657  0.69416956  0.09877270  1
  Ti  Ti161  1  0.10713252  0.90098832  0.10240598  1
  Ti  Ti162  1  0.30928265  0.69899627  0.09873302  1
  Ti  Ti163  1  0.19176995  0.40270564  0.41500298  1
  Ti  Ti164  1  0.69309644  0.30450407  0.50563571  1
  Ti  Ti165  1  0.30144855  0.11192959  0.49347241  1
  Ti  Ti166  1  0.58601010  -0.00412322  -0.01576264  1
  Ti  Ti167  1  0.00796890  -0.00951826  -0.00223349  1
  Ti  Ti168  1  0.49212004  0.30363957  0.31103361  1
  Ti  Ti169  1  0.29585233  0.50153371  0.50864185  1
  Ti  Ti170  1  0.20908255  0.79573740  -0.01036200  1
  Ti  Ti171  1  0.69823734  0.10191595  0.69674655  1
  Ti  Ti172  1  0.40364069  0.60379781  0.80007529  1
  Ti  Ti173  1  0.10526343  0.88606043  0.88606328  1
  Ti  Ti174  1  0.50606300  0.09013646  0.09978905  1
  Ti  Ti175  1  0.30234131  0.69669310  0.51494411  1
  Ti  Ti176  1  0.70007092  0.89217041  0.90029515  1
  Ti  Ti177  1  0.49126716  0.69375692  0.30526659  1
  Ti  Ti178  1  0.79624371  -0.00300196  0.00096583  1
  Ti  Ti179  1  0.30859348  0.69479429  0.30018430  1
  Ti  Ti180  1  0.80074062  0.20009619  0.59805368  1
  Ti  Ti181  1  0.79924988  0.20560993  0.80619223  1
  Ti  Ti182  1  0.90161389  0.90005838  0.49649621  1
  Ti  Ti183  1  0.80368549  0.39863812  0.59695941  1
  Ti  Ti184  1  0.79232429  0.39586431  0.40321802  1
  Ti  Ti185  1  0.40404050  0.79436096  0.20289886  1
  Ti  Ti186  1  0.69260668  0.90185087  0.50136487  1
  Ti  Ti187  1  0.20473302  0.40320037  0.19736001  1
  Ti  Ti188  1  0.60314552  0.59986687  -0.00364003  1
  Ti  Ti189  1  0.30379110  0.49360278  0.09271198  1
  Ti  Ti190  1  0.10246695  0.69425333  0.50713097  1
  Ti  Ti191  1  0.21758698  0.61250194  0.80520304  1
  Ti  Ti192  1  0.30392160  0.29648981  0.70494889  1
  Ti  Ti193  1  0.61463143  0.39949313  -0.00703748  1
  Ti  Ti194  1  0.39954953  0.59622279  0.19945923  1
  Ti  Ti195  1  0.11233427  0.90362275  0.29241982  1
  Ti  Ti196  1  -0.01478778  0.61283985  0.00986715  1
  Ti  Ti197  1  0.60293015  0.39683682  0.40356357  1
  Ti  Ti198  1  0.90207109  0.69849464  0.89064503  1
  Ti  Ti199  1  0.59352674  0.00267922  0.40089768  1
  Mo  Mo200  1  0.49316019  0.49742287  0.70166011  1
  Mo  Mo201  1  0.80188240  0.59746171  -0.00011537  1
  Mo  Mo202  1  0.69479392  0.90396077  0.30431462  1
  Mo  Mo203  1  -0.00853856  0.20359015  0.79442146  1
  Mo  Mo204  1  0.20159619  0.59817755  0.60027974  1
  Mo  Mo205  1  0.50086944  0.30638017  0.49304960  1
  Mo  Mo206  1  0.20136808  -0.00601683  0.19247549  1
  Mo  Mo207  1  0.60483763  -0.00426376  0.60456970  1
  Mo  Mo208  1  0.00226534  0.79719126  0.80304318  1
  Mo  Mo209  1  0.30191987  0.11896624  0.70574096  1
  Mo  Mo210  1  0.29578913  0.30737894  0.49988226  1
  Mo  Mo211  1  0.40017987  0.20554582  0.79242546  1
  Mo  Mo212  1  0.09644786  0.30323238  0.89952996  1
  Mo  Mo213  1  0.69950419  0.50008192  0.91106113  1
  Mo  Mo214  1  0.40490807  0.20421840  0.40146665  1
  Mo  Mo215  1  0.20425413  0.80326551  0.80208718  1
  Mo  Mo216  1  0.20257732  0.41207091  -0.00205994  1
  Mo  Mo217  1  0.70115901  0.49413587  0.49228212  1
  Mo  Mo218  1  0.49367134  0.69678942  0.70219849  1
  Mo  Mo219  1  0.20094616  0.20071574  0.00183024  1
  Mo  Mo220  1  0.69878054  0.29711506  0.30975514  1
  Mo  Mo221  1  0.59559451  0.39821339  0.58041357  1
  Mo  Mo222  1  0.09603306  0.30576379  0.69504150  1
  Mo  Mo223  1  0.50382564  0.69180729  0.90454505  1
  Mo  Mo224  1  -0.00805187  0.59928997  0.79010381  1
  Mo  Mo225  1  0.50144414  0.09875673  0.89519183  1
  Mo  Mo226  1  0.30258582  0.69914681  0.89850030  1
  Mo  Mo227  1  0.49824153  0.90015885  0.89816982  1
  Mo  Mo228  1  0.79914591  0.79736935  0.20633896  1
  Mo  Mo229  1  0.88952325  0.69865613  0.29691865  1
  Mo  Mo230  1  0.09906694  0.49750424  0.50026096  1
  Mo  Mo231  1  0.80647559  0.40071220  0.19737741  1
  Mo  Mo232  1  0.89367060  0.09741267  0.30150327  1
  Mo  Mo233  1  0.09862952  0.10219805  0.69586235  1
  Mo  Mo234  1  0.80259254  0.60025885  0.20179531  1
  Mo  Mo235  1  0.59969291  0.20696761  0.59319211  1
  Mo  Mo236  1  0.49886729  0.10739226  0.49200927  1
  Mo  Mo237  1  0.40609385  -0.00331847  -0.00305786  1
  Mo  Mo238  1  0.69883383  0.29871757  0.89988766  1
  Mo  Mo239  1  0.10839086  0.89672457  0.70336891  1
  Mo  Mo240  1  0.39597302  0.78463394  0.60435529  1
  Mo  Mo241  1  0.50430055  0.09988649  0.29909969  1
  Mo  Mo242  1  0.09608725  0.30283466  0.49869578  1
  Mo  Mo243  1  0.30084663  0.69636529  0.70275761  1
  Mo  Mo244  1  0.89905945  0.69983004  0.09938661  1
  Mo  Mo245  1  0.39312629  0.40632491  0.00191129  1
  Mo  Mo246  1  0.89375385  0.30012696  0.89555351  1
  Mo  Mo247  1  0.70373025  0.70045644  0.30043163  1
  Mo  Mo248  1  0.79645992  0.79279654  0.81066065  1
  Mo  Mo249  1  0.90515954  0.48734790  0.69523987  1
