# generated using pymatgen
data_HfZrTaTiMo
_symmetry_space_group_name_H-M   'P 1'
_cell_length_a   16.88995128
_cell_length_b   16.88220675
_cell_length_c   16.88195785
_cell_angle_alpha   90.04195338
_cell_angle_beta   90.02210515
_cell_angle_gamma   90.02837343
_symmetry_Int_Tables_number   1
_chemical_formula_structural   HfZrTaTiMo
_chemical_formula_sum   'Hf50 Zr50 Ta50 Ti50 Mo50'
_cell_volume   4813.71330169
_cell_formula_units_Z   50
loop_
 _symmetry_equiv_pos_site_id
 _symmetry_equiv_pos_as_xyz
  1  'x, y, z'
loop_
 _atom_site_type_symbol
 _atom_site_label
 _atom_site_symmetry_multiplicity
 _atom_site_fract_x
 _atom_site_fract_y
 _atom_site_fract_z
 _atom_site_occupancy
  Hf  Hf0  1  0.70503931  0.29943133  0.70933608  1
  Hf  Hf1  1  0.79735219  -0.00813496  0.00173231  1
  Hf  Hf2  1  0.20728297  0.20783218  0.81151886  1
  Hf  Hf3  1  0.10106682  0.30118473  0.29903523  1
  Hf  Hf4  1  0.38756101  0.40356488  0.19107879  1
  Hf  Hf5  1  0.49030591  0.50453714  0.30237243  1
  Hf  Hf6  1  0.59867462  0.19590404  0.20772501  1
  Hf  Hf7  1  0.39886655  0.40324012  0.60082164  1
  Hf  Hf8  1  0.51298703  0.89866907  0.70498556  1
  Hf  Hf9  1  0.69994185  0.69851557  0.29914925  1
  Hf  Hf10  1  0.18958327  0.79949069  0.59592181  1
  Hf  Hf11  1  0.89935496  0.50418639  0.49193046  1
  Hf  Hf12  1  0.49379040  0.50830126  0.48923011  1
  Hf  Hf13  1  -0.00793593  0.79837081  0.01218138  1
  Hf  Hf14  1  0.40001695  0.79870205  0.00279586  1
  Hf  Hf15  1  0.50495021  0.89596106  0.29731166  1
  Hf  Hf16  1  0.29751210  0.69930321  0.49985005  1
  Hf  Hf17  1  0.40525338  0.00424833  0.39584980  1
  Hf  Hf18  1  0.00057124  0.39503203  0.39714621  1
  Hf  Hf19  1  0.90263786  0.69441500  0.90137770  1
  Hf  Hf20  1  0.61380864  0.41715647  0.39346847  1
  Hf  Hf21  1  0.89439193  0.09933988  0.90054549  1
  Hf  Hf22  1  0.81494229  0.79103934  0.19954830  1
  Hf  Hf23  1  0.29846267  0.50279907  0.49103283  1
  Hf  Hf24  1  0.00463619  0.40337838  0.59870746  1
  Hf  Hf25  1  0.40259443  -0.00027355  0.79896937  1
  Hf  Hf26  1  -0.00015521  0.20479077  0.58889401  1
  Hf  Hf27  1  0.29291456  0.49985802  0.70025968  1
  Hf  Hf28  1  0.19812712  0.79566340  0.20448294  1
  Hf  Hf29  1  0.89657285  0.49694587  0.89352731  1
  Hf  Hf30  1  0.59712319  0.79746596  0.00006347  1
  Hf  Hf31  1  0.11337471  0.29725771  0.69486771  1
  Hf  Hf32  1  0.30342293  0.30506856  0.30795231  1
  Hf  Hf33  1  0.50455379  0.69957232  0.29713031  1
  Hf  Hf34  1  0.10296305  0.09743212  0.49970781  1
  Hf  Hf35  1  0.69377251  0.89809713  0.11221086  1
  Hf  Hf36  1  0.70943912  0.29591339  0.10004144  1
  Hf  Hf37  1  0.50339824  0.30118541  0.70744829  1
  Hf  Hf38  1  0.59466584  0.00865672  0.00038557  1
  Hf  Hf39  1  0.20287485  0.20673199  0.00414631  1
  Hf  Hf40  1  0.80929034  0.80240854  0.40387846  1
  Hf  Hf41  1  0.30214837  0.69992418  0.70724162  1
  Hf  Hf42  1  0.30398772  0.09948993  0.90149174  1
  Hf  Hf43  1  -0.00015600  0.79939940  0.58705649  1
  Hf  Hf44  1  0.60327205  0.60013729  0.59760268  1
  Hf  Hf45  1  0.01394661  0.40159389  0.80186602  1
  Hf  Hf46  1  0.50109515  0.30779266  0.48685444  1
  Hf  Hf47  1  0.01498979  0.59403526  0.78655882  1
  Hf  Hf48  1  0.29944548  0.10007327  0.50583661  1
  Hf  Hf49  1  0.90008606  0.09959751  0.10224694  1
  Zr  Zr50  1  0.10507807  0.50154966  0.48616523  1
  Zr  Zr51  1  0.79291934  0.60562329  0.59318975  1
  Zr  Zr52  1  -0.00712471  -0.01597360  0.40034862  1
  Zr  Zr53  1  0.49991763  0.90167262  0.11234382  1
  Zr  Zr54  1  0.60125702  0.41279336  0.60209624  1
  Zr  Zr55  1  0.89287988  0.09857068  0.70235677  1
  Zr  Zr56  1  0.39171731  0.40439568  0.80439594  1
  Zr  Zr57  1  0.49672767  0.30899117  0.09599452  1
  Zr  Zr58  1  0.50276831  0.90029219  0.50147125  1
  Zr  Zr59  1  0.00942118  0.39807419  -0.00477903  1
  Zr  Zr60  1  0.11005711  0.10090577  0.69645138  1
  Zr  Zr61  1  0.30123319  0.90510290  0.90453298  1
  Zr  Zr62  1  0.69293169  0.71459506  0.70699033  1
  Zr  Zr63  1  0.49213498  0.51320091  0.09193033  1
  Zr  Zr64  1  0.60936593  0.41211370  -0.00676952  1
  Zr  Zr65  1  0.89336471  0.30142607  0.70096085  1
  Zr  Zr66  1  0.80045641  0.80387704  0.80676723  1
  Zr  Zr67  1  0.60571100  0.40327132  0.20381370  1
  Zr  Zr68  1  0.60445546  0.19471645  0.59306929  1
  Zr  Zr69  1  0.40731887  0.19161339  0.19983754  1
  Zr  Zr70  1  0.29568484  0.09917188  0.29773957  1
  Zr  Zr71  1  0.69177333  0.69434102  0.10650475  1
  Zr  Zr72  1  0.00368152  0.80468000  0.80012382  1
  Zr  Zr73  1  0.59290689  0.58701916  0.80034477  1
  Zr  Zr74  1  0.78752978  0.59931750  -0.00103925  1
  Zr  Zr75  1  0.79657671  -0.00235929  0.40307152  1
  Zr  Zr76  1  0.89364499  0.50028532  0.10260120  1
  Zr  Zr77  1  0.00155528  0.61032715  0.59459672  1
  Zr  Zr78  1  0.59786999  0.19730630  0.00111861  1
  Zr  Zr79  1  0.19925498  0.40797352  0.19364301  1
  Zr  Zr80  1  0.40280877  0.20139365  0.59602100  1
  Zr  Zr81  1  0.18274988  0.60490314  0.61087299  1
  Zr  Zr82  1  0.19760368  -0.01458961  0.40034496  1
  Zr  Zr83  1  -0.00016657  0.60903520  0.20044287  1
  Zr  Zr84  1  0.68811618  0.90238527  0.88706356  1
  Zr  Zr85  1  0.49555761  0.30281051  0.89816823  1
  Zr  Zr86  1  0.01033582  0.19976216  0.80728649  1
  Zr  Zr87  1  0.10044723  0.91058052  0.10179917  1
  Zr  Zr88  1  0.89401698  0.29771943  0.10481534  1
  Zr  Zr89  1  0.19416178  0.20900879  0.40948661  1
  Zr  Zr90  1  0.90354449  0.09807662  0.29351319  1
  Zr  Zr91  1  0.70202014  0.30273214  0.49277998  1
  Zr  Zr92  1  -0.00113054  -0.00875622  0.59526240  1
  Zr  Zr93  1  0.49784968  0.69868008  0.49224381  1
  Zr  Zr94  1  0.87800185  0.29222149  0.89386745  1
  Zr  Zr95  1  0.79418512  0.59934093  0.79819589  1
  Zr  Zr96  1  0.00711674  0.20220738  -0.00201632  1
  Zr  Zr97  1  0.19712119  0.79858141  0.80078420  1
  Zr  Zr98  1  0.10535814  0.69035160  0.91001801  1
  Zr  Zr99  1  0.20453574  0.79934405  0.00708629  1
  Ta  Ta100  1  0.50433909  0.09718126  0.70211387  1
  Ta  Ta101  1  0.10320695  0.09763501  0.10650368  1
  Ta  Ta102  1  0.10884906  0.08594698  0.90856739  1
  Ta  Ta103  1  0.90050511  0.70508093  0.69699486  1
  Ta  Ta104  1  0.69589773  0.08878125  0.69883020  1
  Ta  Ta105  1  0.00398490  -0.00565727  0.80277036  1
  Ta  Ta106  1  0.19161540  0.61149711  0.38535567  1
  Ta  Ta107  1  0.80085988  0.80281199  0.59239385  1
  Ta  Ta108  1  0.40769230  0.00874929  0.00813644  1
  Ta  Ta109  1  0.20067153  0.60047922  0.20028750  1
  Ta  Ta110  1  0.40111547  -0.00255342  0.60234127  1
  Ta  Ta111  1  0.89227606  0.29998864  0.49337256  1
  Ta  Ta112  1  -0.00600806  0.20076967  0.40035663  1
  Ta  Ta113  1  0.30286017  0.10135758  0.70013976  1
  Ta  Ta114  1  0.89613814  0.49780801  0.69826857  1
  Ta  Ta115  1  0.30549089  0.89821361  0.69779291  1
  Ta  Ta116  1  0.49725652  0.69258221  0.90449990  1
  Ta  Ta117  1  0.79791331  0.40611450  0.59410146  1
  Ta  Ta118  1  0.49754745  0.69388751  0.10343343  1
  Ta  Ta119  1  0.41241196  0.19579920  0.39800562  1
  Ta  Ta120  1  0.61274292  0.80198788  0.40602239  1
  Ta  Ta121  1  0.89585259  0.50214321  0.29748107  1
  Ta  Ta122  1  0.60210661  0.19691261  0.80227994  1
  Ta  Ta123  1  0.09643979  0.09911678  0.29264164  1
  Ta  Ta124  1  0.39433280  0.20232621  0.00433524  1
  Ta  Ta125  1  0.70557931  0.10557168  0.89501390  1
  Ta  Ta126  1  -0.00313830  0.79930925  0.20582875  1
  Ta  Ta127  1  0.89320109  0.30203386  0.29870249  1
  Ta  Ta128  1  0.79633204  0.19358705  0.39922143  1
  Ta  Ta129  1  0.89162602  0.90190463  0.69594540  1
  Ta  Ta130  1  0.30515763  0.89311121  0.50223707  1
  Ta  Ta131  1  0.00057503  0.40319262  0.20027098  1
  Ta  Ta132  1  0.70670671  0.09957187  0.10178470  1
  Ta  Ta133  1  0.40313449  0.79847008  0.60436095  1
  Ta  Ta134  1  0.10204018  0.30078570  0.10508040  1
  Ta  Ta135  1  0.79052346  0.40056184  -0.00816033  1
  Ta  Ta136  1  0.69533090  0.89635486  0.29386164  1
  Ta  Ta137  1  0.20484396  -0.01050010  0.60067047  1
  Ta  Ta138  1  0.60794899  0.00471070  0.39909004  1
  Ta  Ta139  1  0.80233780  0.79945150  0.00477084  1
  Ta  Ta140  1  0.79552202  0.19331873  0.59291458  1
  Ta  Ta141  1  0.60397466  0.18797189  0.38992560  1
  Ta  Ta142  1  0.30238463  0.68834811  0.09681563  1
  Ta  Ta143  1  0.29787969  0.09290159  0.10205647  1
  Ta  Ta144  1  -0.00176364  0.79243660  0.39581282  1
  Ta  Ta145  1  0.20006708  -0.00406287  0.79551327  1
  Ta  Ta146  1  0.39323848  0.79412154  0.19835078  1
  Ta  Ta147  1  0.60474658  0.79818461  0.59524716  1
  Ta  Ta148  1  0.80133117  0.60681375  0.39845316  1
  Ta  Ta149  1  0.20019343  0.39170608  0.58973545  1
  Ti  Ti150  1  0.79866880  0.40771679  0.39481458  1
  Ti  Ti151  1  0.60391250  0.59132600  0.20665446  1
  Ti  Ti152  1  0.10368482  0.90702837  0.90840163  1
  Ti  Ti153  1  0.19969943  0.40007102  0.81278689  1
  Ti  Ti154  1  0.40228575  0.59398510  0.80152299  1
  Ti  Ti155  1  0.79944513  -0.00289083  0.79774847  1
  Ti  Ti156  1  0.20305642  0.20365401  0.19601499  1
  Ti  Ti157  1  0.80013818  -0.00461818  0.20769434  1
  Ti  Ti158  1  0.70921493  0.30280204  0.29942605  1
  Ti  Ti159  1  0.49406910  0.50131489  0.90608100  1
  Ti  Ti160  1  0.30181111  0.30541469  0.49323924  1
  Ti  Ti161  1  0.10346539  0.69517937  0.09922699  1
  Ti  Ti162  1  0.20914328  0.39696178  0.00064362  1
  Ti  Ti163  1  0.79300913  0.19301620  0.20945101  1
  Ti  Ti164  1  0.49667144  0.10579083  0.89252656  1
  Ti  Ti165  1  0.70371990  0.48974458  0.70854905  1
  Ti  Ti166  1  0.30631710  0.89834331  0.29515877  1
  Ti  Ti167  1  0.29868596  0.50618984  0.91524618  1
  Ti  Ti168  1  0.69642931  0.90733999  0.69660689  1
  Ti  Ti169  1  0.09165355  0.90069947  0.29449283  1
  Ti  Ti170  1  0.30176295  0.29376101  0.69954895  1
  Ti  Ti171  1  0.50822176  0.09326571  0.50208625  1
  Ti  Ti172  1  0.38651197  0.59952438  0.20166986  1
  Ti  Ti173  1  0.29749554  0.70499968  0.29882297  1
  Ti  Ti174  1  0.40709413  0.60033054  0.61092321  1
  Ti  Ti175  1  0.09957458  0.90157671  0.69952012  1
  Ti  Ti176  1  0.68747543  0.69730653  0.90103806  1
  Ti  Ti177  1  0.18973584  0.79917993  0.39912046  1
  Ti  Ti178  1  0.00255608  0.59497237  0.00164728  1
  Ti  Ti179  1  0.29227689  0.49705173  0.30878340  1
  Ti  Ti180  1  0.50269477  0.89974839  0.89593432  1
  Ti  Ti181  1  0.89236356  0.09633233  0.50232515  1
  Ti  Ti182  1  0.50038602  0.70356448  0.70695844  1
  Ti  Ti183  1  0.30486300  0.68733859  0.90383570  1
  Ti  Ti184  1  0.90410304  0.90744850  0.10888044  1
  Ti  Ti185  1  -0.00042476  -0.00034074  -0.00001646  1
  Ti  Ti186  1  0.90240305  0.90196161  0.90072214  1
  Ti  Ti187  1  0.39689175  0.80080724  0.39770522  1
  Ti  Ti188  1  0.09596916  0.50469218  0.30014489  1
  Ti  Ti189  1  0.00325445  0.20331764  0.20154522  1
  Ti  Ti190  1  0.70638052  0.50085892  0.11078356  1
  Ti  Ti191  1  0.40298461  0.79758031  0.80488823  1
  Ti  Ti192  1  0.69934302  0.90944965  0.51167564  1
  Ti  Ti193  1  0.10725750  0.50446118  0.09152622  1
  Ti  Ti194  1  0.20033574  -0.00124223  0.20323680  1
  Ti  Ti195  1  0.49730571  0.30752216  0.30576019  1
  Ti  Ti196  1  0.30320120  0.90908816  0.10617301  1
  Ti  Ti197  1  0.38725808  0.60768186  0.38987962  1
  Ti  Ti198  1  0.59737298  0.01587073  0.20774623  1
  Ti  Ti199  1  0.19378497  0.59062031  0.80520975  1
  Mo  Mo200  1  0.49301989  0.50511592  0.70199837  1
  Mo  Mo201  1  0.39682745  0.60207639  -0.00526848  1
  Mo  Mo202  1  0.71358202  0.50815757  0.29520816  1
  Mo  Mo203  1  0.59826441  0.00840080  0.80180192  1
  Mo  Mo204  1  0.38513336  0.40280822  -0.00159439  1
  Mo  Mo205  1  0.11362005  0.30663614  0.90523068  1
  Mo  Mo206  1  0.10702407  0.89428695  0.49404956  1
  Mo  Mo207  1  0.79711723  0.40217345  0.79751235  1
  Mo  Mo208  1  0.69928670  0.70506891  0.49663567  1
  Mo  Mo209  1  0.40165638  0.19555429  0.79872387  1
  Mo  Mo210  1  0.90101202  0.89605209  0.29496347  1
  Mo  Mo211  1  0.20224990  0.59491225  0.00541541  1
  Mo  Mo212  1  0.00259157  -0.00078199  0.19859057  1
  Mo  Mo213  1  0.10930785  0.48648649  0.70072528  1
  Mo  Mo214  1  0.49634326  0.09868008  0.10398381  1
  Mo  Mo215  1  0.09932791  0.70215903  0.47985225  1
  Mo  Mo216  1  0.11232040  0.49822159  0.90413824  1
  Mo  Mo217  1  0.69952531  0.49321144  0.89061021  1
  Mo  Mo218  1  0.69615248  0.29810136  0.89432231  1
  Mo  Mo219  1  0.90367889  0.69565106  0.30357121  1
  Mo  Mo220  1  0.61365117  0.60317610  0.40206269  1
  Mo  Mo221  1  0.70232019  0.09467072  0.29554028  1
  Mo  Mo222  1  0.29721589  0.29477570  0.10040510  1
  Mo  Mo223  1  0.39650387  0.39942198  0.39524589  1
  Mo  Mo224  1  0.90260421  0.69874602  0.09549790  1
  Mo  Mo225  1  0.29523201  0.50686870  0.09501043  1
  Mo  Mo226  1  0.39420361  -0.00631044  0.20039407  1
  Mo  Mo227  1  -0.00228742  0.60514113  0.39095338  1
  Mo  Mo228  1  0.59419698  0.79223300  0.20578697  1
  Mo  Mo229  1  0.59487009  0.60132894  -0.00259382  1
  Mo  Mo230  1  0.20967005  0.20584232  0.60033661  1
  Mo  Mo231  1  0.79557002  -0.00340574  0.60227082  1
  Mo  Mo232  1  0.58802866  0.79401321  0.80262447  1
  Mo  Mo233  1  0.20500742  0.00459580  0.00515816  1
  Mo  Mo234  1  0.60141271  -0.00175341  0.59984354  1
  Mo  Mo235  1  0.80232916  0.39987898  0.20572910  1
  Mo  Mo236  1  0.70023639  0.09807743  0.49880394  1
  Mo  Mo237  1  0.09557049  0.29925683  0.49840326  1
  Mo  Mo238  1  0.89511265  0.89626277  0.50407594  1
  Mo  Mo239  1  0.79256520  0.19555724  0.00067296  1
  Mo  Mo240  1  0.19942022  0.40677344  0.39804685  1
  Mo  Mo241  1  0.60170559  0.39995637  0.80502816  1
  Mo  Mo242  1  0.30463404  0.30439089  0.90752407  1
  Mo  Mo243  1  0.10077882  0.70516304  0.29430226  1
  Mo  Mo244  1  0.50317192  0.09256213  0.30347020  1
  Mo  Mo245  1  0.90010008  0.70088168  0.49640689  1
  Mo  Mo246  1  0.80216487  0.59758984  0.20340799  1
  Mo  Mo247  1  0.70510022  0.50784192  0.49125041  1
  Mo  Mo248  1  0.09784967  0.70929077  0.71202647  1
  Mo  Mo249  1  0.78952809  0.19163584  0.79367122  1
