# generated using pymatgen
data_HfZrTaTiMo
_symmetry_space_group_name_H-M   'P 1'
_cell_length_a   16.88770805
_cell_length_b   16.89826766
_cell_length_c   16.87852274
_cell_angle_alpha   89.97172605
_cell_angle_beta   89.98221829
_cell_angle_gamma   90.00169834
_symmetry_Int_Tables_number   1
_chemical_formula_structural   HfZrTaTiMo
_chemical_formula_sum   'Hf50 Zr50 Ta50 Ti50 Mo50'
_cell_volume   4816.67403050
_cell_formula_units_Z   50
loop_
 _symmetry_equiv_pos_site_id
 _symmetry_equiv_pos_as_xyz
  1  'x, y, z'
loop_
 _atom_site_type_symbol
 _atom_site_label
 _atom_site_symmetry_multiplicity
 _atom_site_fract_x
 _atom_site_fract_y
 _atom_site_fract_z
 _atom_site_occupancy
  Hf  Hf0  1  0.60254616  0.00922649  -0.00922178  1
  Hf  Hf1  1  0.10799247  0.29988988  0.88060883  1
  Hf  Hf2  1  0.49952222  0.30648663  0.89773136  1
  Hf  Hf3  1  0.60434479  0.79513977  0.80900627  1
  Hf  Hf4  1  0.79836291  0.39604897  -0.00715228  1
  Hf  Hf5  1  0.89356413  0.91462925  0.09770384  1
  Hf  Hf6  1  0.89985931  0.49857842  0.29866941  1
  Hf  Hf7  1  -0.00560950  0.39713784  0.41018302  1
  Hf  Hf8  1  0.29962115  0.11229516  0.49296687  1
  Hf  Hf9  1  0.80504785  0.78451337  0.00573593  1
  Hf  Hf10  1  0.70139288  0.90127729  0.50809887  1
  Hf  Hf11  1  0.18920267  0.79336157  0.00350056  1
  Hf  Hf12  1  0.60629534  0.79392959  -0.00387872  1
  Hf  Hf13  1  0.60025771  0.79484236  0.40209568  1
  Hf  Hf14  1  0.58817442  0.20186637  0.39469417  1
  Hf  Hf15  1  0.79857032  0.20756089  0.19433273  1
  Hf  Hf16  1  0.69638133  0.10275974  0.50313287  1
  Hf  Hf17  1  0.20491576  0.39453768  0.41947397  1
  Hf  Hf18  1  0.40551568  0.00625988  -0.00645086  1
  Hf  Hf19  1  0.90095254  0.30783007  0.29394891  1
  Hf  Hf20  1  0.19525253  0.79215049  0.80876737  1
  Hf  Hf21  1  0.19770370  0.59881763  0.19412675  1
  Hf  Hf22  1  0.77561378  0.40238773  0.20017098  1
  Hf  Hf23  1  0.50618074  0.68440976  0.30120934  1
  Hf  Hf24  1  0.40566842  0.00602199  0.80395223  1
  Hf  Hf25  1  0.50005996  0.69600152  0.69947512  1
  Hf  Hf26  1  0.72147398  0.09625427  0.09040948  1
  Hf  Hf27  1  0.70085340  0.29331004  0.88381610  1
  Hf  Hf28  1  0.90342073  0.30320605  0.09991078  1
  Hf  Hf29  1  0.19817208  0.59972642  0.60585122  1
  Hf  Hf30  1  0.19890504  0.00110384  0.60256233  1
  Hf  Hf31  1  0.09429341  0.50559164  0.89822771  1
  Hf  Hf32  1  0.80666414  0.39832271  0.59968054  1
  Hf  Hf33  1  0.31225349  0.69623287  0.90850796  1
  Hf  Hf34  1  0.20661211  -0.00453179  -0.00680822  1
  Hf  Hf35  1  0.79839114  0.00203684  0.61292690  1
  Hf  Hf36  1  0.39330363  0.39836903  0.59544060  1
  Hf  Hf37  1  0.19843893  -0.00280856  0.20029344  1
  Hf  Hf38  1  0.39785977  0.59005088  0.19685452  1
  Hf  Hf39  1  0.90499706  0.49694504  0.09857815  1
  Hf  Hf40  1  0.30574312  0.89429323  0.89858504  1
  Hf  Hf41  1  0.60565304  0.79839026  0.20105090  1
  Hf  Hf42  1  0.71097779  0.90706057  0.09919093  1
  Hf  Hf43  1  0.30841266  0.70034057  0.09643259  1
  Hf  Hf44  1  0.09559179  0.89608511  0.71266497  1
  Hf  Hf45  1  0.89483470  0.69472294  0.30065067  1
  Hf  Hf46  1  0.09955750  0.50256942  0.50498818  1
  Hf  Hf47  1  0.39985837  -0.00122034  0.60013219  1
  Hf  Hf48  1  0.60262443  0.00663170  0.20548944  1
  Hf  Hf49  1  0.60335885  0.39998036  0.39336791  1
  Zr  Zr50  1  0.10145956  0.49658498  0.30351301  1
  Zr  Zr51  1  0.00012243  0.20270196  -0.00558967  1
  Zr  Zr52  1  0.19751453  0.20546401  0.19452499  1
  Zr  Zr53  1  0.09514496  0.89923686  0.50056468  1
  Zr  Zr54  1  0.59815204  0.60274429  0.58776385  1
  Zr  Zr55  1  0.40247709  0.00238392  0.20342769  1
  Zr  Zr56  1  0.29728597  0.29481219  0.30721475  1
  Zr  Zr57  1  0.60507760  0.20955253  0.19785468  1
  Zr  Zr58  1  0.11194152  0.09901956  0.88815585  1
  Zr  Zr59  1  0.40525776  0.59812324  0.80575451  1
  Zr  Zr60  1  0.29429571  0.69700341  0.30206323  1
  Zr  Zr61  1  0.20379221  0.59522788  0.80298933  1
  Zr  Zr62  1  0.69391597  0.12137039  0.70717372  1
  Zr  Zr63  1  0.08478399  0.90233662  0.08877036  1
  Zr  Zr64  1  0.89238682  0.70438389  0.50414908  1
  Zr  Zr65  1  0.20727804  0.40132089  -0.00145487  1
  Zr  Zr66  1  0.09370989  0.89735073  0.29947836  1
  Zr  Zr67  1  0.50596473  0.49183399  0.69954875  1
  Zr  Zr68  1  0.79723197  0.78536920  0.81252872  1
  Zr  Zr69  1  0.60034774  0.79788152  0.59937750  1
  Zr  Zr70  1  0.70833030  0.10325829  0.30352828  1
  Zr  Zr71  1  0.90433074  0.89750691  0.90392991  1
  Zr  Zr72  1  0.69511281  0.49296340  0.69909344  1
  Zr  Zr73  1  -0.00039608  0.59747429  0.60456371  1
  Zr  Zr74  1  0.80976537  0.21239894  0.60449658  1
  Zr  Zr75  1  0.30017498  0.10772499  0.70655280  1
  Zr  Zr76  1  -0.00357659  0.01134561  0.60987431  1
  Zr  Zr77  1  0.29678090  0.89281782  0.70313053  1
  Zr  Zr78  1  0.09975215  0.10647787  0.49703240  1
  Zr  Zr79  1  0.00306981  0.60590835  0.19343151  1
  Zr  Zr80  1  0.89575905  0.88468377  0.70439680  1
  Zr  Zr81  1  0.28870407  0.69752096  0.49676588  1
  Zr  Zr82  1  0.89505588  0.10325348  0.49569872  1
  Zr  Zr83  1  -0.00987464  0.01064211  0.80206354  1
  Zr  Zr84  1  0.68685757  0.30003444  0.51226972  1
  Zr  Zr85  1  0.29820343  0.89311291  0.29972300  1
  Zr  Zr86  1  0.49717187  0.10250725  0.50188876  1
  Zr  Zr87  1  -0.00652888  0.20164946  0.39690797  1
  Zr  Zr88  1  0.40091403  0.39405241  0.41020159  1
  Zr  Zr89  1  0.50349582  0.90132643  0.70201184  1
  Zr  Zr90  1  -0.00496667  0.79349888  0.19064523  1
  Zr  Zr91  1  0.50200169  0.90077744  0.09687909  1
  Zr  Zr92  1  0.30507988  0.10470225  0.09540030  1
  Zr  Zr93  1  0.39497787  0.40289807  0.80658262  1
  Zr  Zr94  1  0.90011277  0.89787101  0.50207947  1
  Zr  Zr95  1  0.00083531  0.39690580  -0.01029475  1
  Zr  Zr96  1  0.40557745  0.79427030  0.40294450  1
  Zr  Zr97  1  0.60830705  0.20195928  -0.00148904  1
  Zr  Zr98  1  0.79150037  0.80330843  0.38806378  1
  Zr  Zr99  1  0.09972152  0.10120977  0.09311818  1
  Ta  Ta100  1  0.10370537  0.69771300  0.31430935  1
  Ta  Ta101  1  0.69866402  0.68622133  0.10106137  1
  Ta  Ta102  1  0.10094946  0.30216829  0.30097213  1
  Ta  Ta103  1  0.40072642  0.79405483  0.59395051  1
  Ta  Ta104  1  0.79451201  0.59496956  0.19590666  1
  Ta  Ta105  1  0.70586835  0.69402641  0.70108074  1
  Ta  Ta106  1  0.59971016  -0.00429613  0.39598616  1
  Ta  Ta107  1  0.49515371  0.30500638  0.09786540  1
  Ta  Ta108  1  -0.00722506  0.01628461  0.20208179  1
  Ta  Ta109  1  0.49906197  0.11076791  0.09772846  1
  Ta  Ta110  1  0.60501163  0.00936140  0.80399905  1
  Ta  Ta111  1  0.19803290  0.21172020  0.60397289  1
  Ta  Ta112  1  0.41163150  0.79459906  0.19703024  1
  Ta  Ta113  1  0.39690272  0.40177011  0.19908118  1
  Ta  Ta114  1  0.69689618  0.68725667  0.29694578  1
  Ta  Ta115  1  0.49993745  0.49616432  0.29787889  1
  Ta  Ta116  1  0.00292603  0.20055962  0.19839848  1
  Ta  Ta117  1  0.79570636  -0.00643430  0.39218652  1
  Ta  Ta118  1  0.19671398  0.39920683  0.61084004  1
  Ta  Ta119  1  0.20163789  0.00153384  0.39822259  1
  Ta  Ta120  1  0.79352638  0.39998129  0.40006555  1
  Ta  Ta121  1  0.40100120  0.58880978  0.40776629  1
  Ta  Ta122  1  0.09775807  0.49528919  0.09764344  1
  Ta  Ta123  1  0.69773296  0.49269624  0.89470517  1
  Ta  Ta124  1  0.50058358  0.11363669  0.70217886  1
  Ta  Ta125  1  0.19874776  0.59753527  0.00625961  1
  Ta  Ta126  1  0.60185016  0.59959049  0.80834496  1
  Ta  Ta127  1  0.80538341  0.59121601  -0.00325344  1
  Ta  Ta128  1  0.29885910  0.29760381  0.70859202  1
  Ta  Ta129  1  0.29975067  0.10569352  0.30811932  1
  Ta  Ta130  1  0.09011482  0.29884264  0.51436951  1
  Ta  Ta131  1  0.71181109  0.91301439  0.90010544  1
  Ta  Ta132  1  0.20621732  0.21237638  -0.00539122  1
  Ta  Ta133  1  0.50853261  0.68306828  0.09324483  1
  Ta  Ta134  1  0.78881886  0.58976498  0.39925539  1
  Ta  Ta135  1  0.49895750  0.49339121  0.09509618  1
  Ta  Ta136  1  0.30949695  0.30487048  0.09542299  1
  Ta  Ta137  1  0.79930998  0.59738830  0.60094624  1
  Ta  Ta138  1  0.49883399  0.90333495  0.49867881  1
  Ta  Ta139  1  0.39730996  0.59770482  0.59126836  1
  Ta  Ta140  1  0.09190782  0.69969973  0.70874980  1
  Ta  Ta141  1  0.89486424  0.50104195  0.49942187  1
  Ta  Ta142  1  0.29964080  0.90040237  0.49811209  1
  Ta  Ta143  1  0.49552364  0.30313778  0.29585822  1
  Ta  Ta144  1  0.80683906  0.39723243  0.79207720  1
  Ta  Ta145  1  0.80367669  0.59105337  0.80349489  1
  Ta  Ta146  1  0.89839510  0.69607371  0.70465655  1
  Ta  Ta147  1  0.40480037  0.20161259  0.20293907  1
  Ta  Ta148  1  0.50182632  0.90026423  0.30350576  1
  Ta  Ta149  1  0.29761416  0.49856921  0.30682717  1
  Ti  Ti150  1  0.59894730  0.00308980  0.60709837  1
  Ti  Ti151  1  0.20491382  0.40537491  0.79563897  1
  Ti  Ti152  1  -0.00496465  0.00243036  0.39052093  1
  Ti  Ti153  1  0.70427697  0.69610141  0.49902574  1
  Ti  Ti154  1  -0.01371868  0.01916480  -0.00513870  1
  Ti  Ti155  1  -0.00609594  0.59462068  0.79900375  1
  Ti  Ti156  1  0.00080437  0.20175712  0.79351207  1
  Ti  Ti157  1  0.60512250  0.58379739  0.20034078  1
  Ti  Ti158  1  0.69778717  0.67948667  0.90843056  1
  Ti  Ti159  1  0.50614696  0.89931882  0.89763861  1
  Ti  Ti160  1  0.50651873  0.49775074  0.49722352  1
  Ti  Ti161  1  0.00592152  0.79040099  0.60053480  1
  Ti  Ti162  1  0.70401910  0.89920649  0.71044951  1
  Ti  Ti163  1  0.08601030  0.69469137  0.90555464  1
  Ti  Ti164  1  0.89960719  0.29593693  0.88676019  1
  Ti  Ti165  1  0.30279296  0.70241179  0.70054250  1
  Ti  Ti166  1  0.30577703  0.89087417  0.09853232  1
  Ti  Ti167  1  0.79816376  0.21700278  0.40034778  1
  Ti  Ti168  1  0.19365190  0.79459246  0.59967660  1
  Ti  Ti169  1  0.50879598  0.50216120  0.91247711  1
  Ti  Ti170  1  0.89402067  0.11281192  0.71039454  1
  Ti  Ti171  1  0.40090117  0.21418148  0.59486672  1
  Ti  Ti172  1  0.00005275  0.60581400  0.40722856  1
  Ti  Ti173  1  0.00178294  0.40716613  0.78924534  1
  Ti  Ti174  1  0.69692919  0.49739324  0.50113602  1
  Ti  Ti175  1  0.59996636  0.39782936  0.19740599  1
  Ti  Ti176  1  0.50345075  0.11731026  0.89061316  1
  Ti  Ti177  1  0.90290122  0.49897796  0.69833729  1
  Ti  Ti178  1  0.89271138  0.10205537  0.29648010  1
  Ti  Ti179  1  0.30106754  0.50025303  0.69747158  1
  Ti  Ti180  1  0.91099486  0.68727087  0.90613211  1
  Ti  Ti181  1  0.79673528  0.79398848  0.19837023  1
  Ti  Ti182  1  0.69103978  0.50304352  0.08711585  1
  Ti  Ti183  1  0.89494009  0.90388384  0.29193728  1
  Ti  Ti184  1  0.41609007  0.79542657  -0.00100183  1
  Ti  Ti185  1  0.10768928  0.11126070  0.70575823  1
  Ti  Ti186  1  0.31190937  0.50241013  0.91855667  1
  Ti  Ti187  1  0.19083521  0.79329682  0.19236541  1
  Ti  Ti188  1  0.40264533  0.00247704  0.39576689  1
  Ti  Ti189  1  0.20323303  0.40102253  0.19422361  1
  Ti  Ti190  1  0.29829203  0.11417949  0.88911399  1
  Ti  Ti191  1  0.19206895  0.80149384  0.40749451  1
  Ti  Ti192  1  0.10562155  0.10529691  0.30470662  1
  Ti  Ti193  1  0.50883950  0.29823585  0.70116751  1
  Ti  Ti194  1  -0.00107276  0.79587364  0.39984008  1
  Ti  Ti195  1  0.60509024  0.39550078  0.00238059  1
  Ti  Ti196  1  0.40885997  0.79515479  0.80324521  1
  Ti  Ti197  1  0.08958045  0.89750858  0.89939430  1
  Ti  Ti198  1  0.92125396  0.30279275  0.69362165  1
  Ti  Ti199  1  0.39719664  0.20662565  -0.00707454  1
  Mo  Mo200  1  0.60147312  0.59349400  0.39964644  1
  Mo  Mo201  1  0.29630878  0.50227228  0.50504501  1
  Mo  Mo202  1  0.10485414  0.30418648  0.10607619  1
  Mo  Mo203  1  0.40367357  0.40248338  0.00408816  1
  Mo  Mo204  1  0.09630529  0.69336521  0.08946399  1
  Mo  Mo205  1  0.68304788  0.30925540  0.70380534  1
  Mo  Mo206  1  0.89934717  0.30720015  0.50062382  1
  Mo  Mo207  1  0.81044192  0.21283554  0.79355092  1
  Mo  Mo208  1  0.71101169  0.10292638  0.89252174  1
  Mo  Mo209  1  0.20044555  0.59389765  0.40110440  1
  Mo  Mo210  1  0.19190826  0.20179399  0.40430364  1
  Mo  Mo211  1  0.79491070  0.01037008  0.80161978  1
  Mo  Mo212  1  0.30214894  0.29841571  0.89864058  1
  Mo  Mo213  1  0.40010839  0.20093059  0.39459661  1
  Mo  Mo214  1  0.49484224  0.29964612  0.50062873  1
  Mo  Mo215  1  0.00512413  0.20472090  0.61102774  1
  Mo  Mo216  1  0.00061624  0.78446633  0.80633566  1
  Mo  Mo217  1  0.29382347  0.29504756  0.51193378  1
  Mo  Mo218  1  0.20048988  -0.00208803  0.80366802  1
  Mo  Mo219  1  -0.00032053  0.40280049  0.60424130  1
  Mo  Mo220  1  0.60382783  0.59144078  -0.00070613  1
  Mo  Mo221  1  -0.00080362  0.59707712  -0.00172667  1
  Mo  Mo222  1  0.90258529  0.10620402  0.09898057  1
  Mo  Mo223  1  0.80804732  0.00176463  0.20976519  1
  Mo  Mo224  1  0.40630678  0.59307249  0.00455280  1
  Mo  Mo225  1  0.79373183  0.79030119  0.61077002  1
  Mo  Mo226  1  0.49424306  0.69447728  0.49873468  1
  Mo  Mo227  1  0.59411841  0.20450842  0.79831185  1
  Mo  Mo228  1  0.80753766  0.01268041  -0.01385083  1
  Mo  Mo229  1  0.89707015  0.49727758  0.88924923  1
  Mo  Mo230  1  0.59921414  0.40202464  0.80150690  1
  Mo  Mo231  1  0.09879134  0.49826551  0.70614930  1
  Mo  Mo232  1  0.40238463  0.20547227  0.80074566  1
  Mo  Mo233  1  0.50487246  0.69773601  0.90473345  1
  Mo  Mo234  1  0.58569328  0.20664584  0.60204095  1
  Mo  Mo235  1  0.89176266  0.69055774  0.09780202  1
  Mo  Mo236  1  -0.00334121  0.78484845  -0.00282215  1
  Mo  Mo237  1  0.69326390  0.50215700  0.29899584  1
  Mo  Mo238  1  0.09652513  0.70258699  0.49881752  1
  Mo  Mo239  1  0.88898897  0.11439712  0.89529399  1
  Mo  Mo240  1  0.80672687  0.20367867  -0.00850656  1
  Mo  Mo241  1  0.59125635  0.39772847  0.59503263  1
  Mo  Mo242  1  0.01659972  0.39425121  0.19749486  1
  Mo  Mo243  1  0.29860154  0.49689367  0.10400115  1
  Mo  Mo244  1  0.69705976  0.30413777  0.30314011  1
  Mo  Mo245  1  0.69678160  0.30434958  0.08998701  1
  Mo  Mo246  1  0.10114473  0.30558768  0.70080230  1
  Mo  Mo247  1  0.69843078  0.89794754  0.29728742  1
  Mo  Mo248  1  0.49248102  0.09883042  0.29928230  1
  Mo  Mo249  1  0.20519329  0.20743646  0.79720489  1
