# generated using pymatgen
data_HfZrTaTiMo
_symmetry_space_group_name_H-M   'P 1'
_cell_length_a   16.88920522
_cell_length_b   16.88744952
_cell_length_c   16.89008253
_cell_angle_alpha   89.93895077
_cell_angle_beta   89.98698819
_cell_angle_gamma   90.00788849
_symmetry_Int_Tables_number   1
_chemical_formula_structural   HfZrTaTiMo
_chemical_formula_sum   'Hf50 Zr50 Ta50 Ti50 Mo50'
_cell_volume   4817.31212938
_cell_formula_units_Z   50
loop_
 _symmetry_equiv_pos_site_id
 _symmetry_equiv_pos_as_xyz
  1  'x, y, z'
loop_
 _atom_site_type_symbol
 _atom_site_label
 _atom_site_symmetry_multiplicity
 _atom_site_fract_x
 _atom_site_fract_y
 _atom_site_fract_z
 _atom_site_occupancy
  Hf  Hf0  1  0.30269672  0.29763550  0.09944760  1
  Hf  Hf1  1  -0.00314640  0.00575024  0.40119400  1
  Hf  Hf2  1  0.59230883  0.20483707  -0.00325872  1
  Hf  Hf3  1  0.39817612  0.60829643  0.59773840  1
  Hf  Hf4  1  0.89903202  0.69900971  0.90269865  1
  Hf  Hf5  1  0.80030135  0.40347240  -0.00027801  1
  Hf  Hf6  1  0.79721385  0.00224157  0.39988327  1
  Hf  Hf7  1  0.89592478  0.10035636  0.28854884  1
  Hf  Hf8  1  0.80244713  0.40546019  0.18998324  1
  Hf  Hf9  1  0.20184188  -0.00107384  0.19953614  1
  Hf  Hf10  1  0.60888016  0.39731236  0.60572992  1
  Hf  Hf11  1  0.39923905  0.79336379  0.39130666  1
  Hf  Hf12  1  0.00825646  0.79905446  0.00623817  1
  Hf  Hf13  1  0.02344782  0.61360869  0.19911764  1
  Hf  Hf14  1  0.10280485  0.29388426  0.70368639  1
  Hf  Hf15  1  0.58772041  0.79567800  0.20503972  1
  Hf  Hf16  1  0.19701409  0.79107189  0.20556583  1
  Hf  Hf17  1  0.29460524  0.89788596  0.70478534  1
  Hf  Hf18  1  0.20386265  0.60011970  0.20241085  1
  Hf  Hf19  1  0.90219092  0.50061904  0.29606895  1
  Hf  Hf20  1  0.90366116  0.70305184  0.70649579  1
  Hf  Hf21  1  0.00569051  0.59407018  0.79948762  1
  Hf  Hf22  1  -0.00110734  0.41139630  0.00261043  1
  Hf  Hf23  1  0.69749403  0.89657470  0.70635533  1
  Hf  Hf24  1  0.69829157  0.30676598  0.29190515  1
  Hf  Hf25  1  0.29913425  0.89913475  0.90542048  1
  Hf  Hf26  1  0.09992223  0.48322054  0.30981033  1
  Hf  Hf27  1  0.60174668  0.59622638  0.60606295  1
  Hf  Hf28  1  0.10235777  0.70324324  0.50040017  1
  Hf  Hf29  1  0.09409282  0.29228655  0.90443687  1
  Hf  Hf30  1  0.29300915  0.09300837  0.71263492  1
  Hf  Hf31  1  0.50215094  0.89728127  0.49941691  1
  Hf  Hf32  1  0.30827984  0.09342969  0.09451333  1
  Hf  Hf33  1  0.80143166  0.20835060  0.40032295  1
  Hf  Hf34  1  0.69557354  0.30210359  0.09418765  1
  Hf  Hf35  1  -0.00398802  0.40042956  0.80270543  1
  Hf  Hf36  1  0.59781545  0.38790420  0.80380568  1
  Hf  Hf37  1  0.21048075  0.60543264  0.39419060  1
  Hf  Hf38  1  0.00520874  0.00485003  0.60333493  1
  Hf  Hf39  1  0.48819936  0.90314722  0.09804170  1
  Hf  Hf40  1  0.10152489  0.71290887  0.88951408  1
  Hf  Hf41  1  0.39816337  0.20006473  0.61013214  1
  Hf  Hf42  1  0.40636321  0.19642401  0.20686889  1
  Hf  Hf43  1  0.40106824  -0.00533307  0.38713187  1
  Hf  Hf44  1  -0.00376010  0.20934168  0.39286489  1
  Hf  Hf45  1  0.49838034  0.49480386  0.70448321  1
  Hf  Hf46  1  0.00019805  0.00266793  -0.00253342  1
  Hf  Hf47  1  0.60437098  0.19597903  0.38821061  1
  Hf  Hf48  1  0.10037590  0.49357786  0.49838593  1
  Hf  Hf49  1  0.30876062  0.70900914  0.09543935  1
  Zr  Zr50  1  0.89580849  0.90209004  0.28272563  1
  Zr  Zr51  1  0.30855788  0.50579139  0.09764323  1
  Zr  Zr52  1  0.50719956  0.09777371  0.50145056  1
  Zr  Zr53  1  0.10722829  0.90066819  0.50014082  1
  Zr  Zr54  1  0.89767917  0.69674032  0.50441034  1
  Zr  Zr55  1  0.59619380  0.79557787  0.38932343  1
  Zr  Zr56  1  0.69566038  0.70255365  0.70613767  1
  Zr  Zr57  1  0.79136769  0.58889567  0.00481269  1
  Zr  Zr58  1  0.80055815  0.40034777  0.80068577  1
  Zr  Zr59  1  0.59852887  0.00674114  0.62096744  1
  Zr  Zr60  1  0.89435960  0.69888150  0.28740260  1
  Zr  Zr61  1  0.69968973  0.70405988  0.90332262  1
  Zr  Zr62  1  0.49876034  0.30684260  0.09768315  1
  Zr  Zr63  1  0.10306271  0.10151590  0.89699810  1
  Zr  Zr64  1  0.40475731  0.40074911  0.39370383  1
  Zr  Zr65  1  0.49453797  0.09852956  0.90730456  1
  Zr  Zr66  1  0.69187819  0.90364960  0.50275100  1
  Zr  Zr67  1  0.89869309  0.49397170  0.49747410  1
  Zr  Zr68  1  0.40775806  0.79085627  0.80903299  1
  Zr  Zr69  1  0.19557774  0.40905396  0.00026658  1
  Zr  Zr70  1  0.69230724  0.10605660  0.89553847  1
  Zr  Zr71  1  -0.00107436  0.79759193  0.39419728  1
  Zr  Zr72  1  0.11375830  0.30976299  0.47248192  1
  Zr  Zr73  1  0.79325136  0.80204926  0.39691330  1
  Zr  Zr74  1  0.89312136  0.70352356  0.10151498  1
  Zr  Zr75  1  0.09449480  0.29724686  0.10020218  1
  Zr  Zr76  1  0.89988946  0.10497941  0.10104010  1
  Zr  Zr77  1  0.10519828  0.89423024  0.71541441  1
  Zr  Zr78  1  0.20053334  0.60281334  0.60026308  1
  Zr  Zr79  1  0.40119690  0.60744720  0.80042391  1
  Zr  Zr80  1  0.28402549  0.29975678  0.30745173  1
  Zr  Zr81  1  0.00157083  0.19906415  0.59556557  1
  Zr  Zr82  1  0.29904424  0.49514959  0.69954264  1
  Zr  Zr83  1  0.70059068  0.10458346  0.50841486  1
  Zr  Zr84  1  0.41007828  -0.00253026  0.79760019  1
  Zr  Zr85  1  0.78985693  0.59640582  0.39861193  1
  Zr  Zr86  1  0.50992702  0.29697492  0.50132472  1
  Zr  Zr87  1  0.10146059  0.90102617  0.29977350  1
  Zr  Zr88  1  0.50058601  0.49609990  0.90150366  1
  Zr  Zr89  1  0.79972904  0.00399918  0.80098734  1
  Zr  Zr90  1  0.40038752  0.00082280  0.60108585  1
  Zr  Zr91  1  0.79977576  0.80154705  0.59911297  1
  Zr  Zr92  1  0.79612586  0.00083816  -0.00482278  1
  Zr  Zr93  1  0.90409243  0.89031125  0.90173906  1
  Zr  Zr94  1  -0.01127883  0.38492736  0.59761150  1
  Zr  Zr95  1  0.69250549  0.90301313  0.09604544  1
  Zr  Zr96  1  0.39958565  0.19309053  0.40155821  1
  Zr  Zr97  1  0.20389239  0.19283311  0.59464442  1
  Zr  Zr98  1  0.20308954  0.39780767  0.80525597  1
  Zr  Zr99  1  0.50238988  0.50177835  0.49428576  1
  Ta  Ta100  1  0.09896638  0.49574150  0.69637734  1
  Ta  Ta101  1  0.59745869  0.19310901  0.19778281  1
  Ta  Ta102  1  0.50175261  0.69703931  0.49578074  1
  Ta  Ta103  1  0.50514306  0.50365616  0.29466636  1
  Ta  Ta104  1  0.30299789  0.89860859  0.09886151  1
  Ta  Ta105  1  0.90080193  0.28762058  0.90580816  1
  Ta  Ta106  1  0.89883982  0.10155147  0.70046600  1
  Ta  Ta107  1  0.90725470  0.51224789  0.10795631  1
  Ta  Ta108  1  0.10147822  0.89874636  0.10084674  1
  Ta  Ta109  1  -0.00122306  0.00245740  0.80314472  1
  Ta  Ta110  1  0.69601806  0.69877978  0.10152481  1
  Ta  Ta111  1  0.69227210  0.69404394  0.50178217  1
  Ta  Ta112  1  0.29805058  0.29977234  0.49805509  1
  Ta  Ta113  1  0.00078708  0.59777331  0.60373442  1
  Ta  Ta114  1  0.49583648  0.09244254  0.09584471  1
  Ta  Ta115  1  0.39872181  0.40686919  0.20403671  1
  Ta  Ta116  1  0.49450522  0.69805087  0.10019992  1
  Ta  Ta117  1  0.30178466  0.50318829  0.90006710  1
  Ta  Ta118  1  0.19978366  0.40455980  0.20070543  1
  Ta  Ta119  1  0.49839429  0.50290493  0.09847142  1
  Ta  Ta120  1  0.80628390  0.21195600  0.60309158  1
  Ta  Ta121  1  0.89670891  0.10263572  0.50545122  1
  Ta  Ta122  1  0.89752678  0.89696208  0.10439191  1
  Ta  Ta123  1  0.30247417  0.49356050  0.49731972  1
  Ta  Ta124  1  0.40023129  0.79393192  0.59996021  1
  Ta  Ta125  1  0.79295573  0.58938726  0.60759803  1
  Ta  Ta126  1  0.30320693  0.09853213  0.90565529  1
  Ta  Ta127  1  0.69530309  0.91103900  0.28883048  1
  Ta  Ta128  1  0.79584305  0.59188653  0.79806773  1
  Ta  Ta129  1  0.59466657  0.79496059  0.00060050  1
  Ta  Ta130  1  0.79807318  0.80371088  0.80668637  1
  Ta  Ta131  1  0.40140017  0.21113921  0.80509907  1
  Ta  Ta132  1  0.29272080  0.70642283  0.70695388  1
  Ta  Ta133  1  0.39870293  0.38861384  0.60460499  1
  Ta  Ta134  1  0.89671539  0.49711569  0.69571854  1
  Ta  Ta135  1  0.00593259  0.60266178  0.39701899  1
  Ta  Ta136  1  0.70459492  0.29541673  0.70442463  1
  Ta  Ta137  1  0.50545466  0.90000903  0.91127338  1
  Ta  Ta138  1  0.40164664  0.60946867  -0.00938887  1
  Ta  Ta139  1  0.29721919  0.09779465  0.29705525  1
  Ta  Ta140  1  0.19548748  0.60394190  -0.00343205  1
  Ta  Ta141  1  0.40004682  0.39736467  -0.00821636  1
  Ta  Ta142  1  0.59512496  0.60028181  0.00415957  1
  Ta  Ta143  1  0.21357443  0.20535110  0.80701760  1
  Ta  Ta144  1  0.19484918  0.19731550  0.20040562  1
  Ta  Ta145  1  0.20890102  0.79713247  0.59654257  1
  Ta  Ta146  1  0.30028440  0.89749417  0.49757245  1
  Ta  Ta147  1  0.20467054  0.19796417  0.00037270  1
  Ta  Ta148  1  0.19851749  0.60049809  0.80450794  1
  Ta  Ta149  1  0.90481454  0.90005262  0.70372631  1
  Ti  Ti150  1  0.69795290  0.50062345  0.29243339  1
  Ti  Ti151  1  0.58771237  0.00537830  0.20259814  1
  Ti  Ti152  1  0.50642026  0.88630291  0.70680806  1
  Ti  Ti153  1  0.59793391  0.40940392  0.19272386  1
  Ti  Ti154  1  0.59461110  0.00320063  0.38436327  1
  Ti  Ti155  1  0.19938783  0.79958706  -0.00076072  1
  Ti  Ti156  1  0.39549712  0.38433930  0.79997071  1
  Ti  Ti157  1  0.10553341  0.09765491  0.71113905  1
  Ti  Ti158  1  0.39824843  0.80221245  0.21563380  1
  Ti  Ti159  1  0.20289434  0.00237983  0.59415047  1
  Ti  Ti160  1  0.10174696  0.70557797  0.70219080  1
  Ti  Ti161  1  0.00034034  0.39643563  0.19928745  1
  Ti  Ti162  1  0.59590061  0.60614066  0.80108418  1
  Ti  Ti163  1  0.60919362  0.40198457  0.39979976  1
  Ti  Ti164  1  0.80308431  0.39045338  0.40187798  1
  Ti  Ti165  1  0.80288615  0.19932440  0.79586737  1
  Ti  Ti166  1  0.70525683  0.49293727  0.50289623  1
  Ti  Ti167  1  0.10716689  0.10145004  0.48876649  1
  Ti  Ti168  1  0.70310040  0.09561102  0.28514416  1
  Ti  Ti169  1  0.60832740  0.20536144  0.61211716  1
  Ti  Ti170  1  0.39573146  0.60496803  0.39250204  1
  Ti  Ti171  1  0.59966428  0.59984933  0.39374246  1
  Ti  Ti172  1  -0.00963788  0.19552553  0.79849410  1
  Ti  Ti173  1  0.50842039  0.30664708  0.29506083  1
  Ti  Ti174  1  0.00287921  0.80185457  0.60279344  1
  Ti  Ti175  1  0.20695877  0.39305019  0.60038943  1
  Ti  Ti176  1  0.79634719  0.20470127  0.19582812  1
  Ti  Ti177  1  0.00354649  0.20872030  0.20594400  1
  Ti  Ti178  1  0.69427386  0.09706347  0.10075043  1
  Ti  Ti179  1  0.80101921  0.00754599  0.60808692  1
  Ti  Ti180  1  0.69898691  0.69278107  0.29159867  1
  Ti  Ti181  1  0.59079869  0.78943735  0.60351800  1
  Ti  Ti182  1  0.60215489  -0.00441118  0.80685488  1
  Ti  Ti183  1  0.19469295  -0.00328968  0.00066800  1
  Ti  Ti184  1  0.10365723  0.10473433  0.30089542  1
  Ti  Ti185  1  0.78634097  0.80230791  0.19572213  1
  Ti  Ti186  1  0.21468202  0.79400576  0.39440402  1
  Ti  Ti187  1  0.68918183  0.49866480  0.90090461  1
  Ti  Ti188  1  0.89936270  0.90582852  0.50792283  1
  Ti  Ti189  1  0.70148878  0.29672312  0.90100770  1
  Ti  Ti190  1  0.90248957  0.50717132  0.90289849  1
  Ti  Ti191  1  0.90316456  0.29518334  0.09626974  1
  Ti  Ti192  1  0.09881899  0.10502871  0.09783895  1
  Ti  Ti193  1  0.59941783  0.59833073  0.19544569  1
  Ti  Ti194  1  0.00627131  0.00082598  0.19423024  1
  Ti  Ti195  1  0.01637283  0.59782498  0.00439630  1
  Ti  Ti196  1  0.20963401  0.00232185  0.39951058  1
  Ti  Ti197  1  0.80108723  0.19648573  -0.00294338  1
  Ti  Ti198  1  0.40143705  0.60287933  0.21008149  1
  Ti  Ti199  1  0.51246346  0.11501154  0.71527643  1
  Mo  Mo200  1  0.00641634  0.80459480  0.19118603  1
  Mo  Mo201  1  0.50687466  0.70061163  0.90633830  1
  Mo  Mo202  1  0.10979917  0.70417201  0.09050542  1
  Mo  Mo203  1  0.30584276  0.70349081  0.50061511  1
  Mo  Mo204  1  0.49395915  0.29948526  0.90123397  1
  Mo  Mo205  1  -0.00286630  0.19850771  0.00127737  1
  Mo  Mo206  1  0.10348939  0.70352932  0.31020655  1
  Mo  Mo207  1  0.50068196  0.68375557  0.29711579  1
  Mo  Mo208  1  0.89596420  0.29514696  0.70853369  1
  Mo  Mo209  1  -0.00171640  0.80266502  0.79739319  1
  Mo  Mo210  1  0.78232418  0.59420534  0.19822472  1
  Mo  Mo211  1  0.50062928  0.90764121  0.29243929  1
  Mo  Mo212  1  0.50221112  0.29661547  0.70396082  1
  Mo  Mo213  1  0.50165158  0.09876624  0.29116810  1
  Mo  Mo214  1  0.29376546  0.09258854  0.49435809  1
  Mo  Mo215  1  0.21518239  0.41184031  0.39758790  1
  Mo  Mo216  1  0.29317485  0.69933843  0.90246825  1
  Mo  Mo217  1  0.30786052  0.50217916  0.29767743  1
  Mo  Mo218  1  0.79075941  0.00408269  0.19497702  1
  Mo  Mo219  1  0.59970625  0.20715288  0.79950032  1
  Mo  Mo220  1  0.20265843  0.79795612  0.80144872  1
  Mo  Mo221  1  0.30050067  0.90078339  0.29724189  1
  Mo  Mo222  1  0.68734987  0.49992300  0.10038996  1
  Mo  Mo223  1  0.30741617  0.69978878  0.29719129  1
  Mo  Mo224  1  0.79254657  0.80001059  0.00346464  1
  Mo  Mo225  1  0.89774206  0.30377533  0.28992980  1
  Mo  Mo226  1  0.90195968  0.10991045  0.89437510  1
  Mo  Mo227  1  0.19697355  0.00160745  0.81232609  1
  Mo  Mo228  1  0.39615147  -0.00456193  0.00110490  1
  Mo  Mo229  1  0.68983705  0.89657716  0.90043316  1
  Mo  Mo230  1  -0.01980769  0.39226542  0.39037913  1
  Mo  Mo231  1  0.10648092  0.90432499  0.90524421  1
  Mo  Mo232  1  0.19850244  0.18337839  0.39496351  1
  Mo  Mo233  1  0.70517801  0.11046380  0.70269751  1
  Mo  Mo234  1  0.59564096  0.00052256  0.00320897  1
  Mo  Mo235  1  0.09841897  0.50273341  0.10346571  1
  Mo  Mo236  1  0.30111117  0.29663673  0.69835080  1
  Mo  Mo237  1  0.50114139  0.70327832  0.69771648  1
  Mo  Mo238  1  0.39645300  0.20260151  -0.00262381  1
  Mo  Mo239  1  0.40132165  0.79696129  0.00077335  1
  Mo  Mo240  1  0.09862321  0.30066248  0.29056217  1
  Mo  Mo241  1  0.39570920  -0.00390583  0.20123534  1
  Mo  Mo242  1  0.79396578  0.39594940  0.60179482  1
  Mo  Mo243  1  0.60116491  0.40484010  -0.00283773  1
  Mo  Mo244  1  0.59823558  0.80572021  0.80827855  1
  Mo  Mo245  1  0.10153861  0.50852310  0.89811680  1
  Mo  Mo246  1  0.70079539  0.49851185  0.70848554  1
  Mo  Mo247  1  0.89341358  0.29885483  0.49555858  1
  Mo  Mo248  1  0.30246306  0.29832933  0.90606987  1
  Mo  Mo249  1  0.70466936  0.30688745  0.50492245  1
