# generated using pymatgen
data_HfZrTaTiMo
_symmetry_space_group_name_H-M   'P 1'
_cell_length_a   16.89191214
_cell_length_b   16.88680650
_cell_length_c   16.88313960
_cell_angle_alpha   89.97321124
_cell_angle_beta   90.00525829
_cell_angle_gamma   89.98780106
_symmetry_Int_Tables_number   1
_chemical_formula_structural   HfZrTaTiMo
_chemical_formula_sum   'Hf50 Zr50 Ta50 Ti50 Mo50'
_cell_volume   4815.92254125
_cell_formula_units_Z   50
loop_
 _symmetry_equiv_pos_site_id
 _symmetry_equiv_pos_as_xyz
  1  'x, y, z'
loop_
 _atom_site_type_symbol
 _atom_site_label
 _atom_site_symmetry_multiplicity
 _atom_site_fract_x
 _atom_site_fract_y
 _atom_site_fract_z
 _atom_site_occupancy
  Hf  Hf0  1  0.69483135  0.30629580  0.09788239  1
  Hf  Hf1  1  0.00230088  0.39363839  0.20679207  1
  Hf  Hf2  1  0.19882074  0.38676361  0.20404453  1
  Hf  Hf3  1  0.80006342  0.19518718  0.79833950  1
  Hf  Hf4  1  0.79610732  0.00527497  0.79494676  1
  Hf  Hf5  1  0.90356394  0.69422085  0.70111829  1
  Hf  Hf6  1  -0.00133329  0.39925428  0.41412162  1
  Hf  Hf7  1  0.59456602  0.40339714  0.58928242  1
  Hf  Hf8  1  0.79492354  0.00469330  0.20419838  1
  Hf  Hf9  1  0.01153281  0.40045847  0.60231533  1
  Hf  Hf10  1  0.69720122  0.70630291  0.10261582  1
  Hf  Hf11  1  0.00800773  0.79889008  -0.00547702  1
  Hf  Hf12  1  0.60956281  0.01034369  0.00324685  1
  Hf  Hf13  1  0.69314752  0.30169123  0.30609945  1
  Hf  Hf14  1  -0.00015137  0.59675388  0.20183881  1
  Hf  Hf15  1  0.50241687  0.49620799  0.30380853  1
  Hf  Hf16  1  0.11144485  0.89422000  0.30227264  1
  Hf  Hf17  1  0.50268291  0.70031093  0.69755394  1
  Hf  Hf18  1  0.89432591  0.91045219  0.09630188  1
  Hf  Hf19  1  -0.00189814  0.21245390  0.59982953  1
  Hf  Hf20  1  0.09662973  0.09534261  0.70001255  1
  Hf  Hf21  1  0.90340883  0.69221740  0.89264127  1
  Hf  Hf22  1  0.00657593  0.59070742  0.59263985  1
  Hf  Hf23  1  0.00459684  0.01021648  0.00351184  1
  Hf  Hf24  1  0.59713555  0.19054283  0.79796916  1
  Hf  Hf25  1  0.59529821  0.39689980  0.79828194  1
  Hf  Hf26  1  0.20137344  0.80047779  0.79697691  1
  Hf  Hf27  1  0.40096049  0.60359366  0.20394765  1
  Hf  Hf28  1  0.70276434  0.70135063  0.31182722  1
  Hf  Hf29  1  0.10030374  0.49503731  0.09803206  1
  Hf  Hf30  1  0.29790548  0.49106910  0.88728338  1
  Hf  Hf31  1  -0.01386718  0.80615998  0.40608822  1
  Hf  Hf32  1  0.89861872  0.30688588  0.70553506  1
  Hf  Hf33  1  0.68346458  0.28915580  0.91108142  1
  Hf  Hf34  1  0.39112205  0.00522058  0.80217107  1
  Hf  Hf35  1  0.00631458  0.20547535  0.39693316  1
  Hf  Hf36  1  0.70090958  0.49841623  0.69310822  1
  Hf  Hf37  1  0.80256228  0.59634479  0.20106480  1
  Hf  Hf38  1  0.79314821  0.19414136  0.41032662  1
  Hf  Hf39  1  0.58861822  0.20211500  0.20382773  1
  Hf  Hf40  1  0.29980407  0.90829672  0.09876780  1
  Hf  Hf41  1  0.90767478  0.50024223  0.71229242  1
  Hf  Hf42  1  0.00631011  0.01018209  0.20405671  1
  Hf  Hf43  1  0.79888094  0.80199848  0.79268714  1
  Hf  Hf44  1  0.59850502  0.58375950  0.82044492  1
  Hf  Hf45  1  0.39353472  0.01490422  0.20877982  1
  Hf  Hf46  1  0.00574358  0.60184234  -0.00342039  1
  Hf  Hf47  1  0.61100454  0.80957181  0.79173657  1
  Hf  Hf48  1  0.30442621  0.48924450  0.09905883  1
  Hf  Hf49  1  0.20124942  0.19392038  0.20026003  1
  Zr  Zr50  1  0.49832534  0.90446219  0.31259782  1
  Zr  Zr51  1  0.19883240  0.39019489  -0.01341755  1
  Zr  Zr52  1  0.40316844  0.79798084  0.20508501  1
  Zr  Zr53  1  0.30365856  0.69938535  0.89159893  1
  Zr  Zr54  1  0.88879428  0.30308984  0.30200058  1
  Zr  Zr55  1  0.49882490  0.09093722  0.50078142  1
  Zr  Zr56  1  0.70094902  0.50473125  0.09162828  1
  Zr  Zr57  1  0.09945553  0.90623908  0.69426209  1
  Zr  Zr58  1  0.80723681  0.80062039  0.00516412  1
  Zr  Zr59  1  0.19274669  0.20594460  0.60037027  1
  Zr  Zr60  1  0.70489212  0.11429077  0.09168975  1
  Zr  Zr61  1  0.00806111  0.19781267  0.20078516  1
  Zr  Zr62  1  0.30244099  0.69805224  0.09376183  1
  Zr  Zr63  1  0.10510512  0.09741729  0.89554982  1
  Zr  Zr64  1  0.59658495  0.59780072  0.20480913  1
  Zr  Zr65  1  0.20580075  0.00617077  0.39484970  1
  Zr  Zr66  1  0.58584264  0.42111979  -0.01593957  1
  Zr  Zr67  1  0.39739236  0.19517709  0.60427586  1
  Zr  Zr68  1  0.10249592  0.49944805  0.31460336  1
  Zr  Zr69  1  0.41516913  0.58546841  -0.00931498  1
  Zr  Zr70  1  0.49272537  0.10362627  0.90942153  1
  Zr  Zr71  1  0.10065187  0.70358532  0.49306345  1
  Zr  Zr72  1  0.10269627  0.69915369  0.30602560  1
  Zr  Zr73  1  0.60194731  0.00855801  0.20403359  1
  Zr  Zr74  1  0.29388098  0.30394982  0.69563021  1
  Zr  Zr75  1  0.39416370  0.60348519  0.59093324  1
  Zr  Zr76  1  0.49799538  0.50457716  0.69266092  1
  Zr  Zr77  1  0.51302840  0.70892404  0.08909304  1
  Zr  Zr78  1  0.80555424  0.59823683  0.58513503  1
  Zr  Zr79  1  0.30347384  0.49712865  0.30280261  1
  Zr  Zr80  1  0.49426123  0.90169398  0.69312777  1
  Zr  Zr81  1  0.10956886  0.90439238  0.10102942  1
  Zr  Zr82  1  0.49847642  0.90271613  0.90393485  1
  Zr  Zr83  1  0.10217173  0.09373009  0.50481765  1
  Zr  Zr84  1  0.50286567  0.90173320  0.09775858  1
  Zr  Zr85  1  0.60136256  0.80031190  0.41336848  1
  Zr  Zr86  1  0.81107876  0.20378543  -0.01043427  1
  Zr  Zr87  1  0.50259867  0.71048770  0.89902630  1
  Zr  Zr88  1  0.79404378  0.39472570  0.81248659  1
  Zr  Zr89  1  0.50678654  0.28270172  0.49251526  1
  Zr  Zr90  1  -0.00195184  -0.00287987  0.39535663  1
  Zr  Zr91  1  0.19430860  0.60112152  -0.01079400  1
  Zr  Zr92  1  -0.00676401  0.80362475  0.20276656  1
  Zr  Zr93  1  0.20246507  0.60200919  0.60253073  1
  Zr  Zr94  1  0.90319672  0.09502366  0.50907589  1
  Zr  Zr95  1  0.40853688  0.39505235  0.40396834  1
  Zr  Zr96  1  0.70768875  0.90613229  0.91109914  1
  Zr  Zr97  1  0.79870502  0.79693108  0.59226264  1
  Zr  Zr98  1  0.89282344  0.69382723  0.31804000  1
  Zr  Zr99  1  0.69544888  0.69270197  0.91668873  1
  Ta  Ta100  1  0.49940325  0.10495724  0.31409792  1
  Ta  Ta101  1  0.90573222  0.90665501  0.89604600  1
  Ta  Ta102  1  0.30180527  0.89726371  0.30538396  1
  Ta  Ta103  1  0.30272410  0.10111747  0.49623448  1
  Ta  Ta104  1  0.39861068  0.39118464  0.79478045  1
  Ta  Ta105  1  0.90138502  0.30438286  0.09729143  1
  Ta  Ta106  1  0.29617697  0.29948332  0.49407135  1
  Ta  Ta107  1  0.29834330  0.48995972  0.50109708  1
  Ta  Ta108  1  0.69526267  0.29701161  0.69052801  1
  Ta  Ta109  1  0.20348002  0.60262061  0.20345596  1
  Ta  Ta110  1  0.69246628  0.68782803  0.69442441  1
  Ta  Ta111  1  0.19679980  0.80169397  -0.00712921  1
  Ta  Ta112  1  0.80122209  0.80650356  0.20644635  1
  Ta  Ta113  1  0.69939001  0.89777177  0.30328905  1
  Ta  Ta114  1  0.70223926  0.49253711  0.30865714  1
  Ta  Ta115  1  0.30120018  0.10529061  0.08672101  1
  Ta  Ta116  1  0.29644116  0.49562826  0.69913124  1
  Ta  Ta117  1  0.09635778  0.70114657  0.70057563  1
  Ta  Ta118  1  0.48615255  0.29601448  0.90343727  1
  Ta  Ta119  1  0.20840642  0.79496845  0.20105477  1
  Ta  Ta120  1  0.50123488  0.29293266  0.69816894  1
  Ta  Ta121  1  0.21013736  0.59873161  0.40988734  1
  Ta  Ta122  1  0.30040542  0.29682558  0.30620968  1
  Ta  Ta123  1  0.59919453  0.59731887  0.41108190  1
  Ta  Ta124  1  0.90107958  0.49423534  0.09545311  1
  Ta  Ta125  1  0.20137865  0.20202555  0.80469464  1
  Ta  Ta126  1  0.29963586  0.70386735  0.31255680  1
  Ta  Ta127  1  0.89402249  0.49867742  0.31038105  1
  Ta  Ta128  1  0.79984471  0.19839115  0.60271990  1
  Ta  Ta129  1  0.10553559  0.70170174  0.10347468  1
  Ta  Ta130  1  0.79522001  0.00191039  0.39959529  1
  Ta  Ta131  1  0.10027284  0.29445921  0.09004144  1
  Ta  Ta132  1  0.20813384  0.79772648  0.59723441  1
  Ta  Ta133  1  0.10192254  0.90648716  0.89243556  1
  Ta  Ta134  1  0.79833195  0.00321034  0.60376133  1
  Ta  Ta135  1  -0.00332190  0.79834822  0.59746111  1
  Ta  Ta136  1  0.60858483  0.80112104  0.59827191  1
  Ta  Ta137  1  0.00203353  0.20082211  -0.00179414  1
  Ta  Ta138  1  0.90306778  0.90455746  0.69554931  1
  Ta  Ta139  1  0.49319721  0.29896850  0.08969956  1
  Ta  Ta140  1  0.39069037  0.19911721  0.80111055  1
  Ta  Ta141  1  0.28934390  0.09428742  0.70111751  1
  Ta  Ta142  1  0.89370078  0.10237150  0.30164876  1
  Ta  Ta143  1  0.60992334  -0.00619814  0.60072785  1
  Ta  Ta144  1  0.00264480  0.80202051  0.79881784  1
  Ta  Ta145  1  0.40170849  0.39820591  0.59666617  1
  Ta  Ta146  1  0.90488309  0.49978165  0.90108548  1
  Ta  Ta147  1  0.39679477  0.20253568  0.20225171  1
  Ta  Ta148  1  -0.00432163  0.20344301  0.80177727  1
  Ta  Ta149  1  0.61155232  0.00781359  0.40547452  1
  Ti  Ti150  1  0.39003763  0.79559569  0.59792788  1
  Ti  Ti151  1  0.59204857  0.39567522  0.20272101  1
  Ti  Ti152  1  0.79179716  0.59474705  0.80643304  1
  Ti  Ti153  1  -0.00902302  0.00403414  0.79449454  1
  Ti  Ti154  1  0.19211395  0.40619018  0.59983171  1
  Ti  Ti155  1  0.89566540  0.90537004  0.50428538  1
  Ti  Ti156  1  0.39179623  -0.00161614  0.59697076  1
  Ti  Ti157  1  0.79998861  0.40271557  0.19744408  1
  Ti  Ti158  1  0.90028740  0.69567887  0.10010047  1
  Ti  Ti159  1  0.48779681  0.10824674  0.09157231  1
  Ti  Ti160  1  0.39890432  0.79420160  0.41095306  1
  Ti  Ti161  1  -0.00201271  0.39441810  -0.00787105  1
  Ti  Ti162  1  0.09044650  0.49910196  0.88272964  1
  Ti  Ti163  1  0.19246643  0.60240093  0.79204186  1
  Ti  Ti164  1  0.49540933  0.90282328  0.50364774  1
  Ti  Ti165  1  0.39512770  0.19620838  0.39303216  1
  Ti  Ti166  1  0.11834457  0.30776582  0.48714493  1
  Ti  Ti167  1  0.89937313  0.09459285  0.90081136  1
  Ti  Ti168  1  0.89664864  0.10579371  0.10092421  1
  Ti  Ti169  1  0.69959042  0.50145301  0.49609884  1
  Ti  Ti170  1  0.20369515  0.00743322  -0.00499752  1
  Ti  Ti171  1  0.49793904  0.09474711  0.69693405  1
  Ti  Ti172  1  0.50446673  0.70408872  0.30636299  1
  Ti  Ti173  1  0.80147495  0.39901153  0.41592589  1
  Ti  Ti174  1  0.80592696  0.40049279  -0.00523707  1
  Ti  Ti175  1  0.30415119  0.29446786  0.08770125  1
  Ti  Ti176  1  0.79710766  0.20130743  0.20372539  1
  Ti  Ti177  1  0.49383332  0.49017467  0.10411980  1
  Ti  Ti178  1  0.60616105  0.18993403  0.59732164  1
  Ti  Ti179  1  0.70610180  0.90199398  0.49819294  1
  Ti  Ti180  1  0.80415274  0.39660910  0.59140323  1
  Ti  Ti181  1  0.18807418  0.39415166  0.79254211  1
  Ti  Ti182  1  0.30317631  0.89833319  0.49285569  1
  Ti  Ti183  1  0.29682234  0.90215567  0.69731628  1
  Ti  Ti184  1  0.40347712  0.60312994  0.40732153  1
  Ti  Ti185  1  0.50566055  0.69807329  0.50789650  1
  Ti  Ti186  1  0.19892434  0.19648120  0.38931488  1
  Ti  Ti187  1  0.39134038  0.80787710  -0.00483952  1
  Ti  Ti188  1  0.69885821  0.10009161  0.69375818  1
  Ti  Ti189  1  0.59815378  0.39943876  0.40434295  1
  Ti  Ti190  1  0.20833198  -0.00516305  0.59515100  1
  Ti  Ti191  1  0.69720871  0.29607164  0.50311802  1
  Ti  Ti192  1  0.39420655  0.59993761  0.78987708  1
  Ti  Ti193  1  0.10264927  0.89832078  0.50309494  1
  Ti  Ti194  1  0.20189076  0.01350916  0.20476289  1
  Ti  Ti195  1  0.09594206  0.29523148  0.89594621  1
  Ti  Ti196  1  0.39249756  0.80302077  0.79243336  1
  Ti  Ti197  1  0.29455813  0.90979299  0.90113183  1
  Ti  Ti198  1  0.60644970  0.00197606  0.79532497  1
  Ti  Ti199  1  0.40377803  0.38373304  0.20259447  1
  Mo  Mo200  1  0.59335808  0.59035284  0.00274423  1
  Mo  Mo201  1  0.29765758  0.70343427  0.69799380  1
  Mo  Mo202  1  0.20966295  0.80376854  0.40456492  1
  Mo  Mo203  1  0.80822561  0.00831464  -0.00264018  1
  Mo  Mo204  1  0.60819374  0.81784950  0.00919196  1
  Mo  Mo205  1  0.47903769  0.49225807  0.88466466  1
  Mo  Mo206  1  0.69979515  0.89692154  0.11026336  1
  Mo  Mo207  1  0.89957937  0.49590712  0.49740866  1
  Mo  Mo208  1  0.11009649  0.49905628  0.50185583  1
  Mo  Mo209  1  0.90215117  0.10060930  0.70131924  1
  Mo  Mo210  1  -0.00492262  -0.00960133  0.60019029  1
  Mo  Mo211  1  0.80006752  0.81630833  0.40285931  1
  Mo  Mo212  1  0.58677037  0.20282813  0.00365557  1
  Mo  Mo213  1  0.39076206  0.20189687  -0.00070237  1
  Mo  Mo214  1  0.81550993  0.59533120  0.00299040  1
  Mo  Mo215  1  0.00577946  0.39813797  0.80580232  1
  Mo  Mo216  1  0.10649703  0.49957335  0.70711715  1
  Mo  Mo217  1  0.10057167  0.70603131  0.89224518  1
  Mo  Mo218  1  -0.00989353  0.59252620  0.41011310  1
  Mo  Mo219  1  0.11057479  0.10468646  0.09386809  1
  Mo  Mo220  1  0.10128614  0.10125393  0.29716452  1
  Mo  Mo221  1  0.30458929  0.70612354  0.49648978  1
  Mo  Mo222  1  0.19744042  0.20043097  -0.00208713  1
  Mo  Mo223  1  0.39970752  -0.00241152  0.40511291  1
  Mo  Mo224  1  0.71906662  0.50072391  0.90534297  1
  Mo  Mo225  1  0.20517392  0.39972609  0.40278236  1
  Mo  Mo226  1  0.60448321  0.60548473  0.58747202  1
  Mo  Mo227  1  0.88879576  0.90599484  0.30290740  1
  Mo  Mo228  1  0.69969661  0.09641010  0.50818550  1
  Mo  Mo229  1  0.60904890  0.80575490  0.20757948  1
  Mo  Mo230  1  0.49785562  0.50422974  0.49503187  1
  Mo  Mo231  1  0.70313175  0.90340902  0.69212978  1
  Mo  Mo232  1  0.29588197  0.10328772  0.89921646  1
  Mo  Mo233  1  0.38978148  0.00373455  0.00071811  1
  Mo  Mo234  1  0.01069707  0.59988883  0.79916380  1
  Mo  Mo235  1  0.39481871  0.39215562  -0.00442757  1
  Mo  Mo236  1  0.49612684  0.29686907  0.29517389  1
  Mo  Mo237  1  0.60473826  0.19561596  0.39849733  1
  Mo  Mo238  1  0.29742351  0.29532304  0.89335364  1
  Mo  Mo239  1  0.88727834  0.30194549  0.50747760  1
  Mo  Mo240  1  0.30507697  0.10425508  0.30252721  1
  Mo  Mo241  1  0.70075239  0.69777633  0.49954401  1
  Mo  Mo242  1  0.91276978  0.30349518  0.90276074  1
  Mo  Mo243  1  0.10974101  0.29866277  0.30497716  1
  Mo  Mo244  1  0.69817394  0.10410253  0.30636781  1
  Mo  Mo245  1  0.79358188  0.58341927  0.40187734  1
  Mo  Mo246  1  0.69878172  0.09954554  0.89473000  1
  Mo  Mo247  1  0.09729619  0.30098115  0.71270117  1
  Mo  Mo248  1  0.90066735  0.69646388  0.49761778  1
  Mo  Mo249  1  0.20575352  -0.00191260  0.79863974  1
