# generated using pymatgen
data_HfZrTaTiMo
_symmetry_space_group_name_H-M   'P 1'
_cell_length_a   16.88653284
_cell_length_b   16.88336005
_cell_length_c   16.88863801
_cell_angle_alpha   90.00733011
_cell_angle_beta   89.97453229
_cell_angle_gamma   89.94567348
_symmetry_Int_Tables_number   1
_chemical_formula_structural   HfZrTaTiMo
_chemical_formula_sum   'Hf50 Zr50 Ta50 Ti50 Mo50'
_cell_volume   4814.97189794
_cell_formula_units_Z   50
loop_
 _symmetry_equiv_pos_site_id
 _symmetry_equiv_pos_as_xyz
  1  'x, y, z'
loop_
 _atom_site_type_symbol
 _atom_site_label
 _atom_site_symmetry_multiplicity
 _atom_site_fract_x
 _atom_site_fract_y
 _atom_site_fract_z
 _atom_site_occupancy
  Hf  Hf0  1  0.10036052  0.28435221  0.10393232  1
  Hf  Hf1  1  0.39960364  0.59850933  0.40509749  1
  Hf  Hf2  1  0.60826790  0.40204159  0.19749097  1
  Hf  Hf3  1  0.39302024  0.01073207  0.80574206  1
  Hf  Hf4  1  0.69599617  0.89860544  0.09905596  1
  Hf  Hf5  1  0.90247588  0.30972387  0.31263010  1
  Hf  Hf6  1  0.30076752  0.11198067  0.50059728  1
  Hf  Hf7  1  0.48997322  0.11075850  0.69030924  1
  Hf  Hf8  1  0.59566983  -0.00072667  0.79914289  1
  Hf  Hf9  1  0.50756814  0.30920935  0.69947939  1
  Hf  Hf10  1  0.79808811  0.41074635  0.19714176  1
  Hf  Hf11  1  0.49244578  0.29611934  0.50907902  1
  Hf  Hf12  1  0.70856553  0.50203557  0.50164620  1
  Hf  Hf13  1  0.40376218  0.40195220  -0.00083457  1
  Hf  Hf14  1  0.39951415  0.00542583  0.00036478  1
  Hf  Hf15  1  0.29285517  0.51103297  0.09877988  1
  Hf  Hf16  1  0.40227180  0.78440896  0.80219827  1
  Hf  Hf17  1  0.50958703  0.70070476  0.29838436  1
  Hf  Hf18  1  0.59278897  0.60400148  0.60129400  1
  Hf  Hf19  1  0.61700364  -0.01447633  0.40375032  1
  Hf  Hf20  1  0.19305995  -0.00299771  0.40199267  1
  Hf  Hf21  1  0.70221900  0.89320106  0.89853708  1
  Hf  Hf22  1  0.00114593  0.61033890  -0.00408171  1
  Hf  Hf23  1  0.40904397  0.61072889  -0.01135285  1
  Hf  Hf24  1  0.80492442  0.40293647  0.60865147  1
  Hf  Hf25  1  -0.00469350  0.19602090  0.21008622  1
  Hf  Hf26  1  0.69413967  0.30828131  0.89588455  1
  Hf  Hf27  1  0.70918908  0.70244662  0.50018121  1
  Hf  Hf28  1  0.70386859  0.30531882  0.30882248  1
  Hf  Hf29  1  0.90399135  0.09439408  0.69773554  1
  Hf  Hf30  1  0.70909109  0.09271991  0.89621296  1
  Hf  Hf31  1  0.80637518  0.20466504  0.60071497  1
  Hf  Hf32  1  0.90629942  0.89308161  0.89721899  1
  Hf  Hf33  1  0.61263123  -0.00518981  0.60232443  1
  Hf  Hf34  1  0.00091034  0.40303732  0.19904910  1
  Hf  Hf35  1  0.29180689  0.69759752  0.10272383  1
  Hf  Hf36  1  0.39337598  0.40396955  0.79580393  1
  Hf  Hf37  1  0.29016876  0.29194427  0.30242437  1
  Hf  Hf38  1  0.29711633  0.10540318  0.29837321  1
  Hf  Hf39  1  0.70938916  0.70033342  0.89111568  1
  Hf  Hf40  1  0.29569025  0.89433552  0.70539123  1
  Hf  Hf41  1  0.29215639  0.50160612  0.29838221  1
  Hf  Hf42  1  0.00171737  0.40208277  0.59704029  1
  Hf  Hf43  1  0.49221525  0.89749012  0.69835794  1
  Hf  Hf44  1  0.90653839  0.09353463  0.09936396  1
  Hf  Hf45  1  0.00423977  0.40150884  -0.00173774  1
  Hf  Hf46  1  0.68885877  0.49475576  0.70464120  1
  Hf  Hf47  1  0.89869159  0.09035981  0.89403046  1
  Hf  Hf48  1  0.59062953  0.00613666  0.19220114  1
  Hf  Hf49  1  0.40999353  0.18972788  0.18525277  1
  Zr  Zr50  1  0.70318668  0.10392646  0.29728763  1
  Zr  Zr51  1  0.79369723  0.81597608  0.40171916  1
  Zr  Zr52  1  0.19146888  0.40177647  -0.00640275  1
  Zr  Zr53  1  0.20231993  0.18740702  -0.00766455  1
  Zr  Zr54  1  0.39834532  0.39915869  0.40318344  1
  Zr  Zr55  1  0.59842804  0.59642770  0.40361577  1
  Zr  Zr56  1  0.38502268  0.78843043  0.39617163  1
  Zr  Zr57  1  0.29063741  0.49866546  0.49917031  1
  Zr  Zr58  1  0.49062053  0.50135555  0.69304721  1
  Zr  Zr59  1  0.09811020  0.09995112  0.69990101  1
  Zr  Zr60  1  0.90642866  0.69896681  0.30484407  1
  Zr  Zr61  1  0.70007931  0.70234748  0.10640071  1
  Zr  Zr62  1  0.80358306  0.80477745  0.20188245  1
  Zr  Zr63  1  -0.00721376  0.79665803  0.60266474  1
  Zr  Zr64  1  0.49082941  0.50657568  0.11045400  1
  Zr  Zr65  1  0.79864354  0.81086377  0.62567721  1
  Zr  Zr66  1  0.09769309  0.50102693  0.32088054  1
  Zr  Zr67  1  0.60264773  0.59479556  -0.00389903  1
  Zr  Zr68  1  0.80115537  0.59773927  0.00228169  1
  Zr  Zr69  1  0.60440750  0.19659417  0.79990084  1
  Zr  Zr70  1  0.39564552  0.79681783  0.19549359  1
  Zr  Zr71  1  0.89771253  0.91677231  0.50618992  1
  Zr  Zr72  1  0.39586783  -0.00612691  0.39507946  1
  Zr  Zr73  1  0.00597886  0.59547187  0.19751028  1
  Zr  Zr74  1  0.60395405  0.79622178  0.60220362  1
  Zr  Zr75  1  0.49964385  0.10365396  0.30518634  1
  Zr  Zr76  1  0.50257709  0.29319077  0.30241728  1
  Zr  Zr77  1  0.58726760  0.79362569  -0.00428666  1
  Zr  Zr78  1  0.61537928  0.19774832  0.41688550  1
  Zr  Zr79  1  0.49297587  0.10335460  0.50329214  1
  Zr  Zr80  1  0.49733550  0.89093817  0.49955230  1
  Zr  Zr81  1  0.09903115  0.51447220  0.89180287  1
  Zr  Zr82  1  0.50728863  0.89081390  0.29445068  1
  Zr  Zr83  1  0.19314616  -0.00411331  0.19465276  1
  Zr  Zr84  1  0.19342425  0.79381311  0.60190873  1
  Zr  Zr85  1  0.69981795  0.10122674  0.09467810  1
  Zr  Zr86  1  0.29659814  0.89614196  0.50535542  1
  Zr  Zr87  1  0.91998378  0.90102233  0.10253998  1
  Zr  Zr88  1  0.29890781  0.29602026  0.10301173  1
  Zr  Zr89  1  0.60743970  0.40803187  0.00395037  1
  Zr  Zr90  1  0.62270482  0.20565509  0.60552060  1
  Zr  Zr91  1  0.80096601  0.20831120  0.19679493  1
  Zr  Zr92  1  0.91422568  0.90731460  0.29602136  1
  Zr  Zr93  1  0.18747860  0.40937472  0.19427228  1
  Zr  Zr94  1  0.09382436  0.50348916  0.69910160  1
  Zr  Zr95  1  0.20142882  0.59972120  0.60557489  1
  Zr  Zr96  1  -0.00297280  0.40010913  0.80123997  1
  Zr  Zr97  1  0.30280310  0.30019923  0.89748297  1
  Zr  Zr98  1  0.20321020  0.19553203  0.79825338  1
  Zr  Zr99  1  0.80194348  0.20759280  -0.00485505  1
  Ta  Ta100  1  0.89482682  0.50506314  0.89476423  1
  Ta  Ta101  1  0.10212462  0.89580602  0.89651255  1
  Ta  Ta102  1  0.29702431  0.89476560  0.90189791  1
  Ta  Ta103  1  0.20214966  0.40239286  0.79160270  1
  Ta  Ta104  1  0.09124906  0.69208452  0.49625849  1
  Ta  Ta105  1  0.90171433  0.50086332  0.09364331  1
  Ta  Ta106  1  0.59968854  0.79158984  0.79188734  1
  Ta  Ta107  1  0.49494030  0.89648204  0.89769445  1
  Ta  Ta108  1  0.20251195  0.00008938  0.80492117  1
  Ta  Ta109  1  0.80208689  0.21099267  0.79329501  1
  Ta  Ta110  1  0.19793671  0.00277856  0.60567567  1
  Ta  Ta111  1  0.80346640  -0.02627302  0.78146119  1
  Ta  Ta112  1  0.90065618  0.30496365  0.09383197  1
  Ta  Ta113  1  0.30009217  0.50975481  0.89444512  1
  Ta  Ta114  1  0.81280115  0.79593436  -0.00066684  1
  Ta  Ta115  1  0.59368893  0.60646906  0.80040276  1
  Ta  Ta116  1  0.00245744  0.19797971  0.40682408  1
  Ta  Ta117  1  0.90568425  0.30026424  0.70041486  1
  Ta  Ta118  1  0.40745546  0.19137179  -0.00714006  1
  Ta  Ta119  1  0.72570087  0.08536380  0.50618893  1
  Ta  Ta120  1  0.19205744  0.79689201  0.39672491  1
  Ta  Ta121  1  0.79930857  0.40358766  0.80008789  1
  Ta  Ta122  1  0.10096197  0.89807803  0.70619253  1
  Ta  Ta123  1  0.19772911  0.39303969  0.60094503  1
  Ta  Ta124  1  0.50221169  0.29967265  0.89676587  1
  Ta  Ta125  1  0.69485443  0.70803207  0.30064332  1
  Ta  Ta126  1  0.58850586  0.00303834  -0.00746681  1
  Ta  Ta127  1  0.00259586  0.20524834  0.59541315  1
  Ta  Ta128  1  0.00616244  0.01213361  0.39704830  1
  Ta  Ta129  1  0.50017874  0.49753258  0.30036395  1
  Ta  Ta130  1  0.29756082  0.89939777  0.09692754  1
  Ta  Ta131  1  0.10446480  0.29748605  0.31432541  1
  Ta  Ta132  1  0.09577609  0.09547973  0.10062019  1
  Ta  Ta133  1  0.39667416  0.77842673  0.60705125  1
  Ta  Ta134  1  0.09139233  0.69631935  0.70878063  1
  Ta  Ta135  1  0.19830596  -0.00469459  -0.00435898  1
  Ta  Ta136  1  -0.00104120  0.20461783  0.80533708  1
  Ta  Ta137  1  0.10011668  0.29775540  0.69980601  1
  Ta  Ta138  1  0.29481298  0.69954071  0.90092361  1
  Ta  Ta139  1  0.59985197  0.40679527  0.40696326  1
  Ta  Ta140  1  0.00151613  0.20101580  -0.01005105  1
  Ta  Ta141  1  0.90153634  0.50391844  0.49402106  1
  Ta  Ta142  1  0.19517026  0.80105244  -0.00036933  1
  Ta  Ta143  1  0.09471228  0.89516957  0.29470476  1
  Ta  Ta144  1  0.20590544  0.60551015  0.79632543  1
  Ta  Ta145  1  0.90319337  0.30667881  0.49556654  1
  Ta  Ta146  1  0.29130295  0.89601707  0.29043700  1
  Ta  Ta147  1  0.61178356  0.59140258  0.20435983  1
  Ta  Ta148  1  -0.01206196  0.60242346  0.60434906  1
  Ta  Ta149  1  0.39699230  0.79815828  -0.00250924  1
  Ti  Ti150  1  0.39949771  0.39570850  0.20065865  1
  Ti  Ti151  1  0.49368238  0.90076230  0.09919806  1
  Ti  Ti152  1  0.79800066  0.59773672  0.38913547  1
  Ti  Ti153  1  0.89894397  0.69312136  0.49562579  1
  Ti  Ti154  1  0.19088996  0.60873961  -0.00442570  1
  Ti  Ti155  1  0.50118723  0.49945372  0.88773622  1
  Ti  Ti156  1  0.38740434  0.00388779  0.60551691  1
  Ti  Ti157  1  0.90297187  0.49929759  0.31249070  1
  Ti  Ti158  1  0.90426709  0.09924710  0.50132195  1
  Ti  Ti159  1  0.29453280  0.69585881  0.50403473  1
  Ti  Ti160  1  0.09652230  0.09538709  0.89872256  1
  Ti  Ti161  1  0.00948713  0.79346029  -0.00076692  1
  Ti  Ti162  1  0.80993469  0.19487798  0.40375099  1
  Ti  Ti163  1  0.79596154  0.40696436  0.00016665  1
  Ti  Ti164  1  0.09610533  0.70174973  0.30165261  1
  Ti  Ti165  1  0.80441628  0.00178847  0.39021293  1
  Ti  Ti166  1  0.71401657  0.09204233  0.70140535  1
  Ti  Ti167  1  0.80224181  0.00005786  0.20589915  1
  Ti  Ti168  1  0.80363322  -0.01053518  0.00075805  1
  Ti  Ti169  1  0.29136169  0.29417381  0.49414397  1
  Ti  Ti170  1  0.49808013  0.70203802  0.49961038  1
  Ti  Ti171  1  0.59478172  0.19585644  0.00135592  1
  Ti  Ti172  1  0.19849873  0.61330592  0.39759761  1
  Ti  Ti173  1  0.19662136  0.79193481  0.80339786  1
  Ti  Ti174  1  0.39518738  0.60605842  0.21095949  1
  Ti  Ti175  1  0.19227845  0.79829126  0.20068987  1
  Ti  Ti176  1  0.38799117  0.40292681  0.59834024  1
  Ti  Ti177  1  0.39555167  0.19619932  0.80204414  1
  Ti  Ti178  1  0.00517735  -0.00591875  0.80014634  1
  Ti  Ti179  1  0.09696504  0.89819604  0.49941856  1
  Ti  Ti180  1  0.10448581  0.10540185  0.29740922  1
  Ti  Ti181  1  0.80671609  0.60430186  0.61347424  1
  Ti  Ti182  1  0.71137995  0.31228935  0.49892165  1
  Ti  Ti183  1  0.79851210  0.59412965  0.20412198  1
  Ti  Ti184  1  0.30105656  0.29679467  0.69340110  1
  Ti  Ti185  1  0.80219910  0.59732750  0.79048997  1
  Ti  Ti186  1  -0.00130466  0.79495975  0.79818892  1
  Ti  Ti187  1  0.00917420  0.00061380  0.59776069  1
  Ti  Ti188  1  0.09602001  0.50218809  0.49610974  1
  Ti  Ti189  1  0.10491893  0.10711534  0.50035007  1
  Ti  Ti190  1  0.50806351  0.29617774  0.09564389  1
  Ti  Ti191  1  0.50391434  0.69926669  0.11048804  1
  Ti  Ti192  1  0.01318285  -0.00421313  -0.00169235  1
  Ti  Ti193  1  0.90082882  0.70010104  0.88811766  1
  Ti  Ti194  1  0.10243626  0.70323196  0.10589620  1
  Ti  Ti195  1  0.19847307  0.20370722  0.60116727  1
  Ti  Ti196  1  0.00230847  0.80047846  0.40445581  1
  Ti  Ti197  1  0.89850197  0.30519843  0.90022814  1
  Ti  Ti198  1  0.90472391  0.70241018  0.10731151  1
  Ti  Ti199  1  0.29581334  0.09571714  0.10333997  1
  Mo  Mo200  1  0.39277613  -0.00463946  0.18996680  1
  Mo  Mo201  1  0.89495253  0.50443141  0.70030178  1
  Mo  Mo202  1  0.19571593  0.60872705  0.20434131  1
  Mo  Mo203  1  0.71085753  0.50318056  0.10414249  1
  Mo  Mo204  1  0.39297765  0.20324367  0.40420806  1
  Mo  Mo205  1  0.49628876  0.69298234  0.69893575  1
  Mo  Mo206  1  0.49797941  0.49139605  0.50322278  1
  Mo  Mo207  1  0.09709717  0.29439460  0.89382749  1
  Mo  Mo208  1  0.70767546  0.90337610  0.50339816  1
  Mo  Mo209  1  0.19261347  0.19237174  0.20065910  1
  Mo  Mo210  1  0.39503924  0.59893002  0.79772848  1
  Mo  Mo211  1  0.19110527  0.19644568  0.40308788  1
  Mo  Mo212  1  0.50251195  0.10042125  0.09295408  1
  Mo  Mo213  1  0.89857746  0.69773783  0.71042724  1
  Mo  Mo214  1  -0.00928545  0.60721368  0.79901073  1
  Mo  Mo215  1  0.60287044  0.20921820  0.18018979  1
  Mo  Mo216  1  0.00085716  0.39974623  0.40729762  1
  Mo  Mo217  1  0.80379254  0.79581871  0.80210612  1
  Mo  Mo218  1  0.10288225  0.89625882  0.09432634  1
  Mo  Mo219  1  0.70108928  0.69310249  0.70540412  1
  Mo  Mo220  1  0.19299468  0.38925757  0.41331576  1
  Mo  Mo221  1  0.70554499  0.30654528  0.70260987  1
  Mo  Mo222  1  0.10127323  0.29662355  0.50358997  1
  Mo  Mo223  1  0.90211630  0.10114734  0.30993899  1
  Mo  Mo224  1  0.69942281  0.30220091  0.09349013  1
  Mo  Mo225  1  0.00780219  0.00569225  0.20500570  1
  Mo  Mo226  1  0.49887465  0.69905843  0.89458044  1
  Mo  Mo227  1  0.70070291  0.50428733  0.30434121  1
  Mo  Mo228  1  0.70481791  0.50203491  0.89136369  1
  Mo  Mo229  1  0.60757649  0.79742944  0.40072829  1
  Mo  Mo230  1  0.28383304  0.69817855  0.29762589  1
  Mo  Mo231  1  0.10252866  0.70864728  0.89535617  1
  Mo  Mo232  1  0.01279705  0.79495657  0.19731502  1
  Mo  Mo233  1  0.29670404  0.49687834  0.69877714  1
  Mo  Mo234  1  0.92328720  0.90078993  0.70558051  1
  Mo  Mo235  1  0.29845029  0.69362092  0.70580530  1
  Mo  Mo236  1  0.29945799  0.09439524  0.90159017  1
  Mo  Mo237  1  0.59823946  0.40735781  0.80651106  1
  Mo  Mo238  1  -0.00313600  0.60404970  0.40880169  1
  Mo  Mo239  1  0.59954576  0.80139308  0.19773774  1
  Mo  Mo240  1  0.60246134  0.40186443  0.58777133  1
  Mo  Mo241  1  0.80684008  0.00118947  0.60897681  1
  Mo  Mo242  1  0.39743426  0.60478667  0.59862016  1
  Mo  Mo243  1  0.29639385  0.10174742  0.69578447  1
  Mo  Mo244  1  0.70090590  0.90252683  0.29234981  1
  Mo  Mo245  1  0.68917479  0.89665650  0.70529406  1
  Mo  Mo246  1  0.09693676  0.51404601  0.09141793  1
  Mo  Mo247  1  0.38603323  0.20999444  0.60486599  1
  Mo  Mo248  1  0.80250240  0.40893948  0.40361402  1
  Mo  Mo249  1  0.50067822  0.10429539  0.89885855  1
