# generated using pymatgen
data_HfZrTaTiMo
_symmetry_space_group_name_H-M   'P 1'
_cell_length_a   16.89039205
_cell_length_b   16.89488810
_cell_length_c   16.89350246
_cell_angle_alpha   89.97395161
_cell_angle_beta   89.94491159
_cell_angle_gamma   89.98833688
_symmetry_Int_Tables_number   1
_chemical_formula_structural   HfZrTaTiMo
_chemical_formula_sum   'Hf50 Zr50 Ta50 Ti50 Mo50'
_cell_volume   4820.74871856
_cell_formula_units_Z   50
loop_
 _symmetry_equiv_pos_site_id
 _symmetry_equiv_pos_as_xyz
  1  'x, y, z'
loop_
 _atom_site_type_symbol
 _atom_site_label
 _atom_site_symmetry_multiplicity
 _atom_site_fract_x
 _atom_site_fract_y
 _atom_site_fract_z
 _atom_site_occupancy
  Hf  Hf0  1  0.09611930  0.90478137  0.50224110  1
  Hf  Hf1  1  0.10730283  0.90616005  0.89358466  1
  Hf  Hf2  1  0.29531711  0.09952821  0.89280822  1
  Hf  Hf3  1  0.00035399  0.40746289  0.79462415  1
  Hf  Hf4  1  0.59511084  0.79816845  -0.00077593  1
  Hf  Hf5  1  0.42038633  0.59369672  0.20555245  1
  Hf  Hf6  1  0.29928132  0.50380046  0.29894833  1
  Hf  Hf7  1  0.19805562  0.60592611  0.39003480  1
  Hf  Hf8  1  0.51237261  0.29749555  0.11286489  1
  Hf  Hf9  1  0.40755536  0.40105090  0.20532445  1
  Hf  Hf10  1  0.00591810  0.39516610  0.00237502  1
  Hf  Hf11  1  0.59717407  0.59374080  0.39132711  1
  Hf  Hf12  1  0.79665552  0.00096239  0.00213575  1
  Hf  Hf13  1  0.39899448  0.79916428  0.80073296  1
  Hf  Hf14  1  0.79659158  0.80511369  0.00132827  1
  Hf  Hf15  1  0.70001866  0.49172648  0.69306940  1
  Hf  Hf16  1  0.09888815  0.10426726  0.90215616  1
  Hf  Hf17  1  0.59923110  0.19263188  0.00309605  1
  Hf  Hf18  1  0.89915067  0.50329796  0.89855821  1
  Hf  Hf19  1  0.49085346  0.89952132  0.11331534  1
  Hf  Hf20  1  0.19051362  0.39597172  0.00140821  1
  Hf  Hf21  1  0.69945453  0.10546679  0.88544164  1
  Hf  Hf22  1  0.20165531  0.79692019  0.60319342  1
  Hf  Hf23  1  0.40465878  -0.00412656  0.39914500  1
  Hf  Hf24  1  0.90564012  0.11577835  0.10306153  1
  Hf  Hf25  1  0.30045148  0.10043478  0.50576608  1
  Hf  Hf26  1  0.29923268  0.30488603  0.49999378  1
  Hf  Hf27  1  0.59301009  0.59371671  0.00352284  1
  Hf  Hf28  1  0.19274246  0.40006396  0.39626771  1
  Hf  Hf29  1  0.90146814  0.69342448  0.89688029  1
  Hf  Hf30  1  -0.02975140  0.00781677  0.41056691  1
  Hf  Hf31  1  0.20196419  0.79847086  0.20099740  1
  Hf  Hf32  1  0.19002480  0.40312358  0.19111210  1
  Hf  Hf33  1  0.49235804  0.49629500  0.89903280  1
  Hf  Hf34  1  0.69677612  0.69752282  0.89569991  1
  Hf  Hf35  1  0.40509972  0.59930785  0.59658830  1
  Hf  Hf36  1  0.41163169  0.40019906  0.39868219  1
  Hf  Hf37  1  0.60087303  0.20444057  0.40649376  1
  Hf  Hf38  1  0.18906759  0.59760144  0.00248895  1
  Hf  Hf39  1  0.80503746  0.39504235  0.40364936  1
  Hf  Hf40  1  0.31392377  0.10661224  0.28318077  1
  Hf  Hf41  1  0.88733259  0.87914103  0.30576816  1
  Hf  Hf42  1  0.09358156  0.89673281  0.10321286  1
  Hf  Hf43  1  0.90530370  0.49789285  0.29759582  1
  Hf  Hf44  1  0.80192818  0.79642308  0.79319238  1
  Hf  Hf45  1  0.19698128  0.60315046  0.60610868  1
  Hf  Hf46  1  0.79201532  0.01916775  0.20842733  1
  Hf  Hf47  1  0.20521200  0.00023196  0.19522697  1
  Hf  Hf48  1  0.30538650  0.50815201  0.09574932  1
  Hf  Hf49  1  0.69939864  0.49449439  0.10510971  1
  Zr  Zr50  1  0.70762337  0.71503266  0.30149060  1
  Zr  Zr51  1  -0.00760631  0.00319034  0.00077815  1
  Zr  Zr52  1  0.50154714  0.89725348  0.69901708  1
  Zr  Zr53  1  0.08901577  0.90010319  0.30882909  1
  Zr  Zr54  1  -0.00107053  0.80058461  -0.00448626  1
  Zr  Zr55  1  0.50724887  0.90076804  0.29675419  1
  Zr  Zr56  1  0.81858307  -0.00164282  0.58213910  1
  Zr  Zr57  1  0.29752063  0.49447262  0.70338790  1
  Zr  Zr58  1  0.29789933  0.68773562  0.90231824  1
  Zr  Zr59  1  -0.00466866  -0.00130257  0.79840804  1
  Zr  Zr60  1  0.29320807  0.90941250  0.70195240  1
  Zr  Zr61  1  -0.00399061  0.00629311  0.20622010  1
  Zr  Zr62  1  0.89694808  0.10705709  0.69728120  1
  Zr  Zr63  1  -0.00037942  0.20764262  0.59169589  1
  Zr  Zr64  1  0.50579244  0.10051070  0.50623669  1
  Zr  Zr65  1  0.90286298  0.50105177  0.50860220  1
  Zr  Zr66  1  0.48448701  0.10088063  0.12952679  1
  Zr  Zr67  1  0.00581890  0.20862894  0.79587819  1
  Zr  Zr68  1  0.30536371  0.30358411  0.70235175  1
  Zr  Zr69  1  0.89959201  0.70040564  0.11097729  1
  Zr  Zr70  1  0.69883150  0.29819665  0.11066463  1
  Zr  Zr71  1  0.10141264  0.09214955  0.49779803  1
  Zr  Zr72  1  0.79564740  0.20113292  0.00238929  1
  Zr  Zr73  1  0.80212955  -0.00122379  0.79932944  1
  Zr  Zr74  1  0.80113594  0.79755707  0.59871832  1
  Zr  Zr75  1  0.40288357  0.39640058  0.00977078  1
  Zr  Zr76  1  0.39651376  0.79893322  0.00134208  1
  Zr  Zr77  1  0.19363728  0.20882578  0.59854544  1
  Zr  Zr78  1  0.79970014  0.39648969  -0.00290363  1
  Zr  Zr79  1  0.39041569  0.00182844  0.00763625  1
  Zr  Zr80  1  0.79589391  0.59662557  0.39493043  1
  Zr  Zr81  1  0.49906531  0.29631824  0.89525858  1
  Zr  Zr82  1  0.20990107  0.80215010  0.39559327  1
  Zr  Zr83  1  0.30304790  0.69571089  0.10785691  1
  Zr  Zr84  1  0.69391146  0.89831563  0.11484773  1
  Zr  Zr85  1  0.09571641  0.50587508  0.50154930  1
  Zr  Zr86  1  0.69914431  0.90149932  0.30612158  1
  Zr  Zr87  1  0.09460578  0.70178747  0.49728090  1
  Zr  Zr88  1  0.50145199  0.10216746  0.69691023  1
  Zr  Zr89  1  0.30242770  0.30193200  0.89558294  1
  Zr  Zr90  1  0.10087787  0.28819046  0.29130510  1
  Zr  Zr91  1  0.79820421  0.59947467  0.60515654  1
  Zr  Zr92  1  0.40409904  0.60099724  0.79529629  1
  Zr  Zr93  1  0.40709705  0.20637461  0.39403069  1
  Zr  Zr94  1  0.59840104  0.00737564  0.00590682  1
  Zr  Zr95  1  0.58991045  0.38809195  0.60010132  1
  Zr  Zr96  1  0.90714913  0.69750728  0.49189905  1
  Zr  Zr97  1  0.69646425  0.90429447  0.69761888  1
  Zr  Zr98  1  0.69869664  0.30376915  0.29808308  1
  Zr  Zr99  1  0.80769781  0.20055879  0.40477944  1
  Ta  Ta100  1  0.00082127  0.39095863  0.40049063  1
  Ta  Ta101  1  0.21243756  0.00088379  0.39210271  1
  Ta  Ta102  1  0.50256859  0.70015519  0.50105093  1
  Ta  Ta103  1  0.09434446  0.70125064  0.10449633  1
  Ta  Ta104  1  0.10275025  0.90477168  0.69666590  1
  Ta  Ta105  1  0.50042021  0.90235049  0.89510951  1
  Ta  Ta106  1  0.68973133  0.89737632  0.89252288  1
  Ta  Ta107  1  0.29875220  0.09922181  0.69712716  1
  Ta  Ta108  1  0.50867312  0.70361099  0.69598147  1
  Ta  Ta109  1  0.29413217  0.90370200  0.89751077  1
  Ta  Ta110  1  0.18907493  0.40050324  0.80396131  1
  Ta  Ta111  1  0.79730373  0.40132518  0.79731495  1
  Ta  Ta112  1  0.59584116  0.00310566  0.79964128  1
  Ta  Ta113  1  0.19568825  0.79363938  0.79916045  1
  Ta  Ta114  1  0.60205886  0.59513636  0.20493936  1
  Ta  Ta115  1  0.79843991  0.59443268  0.79387816  1
  Ta  Ta116  1  0.20129139  0.00483700  0.00948922  1
  Ta  Ta117  1  0.80848124  0.39984484  0.20416045  1
  Ta  Ta118  1  0.00242546  0.79812994  0.60501937  1
  Ta  Ta119  1  0.60017863  0.80116247  0.59284278  1
  Ta  Ta120  1  0.89881086  0.29682697  0.89353136  1
  Ta  Ta121  1  0.29928665  0.49682148  0.89705436  1
  Ta  Ta122  1  0.69662116  0.10554706  0.68984777  1
  Ta  Ta123  1  0.70018923  0.69475817  0.10290449  1
  Ta  Ta124  1  0.39335213  0.19636494  0.00982696  1
  Ta  Ta125  1  0.69228377  0.69782882  0.49945096  1
  Ta  Ta126  1  0.79964219  0.20643456  0.59455105  1
  Ta  Ta127  1  0.60050846  0.39772864  0.79819988  1
  Ta  Ta128  1  0.30122036  0.50092280  0.49844025  1
  Ta  Ta129  1  0.19387607  0.20231723  0.00353078  1
  Ta  Ta130  1  -0.00229721  0.20865153  0.40213277  1
  Ta  Ta131  1  0.88942737  0.30878615  0.69677145  1
  Ta  Ta132  1  0.60117808  0.59666758  0.79391191  1
  Ta  Ta133  1  0.19464159  0.20393516  0.79771883  1
  Ta  Ta134  1  0.00339758  0.39868950  0.19658624  1
  Ta  Ta135  1  0.69401421  0.49284730  0.49872404  1
  Ta  Ta136  1  -0.00032754  0.40063092  0.60346530  1
  Ta  Ta137  1  0.90065708  0.50092976  0.10233513  1
  Ta  Ta138  1  0.20002448  0.80275156  0.00040322  1
  Ta  Ta139  1  0.40504735  0.60060650  0.40130158  1
  Ta  Ta140  1  0.70157156  0.29461940  0.70030404  1
  Ta  Ta141  1  0.00632805  0.79674646  0.79318218  1
  Ta  Ta142  1  0.79753869  0.59622747  0.20431648  1
  Ta  Ta143  1  0.70330637  0.09743912  0.50227585  1
  Ta  Ta144  1  0.40326262  0.79796661  0.40533027  1
  Ta  Ta145  1  0.11016537  0.08620180  0.69468651  1
  Ta  Ta146  1  0.40591668  0.40065457  0.59635317  1
  Ta  Ta147  1  0.91208644  0.68916023  0.70270402  1
  Ta  Ta148  1  0.00356961  0.59525551  0.00467548  1
  Ta  Ta149  1  0.40162398  -0.00609205  0.59590674  1
  Ti  Ti150  1  0.50074729  0.49554350  0.70238304  1
  Ti  Ti151  1  0.79728646  0.59772394  0.00213668  1
  Ti  Ti152  1  0.09887367  0.10171974  0.30237547  1
  Ti  Ti153  1  0.00475688  0.59733482  0.38356190  1
  Ti  Ti154  1  0.19377326  0.19043431  0.18478357  1
  Ti  Ti155  1  0.31181290  0.69993223  0.29650466  1
  Ti  Ti156  1  0.10181826  0.30855257  0.69777063  1
  Ti  Ti157  1  0.09787748  0.50504761  0.89455531  1
  Ti  Ti158  1  0.60016979  -0.00865108  0.59065549  1
  Ti  Ti159  1  0.50251682  0.69771498  0.89560523  1
  Ti  Ti160  1  0.31458660  0.89494001  0.28819051  1
  Ti  Ti161  1  0.18263577  0.59753640  0.20538503  1
  Ti  Ti162  1  0.29513923  0.29518790  0.29278692  1
  Ti  Ti163  1  0.59639599  0.20382981  0.79044568  1
  Ti  Ti164  1  0.90164372  0.12030521  0.29534274  1
  Ti  Ti165  1  0.70180730  0.29681441  0.88877737  1
  Ti  Ti166  1  0.29918109  0.90343975  0.50152817  1
  Ti  Ti167  1  0.69939219  0.30427781  0.50704184  1
  Ti  Ti168  1  0.89625237  0.89624104  0.11427409  1
  Ti  Ti169  1  0.07889838  0.71123268  0.29443774  1
  Ti  Ti170  1  0.40173023  0.19974582  0.79579157  1
  Ti  Ti171  1  0.91010230  0.89772874  0.69220201  1
  Ti  Ti172  1  0.49591864  0.69506014  0.09878360  1
  Ti  Ti173  1  0.89833833  0.11499798  0.89931701  1
  Ti  Ti174  1  0.90726723  0.29545601  0.10829057  1
  Ti  Ti175  1  0.19195232  0.40489822  0.59881538  1
  Ti  Ti176  1  0.40515716  0.80243979  0.59069265  1
  Ti  Ti177  1  0.59506634  0.80281541  0.41257100  1
  Ti  Ti178  1  0.50460207  0.49901415  0.49755494  1
  Ti  Ti179  1  0.41313374  0.21223197  0.60037589  1
  Ti  Ti180  1  0.60351749  0.00923123  0.39704800  1
  Ti  Ti181  1  0.00470763  0.59494453  0.19969077  1
  Ti  Ti182  1  0.60205465  0.39752612  -0.00460414  1
  Ti  Ti183  1  0.18910002  0.59999953  0.79374458  1
  Ti  Ti184  1  0.40191680  0.00189610  0.79941026  1
  Ti  Ti185  1  0.89774339  0.89566795  0.89530742  1
  Ti  Ti186  1  0.49880130  0.70685617  0.30440262  1
  Ti  Ti187  1  0.30620870  0.69708136  0.49700064  1
  Ti  Ti188  1  0.59790792  0.59906100  0.59922522  1
  Ti  Ti189  1  0.09528443  0.69717315  0.89575630  1
  Ti  Ti190  1  0.59562470  0.78469191  0.19593087  1
  Ti  Ti191  1  0.69049789  0.70032188  0.70021525  1
  Ti  Ti192  1  0.69794866  0.49957757  0.89668674  1
  Ti  Ti193  1  0.19845325  0.19800718  0.40041194  1
  Ti  Ti194  1  0.70736799  0.89989636  0.48930653  1
  Ti  Ti195  1  0.49515547  0.10098216  0.89772308  1
  Ti  Ti196  1  0.29921590  0.29194203  0.10693608  1
  Ti  Ti197  1  0.61774447  0.17532364  0.21157910  1
  Ti  Ti198  1  0.30322976  0.70175644  0.69924669  1
  Ti  Ti199  1  0.51355045  0.29959020  0.29401927  1
  Mo  Mo200  1  0.80533388  0.20637862  0.20580808  1
  Mo  Mo201  1  0.50566086  0.09902732  0.30313633  1
  Mo  Mo202  1  0.90328049  0.88434313  0.49853412  1
  Mo  Mo203  1  0.79593592  0.00461293  0.40111158  1
  Mo  Mo204  1  0.10044359  0.30708445  0.49595709  1
  Mo  Mo205  1  0.59970349  0.01080198  0.21224703  1
  Mo  Mo206  1  -0.00597455  0.79857825  0.40327777  1
  Mo  Mo207  1  0.09445030  0.50009484  0.29625058  1
  Mo  Mo208  1  0.00335230  -0.00749078  0.60088285  1
  Mo  Mo209  1  0.90524630  0.30097943  0.29267260  1
  Mo  Mo210  1  0.40334614  0.40101660  0.79241532  1
  Mo  Mo211  1  0.90492063  0.69433947  0.29714518  1
  Mo  Mo212  1  0.89926535  0.49976302  0.70240096  1
  Mo  Mo213  1  0.70326085  0.10081102  0.10536777  1
  Mo  Mo214  1  0.40620449  0.59696850  -0.00006064  1
  Mo  Mo215  1  -0.00419303  0.79632653  0.20225200  1
  Mo  Mo216  1  0.09882700  0.50259039  0.70137118  1
  Mo  Mo217  1  0.00401067  0.59967896  0.80490555  1
  Mo  Mo218  1  0.09359870  0.28960436  0.09785286  1
  Mo  Mo219  1  0.10000798  0.10212038  0.09713267  1
  Mo  Mo220  1  0.79805274  0.39570764  0.60005919  1
  Mo  Mo221  1  0.50297086  0.89619845  0.49885624  1
  Mo  Mo222  1  0.00165458  0.20884200  -0.00085447  1
  Mo  Mo223  1  0.00393112  0.59499367  0.62023460  1
  Mo  Mo224  1  0.50562705  0.49754107  0.30625468  1
  Mo  Mo225  1  0.70253032  0.10044448  0.31391136  1
  Mo  Mo226  1  0.89973305  0.11409209  0.50169188  1
  Mo  Mo227  1  0.60991140  0.20068729  0.59976002  1
  Mo  Mo228  1  0.39394729  -0.01148472  0.20298236  1
  Mo  Mo229  1  0.60019103  0.41645106  0.21218259  1
  Mo  Mo230  1  0.59665577  0.79700278  0.79956840  1
  Mo  Mo231  1  0.79846873  0.79147625  0.19402885  1
  Mo  Mo232  1  0.39587697  0.21964666  0.20277491  1
  Mo  Mo233  1  0.00353148  0.20219380  0.20082717  1
  Mo  Mo234  1  0.09276824  0.50658364  0.10239815  1
  Mo  Mo235  1  0.60136557  0.39943080  0.40471083  1
  Mo  Mo236  1  0.50913382  0.49717447  0.10166382  1
  Mo  Mo237  1  0.49935916  0.30060160  0.50278513  1
  Mo  Mo238  1  0.09882214  0.70177874  0.70475282  1
  Mo  Mo239  1  0.40280624  0.79066262  0.20816949  1
  Mo  Mo240  1  0.29589045  0.10836031  0.09853314  1
  Mo  Mo241  1  0.20720172  -0.00196043  0.59641221  1
  Mo  Mo242  1  0.50048786  0.29811967  0.70222327  1
  Mo  Mo243  1  0.29347816  0.89568090  0.09828411  1
  Mo  Mo244  1  0.09962650  0.29920383  0.89788119  1
  Mo  Mo245  1  0.90361445  0.30715214  0.50585006  1
  Mo  Mo246  1  0.20198253  0.00567836  0.80081576  1
  Mo  Mo247  1  0.79712317  0.20850277  0.79531604  1
  Mo  Mo248  1  0.79711555  0.79798695  0.41213876  1
  Mo  Mo249  1  0.70208829  0.49493867  0.29963997  1
