# generated using pymatgen
data_HfZrTaTiMo
_symmetry_space_group_name_H-M   'P 1'
_cell_length_a   16.89436000
_cell_length_b   16.89022205
_cell_length_c   16.88647159
_cell_angle_alpha   90.03512026
_cell_angle_beta   90.05096537
_cell_angle_gamma   89.97680159
_symmetry_Int_Tables_number   1
_chemical_formula_structural   HfZrTaTiMo
_chemical_formula_sum   'Hf50 Zr50 Ta50 Ti50 Mo50'
_cell_volume   4818.54288294
_cell_formula_units_Z   50
loop_
 _symmetry_equiv_pos_site_id
 _symmetry_equiv_pos_as_xyz
  1  'x, y, z'
loop_
 _atom_site_type_symbol
 _atom_site_label
 _atom_site_symmetry_multiplicity
 _atom_site_fract_x
 _atom_site_fract_y
 _atom_site_fract_z
 _atom_site_occupancy
  Hf  Hf0  1  0.50011066  0.49061796  0.10194918  1
  Hf  Hf1  1  0.10726367  0.49764909  0.09088207  1
  Hf  Hf2  1  0.00232964  0.18710619  0.60074898  1
  Hf  Hf3  1  0.60496106  0.19917519  -0.00058109  1
  Hf  Hf4  1  0.39402113  0.20185245  0.39802919  1
  Hf  Hf5  1  0.90650895  0.89999703  0.10349766  1
  Hf  Hf6  1  0.59681431  0.60330706  0.60886136  1
  Hf  Hf7  1  0.40458383  0.78451588  0.79441589  1
  Hf  Hf8  1  0.60953892  0.59455909  0.00876740  1
  Hf  Hf9  1  0.19950859  0.80185885  0.20168823  1
  Hf  Hf10  1  0.80682655  0.81324687  0.21852344  1
  Hf  Hf11  1  0.89544629  0.30146628  0.09791963  1
  Hf  Hf12  1  0.30502703  0.49689433  0.69164720  1
  Hf  Hf13  1  0.89638135  0.29243475  0.30152929  1
  Hf  Hf14  1  0.09944837  0.49330860  0.70539851  1
  Hf  Hf15  1  -0.00287231  0.59253684  0.80233186  1
  Hf  Hf16  1  0.20274930  0.20605601  -0.00865703  1
  Hf  Hf17  1  0.49902063  0.30158713  0.50274044  1
  Hf  Hf18  1  0.29484197  0.90168662  0.49945559  1
  Hf  Hf19  1  0.79751602  0.59987342  0.39597833  1
  Hf  Hf20  1  0.70474766  0.70206675  0.50697724  1
  Hf  Hf21  1  0.80048550  0.20680720  -0.00512860  1
  Hf  Hf22  1  0.49076367  0.70800236  0.50348095  1
  Hf  Hf23  1  -0.00640097  0.19964556  0.79681279  1
  Hf  Hf24  1  0.20887032  0.60581045  0.21402867  1
  Hf  Hf25  1  0.70249824  0.90837165  0.69943378  1
  Hf  Hf26  1  0.40078698  0.60337995  0.20951361  1
  Hf  Hf27  1  0.59900280  0.01397176  0.79820398  1
  Hf  Hf28  1  0.50818173  0.30466934  0.89529338  1
  Hf  Hf29  1  0.29342112  0.50283028  0.08986180  1
  Hf  Hf30  1  0.10212609  0.70125100  0.09482438  1
  Hf  Hf31  1  0.19322921  0.39239462  0.20758759  1
  Hf  Hf32  1  0.69444857  0.49798315  0.50010811  1
  Hf  Hf33  1  0.59574131  0.79788264  0.60834616  1
  Hf  Hf34  1  0.10248821  0.49651440  0.50170822  1
  Hf  Hf35  1  0.00119827  0.39328011  0.39911139  1
  Hf  Hf36  1  0.29611782  0.30637092  0.09632305  1
  Hf  Hf37  1  -0.00644569  0.59060584  -0.00333140  1
  Hf  Hf38  1  0.71373902  0.90546473  0.09368128  1
  Hf  Hf39  1  0.10229163  0.90462920  0.49961363  1
  Hf  Hf40  1  0.81189051  0.81991697  0.59787945  1
  Hf  Hf41  1  0.89891195  0.28830012  0.50255420  1
  Hf  Hf42  1  0.39544134  0.00746622  0.40203073  1
  Hf  Hf43  1  0.50033132  0.48716901  0.50481666  1
  Hf  Hf44  1  0.19714952  0.78884541  0.79163401  1
  Hf  Hf45  1  0.89717747  0.70608801  0.90402534  1
  Hf  Hf46  1  0.61283468  0.19184469  0.60463909  1
  Hf  Hf47  1  0.69880697  0.29790321  0.49869720  1
  Hf  Hf48  1  0.50868103  0.48689687  0.30135726  1
  Hf  Hf49  1  0.70404632  0.49866922  0.70987372  1
  Zr  Zr50  1  0.59627499  0.60679642  0.39025428  1
  Zr  Zr51  1  0.58782961  0.81035754  0.00710835  1
  Zr  Zr52  1  0.20161274  0.78294331  0.39841393  1
  Zr  Zr53  1  0.70471998  0.90039549  0.89901641  1
  Zr  Zr54  1  0.50213707  0.10462826  0.29701213  1
  Zr  Zr55  1  0.60945236  0.20035755  0.79350282  1
  Zr  Zr56  1  0.49480342  0.30773179  0.10499843  1
  Zr  Zr57  1  0.10452609  0.50020779  0.31119355  1
  Zr  Zr58  1  0.10210617  0.09638746  0.10182453  1
  Zr  Zr59  1  0.29241566  0.69621467  0.90821690  1
  Zr  Zr60  1  0.51699659  0.48955046  0.89321028  1
  Zr  Zr61  1  0.40150803  0.00256812  -0.00411356  1
  Zr  Zr62  1  0.30246498  0.89903809  0.69210809  1
  Zr  Zr63  1  0.71146737  0.70521081  0.90237061  1
  Zr  Zr64  1  0.20607942  0.00295186  0.79645280  1
  Zr  Zr65  1  0.79590701  0.40297713  0.39367383  1
  Zr  Zr66  1  0.59136302  0.79537506  0.20487397  1
  Zr  Zr67  1  0.59540991  -0.00427889  0.18381342  1
  Zr  Zr68  1  0.49476596  0.90416785  0.69614081  1
  Zr  Zr69  1  0.80463282  0.39809473  0.60923157  1
  Zr  Zr70  1  0.09739610  0.09742761  0.89409100  1
  Zr  Zr71  1  0.69055962  0.91084386  0.30976008  1
  Zr  Zr72  1  0.89826517  0.69801922  0.50689711  1
  Zr  Zr73  1  0.19745477  0.60500672  0.59823461  1
  Zr  Zr74  1  -0.00431804  0.59793378  0.19860466  1
  Zr  Zr75  1  0.39585720  0.19661359  -0.01276959  1
  Zr  Zr76  1  0.09814904  0.90359457  0.30618914  1
  Zr  Zr77  1  0.20557932  0.19642618  0.78940477  1
  Zr  Zr78  1  0.70984617  0.70852256  0.09477229  1
  Zr  Zr79  1  0.40295549  0.59431928  -0.00823604  1
  Zr  Zr80  1  0.09637978  0.89788392  0.69702190  1
  Zr  Zr81  1  -0.00055901  0.20658676  -0.00050110  1
  Zr  Zr82  1  0.49416884  0.90498005  0.30736132  1
  Zr  Zr83  1  0.21123617  0.39434946  0.80322871  1
  Zr  Zr84  1  0.81031671  -0.00438428  0.41083948  1
  Zr  Zr85  1  0.59815370  0.61030663  0.79905268  1
  Zr  Zr86  1  0.50611608  0.30024676  0.29686025  1
  Zr  Zr87  1  -0.00058408  -0.00352730  -0.00318070  1
  Zr  Zr88  1  0.49596963  0.30508372  0.69474275  1
  Zr  Zr89  1  0.49625740  0.90040860  0.89255983  1
  Zr  Zr90  1  0.20641260  -0.00469319  -0.00203070  1
  Zr  Zr91  1  0.28886285  0.11291092  0.50383356  1
  Zr  Zr92  1  0.79344921  0.18244787  0.40280846  1
  Zr  Zr93  1  0.89814277  0.70965201  0.09780059  1
  Zr  Zr94  1  0.10311017  0.29264051  0.50055883  1
  Zr  Zr95  1  0.00107548  0.39670385  0.19535012  1
  Zr  Zr96  1  0.01260240  0.20187500  0.20842095  1
  Zr  Zr97  1  0.49134398  0.10830740  0.10992335  1
  Zr  Zr98  1  0.79186702  0.59286381  0.20206072  1
  Zr  Zr99  1  0.38963262  0.59819370  0.39634581  1
  Ta  Ta100  1  0.39445088  0.20047313  0.79939613  1
  Ta  Ta101  1  0.79474215  0.40239409  0.19433576  1
  Ta  Ta102  1  -0.00853757  0.40352670  -0.00918638  1
  Ta  Ta103  1  0.19408127  0.78975387  0.60068920  1
  Ta  Ta104  1  0.62325381  0.39450685  0.00794980  1
  Ta  Ta105  1  -0.00271544  0.60255632  0.40400889  1
  Ta  Ta106  1  0.49364605  0.69824189  0.10185390  1
  Ta  Ta107  1  0.39512873  0.00863796  0.59725865  1
  Ta  Ta108  1  -0.00859191  0.80390175  0.40378005  1
  Ta  Ta109  1  0.09844810  0.69904660  0.90108225  1
  Ta  Ta110  1  0.59648951  0.01187604  -0.00480969  1
  Ta  Ta111  1  0.80855540  0.00287203  0.79521371  1
  Ta  Ta112  1  0.49570030  0.90289958  0.50356044  1
  Ta  Ta113  1  0.90371734  0.70372636  0.30296175  1
  Ta  Ta114  1  0.39051882  0.39788509  0.39999682  1
  Ta  Ta115  1  0.71082423  0.09722630  0.09633930  1
  Ta  Ta116  1  0.49818689  0.49161064  0.69955146  1
  Ta  Ta117  1  0.48731620  0.10620378  0.69490202  1
  Ta  Ta118  1  0.09708709  0.89231669  0.89332683  1
  Ta  Ta119  1  0.18706149  0.19524012  0.39040467  1
  Ta  Ta120  1  0.00111863  -0.00272603  0.20563149  1
  Ta  Ta121  1  0.90135301  0.50249895  0.50476650  1
  Ta  Ta122  1  0.19837775  -0.00259760  0.20029365  1
  Ta  Ta123  1  0.90098508  0.50059064  0.30164913  1
  Ta  Ta124  1  0.71022082  0.10140809  0.89589148  1
  Ta  Ta125  1  0.09651621  0.29894689  0.69890463  1
  Ta  Ta126  1  0.29920647  0.70145695  0.09675996  1
  Ta  Ta127  1  0.39526102  0.39776337  0.79960549  1
  Ta  Ta128  1  0.81473394  0.39827461  0.80365542  1
  Ta  Ta129  1  0.19670224  0.20217592  0.20401461  1
  Ta  Ta130  1  0.19938360  0.39218763  0.60170474  1
  Ta  Ta131  1  -0.00404354  0.39963660  0.60733034  1
  Ta  Ta132  1  -0.00186442  0.59716146  0.60714449  1
  Ta  Ta133  1  0.59792882  0.80254036  0.40659315  1
  Ta  Ta134  1  0.38494370  0.40071406  -0.01905428  1
  Ta  Ta135  1  0.80354354  0.80870827  0.40467703  1
  Ta  Ta136  1  0.69507967  0.29818771  0.29863036  1
  Ta  Ta137  1  0.39544126  0.79664682  0.20328631  1
  Ta  Ta138  1  0.40117104  0.59449873  0.79791362  1
  Ta  Ta139  1  0.09524456  0.31061740  0.89430365  1
  Ta  Ta140  1  0.80859589  0.00695274  0.21076431  1
  Ta  Ta141  1  0.71928606  0.70072621  0.70012657  1
  Ta  Ta142  1  0.70934088  0.30525990  0.89148135  1
  Ta  Ta143  1  0.29988707  0.89547061  0.10219043  1
  Ta  Ta144  1  -0.00988128  0.00146277  0.59666272  1
  Ta  Ta145  1  0.89690565  0.09924694  0.10600608  1
  Ta  Ta146  1  0.18903956  0.01834585  0.60351060  1
  Ta  Ta147  1  0.89905990  0.69781885  0.69981108  1
  Ta  Ta148  1  -0.00744924  0.00132847  0.78889016  1
  Ta  Ta149  1  0.81133511  0.80884910  0.79299307  1
  Ti  Ti150  1  0.69284755  0.09818639  0.29484031  1
  Ti  Ti151  1  -0.00091707  0.79641797  0.79314597  1
  Ti  Ti152  1  0.79420875  0.19640507  0.20063803  1
  Ti  Ti153  1  0.00806667  0.80702719  -0.00000676  1
  Ti  Ti154  1  0.29607574  0.29978056  0.50445460  1
  Ti  Ti155  1  0.61057903  0.39374277  0.61271970  1
  Ti  Ti156  1  0.28876462  0.09569246  0.29650074  1
  Ti  Ti157  1  0.61857089  0.40286172  0.19575720  1
  Ti  Ti158  1  0.29603792  0.48875749  0.49948012  1
  Ti  Ti159  1  0.69980172  0.70771685  0.30452055  1
  Ti  Ti160  1  0.08761507  0.70176009  0.30110557  1
  Ti  Ti161  1  0.49623063  0.10533144  0.50715050  1
  Ti  Ti162  1  0.38261529  0.20610156  0.20707816  1
  Ti  Ti163  1  0.20588464  0.60242825  0.40102820  1
  Ti  Ti164  1  0.60330018  0.60072255  0.20145466  1
  Ti  Ti165  1  0.80739981  0.00401235  -0.00660866  1
  Ti  Ti166  1  0.69336774  0.90731233  0.50670208  1
  Ti  Ti167  1  0.60308876  0.19157921  0.40481463  1
  Ti  Ti168  1  0.88756021  0.10078208  0.69273617  1
  Ti  Ti169  1  0.89821686  0.29589069  0.70377821  1
  Ti  Ti170  1  0.28909913  0.30318007  0.31053767  1
  Ti  Ti171  1  0.50237213  0.69989409  0.90584958  1
  Ti  Ti172  1  0.39907677  0.79725627  0.39258090  1
  Ti  Ti173  1  0.40378745  0.59883698  0.60160029  1
  Ti  Ti174  1  0.90977857  0.10071642  0.30297857  1
  Ti  Ti175  1  0.30481023  0.29278779  0.68362416  1
  Ti  Ti176  1  0.59929878  0.79096169  0.79269899  1
  Ti  Ti177  1  0.89501936  0.10340691  0.89458798  1
  Ti  Ti178  1  0.30074582  0.89481348  0.89742645  1
  Ti  Ti179  1  0.00085274  0.79865457  0.60330928  1
  Ti  Ti180  1  0.00001647  0.00935269  0.40646410  1
  Ti  Ti181  1  0.90615948  0.89925306  0.89413033  1
  Ti  Ti182  1  0.19588247  0.80727878  0.00030579  1
  Ti  Ti183  1  0.60053473  0.01043590  0.60106274  1
  Ti  Ti184  1  0.39154622  -0.00695586  0.19782788  1
  Ti  Ti185  1  0.30620267  0.69594005  0.69077019  1
  Ti  Ti186  1  0.30630047  0.70582029  0.50675796  1
  Ti  Ti187  1  0.10905551  0.49816204  0.90151855  1
  Ti  Ti188  1  0.39353004  0.01565813  0.80239232  1
  Ti  Ti189  1  0.81021306  0.59421436  0.80144798  1
  Ti  Ti190  1  0.09262034  0.69781676  0.50125341  1
  Ti  Ti191  1  0.29580212  0.90285911  0.30380853  1
  Ti  Ti192  1  0.60047857  0.01129422  0.41616863  1
  Ti  Ti193  1  0.70876464  0.49228632  0.89891672  1
  Ti  Ti194  1  0.80617081  0.57629888  0.00509886  1
  Ti  Ti195  1  0.29725249  0.10063460  0.10547183  1
  Ti  Ti196  1  0.39953841  0.80181032  0.00533106  1
  Ti  Ti197  1  0.61355975  0.20411134  0.18951618  1
  Ti  Ti198  1  0.38341360  0.40581749  0.21153905  1
  Ti  Ti199  1  0.20072125  0.60197390  0.79871257  1
  Mo  Mo200  1  0.69805458  0.09272009  0.50827321  1
  Mo  Mo201  1  0.39330299  0.80267568  0.59609766  1
  Mo  Mo202  1  0.80070778  0.19650757  0.60692766  1
  Mo  Mo203  1  0.09238569  0.09907815  0.69620678  1
  Mo  Mo204  1  0.71512943  0.09804282  0.69858815  1
  Mo  Mo205  1  0.09105317  0.69628067  0.70136263  1
  Mo  Mo206  1  0.50387222  0.10373490  0.88912933  1
  Mo  Mo207  1  0.90540458  0.90062782  0.70093334  1
  Mo  Mo208  1  0.69950107  0.49763679  0.10029122  1
  Mo  Mo209  1  0.30391526  0.10148348  0.89344594  1
  Mo  Mo210  1  0.39757982  0.20106087  0.59870274  1
  Mo  Mo211  1  0.59889430  0.39160013  0.39499314  1
  Mo  Mo212  1  0.48823316  0.69292429  0.69732189  1
  Mo  Mo213  1  0.50103455  0.70437818  0.29984701  1
  Mo  Mo214  1  0.90928614  0.90436182  0.30544315  1
  Mo  Mo215  1  0.30475452  0.10377112  0.69480645  1
  Mo  Mo216  1  0.61352629  0.39876785  0.79915375  1
  Mo  Mo217  1  0.10347142  0.30662895  0.08646515  1
  Mo  Mo218  1  0.29906298  0.49433267  0.30842447  1
  Mo  Mo219  1  0.81522801  0.81938410  -0.01294507  1
  Mo  Mo220  1  0.80136318  0.40251898  -0.00218704  1
  Mo  Mo221  1  0.19421699  0.60218010  -0.00666951  1
  Mo  Mo222  1  0.19362985  0.39924885  -0.00600186  1
  Mo  Mo223  1  0.70574596  0.29520074  0.10437693  1
  Mo  Mo224  1  0.29464612  0.50233721  0.89177625  1
  Mo  Mo225  1  0.80509538  0.20044996  0.79862466  1
  Mo  Mo226  1  0.19908255  0.00856512  0.39647101  1
  Mo  Mo227  1  0.19640462  0.20238517  0.60121127  1
  Mo  Mo228  1  0.91198575  0.90147797  0.50212339  1
  Mo  Mo229  1  0.10179734  0.09429695  0.30257164  1
  Mo  Mo230  1  0.89854330  0.09621503  0.50426098  1
  Mo  Mo231  1  0.30047076  0.30008035  0.89559200  1
  Mo  Mo232  1  -0.00011678  0.18640327  0.40250386  1
  Mo  Mo233  1  0.80184438  0.00612683  0.60077533  1
  Mo  Mo234  1  -0.00243066  0.39703446  0.79948972  1
  Mo  Mo235  1  0.71383978  0.29798642  0.70533035  1
  Mo  Mo236  1  0.20537033  0.39151006  0.40640972  1
  Mo  Mo237  1  0.10131581  0.29417893  0.30625509  1
  Mo  Mo238  1  0.30259794  0.70456830  0.30136438  1
  Mo  Mo239  1  0.90239601  0.30564452  0.89580378  1
  Mo  Mo240  1  0.48125970  0.89613243  0.10045021  1
  Mo  Mo241  1  0.10267669  0.89601977  0.10068444  1
  Mo  Mo242  1  0.09541124  0.09682807  0.49490884  1
  Mo  Mo243  1  0.90100161  0.50201356  0.70153843  1
  Mo  Mo244  1  0.39030555  0.39870911  0.59714417  1
  Mo  Mo245  1  0.89443702  0.49758071  0.89956558  1
  Mo  Mo246  1  0.89513251  0.49177929  0.09792171  1
  Mo  Mo247  1  0.00297091  0.80298016  0.20902358  1
  Mo  Mo248  1  0.80334349  0.59554131  0.60768335  1
  Mo  Mo249  1  0.69779841  0.49390043  0.29540503  1
