# generated using pymatgen
data_HfZrTaTiMo
_symmetry_space_group_name_H-M   'P 1'
_cell_length_a   16.87506988
_cell_length_b   16.88049087
_cell_length_c   16.88710859
_cell_angle_alpha   90.01035634
_cell_angle_beta   90.00353058
_cell_angle_gamma   90.04913577
_symmetry_Int_Tables_number   1
_chemical_formula_structural   HfZrTaTiMo
_chemical_formula_sum   'Hf50 Zr50 Ta50 Ti50 Mo50'
_cell_volume   4810.45083029
_cell_formula_units_Z   50
loop_
 _symmetry_equiv_pos_site_id
 _symmetry_equiv_pos_as_xyz
  1  'x, y, z'
loop_
 _atom_site_type_symbol
 _atom_site_label
 _atom_site_symmetry_multiplicity
 _atom_site_fract_x
 _atom_site_fract_y
 _atom_site_fract_z
 _atom_site_occupancy
  Hf  Hf0  1  0.20317099  0.40704880  0.40438237  1
  Hf  Hf1  1  0.80280152  0.60500011  0.80119344  1
  Hf  Hf2  1  0.20077562  0.79643700  0.40162306  1
  Hf  Hf3  1  0.69359690  0.10264993  0.49838297  1
  Hf  Hf4  1  0.79120337  -0.00461041  0.19571265  1
  Hf  Hf5  1  0.70377291  0.50010635  0.69422775  1
  Hf  Hf6  1  0.39960185  -0.00356016  -0.00425153  1
  Hf  Hf7  1  0.60031788  0.20755932  0.80094983  1
  Hf  Hf8  1  0.60094397  0.39432843  -0.01341749  1
  Hf  Hf9  1  -0.00031095  0.20488316  -0.00612126  1
  Hf  Hf10  1  0.19458607  0.20525332  0.00149824  1
  Hf  Hf11  1  0.90205136  0.29895209  0.50453187  1
  Hf  Hf12  1  0.09552311  0.09031081  0.10062795  1
  Hf  Hf13  1  0.39181824  0.19533883  0.19668494  1
  Hf  Hf14  1  0.29769932  0.30646742  0.10211116  1
  Hf  Hf15  1  0.89419936  0.88609699  0.50577337  1
  Hf  Hf16  1  0.20541011  0.60081006  0.59695226  1
  Hf  Hf17  1  0.70870585  0.29045919  0.08913241  1
  Hf  Hf18  1  0.08785106  0.89247415  0.50643192  1
  Hf  Hf19  1  0.20309491  0.80324408  0.00080808  1
  Hf  Hf20  1  0.19275351  0.41451419  0.20263082  1
  Hf  Hf21  1  0.20154897  0.59205753  0.39966988  1
  Hf  Hf22  1  0.50624748  0.10392119  0.30263644  1
  Hf  Hf23  1  0.39897171  0.58947699  0.60400573  1
  Hf  Hf24  1  0.50451440  0.71103177  0.50220336  1
  Hf  Hf25  1  0.30660830  0.69508627  0.09710400  1
  Hf  Hf26  1  0.59607921  0.58842110  0.40244994  1
  Hf  Hf27  1  0.19379218  0.78668663  0.60140207  1
  Hf  Hf28  1  0.50950266  0.69389057  0.08263480  1
  Hf  Hf29  1  0.09248606  0.89968105  0.70481792  1
  Hf  Hf30  1  0.89353527  0.30197233  0.29225118  1
  Hf  Hf31  1  0.09903896  0.90218657  0.29741488  1
  Hf  Hf32  1  0.30504732  0.89684300  0.50572814  1
  Hf  Hf33  1  0.69642646  0.49996596  0.09167390  1
  Hf  Hf34  1  0.41172864  -0.00649800  0.40727665  1
  Hf  Hf35  1  0.69212837  0.29391930  0.30931266  1
  Hf  Hf36  1  0.69121691  0.89751372  0.08765396  1
  Hf  Hf37  1  0.00108556  0.79256286  0.19972592  1
  Hf  Hf38  1  0.40417072  0.59096443  0.20092307  1
  Hf  Hf39  1  0.47907643  0.28816117  0.89872449  1
  Hf  Hf40  1  0.40036858  0.20158116  0.60391273  1
  Hf  Hf41  1  0.71212979  0.10805923  0.90353230  1
  Hf  Hf42  1  0.70683399  0.09584655  0.70414606  1
  Hf  Hf43  1  -0.01149694  0.00254675  0.40060426  1
  Hf  Hf44  1  0.90759940  0.89893847  0.09457249  1
  Hf  Hf45  1  -0.01149620  0.01833908  0.59151573  1
  Hf  Hf46  1  0.39798596  0.41076378  0.79362010  1
  Hf  Hf47  1  0.70279157  0.71905459  0.30535673  1
  Hf  Hf48  1  0.40554606  0.80357873  -0.00393970  1
  Hf  Hf49  1  0.89398598  0.10411325  0.09288006  1
  Zr  Zr50  1  0.00740936  0.40794364  0.39666529  1
  Zr  Zr51  1  0.40256358  0.79467683  0.80795889  1
  Zr  Zr52  1  0.30850626  0.31230578  0.50221677  1
  Zr  Zr53  1  0.20073077  -0.00163441  0.40395300  1
  Zr  Zr54  1  -0.00546031  0.79487630  0.79968216  1
  Zr  Zr55  1  0.09944205  0.49848613  0.70196520  1
  Zr  Zr56  1  0.38167230  0.41633082  -0.00549709  1
  Zr  Zr57  1  0.09287932  0.10753836  0.70831110  1
  Zr  Zr58  1  0.19825807  0.20827405  0.60404412  1
  Zr  Zr59  1  0.70563402  0.70439792  0.50860764  1
  Zr  Zr60  1  0.30084460  0.09723640  0.30558789  1
  Zr  Zr61  1  0.50947758  0.30052918  0.49289161  1
  Zr  Zr62  1  0.50048655  0.31161155  0.68831901  1
  Zr  Zr63  1  0.50642909  0.71015452  0.30246407  1
  Zr  Zr64  1  0.50767948  0.89382672  0.70227383  1
  Zr  Zr65  1  0.10521539  0.69647141  0.90067115  1
  Zr  Zr66  1  0.90031872  0.49951010  0.69507719  1
  Zr  Zr67  1  0.49159541  0.30358972  0.09597160  1
  Zr  Zr68  1  0.79991357  0.60361636  0.19789596  1
  Zr  Zr69  1  0.39568993  0.78616817  0.61137489  1
  Zr  Zr70  1  0.68591381  0.08933092  0.29988644  1
  Zr  Zr71  1  0.08986232  0.30699534  0.10835514  1
  Zr  Zr72  1  0.80355832  0.59809074  -0.00237383  1
  Zr  Zr73  1  0.19789090  0.00362334  0.60169949  1
  Zr  Zr74  1  -0.00698041  0.19501686  0.40219189  1
  Zr  Zr75  1  0.70477207  0.89880317  0.89112856  1
  Zr  Zr76  1  0.09836619  0.90597646  0.09771132  1
  Zr  Zr77  1  0.39513907  0.60192994  0.78909920  1
  Zr  Zr78  1  0.29493374  0.89757047  0.70892202  1
  Zr  Zr79  1  0.31041699  0.70112299  0.29850078  1
  Zr  Zr80  1  -0.00577111  0.19279981  0.20709112  1
  Zr  Zr81  1  0.00999261  0.58519176  0.20142535  1
  Zr  Zr82  1  0.59304705  0.59210099  0.60171056  1
  Zr  Zr83  1  0.51997568  0.91456377  0.28378961  1
  Zr  Zr84  1  0.89686942  0.49534009  0.29865278  1
  Zr  Zr85  1  0.60367697  0.59865180  0.20468555  1
  Zr  Zr86  1  0.89156325  0.90420291  0.70511337  1
  Zr  Zr87  1  0.10009354  0.69383062  0.30236173  1
  Zr  Zr88  1  0.81075714  -0.00375841  -0.01099087  1
  Zr  Zr89  1  0.89590828  0.50417562  0.51128654  1
  Zr  Zr90  1  0.61306598  0.83716025  0.41589520  1
  Zr  Zr91  1  0.59668141  0.00614544  0.80356363  1
  Zr  Zr92  1  0.80202674  0.60265291  0.40306426  1
  Zr  Zr93  1  0.30514792  0.11311949  0.90152394  1
  Zr  Zr94  1  0.29965506  0.10656290  0.71102379  1
  Zr  Zr95  1  0.78189725  -0.02122929  0.40239917  1
  Zr  Zr96  1  0.50268567  0.51660205  0.90400457  1
  Zr  Zr97  1  0.49426161  0.10862441  0.08434757  1
  Zr  Zr98  1  0.59822634  0.39742368  0.19748546  1
  Zr  Zr99  1  0.89916258  0.10856080  0.71116684  1
  Ta  Ta100  1  0.19747969  0.00085884  0.80885287  1
  Ta  Ta101  1  0.10001724  0.11208209  0.49821906  1
  Ta  Ta102  1  0.20611048  0.58636204  0.00217385  1
  Ta  Ta103  1  0.20363463  0.79785855  0.19598896  1
  Ta  Ta104  1  0.10393416  0.09956154  0.30162300  1
  Ta  Ta105  1  0.70040169  0.70347639  0.70316806  1
  Ta  Ta106  1  0.89833613  0.30086921  0.89753505  1
  Ta  Ta107  1  0.00089351  0.40181474  -0.00687039  1
  Ta  Ta108  1  -0.00189604  0.59875274  0.80240597  1
  Ta  Ta109  1  0.10528127  0.29893173  0.30223434  1
  Ta  Ta110  1  0.70004089  0.50017586  0.89407646  1
  Ta  Ta111  1  0.90596886  0.29966332  0.70154467  1
  Ta  Ta112  1  0.09839132  0.90577112  0.90288914  1
  Ta  Ta113  1  0.30416982  0.10349894  0.50130148  1
  Ta  Ta114  1  0.80178267  0.20116764  0.59990309  1
  Ta  Ta115  1  0.70074548  0.48756228  0.50282752  1
  Ta  Ta116  1  0.40765998  0.80878143  0.40005181  1
  Ta  Ta117  1  0.80493526  0.79291179  -0.00476829  1
  Ta  Ta118  1  0.40751953  0.00472214  0.60477349  1
  Ta  Ta119  1  0.49608857  0.50431011  0.09258363  1
  Ta  Ta120  1  0.90527648  0.48863947  0.09804511  1
  Ta  Ta121  1  0.90552714  0.69599746  0.90477295  1
  Ta  Ta122  1  0.30460495  0.30610981  0.29976614  1
  Ta  Ta123  1  0.89548427  0.30405565  0.09771603  1
  Ta  Ta124  1  0.10160820  0.30006184  0.50299573  1
  Ta  Ta125  1  0.19268761  0.40581704  -0.00466089  1
  Ta  Ta126  1  0.10195982  0.49864639  0.89331864  1
  Ta  Ta127  1  0.70060665  0.48664697  0.30814710  1
  Ta  Ta128  1  0.49483498  0.30101490  0.30264902  1
  Ta  Ta129  1  0.29573727  0.69221716  0.89895370  1
  Ta  Ta130  1  0.10386656  0.69372564  0.09514213  1
  Ta  Ta131  1  0.50562292  0.10415356  0.50351341  1
  Ta  Ta132  1  0.79784077  0.39636136  0.80168770  1
  Ta  Ta133  1  0.60478446  0.39919978  0.79589559  1
  Ta  Ta134  1  0.30876609  0.69655902  0.49225775  1
  Ta  Ta135  1  0.20042532  0.19713138  0.20371175  1
  Ta  Ta136  1  0.40613826  0.58875305  0.40701085  1
  Ta  Ta137  1  0.80302125  0.39872841  -0.00978117  1
  Ta  Ta138  1  0.40624181  0.00321959  0.80705055  1
  Ta  Ta139  1  -0.00401039  0.78807014  0.40440268  1
  Ta  Ta140  1  0.30710244  0.89724709  0.29211573  1
  Ta  Ta141  1  0.28833552  0.30212117  0.88707945  1
  Ta  Ta142  1  0.20244275  0.59263741  0.19537202  1
  Ta  Ta143  1  0.60110011  -0.00580028  0.59884754  1
  Ta  Ta144  1  0.09935324  0.09893477  0.89913955  1
  Ta  Ta145  1  0.00748245  0.39321279  0.60273108  1
  Ta  Ta146  1  0.60144720  0.19720343  0.19164293  1
  Ta  Ta147  1  0.40154899  -0.00142325  0.18745402  1
  Ta  Ta148  1  0.89151534  0.88479178  0.30173779  1
  Ta  Ta149  1  0.90873026  0.69523799  0.09322690  1
  Ti  Ti150  1  0.60874356  0.20302845  0.60790599  1
  Ti  Ti151  1  0.80271740  0.79587054  0.80507677  1
  Ti  Ti152  1  0.40928991  0.80807057  0.19292993  1
  Ti  Ti153  1  0.29374647  0.30724268  0.70499487  1
  Ti  Ti154  1  0.68968124  0.69625857  0.90504516  1
  Ti  Ti155  1  0.90271645  0.49801135  0.89826450  1
  Ti  Ti156  1  0.09746332  0.50184881  0.50588429  1
  Ti  Ti157  1  0.79765896  0.00289071  0.60056402  1
  Ti  Ti158  1  0.49967327  0.10502799  0.70358182  1
  Ti  Ti159  1  0.20264279  0.20376282  0.39931195  1
  Ti  Ti160  1  0.79507889  0.38445454  0.60672368  1
  Ti  Ti161  1  0.31187289  0.49195959  0.30173363  1
  Ti  Ti162  1  0.00615983  0.58997679  -0.00078254  1
  Ti  Ti163  1  0.89957399  0.10802000  0.89400040  1
  Ti  Ti164  1  0.20951156  0.00257995  0.19784405  1
  Ti  Ti165  1  0.69433838  0.29990865  0.49989340  1
  Ti  Ti166  1  0.79559295  0.79970560  0.61112132  1
  Ti  Ti167  1  0.60033640  0.80413381  0.18645173  1
  Ti  Ti168  1  0.79524676  0.40011673  0.19367111  1
  Ti  Ti169  1  0.28409377  0.48915679  0.69799392  1
  Ti  Ti170  1  0.89781268  0.69689061  0.69195381  1
  Ti  Ti171  1  0.60048328  0.59943443  0.79877767  1
  Ti  Ti172  1  0.39999786  0.20056821  0.40103137  1
  Ti  Ti173  1  0.29245184  0.89867893  0.89390827  1
  Ti  Ti174  1  -0.00861597  -0.00315687  0.81611055  1
  Ti  Ti175  1  0.00078254  0.39696014  0.80444376  1
  Ti  Ti176  1  0.79503965  0.21634110  0.79871902  1
  Ti  Ti177  1  0.60244822  0.20053460  -0.00905564  1
  Ti  Ti178  1  0.90099583  0.70017522  0.50713094  1
  Ti  Ti179  1  -0.01157760  0.00154810  0.21092252  1
  Ti  Ti180  1  0.20606610  0.00264170  -0.00050276  1
  Ti  Ti181  1  0.79837633  0.39525575  0.40603879  1
  Ti  Ti182  1  0.79116867  0.19198185  0.19732796  1
  Ti  Ti183  1  0.00720303  0.61198251  0.59738964  1
  Ti  Ti184  1  0.88473580  0.09564562  0.30390651  1
  Ti  Ti185  1  0.79966453  0.19652440  0.40575527  1
  Ti  Ti186  1  0.49885891  0.48290854  0.30398198  1
  Ti  Ti187  1  0.49746615  0.47726853  0.50832747  1
  Ti  Ti188  1  0.30096031  0.90092084  0.10347533  1
  Ti  Ti189  1  0.00749586  0.21361750  0.80590872  1
  Ti  Ti190  1  0.10340292  0.69656225  0.70915302  1
  Ti  Ti191  1  0.51403380  0.69994329  0.70324417  1
  Ti  Ti192  1  0.89895208  0.69975827  0.30320406  1
  Ti  Ti193  1  0.80190741  0.79641973  0.19006570  1
  Ti  Ti194  1  0.10618703  0.30713735  0.70558389  1
  Ti  Ti195  1  0.59632154  0.00756330  -0.00339073  1
  Ti  Ti196  1  0.00000115  0.79887010  -0.00422958  1
  Ti  Ti197  1  0.60468164  0.79461778  0.80307765  1
  Ti  Ti198  1  0.51333688  0.89534210  0.90506612  1
  Ti  Ti199  1  0.69876160  0.70204033  0.09050060  1
  Mo  Mo200  1  0.19183242  0.20717843  0.80269771  1
  Mo  Mo201  1  0.19721867  0.80189245  0.80576616  1
  Mo  Mo202  1  0.70306393  0.89275913  0.27465216  1
  Mo  Mo203  1  0.59632812  0.00438268  0.41969674  1
  Mo  Mo204  1  0.28128057  0.69602590  0.71126334  1
  Mo  Mo205  1  0.09433140  0.69337736  0.49762894  1
  Mo  Mo206  1  0.60368066  0.79455454  -0.00997441  1
  Mo  Mo207  1  0.69421633  0.10254061  0.09275203  1
  Mo  Mo208  1  0.19579806  0.40256845  0.60118139  1
  Mo  Mo209  1  0.60608641  0.59949856  -0.00547681  1
  Mo  Mo210  1  0.70646773  0.90108451  0.52844307  1
  Mo  Mo211  1  0.51111172  0.49717815  0.70148927  1
  Mo  Mo212  1  -0.00159272  0.39694781  0.19735645  1
  Mo  Mo213  1  0.19890422  0.59776048  0.80092343  1
  Mo  Mo214  1  0.39360111  0.60427923  -0.00415997  1
  Mo  Mo215  1  0.30772236  0.50165033  0.50274745  1
  Mo  Mo216  1  0.28920110  0.50289283  0.89182491  1
  Mo  Mo217  1  0.79811873  0.61064663  0.60475738  1
  Mo  Mo218  1  0.60637756  0.80298439  0.61288911  1
  Mo  Mo219  1  0.60017786  0.39955384  0.40229427  1
  Mo  Mo220  1  0.00133546  0.60515363  0.40949874  1
  Mo  Mo221  1  0.49783287  0.90406310  0.51471843  1
  Mo  Mo222  1  0.88853667  0.10477119  0.50095117  1
  Mo  Mo223  1  0.61184278  0.39650771  0.59898291  1
  Mo  Mo224  1  0.50291397  0.90168793  0.09197430  1
  Mo  Mo225  1  0.80720785  0.20550009  -0.00647399  1
  Mo  Mo226  1  0.80568396  0.79766409  0.40135333  1
  Mo  Mo227  1  0.09674229  0.30496213  0.89432813  1
  Mo  Mo228  1  0.40220465  0.40351551  0.39718126  1
  Mo  Mo229  1  -0.00041311  0.20965702  0.60263964  1
  Mo  Mo230  1  0.10240366  0.49831921  0.30366756  1
  Mo  Mo231  1  0.80665250  0.00169824  0.80079956  1
  Mo  Mo232  1  0.70426475  0.89583248  0.70441660  1
  Mo  Mo233  1  0.19857958  0.40082665  0.80125579  1
  Mo  Mo234  1  0.39772024  0.20439892  0.79319681  1
  Mo  Mo235  1  -0.00316825  0.78258490  0.60234977  1
  Mo  Mo236  1  0.70524939  0.29907729  0.69877970  1
  Mo  Mo237  1  0.70453377  0.30299313  0.89648570  1
  Mo  Mo238  1  0.39135614  0.40728416  0.60339340  1
  Mo  Mo239  1  0.49722522  0.10397004  0.89632664  1
  Mo  Mo240  1  0.59807021  0.00762629  0.17193360  1
  Mo  Mo241  1  0.90447983  0.88837196  0.90054781  1
  Mo  Mo242  1  0.50693569  0.70213436  0.89394856  1
  Mo  Mo243  1  0.29981167  0.50236651  0.10128012  1
  Mo  Mo244  1  0.09847352  0.50115929  0.08841606  1
  Mo  Mo245  1  0.00035755  0.00535668  -0.01312673  1
  Mo  Mo246  1  0.39872283  0.40300804  0.20394194  1
  Mo  Mo247  1  0.59842596  0.20255251  0.39794307  1
  Mo  Mo248  1  0.38421746  0.20561895  -0.00060646  1
  Mo  Mo249  1  0.29165499  0.09465550  0.09982231  1
