# generated using pymatgen
data_HfZrTaTiMo
_symmetry_space_group_name_H-M   'P 1'
_cell_length_a   16.88550191
_cell_length_b   16.88349913
_cell_length_c   16.89011895
_cell_angle_alpha   90.00166994
_cell_angle_beta   89.96438763
_cell_angle_gamma   89.96930417
_symmetry_Int_Tables_number   1
_chemical_formula_structural   HfZrTaTiMo
_chemical_formula_sum   'Hf50 Zr50 Ta50 Ti50 Mo50'
_cell_volume   4815.14085347
_cell_formula_units_Z   50
loop_
 _symmetry_equiv_pos_site_id
 _symmetry_equiv_pos_as_xyz
  1  'x, y, z'
loop_
 _atom_site_type_symbol
 _atom_site_label
 _atom_site_symmetry_multiplicity
 _atom_site_fract_x
 _atom_site_fract_y
 _atom_site_fract_z
 _atom_site_occupancy
  Hf  Hf0  1  0.20338057  0.60153061  0.39270807  1
  Hf  Hf1  1  0.29526874  0.91321395  0.09722437  1
  Hf  Hf2  1  -0.00656774  0.59121012  0.39889630  1
  Hf  Hf3  1  0.49555515  0.31084624  0.48233699  1
  Hf  Hf4  1  0.29674848  0.10876313  0.70188363  1
  Hf  Hf5  1  0.40696314  0.39615566  0.00568471  1
  Hf  Hf6  1  0.79899387  0.80032195  0.01022849  1
  Hf  Hf7  1  0.80239612  0.20095589  0.80994648  1
  Hf  Hf8  1  0.40252875  0.60545409  0.38742140  1
  Hf  Hf9  1  0.29509694  0.49805577  0.10247686  1
  Hf  Hf10  1  0.50572138  0.10466200  0.09962886  1
  Hf  Hf11  1  0.80104680  0.20274145  0.00540513  1
  Hf  Hf12  1  -0.00658622  0.58977872  0.59964118  1
  Hf  Hf13  1  0.40247807  0.20045868  0.20003515  1
  Hf  Hf14  1  0.80731072  0.40296479  0.40061667  1
  Hf  Hf15  1  0.50726524  0.69792677  0.51107132  1
  Hf  Hf16  1  0.59184446  0.80330434  0.79714704  1
  Hf  Hf17  1  0.69839734  0.50431911  0.69884887  1
  Hf  Hf18  1  0.30700790  0.29616304  0.89400563  1
  Hf  Hf19  1  0.09572241  0.90268456  0.10195282  1
  Hf  Hf20  1  0.89451754  0.91056660  0.28210305  1
  Hf  Hf21  1  0.69448475  0.90258098  0.90325327  1
  Hf  Hf22  1  0.59968857  0.20235832  0.58701283  1
  Hf  Hf23  1  0.19557049  0.19961525  0.39677720  1
  Hf  Hf24  1  0.10166553  0.69005652  0.10034767  1
  Hf  Hf25  1  0.39171041  -0.00244051  0.39143880  1
  Hf  Hf26  1  0.79844133  -0.00387620  0.00993386  1
  Hf  Hf27  1  0.28785600  0.09453820  0.51329213  1
  Hf  Hf28  1  0.90784846  0.89964908  0.69707915  1
  Hf  Hf29  1  0.90209255  0.70291261  0.49944737  1
  Hf  Hf30  1  0.00124977  0.01636246  0.38758162  1
  Hf  Hf31  1  0.19275762  0.39463057  -0.00338928  1
  Hf  Hf32  1  0.38397452  0.21875103  0.59870991  1
  Hf  Hf33  1  0.50425800  0.90135077  0.29530380  1
  Hf  Hf34  1  0.50021871  0.89760375  0.50189735  1
  Hf  Hf35  1  0.60391711  0.79278793  0.38634107  1
  Hf  Hf36  1  0.80362359  0.79713082  0.80544343  1
  Hf  Hf37  1  0.39849588  0.00248475  0.80901513  1
  Hf  Hf38  1  0.49748346  0.90426235  0.69566833  1
  Hf  Hf39  1  0.39083213  0.40181362  0.60011762  1
  Hf  Hf40  1  0.40683517  0.59356283  0.00488668  1
  Hf  Hf41  1  0.69565401  0.10393467  0.71273473  1
  Hf  Hf42  1  0.69242426  0.69688113  0.69016540  1
  Hf  Hf43  1  0.90865392  0.49861356  0.90792110  1
  Hf  Hf44  1  0.60470637  0.59985318  0.38669997  1
  Hf  Hf45  1  0.50572140  0.50459896  0.69503830  1
  Hf  Hf46  1  0.79711390  0.80251789  0.59768634  1
  Hf  Hf47  1  0.19139010  0.39410460  0.19394423  1
  Hf  Hf48  1  0.69576096  0.49790970  0.90415029  1
  Hf  Hf49  1  0.39899733  0.59774875  0.79878756  1
  Zr  Zr50  1  0.39016590  0.79458832  0.39182225  1
  Zr  Zr51  1  0.79373981  0.79958567  0.38802724  1
  Zr  Zr52  1  -0.01139196  0.40164815  0.59504252  1
  Zr  Zr53  1  0.69753887  0.49935525  0.11002992  1
  Zr  Zr54  1  0.39222496  0.79859156  0.60843025  1
  Zr  Zr55  1  0.49869641  0.70228359  0.90066911  1
  Zr  Zr56  1  0.92409969  0.30668362  0.91048304  1
  Zr  Zr57  1  0.80479928  0.19671561  0.39484551  1
  Zr  Zr58  1  0.80584028  0.40491756  0.59402393  1
  Zr  Zr59  1  0.50396348  0.90273247  0.09924638  1
  Zr  Zr60  1  0.49506110  0.29748741  0.71281214  1
  Zr  Zr61  1  0.50039276  0.50058548  0.49679384  1
  Zr  Zr62  1  0.49695488  0.47344294  0.28965633  1
  Zr  Zr63  1  0.90703903  0.90568326  0.49794421  1
  Zr  Zr64  1  0.39905280  0.79165107  0.20928505  1
  Zr  Zr65  1  0.18858064  0.59539807  0.80759878  1
  Zr  Zr66  1  0.29189951  0.68822479  0.10332190  1
  Zr  Zr67  1  0.10015182  0.29506069  0.50618424  1
  Zr  Zr68  1  0.91492720  0.29002026  0.70146655  1
  Zr  Zr69  1  -0.00243856  0.59033382  0.19771395  1
  Zr  Zr70  1  0.18871795  0.01373653  0.80537507  1
  Zr  Zr71  1  0.80043330  0.39616628  0.00582784  1
  Zr  Zr72  1  0.00338589  0.78884791  0.81225903  1
  Zr  Zr73  1  0.61894760  0.39765799  0.39096027  1
  Zr  Zr74  1  0.29442321  0.69343441  0.69815237  1
  Zr  Zr75  1  0.61763463  0.00252229  0.20548976  1
  Zr  Zr76  1  0.69454093  0.29813816  0.70499587  1
  Zr  Zr77  1  0.19218414  0.79542797  -0.00593280  1
  Zr  Zr78  1  0.79785855  0.00748460  0.59459633  1
  Zr  Zr79  1  0.90217780  0.09818527  0.90643504  1
  Zr  Zr80  1  0.39561994  0.20110206  0.39456472  1
  Zr  Zr81  1  0.11077451  0.49703390  0.50228722  1
  Zr  Zr82  1  0.09787535  0.69920488  0.68710766  1
  Zr  Zr83  1  0.00248556  0.19477979  0.20520665  1
  Zr  Zr84  1  0.19990365  0.80378360  0.80042608  1
  Zr  Zr85  1  0.51963767  0.70589845  0.09961504  1
  Zr  Zr86  1  0.20965430  0.80647192  0.21545502  1
  Zr  Zr87  1  0.00303709  0.80422035  0.39017546  1
  Zr  Zr88  1  0.19319694  0.19530281  -0.00003562  1
  Zr  Zr89  1  0.09954755  0.69756388  0.29413265  1
  Zr  Zr90  1  0.60539907  0.00507388  0.59589129  1
  Zr  Zr91  1  0.80997203  0.60587941  0.80557665  1
  Zr  Zr92  1  0.19437066  -0.00119131  0.39154307  1
  Zr  Zr93  1  0.80427094  0.20115391  0.59139156  1
  Zr  Zr94  1  0.68730944  0.70022361  0.91356821  1
  Zr  Zr95  1  0.02264601  0.18984368  0.80931474  1
  Zr  Zr96  1  0.39667835  0.80328226  -0.00377924  1
  Zr  Zr97  1  0.80467041  0.39865732  0.80148290  1
  Zr  Zr98  1  0.49407197  0.10717687  0.70704743  1
  Zr  Zr99  1  0.48946777  0.09461437  0.50209159  1
  Ta  Ta100  1  0.80166237  0.39834978  0.20377304  1
  Ta  Ta101  1  0.60524928  0.19405898  0.39183364  1
  Ta  Ta102  1  0.30244889  0.30686869  0.29356525  1
  Ta  Ta103  1  0.90298101  0.70091302  0.69382758  1
  Ta  Ta104  1  0.70381717  0.10910350  0.10424942  1
  Ta  Ta105  1  0.60195764  0.20205523  0.20864419  1
  Ta  Ta106  1  0.69545772  0.89777397  0.49664696  1
  Ta  Ta107  1  0.20344512  0.80533048  0.40126139  1
  Ta  Ta108  1  0.89836402  0.09268499  0.11342803  1
  Ta  Ta109  1  0.30137151  0.29615083  0.10280787  1
  Ta  Ta110  1  0.39741330  0.01292914  -0.00099944  1
  Ta  Ta111  1  0.69698919  0.90132312  0.70120320  1
  Ta  Ta112  1  0.79392164  0.00763433  0.39259316  1
  Ta  Ta113  1  0.80189530  -0.00069405  0.80253817  1
  Ta  Ta114  1  0.69494976  0.29646743  0.10540794  1
  Ta  Ta115  1  0.61174873  0.00471307  0.39670778  1
  Ta  Ta116  1  0.59650112  0.39859070  0.80604877  1
  Ta  Ta117  1  0.90364947  0.90056761  0.90360313  1
  Ta  Ta118  1  -0.00208686  0.20017793  0.39882244  1
  Ta  Ta119  1  0.29096481  0.69725648  0.50199099  1
  Ta  Ta120  1  0.40893765  0.59676775  0.20117598  1
  Ta  Ta121  1  0.10602736  0.49271805  0.69566341  1
  Ta  Ta122  1  0.20358859  0.39637466  0.39633563  1
  Ta  Ta123  1  0.79712980  0.59669477  0.39169906  1
  Ta  Ta124  1  0.29990083  0.49512363  0.29148748  1
  Ta  Ta125  1  0.00017194  0.59718989  0.80129496  1
  Ta  Ta126  1  0.29404696  0.69109363  0.90459008  1
  Ta  Ta127  1  0.19774663  0.01218813  0.20071898  1
  Ta  Ta128  1  0.09588562  0.90698608  0.90615017  1
  Ta  Ta129  1  0.70824283  0.69053815  0.27583013  1
  Ta  Ta130  1  0.90984515  0.09625119  0.69834320  1
  Ta  Ta131  1  0.50125229  0.49329692  0.89972390  1
  Ta  Ta132  1  0.00177801  0.00073878  0.80298654  1
  Ta  Ta133  1  0.29557396  0.90344513  0.50590488  1
  Ta  Ta134  1  0.09450884  0.90493339  0.69276253  1
  Ta  Ta135  1  0.10224813  0.70450941  0.50123518  1
  Ta  Ta136  1  0.80384517  0.60518610  0.00721392  1
  Ta  Ta137  1  0.40154561  0.19975760  0.00464472  1
  Ta  Ta138  1  0.60192808  0.00481728  0.00368549  1
  Ta  Ta139  1  0.29955624  0.49903604  0.90302140  1
  Ta  Ta140  1  0.69083771  0.10417550  0.90703958  1
  Ta  Ta141  1  0.10141067  0.49105718  0.29664974  1
  Ta  Ta142  1  0.09884185  0.90476952  0.50738932  1
  Ta  Ta143  1  0.89650504  0.69971411  0.10534238  1
  Ta  Ta144  1  -0.00232733  -0.00105927  0.00525402  1
  Ta  Ta145  1  0.29410072  0.90935813  0.90439602  1
  Ta  Ta146  1  0.60296346  0.39868910  0.59684915  1
  Ta  Ta147  1  0.10840941  0.29931884  0.69812960  1
  Ta  Ta148  1  0.19737809  0.80508102  0.59627650  1
  Ta  Ta149  1  0.09683187  0.30278419  0.30069402  1
  Ti  Ti150  1  0.70266181  0.29825679  0.49619972  1
  Ti  Ti151  1  0.59614816  0.59924667  0.80267191  1
  Ti  Ti152  1  0.00109368  0.60398371  -0.00233986  1
  Ti  Ti153  1  0.19705224  0.39769142  0.80252929  1
  Ti  Ti154  1  0.19706852  0.20457013  0.80250024  1
  Ti  Ti155  1  0.39259611  0.00711644  0.20009813  1
  Ti  Ti156  1  0.62155173  0.80499394  0.19466171  1
  Ti  Ti157  1  0.00521482  0.19477663  0.00585159  1
  Ti  Ti158  1  0.89305614  0.69974251  0.28791642  1
  Ti  Ti159  1  0.29323615  0.91393505  0.69567612  1
  Ti  Ti160  1  0.90238077  0.49800435  0.09805229  1
  Ti  Ti161  1  0.68330081  0.29239387  0.90876655  1
  Ti  Ti162  1  0.09744425  0.09222132  0.10084256  1
  Ti  Ti163  1  0.09630664  0.49714508  0.90990948  1
  Ti  Ti164  1  -0.00428696  0.39764743  0.40000747  1
  Ti  Ti165  1  0.59681142  0.59016667  0.00810293  1
  Ti  Ti166  1  0.50533398  0.11238131  0.90318144  1
  Ti  Ti167  1  0.90160919  0.29717485  0.10694082  1
  Ti  Ti168  1  0.28909428  0.49888330  0.70062943  1
  Ti  Ti169  1  0.39136129  0.59645363  0.59799442  1
  Ti  Ti170  1  0.29802566  0.10320435  0.90619863  1
  Ti  Ti171  1  0.39719329  0.40409126  0.79803977  1
  Ti  Ti172  1  0.21501008  0.38726679  0.60066460  1
  Ti  Ti173  1  0.90216986  0.30005386  0.29569101  1
  Ti  Ti174  1  -0.00177502  0.40023539  0.19663816  1
  Ti  Ti175  1  -0.00540055  0.79629045  -0.00018619  1
  Ti  Ti176  1  0.59371947  0.39787259  0.00645240  1
  Ti  Ti177  1  0.01141129  0.40567362  0.79764226  1
  Ti  Ti178  1  0.09477204  0.90713957  0.28999327  1
  Ti  Ti179  1  0.50309717  0.09899280  0.29983174  1
  Ti  Ti180  1  0.09941837  0.10236827  0.68129837  1
  Ti  Ti181  1  0.29468352  0.10483585  0.29236548  1
  Ti  Ti182  1  0.50561643  0.30573394  0.11315278  1
  Ti  Ti183  1  0.08952870  0.30077822  0.09649903  1
  Ti  Ti184  1  0.49908669  0.90388228  0.90686668  1
  Ti  Ti185  1  0.29970339  0.49906482  0.49395720  1
  Ti  Ti186  1  0.39222426  0.80386299  0.80341679  1
  Ti  Ti187  1  0.69831578  0.69554379  0.50290929  1
  Ti  Ti188  1  0.70563933  0.29663451  0.29016007  1
  Ti  Ti189  1  0.59574357  0.59297868  0.20188659  1
  Ti  Ti190  1  0.19630787  0.19902844  0.19628108  1
  Ti  Ti191  1  0.69891450  0.50876931  0.50362805  1
  Ti  Ti192  1  0.09770378  0.09975684  0.51226097  1
  Ti  Ti193  1  0.59684798  0.00216771  0.80702857  1
  Ti  Ti194  1  0.91238975  0.10392615  0.50622677  1
  Ti  Ti195  1  -0.00843724  0.80261329  0.19230257  1
  Ti  Ti196  1  0.80811231  0.59385133  0.59546532  1
  Ti  Ti197  1  0.89705491  0.49708394  0.29366391  1
  Ti  Ti198  1  0.50501183  0.69631288  0.69101282  1
  Ti  Ti199  1  0.50210695  0.29368742  0.90060624  1
  Mo  Mo200  1  0.60562761  0.79968919  0.59866034  1
  Mo  Mo201  1  0.00469612  0.40214982  0.01590030  1
  Mo  Mo202  1  0.70677366  0.10449752  0.29524323  1
  Mo  Mo203  1  0.30008357  0.68515830  0.29945931  1
  Mo  Mo204  1  0.39030355  -0.00464029  0.60506321  1
  Mo  Mo205  1  0.00392269  0.19640419  0.59779665  1
  Mo  Mo206  1  0.19594948  0.20508031  0.60422688  1
  Mo  Mo207  1  0.50377494  0.49478669  0.10006369  1
  Mo  Mo208  1  0.90649447  0.69866188  0.91260777  1
  Mo  Mo209  1  0.90659624  0.29709060  0.48833612  1
  Mo  Mo210  1  0.70765043  0.50090171  0.29339213  1
  Mo  Mo211  1  0.51316121  0.69955098  0.28745341  1
  Mo  Mo212  1  0.39814695  0.39298622  0.19513354  1
  Mo  Mo213  1  0.29214053  0.30548669  0.71282191  1
  Mo  Mo214  1  0.59674712  0.20297835  0.81527189  1
  Mo  Mo215  1  0.09408596  0.49803148  0.09745332  1
  Mo  Mo216  1  0.29727735  0.91503691  0.29746303  1
  Mo  Mo217  1  0.29546545  0.30612925  0.48917514  1
  Mo  Mo218  1  0.10274572  0.10860957  0.29230687  1
  Mo  Mo219  1  0.60641859  0.59759460  0.59474667  1
  Mo  Mo220  1  0.70447797  0.90327091  0.10363137  1
  Mo  Mo221  1  0.70568068  0.90031760  0.30041304  1
  Mo  Mo222  1  0.09538585  0.69215245  0.90884233  1
  Mo  Mo223  1  0.38398290  0.40207301  0.39649512  1
  Mo  Mo224  1  0.19526639  -0.00260832  0.60408710  1
  Mo  Mo225  1  0.30294918  0.10444119  0.10203138  1
  Mo  Mo226  1  0.10379973  0.30634791  0.89560105  1
  Mo  Mo227  1  0.69933418  0.09985950  0.49046801  1
  Mo  Mo228  1  0.70256315  0.69509628  0.10345305  1
  Mo  Mo229  1  0.50224426  0.29277812  0.29739381  1
  Mo  Mo230  1  0.60352146  0.81701256  0.00543654  1
  Mo  Mo231  1  0.80787313  0.59456927  0.19786666  1
  Mo  Mo232  1  0.39791882  0.19629583  0.81362986  1
  Mo  Mo233  1  0.19850838  0.58741486  0.20195771  1
  Mo  Mo234  1  0.80196174  0.20434492  0.19881885  1
  Mo  Mo235  1  0.89873772  0.10050848  0.29578922  1
  Mo  Mo236  1  0.19420507  0.59026796  -0.00373406  1
  Mo  Mo237  1  0.00404443  0.79998181  0.59613339  1
  Mo  Mo238  1  0.60605803  0.38923883  0.19885762  1
  Mo  Mo239  1  0.20142274  0.59385043  0.59313287  1
  Mo  Mo240  1  0.80018937  0.00400182  0.19837741  1
  Mo  Mo241  1  0.10018259  0.09296681  0.91577232  1
  Mo  Mo242  1  0.19830290  0.00442494  0.00260647  1
  Mo  Mo243  1  0.90719832  0.50762498  0.71009615  1
  Mo  Mo244  1  0.90446019  0.89742855  0.09902821  1
  Mo  Mo245  1  0.89365534  0.50395661  0.48696485  1
  Mo  Mo246  1  0.79942845  0.79948612  0.19285071  1
  Mo  Mo247  1  0.00358228  0.00222068  0.19578406  1
  Mo  Mo248  1  0.00242302  0.00478335  0.60133567  1
  Mo  Mo249  1  0.59722962  0.20439034  0.00854757  1
