# generated using pymatgen
data_HfZrTaTiMo
_symmetry_space_group_name_H-M   'P 1'
_cell_length_a   16.89226475
_cell_length_b   16.88650208
_cell_length_c   16.88859876
_cell_angle_alpha   89.95387884
_cell_angle_beta   90.03899746
_cell_angle_gamma   89.99749865
_symmetry_Int_Tables_number   1
_chemical_formula_structural   HfZrTaTiMo
_chemical_formula_sum   'Hf50 Zr50 Ta50 Ti50 Mo50'
_cell_volume   4817.49145647
_cell_formula_units_Z   50
loop_
 _symmetry_equiv_pos_site_id
 _symmetry_equiv_pos_as_xyz
  1  'x, y, z'
loop_
 _atom_site_type_symbol
 _atom_site_label
 _atom_site_symmetry_multiplicity
 _atom_site_fract_x
 _atom_site_fract_y
 _atom_site_fract_z
 _atom_site_occupancy
  Hf  Hf0  1  0.58770377  0.00352934  0.18819963  1
  Hf  Hf1  1  0.30420106  0.29388108  0.70263735  1
  Hf  Hf2  1  0.30418389  0.09504979  0.10228017  1
  Hf  Hf3  1  0.30521271  0.50142716  0.89925876  1
  Hf  Hf4  1  0.59499673  0.80053610  0.60645343  1
  Hf  Hf5  1  0.40251637  0.40630695  0.39706753  1
  Hf  Hf6  1  0.30425186  0.70804778  0.70949699  1
  Hf  Hf7  1  0.09417442  0.29346985  0.50456001  1
  Hf  Hf8  1  0.40296544  0.00078727  0.79909159  1
  Hf  Hf9  1  0.19811008  0.40026805  0.60449771  1
  Hf  Hf10  1  0.79147634  0.39461149  0.80150659  1
  Hf  Hf11  1  0.89562589  0.49782192  0.09281120  1
  Hf  Hf12  1  0.50380711  0.89500485  0.49366447  1
  Hf  Hf13  1  0.08608458  0.50858777  0.50490670  1
  Hf  Hf14  1  0.89913438  0.50266874  0.30166883  1
  Hf  Hf15  1  0.00043518  0.60028398  0.19687983  1
  Hf  Hf16  1  0.30692155  0.09551578  0.50453511  1
  Hf  Hf17  1  0.89771489  0.69827484  0.90169745  1
  Hf  Hf18  1  0.09488079  0.29343797  0.70223011  1
  Hf  Hf19  1  0.40786521  0.60191447  0.19474819  1
  Hf  Hf20  1  0.30199374  0.30046780  0.29561940  1
  Hf  Hf21  1  -0.01437329  0.00335011  0.00882936  1
  Hf  Hf22  1  0.19469308  0.19822342  0.19781951  1
  Hf  Hf23  1  0.50714893  0.50288559  0.49745270  1
  Hf  Hf24  1  0.30872121  0.50868118  0.70540855  1
  Hf  Hf25  1  -0.00933678  0.39576611  0.39972247  1
  Hf  Hf26  1  0.09651054  0.09279124  0.89690460  1
  Hf  Hf27  1  0.50582142  0.89050727  0.90515946  1
  Hf  Hf28  1  0.10130842  0.50570106  0.29984490  1
  Hf  Hf29  1  0.79920885  0.00428083  0.79621138  1
  Hf  Hf30  1  0.69244099  0.89189086  0.29932832  1
  Hf  Hf31  1  0.40975922  0.80484503  0.19170896  1
  Hf  Hf32  1  0.60909810  0.19781080  0.00347400  1
  Hf  Hf33  1  0.69876311  0.49315205  0.09722488  1
  Hf  Hf34  1  0.10096539  0.08774500  0.49473404  1
  Hf  Hf35  1  0.51745541  0.30613973  0.30706870  1
  Hf  Hf36  1  0.89120635  0.70430303  0.50380453  1
  Hf  Hf37  1  0.89665061  0.29265061  0.69403603  1
  Hf  Hf38  1  -0.01023658  -0.00661664  0.19995360  1
  Hf  Hf39  1  0.68223815  0.89011800  0.09631030  1
  Hf  Hf40  1  0.40609655  0.40908156  0.19864143  1
  Hf  Hf41  1  -0.00283995  0.80315201  0.60985678  1
  Hf  Hf42  1  0.29372791  0.71293743  0.29320538  1
  Hf  Hf43  1  -0.00935924  0.80711790  0.39725692  1
  Hf  Hf44  1  0.50117571  0.10752954  0.50335228  1
  Hf  Hf45  1  0.09794469  0.49275885  0.90364388  1
  Hf  Hf46  1  0.89528303  0.69592568  0.09902237  1
  Hf  Hf47  1  0.29546357  0.50336264  0.09472418  1
  Hf  Hf48  1  0.69385697  0.29853468  0.49503634  1
  Hf  Hf49  1  0.40517562  0.19870261  0.80419033  1
  Zr  Zr50  1  0.10695911  0.70554514  0.30099141  1
  Zr  Zr51  1  0.89315086  0.28993325  0.50054132  1
  Zr  Zr52  1  0.79723297  0.00381429  0.00788128  1
  Zr  Zr53  1  0.79364212  0.60270988  0.80213038  1
  Zr  Zr54  1  -0.00589641  0.19356199  0.19879793  1
  Zr  Zr55  1  0.40934104  0.39880499  -0.00829566  1
  Zr  Zr56  1  0.12330830  0.89817693  0.30673394  1
  Zr  Zr57  1  0.30023904  0.08975807  0.30268135  1
  Zr  Zr58  1  0.59337959  0.00008274  0.78837144  1
  Zr  Zr59  1  0.19562547  0.40207888  0.19746392  1
  Zr  Zr60  1  0.20715691  0.19209998  -0.00772057  1
  Zr  Zr61  1  0.49667021  0.10357140  0.30348642  1
  Zr  Zr62  1  0.80054519  0.19116163  -0.00096457  1
  Zr  Zr63  1  -0.00153219  0.60739864  0.79673014  1
  Zr  Zr64  1  0.40935749  0.19868815  0.19031729  1
  Zr  Zr65  1  0.19448931  0.19605894  0.39971677  1
  Zr  Zr66  1  0.41524415  0.39817600  0.61231536  1
  Zr  Zr67  1  0.09497909  0.09803474  0.70794373  1
  Zr  Zr68  1  0.69292199  0.89878750  0.90131742  1
  Zr  Zr69  1  0.88012151  0.89926559  0.50435138  1
  Zr  Zr70  1  0.19631770  0.61432153  0.60104386  1
  Zr  Zr71  1  0.70321244  0.29871618  0.30533133  1
  Zr  Zr72  1  0.59616005  0.39750526  0.79721751  1
  Zr  Zr73  1  0.89501141  0.89632210  0.89525104  1
  Zr  Zr74  1  0.20602942  -0.00486333  0.60950782  1
  Zr  Zr75  1  0.70131370  0.71096595  0.49586007  1
  Zr  Zr76  1  0.10204542  0.90037608  0.89630566  1
  Zr  Zr77  1  0.41182497  0.00015696  0.00818719  1
  Zr  Zr78  1  0.60304915  0.60601903  0.19504864  1
  Zr  Zr79  1  0.30972420  0.29241363  0.50685820  1
  Zr  Zr80  1  -0.00527753  -0.00970178  0.60343619  1
  Zr  Zr81  1  -0.00768696  0.80941081  0.00997012  1
  Zr  Zr82  1  0.11180650  0.70980314  0.10416217  1
  Zr  Zr83  1  -0.00815752  0.39867550  0.80169431  1
  Zr  Zr84  1  0.69438817  0.49121724  0.30517786  1
  Zr  Zr85  1  0.20704390  0.61032496  0.40866960  1
  Zr  Zr86  1  0.49346612  0.69778120  0.70869282  1
  Zr  Zr87  1  0.89498777  0.29860459  0.09979069  1
  Zr  Zr88  1  0.30686328  0.50705250  0.50482104  1
  Zr  Zr89  1  0.70408592  0.89914140  0.49919449  1
  Zr  Zr90  1  0.10097736  0.29461146  0.89844877  1
  Zr  Zr91  1  0.50553008  0.70948119  0.30995148  1
  Zr  Zr92  1  0.60214311  0.00596478  0.39422925  1
  Zr  Zr93  1  0.89684234  0.50542230  0.69161095  1
  Zr  Zr94  1  0.19748258  0.60721599  0.80432700  1
  Zr  Zr95  1  0.51585946  0.30913883  0.10276117  1
  Zr  Zr96  1  0.19941145  0.40191573  0.40238400  1
  Zr  Zr97  1  0.30015337  0.89749042  0.10048560  1
  Zr  Zr98  1  0.19911567  0.60782204  -0.00541876  1
  Zr  Zr99  1  -0.01047320  0.81068293  0.20493999  1
  Ta  Ta100  1  0.29621768  0.30507761  0.09039861  1
  Ta  Ta101  1  0.51382777  0.50209083  0.08557258  1
  Ta  Ta102  1  0.79003835  0.79276105  0.00305380  1
  Ta  Ta103  1  0.09720734  0.71607624  0.89551771  1
  Ta  Ta104  1  0.60547180  0.60287802  0.40422950  1
  Ta  Ta105  1  0.11394199  0.90613398  0.09883777  1
  Ta  Ta106  1  0.20338380  0.39910931  0.79855427  1
  Ta  Ta107  1  0.79966353  0.60130877  0.39979704  1
  Ta  Ta108  1  0.89196104  0.50007605  0.91199131  1
  Ta  Ta109  1  0.09654637  0.49837259  0.69894188  1
  Ta  Ta110  1  0.69387707  0.50423585  0.69848176  1
  Ta  Ta111  1  0.30269440  0.70056049  0.09812247  1
  Ta  Ta112  1  0.50937195  0.29404362  0.50452277  1
  Ta  Ta113  1  0.61382458  0.19097196  0.19979490  1
  Ta  Ta114  1  0.79367387  0.40557174  0.59726982  1
  Ta  Ta115  1  0.69746394  0.10394184  0.69273806  1
  Ta  Ta116  1  0.79790962  0.60364749  0.20394512  1
  Ta  Ta117  1  0.80652962  0.39469247  0.20670602  1
  Ta  Ta118  1  0.60195483  0.79637228  0.79641703  1
  Ta  Ta119  1  0.79366955  0.19810121  0.80358066  1
  Ta  Ta120  1  0.50803905  0.10092746  0.90357697  1
  Ta  Ta121  1  0.40814438  0.60672389  -0.00341950  1
  Ta  Ta122  1  0.60478067  0.20297187  0.79835992  1
  Ta  Ta123  1  -0.00142103  0.39641279  0.19930161  1
  Ta  Ta124  1  -0.00629196  0.18862508  0.00106127  1
  Ta  Ta125  1  0.89158533  0.09956090  0.69418563  1
  Ta  Ta126  1  -0.00758640  0.19049308  0.39432372  1
  Ta  Ta127  1  0.69952525  0.70477003  0.29908237  1
  Ta  Ta128  1  -0.00866883  -0.00298426  0.39375603  1
  Ta  Ta129  1  0.59722333  0.00179240  0.60215067  1
  Ta  Ta130  1  0.21807555  -0.00046428  0.80592012  1
  Ta  Ta131  1  0.40663304  -0.00682343  0.60768762  1
  Ta  Ta132  1  0.09003049  0.29694898  0.29861521  1
  Ta  Ta133  1  0.89111967  0.09930671  0.29772747  1
  Ta  Ta134  1  0.20359444  0.19056500  0.60800535  1
  Ta  Ta135  1  0.60115085  0.40093252  0.60570942  1
  Ta  Ta136  1  0.69912694  0.10518749  0.50055986  1
  Ta  Ta137  1  0.40896665  0.39917317  0.80242160  1
  Ta  Ta138  1  0.30578735  0.89179623  0.70706079  1
  Ta  Ta139  1  0.68795620  0.50202533  0.90382582  1
  Ta  Ta140  1  0.60042111  0.60060167  0.59986028  1
  Ta  Ta141  1  0.39592234  -0.01195323  0.40159371  1
  Ta  Ta142  1  0.79379283  0.79487270  0.79374543  1
  Ta  Ta143  1  0.40451052  0.19971949  -0.00447760  1
  Ta  Ta144  1  0.79393162  0.00205705  0.19788972  1
  Ta  Ta145  1  0.39734183  0.80477259  0.59778014  1
  Ta  Ta146  1  0.10406245  0.09052984  0.09777814  1
  Ta  Ta147  1  0.70450815  0.90165005  0.69271424  1
  Ta  Ta148  1  0.09933595  0.29926217  0.09272750  1
  Ta  Ta149  1  0.79847039  0.79936383  0.19702378  1
  Ti  Ti150  1  0.89178424  0.09452755  0.49864224  1
  Ti  Ti151  1  0.70300747  0.30356490  0.10708632  1
  Ti  Ti152  1  0.79499494  0.60011345  0.59850567  1
  Ti  Ti153  1  0.69293170  0.09606354  0.89601360  1
  Ti  Ti154  1  -0.00173670  0.61284031  0.60579383  1
  Ti  Ti155  1  0.21439822  0.18608831  0.80007042  1
  Ti  Ti156  1  0.39057976  0.80285311  0.40341556  1
  Ti  Ti157  1  -0.01104702  -0.00666991  0.79200432  1
  Ti  Ti158  1  0.11436628  0.89052054  0.71094146  1
  Ti  Ti159  1  0.21164441  -0.00092988  -0.01133992  1
  Ti  Ti160  1  0.49936074  0.70271864  0.49571974  1
  Ti  Ti161  1  0.40275824  0.20360418  0.40009205  1
  Ti  Ti162  1  0.50248314  0.69326953  0.89344590  1
  Ti  Ti163  1  0.69901824  0.50036696  0.50206426  1
  Ti  Ti164  1  0.10610215  0.71344441  0.70598368  1
  Ti  Ti165  1  0.79495162  0.19552303  0.59964597  1
  Ti  Ti166  1  0.51495018  0.70778572  0.08806629  1
  Ti  Ti167  1  0.20559019  -0.00362788  0.20337021  1
  Ti  Ti168  1  0.10380415  0.71614828  0.50124608  1
  Ti  Ti169  1  -0.00321448  0.18682415  0.59570034  1
  Ti  Ti170  1  -0.01078746  0.40382217  0.59514857  1
  Ti  Ti171  1  0.50286824  0.51467970  0.71008007  1
  Ti  Ti172  1  -0.00133552  0.39341969  0.00136658  1
  Ti  Ti173  1  0.80008165  0.19258744  0.39164361  1
  Ti  Ti174  1  0.29294307  0.89614315  0.50139726  1
  Ti  Ti175  1  -0.00941900  0.60918436  0.40247608  1
  Ti  Ti176  1  0.69584450  0.69497991  0.69982159  1
  Ti  Ti177  1  0.40121310  0.79317080  -0.00595015  1
  Ti  Ti178  1  0.40022045  0.60405896  0.39864425  1
  Ti  Ti179  1  0.29432803  0.51390027  0.29241960  1
  Ti  Ti180  1  0.40423072  0.61115762  0.59443719  1
  Ti  Ti181  1  0.51155149  0.29812050  0.90138064  1
  Ti  Ti182  1  0.51300264  0.49992323  0.30046136  1
  Ti  Ti183  1  -0.01673870  0.19087943  0.80597526  1
  Ti  Ti184  1  0.09850932  0.09063384  0.30132100  1
  Ti  Ti185  1  0.10909130  0.89748947  0.49554316  1
  Ti  Ti186  1  0.69511060  0.29504852  0.69224259  1
  Ti  Ti187  1  0.29789606  0.30379136  0.89986694  1
  Ti  Ti188  1  0.00486111  0.60147539  -0.00175073  1
  Ti  Ti189  1  0.79825912  0.00305586  0.39132593  1
  Ti  Ti190  1  0.89690422  0.29688669  0.90242524  1
  Ti  Ti191  1  0.78929148  0.39071017  -0.00953564  1
  Ti  Ti192  1  0.78626372  0.60459355  0.00240161  1
  Ti  Ti193  1  0.50016078  0.89696899  0.29856182  1
  Ti  Ti194  1  0.68675379  0.69754435  0.90405957  1
  Ti  Ti195  1  0.50215762  0.11406249  0.69159277  1
  Ti  Ti196  1  0.80698492  0.40614447  0.40850458  1
  Ti  Ti197  1  -0.01208659  0.80205710  0.78944205  1
  Ti  Ti198  1  0.10152673  0.49487575  0.09417869  1
  Ti  Ti199  1  0.21180385  0.80225044  -0.01276006  1
  Mo  Mo200  1  0.40409743  -0.00874640  0.20768381  1
  Mo  Mo201  1  0.59842168  0.79924092  0.19555832  1
  Mo  Mo202  1  0.50215737  0.88903073  0.09377100  1
  Mo  Mo203  1  0.40350608  0.80163445  0.80641282  1
  Mo  Mo204  1  0.20371125  0.60144041  0.19423698  1
  Mo  Mo205  1  0.89203689  0.69761290  0.30068501  1
  Mo  Mo206  1  0.60906008  0.39668917  -0.00665783  1
  Mo  Mo207  1  0.59788636  0.01150671  0.00184270  1
  Mo  Mo208  1  0.30975837  0.09691784  0.90041866  1
  Mo  Mo209  1  0.60069982  0.60068442  0.79963032  1
  Mo  Mo210  1  0.89413040  0.70137632  0.69666999  1
  Mo  Mo211  1  0.89693156  0.29801692  0.30210725  1
  Mo  Mo212  1  0.30719521  0.09708877  0.70061789  1
  Mo  Mo213  1  0.20362404  -0.00516027  0.40421704  1
  Mo  Mo214  1  0.59877770  0.40608848  0.41192887  1
  Mo  Mo215  1  0.80442941  0.79434816  0.37985650  1
  Mo  Mo216  1  0.70041696  0.09901239  0.10546737  1
  Mo  Mo217  1  0.60703854  0.40201494  0.19586794  1
  Mo  Mo218  1  0.88787323  0.90004578  0.70077973  1
  Mo  Mo219  1  0.31148309  0.70636050  0.90275082  1
  Mo  Mo220  1  0.89998336  0.10013827  0.88996936  1
  Mo  Mo221  1  0.50429851  0.10611040  0.09639600  1
  Mo  Mo222  1  0.19774892  0.39380076  -0.00438062  1
  Mo  Mo223  1  0.59873647  0.79768111  0.39870218  1
  Mo  Mo224  1  0.59876183  0.60034452  -0.00615204  1
  Mo  Mo225  1  0.20782125  0.80185422  0.41645099  1
  Mo  Mo226  1  0.89773443  0.09938458  0.10885197  1
  Mo  Mo227  1  0.88305207  0.90612942  0.30234082  1
  Mo  Mo228  1  0.50351195  0.50696861  0.89786615  1
  Mo  Mo229  1  0.40496623  0.59905575  0.81334795  1
  Mo  Mo230  1  0.79823130  0.79278952  0.62119080  1
  Mo  Mo231  1  0.30690218  0.89548575  0.89918875  1
  Mo  Mo232  1  0.70159635  0.69755021  0.09949007  1
  Mo  Mo233  1  0.50037325  0.89507051  0.69797995  1
  Mo  Mo234  1  0.79283576  0.01144066  0.59953278  1
  Mo  Mo235  1  0.30962825  0.90009787  0.30185123  1
  Mo  Mo236  1  0.19948220  0.80488539  0.60524447  1
  Mo  Mo237  1  0.60484783  0.19984796  0.40265312  1
  Mo  Mo238  1  0.20605475  0.80554757  0.80587698  1
  Mo  Mo239  1  0.70555114  0.10073973  0.30012292  1
  Mo  Mo240  1  0.89339508  0.51081399  0.50046025  1
  Mo  Mo241  1  0.20840836  0.80507346  0.19061193  1
  Mo  Mo242  1  0.88024521  0.89830094  0.10403521  1
  Mo  Mo243  1  0.40333419  0.19569892  0.60496750  1
  Mo  Mo244  1  0.70022016  0.29872149  0.89641952  1
  Mo  Mo245  1  0.31191665  0.71026884  0.50294100  1
  Mo  Mo246  1  0.60189431  0.20227152  0.60390036  1
  Mo  Mo247  1  0.59883868  0.78742301  -0.00680065  1
  Mo  Mo248  1  0.50342081  0.29370605  0.70066791  1
  Mo  Mo249  1  0.79644706  0.19719224  0.20175014  1
