# generated using pymatgen
data_HfZrTaTiMo
_symmetry_space_group_name_H-M   'P 1'
_cell_length_a   16.89005401
_cell_length_b   16.88733071
_cell_length_c   16.89599846
_cell_angle_alpha   90.01573797
_cell_angle_beta   90.02469270
_cell_angle_gamma   89.97239533
_symmetry_Int_Tables_number   1
_chemical_formula_structural   HfZrTaTiMo
_chemical_formula_sum   'Hf50 Zr50 Ta50 Ti50 Mo50'
_cell_volume   4819.20944299
_cell_formula_units_Z   50
loop_
 _symmetry_equiv_pos_site_id
 _symmetry_equiv_pos_as_xyz
  1  'x, y, z'
loop_
 _atom_site_type_symbol
 _atom_site_label
 _atom_site_symmetry_multiplicity
 _atom_site_fract_x
 _atom_site_fract_y
 _atom_site_fract_z
 _atom_site_occupancy
  Hf  Hf0  1  0.29292375  0.29746017  0.90206970  1
  Hf  Hf1  1  0.61578724  0.80107006  -0.01019676  1
  Hf  Hf2  1  0.72916773  0.90968005  0.88105557  1
  Hf  Hf3  1  0.00200723  0.40139154  -0.00282439  1
  Hf  Hf4  1  0.19950041  0.59059186  0.19014741  1
  Hf  Hf5  1  0.90206079  0.30476442  0.69965945  1
  Hf  Hf6  1  -0.00321071  0.39586288  0.40682673  1
  Hf  Hf7  1  0.89448827  0.49595268  0.29655098  1
  Hf  Hf8  1  0.00248655  0.80090402  0.19572933  1
  Hf  Hf9  1  0.08782814  0.09843088  0.10300741  1
  Hf  Hf10  1  0.61662924  0.79997687  0.40793921  1
  Hf  Hf11  1  0.70135160  0.10401097  0.69869762  1
  Hf  Hf12  1  0.39480705  0.39290319  0.60516532  1
  Hf  Hf13  1  0.19798177  0.40112957  0.60689856  1
  Hf  Hf14  1  0.49784895  0.10155480  0.50783347  1
  Hf  Hf15  1  0.50661884  0.29620752  0.51604760  1
  Hf  Hf16  1  0.79592747  0.40047239  0.79557842  1
  Hf  Hf17  1  0.50031978  0.09686175  0.29820272  1
  Hf  Hf18  1  0.09157131  0.29611013  0.10393634  1
  Hf  Hf19  1  -0.00588961  -0.00681042  -0.00618076  1
  Hf  Hf20  1  0.19900930  0.40488083  0.19558975  1
  Hf  Hf21  1  0.89538197  0.10212454  0.69742926  1
  Hf  Hf22  1  0.60867889  0.38415508  -0.00554935  1
  Hf  Hf23  1  0.39453857  0.39651623  0.79742841  1
  Hf  Hf24  1  0.30524229  0.50911385  0.92205908  1
  Hf  Hf25  1  0.49650698  0.89749342  0.50396816  1
  Hf  Hf26  1  0.61145854  0.61323919  0.79459518  1
  Hf  Hf27  1  -0.00339212  0.79862422  0.80136505  1
  Hf  Hf28  1  0.88563977  0.09060408  0.89676806  1
  Hf  Hf29  1  0.29961447  0.89638773  0.09332184  1
  Hf  Hf30  1  0.09932605  0.29838094  0.70064907  1
  Hf  Hf31  1  0.19272232  -0.00751753  0.20389901  1
  Hf  Hf32  1  0.88028573  0.89933917  0.70859405  1
  Hf  Hf33  1  0.00310918  0.00070256  0.79335478  1
  Hf  Hf34  1  0.80178510  0.60181314  0.20046503  1
  Hf  Hf35  1  0.70893974  0.30644869  0.28885054  1
  Hf  Hf36  1  0.51550244  0.48882557  0.70017742  1
  Hf  Hf37  1  0.61203811  0.80339590  0.20077605  1
  Hf  Hf38  1  0.49632153  0.29621971  0.29693342  1
  Hf  Hf39  1  0.10227052  0.29707327  0.90111173  1
  Hf  Hf40  1  0.60492279  0.20163195  0.39634377  1
  Hf  Hf41  1  0.30569648  0.69773765  0.30725098  1
  Hf  Hf42  1  0.29567058  0.89733216  0.89516782  1
  Hf  Hf43  1  0.19670617  0.58679968  0.39808134  1
  Hf  Hf44  1  0.90290785  0.49364340  0.10059564  1
  Hf  Hf45  1  0.50406714  0.10123491  0.09965517  1
  Hf  Hf46  1  0.60028938  0.20500722  0.80730155  1
  Hf  Hf47  1  0.69999416  0.10472066  0.50611561  1
  Hf  Hf48  1  0.29052452  0.29210832  0.30687747  1
  Hf  Hf49  1  0.18737160  0.59914673  0.79930218  1
  Zr  Zr50  1  0.30097133  0.70370056  0.49750662  1
  Zr  Zr51  1  0.50015944  0.90117926  0.89394835  1
  Zr  Zr52  1  0.90531759  0.30006279  0.50722929  1
  Zr  Zr53  1  0.29723045  0.70168475  0.89623658  1
  Zr  Zr54  1  0.78437664  0.19929322  -0.00551559  1
  Zr  Zr55  1  0.08854428  0.49005068  0.29910169  1
  Zr  Zr56  1  0.09347086  0.28737743  0.30359701  1
  Zr  Zr57  1  0.09403628  0.70118584  0.31162139  1
  Zr  Zr58  1  0.48900358  0.49875699  0.08923763  1
  Zr  Zr59  1  0.60934859  -0.00351945  0.40348553  1
  Zr  Zr60  1  0.50847907  0.90588263  0.10006511  1
  Zr  Zr61  1  0.40998649  0.61080679  0.79867300  1
  Zr  Zr62  1  0.50091708  0.69303021  0.30885690  1
  Zr  Zr63  1  0.10433338  0.89657026  0.89877160  1
  Zr  Zr64  1  0.49869360  0.89829372  0.30324379  1
  Zr  Zr65  1  0.39704603  0.00502790  0.79363261  1
  Zr  Zr66  1  -0.00216117  0.00217507  0.40719432  1
  Zr  Zr67  1  0.49282889  0.29781808  0.90487687  1
  Zr  Zr68  1  0.00038857  0.60096697  0.60685507  1
  Zr  Zr69  1  0.30352413  0.10741209  0.50647905  1
  Zr  Zr70  1  0.39252059  0.40225886  0.20181299  1
  Zr  Zr71  1  0.50024757  0.49608904  0.90019800  1
  Zr  Zr72  1  0.79617924  0.40884194  0.40565860  1
  Zr  Zr73  1  0.61445490  0.60725900  0.59898558  1
  Zr  Zr74  1  0.50509970  0.50258514  0.50348902  1
  Zr  Zr75  1  0.00390513  0.60506926  0.19099426  1
  Zr  Zr76  1  0.69885020  0.49492948  0.10797172  1
  Zr  Zr77  1  0.38738553  0.80966060  0.60462664  1
  Zr  Zr78  1  0.60796201  0.60838821  -0.01467648  1
  Zr  Zr79  1  0.90455695  0.91034070  0.29350139  1
  Zr  Zr80  1  0.40007533  0.79510767  0.19429749  1
  Zr  Zr81  1  0.80374232  0.79975372  0.19933843  1
  Zr  Zr82  1  0.60140004  0.00545744  0.79403237  1
  Zr  Zr83  1  0.19208878  0.60134590  0.60979501  1
  Zr  Zr84  1  0.50897112  0.69051235  0.10373460  1
  Zr  Zr85  1  0.61495273  0.00588427  -0.00859396  1
  Zr  Zr86  1  0.30094993  0.50113505  0.50486417  1
  Zr  Zr87  1  0.49740717  0.70155561  0.49488262  1
  Zr  Zr88  1  0.70481778  0.68609451  0.31286555  1
  Zr  Zr89  1  0.09882757  0.89835525  0.50865038  1
  Zr  Zr90  1  0.30071080  0.10397677  0.30270651  1
  Zr  Zr91  1  0.19685990  0.00074180  0.40192021  1
  Zr  Zr92  1  0.80468199  0.19964830  0.40055469  1
  Zr  Zr93  1  0.60138573  0.41206446  0.39357260  1
  Zr  Zr94  1  0.30724815  0.67565052  0.08324295  1
  Zr  Zr95  1  0.79790220  0.60272768  -0.01190485  1
  Zr  Zr96  1  0.00695403  0.18956929  0.60157566  1
  Zr  Zr97  1  0.19542310  0.79183199  0.19797286  1
  Zr  Zr98  1  0.79774909  0.39456187  -0.00720249  1
  Zr  Zr99  1  0.09678982  0.70590868  0.50233798  1
  Ta  Ta100  1  0.29610858  0.28918558  0.70264274  1
  Ta  Ta101  1  0.10643481  0.29421786  0.49787423  1
  Ta  Ta102  1  0.29711137  0.09881703  0.10102903  1
  Ta  Ta103  1  0.29284806  0.70692233  0.69904247  1
  Ta  Ta104  1  0.80277933  -0.00038691  0.40291324  1
  Ta  Ta105  1  0.89932086  0.29453768  0.10400951  1
  Ta  Ta106  1  0.50480679  0.89732488  0.69628257  1
  Ta  Ta107  1  0.19888579  0.40809041  0.79998693  1
  Ta  Ta108  1  0.90225681  0.70709585  0.08541556  1
  Ta  Ta109  1  0.08770650  0.10289631  0.29802497  1
  Ta  Ta110  1  0.39301057  0.19433434  0.00265801  1
  Ta  Ta111  1  0.90333996  0.29812179  0.89479538  1
  Ta  Ta112  1  0.79887060  0.60141213  0.59865568  1
  Ta  Ta113  1  0.40980953  0.79482885  -0.00877664  1
  Ta  Ta114  1  0.70204677  0.09679726  0.10534529  1
  Ta  Ta115  1  0.60315730  0.20032680  0.19617180  1
  Ta  Ta116  1  0.90227603  0.50106979  0.69969080  1
  Ta  Ta117  1  0.00126040  0.60168585  -0.00576029  1
  Ta  Ta118  1  0.19202347  0.79192166  0.00422315  1
  Ta  Ta119  1  0.49832983  0.10613859  0.90751412  1
  Ta  Ta120  1  0.00473019  0.40447998  0.79909306  1
  Ta  Ta121  1  0.90418472  0.10332363  0.29187830  1
  Ta  Ta122  1  0.80491562  0.80553185  0.40657559  1
  Ta  Ta123  1  0.90442119  0.29902033  0.28816144  1
  Ta  Ta124  1  0.19960550  0.00286976  -0.00051067  1
  Ta  Ta125  1  0.90373760  0.50324122  0.89045733  1
  Ta  Ta126  1  0.69389203  0.30570659  0.51046931  1
  Ta  Ta127  1  0.29929682  0.10625392  0.69932135  1
  Ta  Ta128  1  0.79243937  0.41128333  0.60163498  1
  Ta  Ta129  1  0.10143040  0.09971966  0.89928844  1
  Ta  Ta130  1  0.79534589  0.21027767  0.60232036  1
  Ta  Ta131  1  0.61307487  0.80076270  0.79073760  1
  Ta  Ta132  1  0.40121998  0.60395413  0.61131178  1
  Ta  Ta133  1  0.68629707  0.30774465  0.69469963  1
  Ta  Ta134  1  -0.00360569  0.80008746  0.60983860  1
  Ta  Ta135  1  0.00198913  0.19637134  0.80262711  1
  Ta  Ta136  1  0.39394689  0.00416562  -0.00174884  1
  Ta  Ta137  1  0.89477181  0.09477072  0.10402993  1
  Ta  Ta138  1  0.60157081  -0.00449380  0.60342499  1
  Ta  Ta139  1  0.79752058  0.60031589  0.79344618  1
  Ta  Ta140  1  0.39451844  0.39684633  0.40168219  1
  Ta  Ta141  1  0.19827818  0.19143969  0.00184572  1
  Ta  Ta142  1  0.89596065  0.69872106  0.69915493  1
  Ta  Ta143  1  0.29552156  0.29476443  0.09585521  1
  Ta  Ta144  1  0.30372228  0.89769644  0.30150592  1
  Ta  Ta145  1  0.20350324  -0.00034353  0.60871311  1
  Ta  Ta146  1  0.09460440  0.89801325  0.09529631  1
  Ta  Ta147  1  0.70686222  0.09427308  0.28874397  1
  Ta  Ta148  1  0.20236892  0.81207075  0.40106502  1
  Ta  Ta149  1  0.39609425  0.00027953  0.19723578  1
  Ti  Ti150  1  0.20132576  0.19797661  0.59993915  1
  Ti  Ti151  1  0.49742291  0.11166891  0.68942046  1
  Ti  Ti152  1  0.19874794  0.00503224  0.79267383  1
  Ti  Ti153  1  -0.00774927  0.59619488  0.40772022  1
  Ti  Ti154  1  0.89543876  0.70530958  0.50202460  1
  Ti  Ti155  1  0.79341622  0.20673621  0.80160378  1
  Ti  Ti156  1  0.79662647  -0.00096973  0.59917138  1
  Ti  Ti157  1  0.61735493  0.80096106  0.60455105  1
  Ti  Ti158  1  0.40229617  0.80238656  0.79393804  1
  Ti  Ti159  1  0.59781221  0.58127555  0.21998050  1
  Ti  Ti160  1  0.50229627  0.71147386  0.69471394  1
  Ti  Ti161  1  0.39723640  0.19760127  0.19425240  1
  Ti  Ti162  1  0.29719835  0.10143183  0.89924164  1
  Ti  Ti163  1  0.89756944  0.70292515  0.89663603  1
  Ti  Ti164  1  0.70903320  0.91018451  0.29479934  1
  Ti  Ti165  1  0.00087936  0.60171573  0.79924816  1
  Ti  Ti166  1  0.70698824  0.69954401  0.09783680  1
  Ti  Ti167  1  0.80736108  0.80640691  -0.00743119  1
  Ti  Ti168  1  0.70007080  0.29627910  0.10675816  1
  Ti  Ti169  1  0.30164296  0.50652188  0.70533367  1
  Ti  Ti170  1  0.19476712  0.19074614  0.79826046  1
  Ti  Ti171  1  0.89837241  0.09965595  0.50255302  1
  Ti  Ti172  1  0.00551492  0.00101780  0.60595331  1
  Ti  Ti173  1  0.39385689  -0.00615762  0.40375353  1
  Ti  Ti174  1  0.89864890  0.90378077  0.09532480  1
  Ti  Ti175  1  0.89962973  0.69931233  0.31206405  1
  Ti  Ti176  1  0.89838175  0.89888945  0.51080452  1
  Ti  Ti177  1  0.39454218  0.58295158  0.20813140  1
  Ti  Ti178  1  0.19765428  0.40868557  0.00800453  1
  Ti  Ti179  1  -0.00698635  0.19614636  -0.00572206  1
  Ti  Ti180  1  0.71389687  0.91376539  0.10397904  1
  Ti  Ti181  1  0.09788154  0.50163801  0.90157046  1
  Ti  Ti182  1  0.39447620  -0.00229146  0.60771270  1
  Ti  Ti183  1  0.80061306  0.19710903  0.19620024  1
  Ti  Ti184  1  0.40242499  0.57903172  0.39136752  1
  Ti  Ti185  1  0.20435377  0.39696861  0.40723859  1
  Ti  Ti186  1  0.19809111  0.19411857  0.19666790  1
  Ti  Ti187  1  0.09212271  0.49060641  0.50755408  1
  Ti  Ti188  1  0.09590519  0.70140072  0.90429299  1
  Ti  Ti189  1  0.49666660  0.29486419  0.09660162  1
  Ti  Ti190  1  0.69519178  0.49301829  0.88665297  1
  Ti  Ti191  1  0.39629602  0.21079230  0.41271409  1
  Ti  Ti192  1  0.71181582  0.89752844  0.51090630  1
  Ti  Ti193  1  0.40035601  0.19905774  0.79715009  1
  Ti  Ti194  1  0.10304282  0.10682266  0.49565042  1
  Ti  Ti195  1  0.59502760  0.40087382  0.20114509  1
  Ti  Ti196  1  0.19429652  0.79746469  0.79023484  1
  Ti  Ti197  1  0.10636978  0.89668733  0.69603078  1
  Ti  Ti198  1  -0.00319900  0.80841554  0.40154892  1
  Ti  Ti199  1  0.89844171  0.50291488  0.50778281  1
  Mo  Mo200  1  0.71216489  0.70740890  0.69531021  1
  Mo  Mo201  1  -0.00860202  0.19512933  0.19731422  1
  Mo  Mo202  1  0.80841077  0.60280651  0.41106593  1
  Mo  Mo203  1  0.80240032  0.78464476  0.79662105  1
  Mo  Mo204  1  0.39895868  0.20202691  0.61112617  1
  Mo  Mo205  1  0.69988632  0.90047663  0.69184710  1
  Mo  Mo206  1  0.29946662  0.49335624  0.30428120  1
  Mo  Mo207  1  0.50808042  0.71453678  0.88779666  1
  Mo  Mo208  1  0.38957847  0.81399040  0.40419851  1
  Mo  Mo209  1  0.29830711  0.90751438  0.50074271  1
  Mo  Mo210  1  0.80262192  0.00202227  0.20030680  1
  Mo  Mo211  1  0.49748084  0.49452841  0.30100544  1
  Mo  Mo212  1  0.09810265  0.49911190  0.09093089  1
  Mo  Mo213  1  0.10099139  0.89985189  0.29826519  1
  Mo  Mo214  1  0.60534550  0.00263295  0.19968226  1
  Mo  Mo215  1  0.38920857  0.38455063  0.00553758  1
  Mo  Mo216  1  0.17641352  0.59784650  -0.00265149  1
  Mo  Mo217  1  0.60341908  0.39687131  0.79894040  1
  Mo  Mo218  1  0.71052947  0.71059124  0.89335855  1
  Mo  Mo219  1  -0.00514098  0.79907661  -0.00344566  1
  Mo  Mo220  1  0.69902012  0.10483344  0.90019073  1
  Mo  Mo221  1  0.29363568  0.90314918  0.70423365  1
  Mo  Mo222  1  0.80429866  0.79707678  0.59563589  1
  Mo  Mo223  1  0.60858150  0.59648547  0.40343788  1
  Mo  Mo224  1  0.09332412  0.70013279  0.08738687  1
  Mo  Mo225  1  0.09397528  0.49586111  0.70876534  1
  Mo  Mo226  1  0.42086378  0.61785243  -0.01062380  1
  Mo  Mo227  1  0.09457005  0.70889753  0.70664235  1
  Mo  Mo228  1  0.70513907  0.50866294  0.49820282  1
  Mo  Mo229  1  0.29904505  0.49610127  0.09168934  1
  Mo  Mo230  1  0.90038813  0.89622048  0.90045336  1
  Mo  Mo231  1  0.70572237  0.50201255  0.69810022  1
  Mo  Mo232  1  0.29581900  0.29868309  0.50354354  1
  Mo  Mo233  1  0.00105360  0.40555753  0.60224383  1
  Mo  Mo234  1  0.10890221  0.09806310  0.70382619  1
  Mo  Mo235  1  0.19638658  0.80584102  0.60662063  1
  Mo  Mo236  1  0.80296545  -0.00193850  0.00919629  1
  Mo  Mo237  1  0.79905857  0.01551630  0.79058366  1
  Mo  Mo238  1  0.69958487  0.49943002  0.30005697  1
  Mo  Mo239  1  0.59890447  0.19947126  0.60642924  1
  Mo  Mo240  1  -0.00063738  0.19618348  0.40003474  1
  Mo  Mo241  1  0.70134179  0.29946126  0.88866047  1
  Mo  Mo242  1  0.19379329  0.19795846  0.40797153  1
  Mo  Mo243  1  0.80076488  0.39408803  0.19616471  1
  Mo  Mo244  1  0.71493533  0.70413983  0.50187958  1
  Mo  Mo245  1  0.59708555  0.20031398  0.00722459  1
  Mo  Mo246  1  -0.00085022  -0.00204134  0.19470623  1
  Mo  Mo247  1  -0.00294805  0.39329053  0.19506934  1
  Mo  Mo248  1  0.60530171  0.40318908  0.60108846  1
  Mo  Mo249  1  0.49639716  0.29480560  0.70299422  1
