# generated using pymatgen
data_HfZrTaTiMo
_symmetry_space_group_name_H-M   'P 1'
_cell_length_a   16.89051167
_cell_length_b   16.89323473
_cell_length_c   16.89492414
_cell_angle_alpha   90.04086776
_cell_angle_beta   89.94348451
_cell_angle_gamma   90.03906565
_symmetry_Int_Tables_number   1
_chemical_formula_structural   HfZrTaTiMo
_chemical_formula_sum   'Hf50 Zr50 Ta50 Ti50 Mo50'
_cell_volume   4820.71488228
_cell_formula_units_Z   50
loop_
 _symmetry_equiv_pos_site_id
 _symmetry_equiv_pos_as_xyz
  1  'x, y, z'
loop_
 _atom_site_type_symbol
 _atom_site_label
 _atom_site_symmetry_multiplicity
 _atom_site_fract_x
 _atom_site_fract_y
 _atom_site_fract_z
 _atom_site_occupancy
  Hf  Hf0  1  0.29514100  0.09660426  0.70173010  1
  Hf  Hf1  1  0.40151114  0.20315778  -0.00969038  1
  Hf  Hf2  1  0.20120407  0.00663273  -0.01199328  1
  Hf  Hf3  1  0.40312874  0.00568134  0.59439817  1
  Hf  Hf4  1  0.69818620  0.30293992  0.10526716  1
  Hf  Hf5  1  0.49645283  0.50058475  0.50701237  1
  Hf  Hf6  1  0.59880417  0.40242836  0.61134587  1
  Hf  Hf7  1  0.30091638  0.29740402  0.70272883  1
  Hf  Hf8  1  0.41024161  0.80896873  -0.00891731  1
  Hf  Hf9  1  0.70543856  0.29682053  0.70502520  1
  Hf  Hf10  1  0.31034244  0.49679125  0.88729468  1
  Hf  Hf11  1  0.39786613  0.39867738  0.19453605  1
  Hf  Hf12  1  0.88536026  0.69787881  0.09859658  1
  Hf  Hf13  1  0.19852351  0.00087714  0.40714467  1
  Hf  Hf14  1  0.50066008  0.49030010  0.29780558  1
  Hf  Hf15  1  0.80431808  0.40051532  0.59990779  1
  Hf  Hf16  1  0.09948227  0.69491126  0.09662878  1
  Hf  Hf17  1  0.70432808  0.11271441  0.30689666  1
  Hf  Hf18  1  0.49927968  0.70060914  0.70464260  1
  Hf  Hf19  1  0.30687543  0.90538906  0.09773193  1
  Hf  Hf20  1  -0.00239513  0.39548537  0.79707832  1
  Hf  Hf21  1  0.60836665  0.80695031  0.39492154  1
  Hf  Hf22  1  0.50330550  0.10842372  0.10516050  1
  Hf  Hf23  1  0.09378491  0.29001371  0.90055158  1
  Hf  Hf24  1  0.40292023  0.80643640  0.39580169  1
  Hf  Hf25  1  0.80489132  0.18967822  0.59950207  1
  Hf  Hf26  1  0.70128419  0.51552386  0.51574997  1
  Hf  Hf27  1  0.40723465  -0.00001665  0.39474523  1
  Hf  Hf28  1  0.00492681  0.00062540  0.80476344  1
  Hf  Hf29  1  0.50303932  0.09251438  0.89114563  1
  Hf  Hf30  1  0.50190745  0.90792209  0.70282947  1
  Hf  Hf31  1  0.09397197  0.49753348  0.69556548  1
  Hf  Hf32  1  0.09866220  0.69663564  0.90258877  1
  Hf  Hf33  1  0.59585776  0.19177006  0.60506467  1
  Hf  Hf34  1  0.90323742  0.28948855  0.70918373  1
  Hf  Hf35  1  0.59771057  -0.01005908  0.21201390  1
  Hf  Hf36  1  0.21504351  0.80460716  0.21221125  1
  Hf  Hf37  1  0.29901674  0.70349367  0.49858606  1
  Hf  Hf38  1  0.79678889  -0.00229715  0.20310064  1
  Hf  Hf39  1  0.09690907  0.29530552  0.09446592  1
  Hf  Hf40  1  0.60091942  0.58602619  0.79802010  1
  Hf  Hf41  1  0.20533392  0.40390679  0.19412400  1
  Hf  Hf42  1  -0.00682162  0.61151343  0.40007980  1
  Hf  Hf43  1  0.50353496  0.69443083  0.50839068  1
  Hf  Hf44  1  0.89704958  0.50763421  0.90572184  1
  Hf  Hf45  1  0.10527403  0.89637149  0.10219712  1
  Hf  Hf46  1  0.80139987  0.80995530  0.59688394  1
  Hf  Hf47  1  0.89802519  0.09219749  0.70899565  1
  Hf  Hf48  1  0.60072268  0.39573116  0.80783250  1
  Hf  Hf49  1  -0.01184531  0.79960663  0.20746650  1
  Zr  Zr50  1  0.10051089  0.89825138  0.31109238  1
  Zr  Zr51  1  0.19854160  0.60609509  0.60017978  1
  Zr  Zr52  1  0.39626996  0.80324020  0.60368676  1
  Zr  Zr53  1  0.60106427  0.60283346  0.39744205  1
  Zr  Zr54  1  0.19651930  0.39341139  0.60399826  1
  Zr  Zr55  1  0.50955835  0.90810908  0.88770885  1
  Zr  Zr56  1  0.40793100  0.39443960  -0.00507033  1
  Zr  Zr57  1  0.20289164  0.00665130  0.20091787  1
  Zr  Zr58  1  0.70182673  0.08278871  0.90760619  1
  Zr  Zr59  1  0.69963358  0.70347391  0.90213739  1
  Zr  Zr60  1  0.29114544  0.90864028  0.69960332  1
  Zr  Zr61  1  0.89149324  0.50139493  0.29764056  1
  Zr  Zr62  1  0.39918174  0.59289583  0.19585870  1
  Zr  Zr63  1  0.70195152  0.09622116  0.49253407  1
  Zr  Zr64  1  0.10152356  0.50584322  0.90038471  1
  Zr  Zr65  1  0.70176627  0.29138731  0.49811579  1
  Zr  Zr66  1  0.20973381  0.80213876  -0.01160392  1
  Zr  Zr67  1  0.08847482  0.30062849  0.29841534  1
  Zr  Zr68  1  0.08906008  0.50660717  0.09292238  1
  Zr  Zr69  1  0.89469868  0.70452965  0.89943540  1
  Zr  Zr70  1  0.40876999  -0.00464183  0.20189144  1
  Zr  Zr71  1  0.69746431  0.88824054  0.09326213  1
  Zr  Zr72  1  0.59983133  0.38985384  0.39937273  1
  Zr  Zr73  1  0.10222193  0.70332189  0.30378841  1
  Zr  Zr74  1  -0.00733243  0.60859645  0.79008570  1
  Zr  Zr75  1  0.21787544  0.60256684  0.78442032  1
  Zr  Zr76  1  0.08655804  0.50095286  0.49802915  1
  Zr  Zr77  1  0.51309154  0.70401240  0.09914151  1
  Zr  Zr78  1  0.69835433  0.68367641  0.68183334  1
  Zr  Zr79  1  -0.00984691  0.39760676  -0.00135897  1
  Zr  Zr80  1  0.10316690  0.90594267  0.69888549  1
  Zr  Zr81  1  0.89122098  0.29779125  0.10269831  1
  Zr  Zr82  1  0.32033323  0.29429544  0.30646803  1
  Zr  Zr83  1  -0.01102242  -0.00376683  0.19329804  1
  Zr  Zr84  1  0.00458639  0.00339804  -0.00039130  1
  Zr  Zr85  1  0.09645689  0.71827972  0.70071400  1
  Zr  Zr86  1  0.88810225  0.90333906  0.89583194  1
  Zr  Zr87  1  0.20658296  0.40513179  0.39141851  1
  Zr  Zr88  1  0.20182236  0.60104365  0.39642509  1
  Zr  Zr89  1  0.60274099  0.21094234  -0.01047439  1
  Zr  Zr90  1  0.31047506  0.11082753  0.29871235  1
  Zr  Zr91  1  -0.00892583  0.80772292  0.00461985  1
  Zr  Zr92  1  0.21177514  0.59037487  0.20026279  1
  Zr  Zr93  1  0.09091122  0.29922868  0.49626685  1
  Zr  Zr94  1  0.69998401  0.49855485  0.29140261  1
  Zr  Zr95  1  0.08833312  0.10112163  0.30156617  1
  Zr  Zr96  1  0.79653535  0.80465401  0.21113889  1
  Zr  Zr97  1  0.30971157  0.49358415  0.50200525  1
  Zr  Zr98  1  0.31191541  0.70420177  0.09692166  1
  Zr  Zr99  1  0.19690197  0.19688068  0.40585666  1
  Ta  Ta100  1  0.50362885  0.70179212  0.29347515  1
  Ta  Ta101  1  0.20890085  0.40039476  -0.00167304  1
  Ta  Ta102  1  0.51438460  0.49422861  0.09739688  1
  Ta  Ta103  1  0.19542294  0.19662547  0.80065820  1
  Ta  Ta104  1  0.40007858  0.19765780  0.80174465  1
  Ta  Ta105  1  0.79910598  0.80283766  0.78343335  1
  Ta  Ta106  1  0.60834779  -0.00122605  0.59898008  1
  Ta  Ta107  1  0.29374730  0.90274152  0.49859914  1
  Ta  Ta108  1  0.80077371  0.80336982  0.40289445  1
  Ta  Ta109  1  0.90132864  0.10494531  0.90408015  1
  Ta  Ta110  1  0.89260702  0.10542364  0.09925983  1
  Ta  Ta111  1  0.00259778  0.19347961  0.60086310  1
  Ta  Ta112  1  0.40500884  0.19725559  0.60158666  1
  Ta  Ta113  1  0.89120373  0.29049232  0.30286191  1
  Ta  Ta114  1  -0.00344921  0.80459335  0.41473573  1
  Ta  Ta115  1  0.49826683  0.29393584  0.70332837  1
  Ta  Ta116  1  0.10002063  0.10008662  0.70031276  1
  Ta  Ta117  1  0.22065215  0.59452789  -0.00077648  1
  Ta  Ta118  1  0.08816039  0.49945188  0.29475077  1
  Ta  Ta119  1  0.31197670  0.29510176  0.50117147  1
  Ta  Ta120  1  0.70241476  0.70073318  0.50203447  1
  Ta  Ta121  1  0.20080974  0.20158622  0.19420376  1
  Ta  Ta122  1  0.31633861  0.69557135  0.89289037  1
  Ta  Ta123  1  0.79788860  0.59697186  0.79075608  1
  Ta  Ta124  1  0.39893707  0.59672976  0.39108262  1
  Ta  Ta125  1  0.79174780  0.19313695  0.80974864  1
  Ta  Ta126  1  0.39765548  0.00340420  -0.00732517  1
  Ta  Ta127  1  0.78894813  0.59710240  0.00205667  1
  Ta  Ta128  1  0.61019978  0.80293639  0.79094009  1
  Ta  Ta129  1  -0.00757032  0.39069597  0.60081944  1
  Ta  Ta130  1  0.89821181  0.50305636  0.69282315  1
  Ta  Ta131  1  0.79582765  0.19931486  -0.00199041  1
  Ta  Ta132  1  -0.00790902  0.19749849  0.19832790  1
  Ta  Ta133  1  0.60763241  0.81058647  0.59866873  1
  Ta  Ta134  1  0.89536479  0.70444180  0.50402232  1
  Ta  Ta135  1  -0.00231715  -0.00172723  0.59477253  1
  Ta  Ta136  1  0.60329110  0.19697342  0.79876380  1
  Ta  Ta137  1  0.69883398  0.49570943  0.10019209  1
  Ta  Ta138  1  -0.01385198  0.60374652  0.20306567  1
  Ta  Ta139  1  0.50640796  0.90391731  0.50043286  1
  Ta  Ta140  1  0.80002485  0.39792918  0.40296340  1
  Ta  Ta141  1  -0.00952977  0.39973276  0.20097722  1
  Ta  Ta142  1  0.70369733  0.89820892  0.89592841  1
  Ta  Ta143  1  0.19521545  0.19653134  0.60090433  1
  Ta  Ta144  1  0.30383986  0.10775568  0.09587151  1
  Ta  Ta145  1  0.80093764  0.60939527  0.39938411  1
  Ta  Ta146  1  0.88409218  0.50292225  0.10451947  1
  Ta  Ta147  1  0.38512629  0.59840213  0.62319604  1
  Ta  Ta148  1  0.41165603  0.59202381  -0.00680198  1
  Ta  Ta149  1  0.89347309  0.10266608  0.30653278  1
  Ti  Ti150  1  0.80402742  -0.00381445  0.01134715  1
  Ti  Ti151  1  0.79982765  0.40310013  0.80263405  1
  Ti  Ti152  1  0.48736170  0.49888072  0.70625354  1
  Ti  Ti153  1  -0.01317845  0.40139810  0.39884112  1
  Ti  Ti154  1  0.58819546  0.20940826  0.39915395  1
  Ti  Ti155  1  0.29754338  0.29304023  0.09583095  1
  Ti  Ti156  1  0.89919994  0.29431103  0.49603041  1
  Ti  Ti157  1  -0.00444072  0.61256729  0.59779353  1
  Ti  Ti158  1  0.79308176  0.39544000  -0.00802794  1
  Ti  Ti159  1  0.41097237  0.39214865  0.80420192  1
  Ti  Ti160  1  0.89703380  0.09222642  0.49686403  1
  Ti  Ti161  1  0.89727638  0.28872423  0.89931486  1
  Ti  Ti162  1  0.49366321  0.12310094  0.29797571  1
  Ti  Ti163  1  0.09719613  0.11024791  0.09460460  1
  Ti  Ti164  1  0.30026420  0.10338446  0.50349386  1
  Ti  Ti165  1  0.60383447  0.60013976  0.19638368  1
  Ti  Ti166  1  0.20292393  0.19398460  -0.00781055  1
  Ti  Ti167  1  0.70053322  0.69929859  0.29428115  1
  Ti  Ti168  1  0.79449479  0.39063616  0.20872843  1
  Ti  Ti169  1  0.21339208  0.79998857  0.80374215  1
  Ti  Ti170  1  0.09757203  0.88680036  0.89088235  1
  Ti  Ti171  1  0.70432725  0.49784631  0.90227643  1
  Ti  Ti172  1  0.89791513  0.50559042  0.50255011  1
  Ti  Ti173  1  0.59627531  0.80306206  -0.00787551  1
  Ti  Ti174  1  0.39682918  0.80445093  0.80088349  1
  Ti  Ti175  1  -0.00107581  -0.00375696  0.41475215  1
  Ti  Ti176  1  0.19467206  0.39453793  0.79707424  1
  Ti  Ti177  1  0.69782381  0.69887849  0.09946774  1
  Ti  Ti178  1  0.50694661  0.30137185  0.10876407  1
  Ti  Ti179  1  0.30803215  0.70325887  0.30391418  1
  Ti  Ti180  1  -0.00723509  0.19097318  0.40677870  1
  Ti  Ti181  1  0.59933163  0.39796786  -0.00912805  1
  Ti  Ti182  1  0.79618656  -0.01238018  0.40555269  1
  Ti  Ti183  1  0.40303308  0.39363115  0.60531711  1
  Ti  Ti184  1  0.50437093  0.10030238  0.49436375  1
  Ti  Ti185  1  0.79716001  -0.00931944  0.60753534  1
  Ti  Ti186  1  0.59181384  -0.00636995  0.01282717  1
  Ti  Ti187  1  0.59895662  0.59239090  -0.00572757  1
  Ti  Ti188  1  0.60234112  0.21606236  0.21368825  1
  Ti  Ti189  1  0.19980073  0.00727635  0.81637305  1
  Ti  Ti190  1  0.49825660  0.09551612  0.70739697  1
  Ti  Ti191  1  0.19072101  0.80453274  0.58558903  1
  Ti  Ti192  1  0.69889293  0.10647130  0.10617878  1
  Ti  Ti193  1  0.59868700  -0.00433791  0.39651379  1
  Ti  Ti194  1  0.50149366  0.69598659  0.89108099  1
  Ti  Ti195  1  0.29524198  0.29863042  0.89429239  1
  Ti  Ti196  1  0.89993572  0.90548959  0.31322585  1
  Ti  Ti197  1  0.62286955  0.00217768  0.78224037  1
  Ti  Ti198  1  0.41352627  0.81198533  0.20585003  1
  Ti  Ti199  1  -0.00882737  0.81083969  0.59826654  1
  Mo  Mo200  1  0.39007163  0.00580281  0.80158846  1
  Mo  Mo201  1  0.41276868  0.19841145  0.41969927  1
  Mo  Mo202  1  0.89785044  0.70380247  0.69318712  1
  Mo  Mo203  1  0.09181337  0.09836937  0.50677000  1
  Mo  Mo204  1  0.09168027  0.71198408  0.50421831  1
  Mo  Mo205  1  0.40268410  0.20654368  0.18181789  1
  Mo  Mo206  1  0.50325190  0.29557836  0.88822452  1
  Mo  Mo207  1  0.70368654  0.29856631  0.30185031  1
  Mo  Mo208  1  0.89338312  0.90382456  0.09842746  1
  Mo  Mo209  1  0.50633713  0.89222893  0.30250033  1
  Mo  Mo210  1  0.50143449  0.29594394  0.30003865  1
  Mo  Mo211  1  0.19338252  0.00903537  0.58903139  1
  Mo  Mo212  1  0.50266703  0.90054118  0.09735839  1
  Mo  Mo213  1  0.49448595  0.29856240  0.50772799  1
  Mo  Mo214  1  0.09887290  0.10931835  0.89753638  1
  Mo  Mo215  1  0.30933578  0.49436702  0.08491615  1
  Mo  Mo216  1  0.71211504  0.49506197  0.70448494  1
  Mo  Mo217  1  -0.00057473  0.19423336  0.80188811  1
  Mo  Mo218  1  0.30628316  0.90515200  0.89312281  1
  Mo  Mo219  1  0.70386449  0.90220658  0.69836201  1
  Mo  Mo220  1  0.81771533  0.60237643  0.59644147  1
  Mo  Mo221  1  0.50565281  0.49804722  0.90325993  1
  Mo  Mo222  1  0.89355188  0.70335884  0.30806827  1
  Mo  Mo223  1  0.59930034  0.39505556  0.19587244  1
  Mo  Mo224  1  -0.01463761  0.60055792  0.01107551  1
  Mo  Mo225  1  0.79659089  0.19449300  0.20105349  1
  Mo  Mo226  1  0.30625538  0.89796327  0.30583442  1
  Mo  Mo227  1  0.40631868  0.59897854  0.80020414  1
  Mo  Mo228  1  0.29978599  0.10346127  0.89794428  1
  Mo  Mo229  1  0.79930678  -0.00114965  0.79879422  1
  Mo  Mo230  1  -0.01070015  0.80670836  0.79198013  1
  Mo  Mo231  1  0.70816088  0.30330533  0.89983088  1
  Mo  Mo232  1  0.89925546  0.90552417  0.50046783  1
  Mo  Mo233  1  0.78989552  0.79828758  -0.00241290  1
  Mo  Mo234  1  0.30582141  0.49500957  0.30424259  1
  Mo  Mo235  1  0.40714021  0.39626327  0.40536006  1
  Mo  Mo236  1  0.09819066  0.90126913  0.50503053  1
  Mo  Mo237  1  0.70151895  0.90597594  0.30834898  1
  Mo  Mo238  1  0.58238130  0.59544932  0.60530539  1
  Mo  Mo239  1  0.31005435  0.47972724  0.70339323  1
  Mo  Mo240  1  0.70016401  0.90400533  0.50062753  1
  Mo  Mo241  1  0.09837125  0.29151662  0.70132850  1
  Mo  Mo242  1  0.90270298  0.90093148  0.69970284  1
  Mo  Mo243  1  0.20315326  0.80405412  0.40580362  1
  Mo  Mo244  1  0.81184476  0.20091524  0.40322119  1
  Mo  Mo245  1  0.78937027  0.60386726  0.19677646  1
  Mo  Mo246  1  0.60053592  0.79532682  0.20510025  1
  Mo  Mo247  1  0.30027198  0.71745140  0.70197947  1
  Mo  Mo248  1  0.70511907  0.09801459  0.70051169  1
  Mo  Mo249  1  -0.00821081  0.19536415  0.00218582  1
