# generated using pymatgen
data_HfZrTaTiMo
_symmetry_space_group_name_H-M   'P 1'
_cell_length_a   16.88707713
_cell_length_b   16.88585416
_cell_length_c   16.88694925
_cell_angle_alpha   89.99109272
_cell_angle_beta   89.99398221
_cell_angle_gamma   89.97279265
_symmetry_Int_Tables_number   1
_chemical_formula_structural   HfZrTaTiMo
_chemical_formula_sum   'Hf50 Zr50 Ta50 Ti50 Mo50'
_cell_volume   4815.35890853
_cell_formula_units_Z   50
loop_
 _symmetry_equiv_pos_site_id
 _symmetry_equiv_pos_as_xyz
  1  'x, y, z'
loop_
 _atom_site_type_symbol
 _atom_site_label
 _atom_site_symmetry_multiplicity
 _atom_site_fract_x
 _atom_site_fract_y
 _atom_site_fract_z
 _atom_site_occupancy
  Hf  Hf0  1  0.90030567  0.71526511  0.69104007  1
  Hf  Hf1  1  0.69269697  0.49590675  0.49759028  1
  Hf  Hf2  1  0.20815934  0.80177825  0.20227532  1
  Hf  Hf3  1  0.79210082  0.60538338  0.60506243  1
  Hf  Hf4  1  0.60022134  0.80218340  0.20260594  1
  Hf  Hf5  1  -0.01967875  0.00107535  0.17549514  1
  Hf  Hf6  1  0.00681811  0.79868709  0.20155716  1
  Hf  Hf7  1  0.39419575  0.79352769  0.60625172  1
  Hf  Hf8  1  0.59956830  0.60725607  0.39344726  1
  Hf  Hf9  1  0.49154252  0.09625094  0.49792202  1
  Hf  Hf10  1  0.90342769  0.50121952  0.90508775  1
  Hf  Hf11  1  0.30119443  0.29232217  0.69431437  1
  Hf  Hf12  1  0.39941730  0.00349999  0.00423658  1
  Hf  Hf13  1  0.18872641  0.20421288  0.41525624  1
  Hf  Hf14  1  0.49779183  0.50089854  0.10417338  1
  Hf  Hf15  1  0.79673812  0.59880136  0.00403933  1
  Hf  Hf16  1  0.20097538  0.40267621  0.19363634  1
  Hf  Hf17  1  0.00090753  0.60518702  0.78716781  1
  Hf  Hf18  1  0.40238989  0.00431586  0.80986211  1
  Hf  Hf19  1  0.20540948  0.40273324  -0.00198704  1
  Hf  Hf20  1  0.19337385  0.79343670  0.79656898  1
  Hf  Hf21  1  0.69929179  0.30187715  0.30689488  1
  Hf  Hf22  1  0.60320177  -0.00778850  0.58867014  1
  Hf  Hf23  1  0.79357791  0.19851079  0.19614236  1
  Hf  Hf24  1  0.10388870  0.69018720  0.10012125  1
  Hf  Hf25  1  0.60375146  0.00351164  0.20018005  1
  Hf  Hf26  1  0.10169929  0.90320370  0.09501766  1
  Hf  Hf27  1  0.50752080  0.88611548  0.90247633  1
  Hf  Hf28  1  0.30437700  0.50166394  0.49152838  1
  Hf  Hf29  1  0.39156293  0.79592121  0.00563771  1
  Hf  Hf30  1  -0.00308296  0.20671847  0.40873112  1
  Hf  Hf31  1  0.10292247  0.29645812  0.70223771  1
  Hf  Hf32  1  0.89493775  0.30431966  0.68842145  1
  Hf  Hf33  1  0.10191147  0.10183789  0.90084048  1
  Hf  Hf34  1  0.30356472  0.89618317  0.49964331  1
  Hf  Hf35  1  0.91273561  0.10120551  0.91126467  1
  Hf  Hf36  1  0.39918640  0.40273523  -0.00547063  1
  Hf  Hf37  1  0.89917855  0.90087707  0.69834422  1
  Hf  Hf38  1  0.80089430  0.20096444  0.80479862  1
  Hf  Hf39  1  0.50370808  0.89125063  0.70534333  1
  Hf  Hf40  1  0.79988193  0.60170305  0.79552959  1
  Hf  Hf41  1  0.59815714  0.20053913  0.58812899  1
  Hf  Hf42  1  0.49373583  0.70066362  0.49400988  1
  Hf  Hf43  1  0.30531132  0.49661662  0.30211015  1
  Hf  Hf44  1  0.80937137  0.40104155  0.40056872  1
  Hf  Hf45  1  0.80271659  0.59760231  0.39701487  1
  Hf  Hf46  1  0.49917422  0.29913400  0.70304267  1
  Hf  Hf47  1  0.40397610  0.20119011  0.80823275  1
  Hf  Hf48  1  0.60819360  -0.00292187  0.80886808  1
  Hf  Hf49  1  0.79841184  -0.00098154  0.81352893  1
  Zr  Zr50  1  0.09719482  0.51395623  0.10098629  1
  Zr  Zr51  1  0.39725124  0.20116653  0.39846430  1
  Zr  Zr52  1  0.38885799  0.78457383  0.80482081  1
  Zr  Zr53  1  0.79261048  0.80201522  0.80783408  1
  Zr  Zr54  1  0.19965959  -0.00118437  0.40231204  1
  Zr  Zr55  1  0.29245464  0.10603887  0.29093812  1
  Zr  Zr56  1  0.29254144  0.90733526  0.70647713  1
  Zr  Zr57  1  0.60635060  0.39582870  0.19262857  1
  Zr  Zr58  1  0.00843215  0.00454609  0.41715339  1
  Zr  Zr59  1  0.20275834  0.40597597  0.80432169  1
  Zr  Zr60  1  0.80822517  0.00079826  0.01625589  1
  Zr  Zr61  1  0.19380212  0.40437687  0.59490894  1
  Zr  Zr62  1  0.90023650  0.89873570  0.30452683  1
  Zr  Zr63  1  0.70402744  0.10200281  0.69616518  1
  Zr  Zr64  1  0.50122991  0.10204851  0.29618130  1
  Zr  Zr65  1  0.10634062  0.30645825  0.29819915  1
  Zr  Zr66  1  0.69439060  0.49690700  0.69663671  1
  Zr  Zr67  1  0.78867796  0.00501489  0.20255572  1
  Zr  Zr68  1  0.89863322  0.09966886  0.30520687  1
  Zr  Zr69  1  0.20998454  -0.00405686  0.00235519  1
  Zr  Zr70  1  0.10154990  0.10035865  0.28509649  1
  Zr  Zr71  1  0.49547260  0.49687165  0.30199609  1
  Zr  Zr72  1  0.90174846  0.70582340  0.50258977  1
  Zr  Zr73  1  0.70544303  0.89348559  0.69071913  1
  Zr  Zr74  1  0.49790666  0.30443508  0.29834040  1
  Zr  Zr75  1  0.70384701  0.69508824  0.28548088  1
  Zr  Zr76  1  0.90289282  0.29881598  0.90441787  1
  Zr  Zr77  1  -0.00470924  0.20543177  0.19100310  1
  Zr  Zr78  1  0.30190152  0.10717792  0.51909142  1
  Zr  Zr79  1  0.49209832  0.50026950  0.49040185  1
  Zr  Zr80  1  0.19278146  0.61033280  0.39946745  1
  Zr  Zr81  1  0.19974758  0.80124455  0.39554504  1
  Zr  Zr82  1  0.00307496  0.39359310  0.00926052  1
  Zr  Zr83  1  0.60581495  0.00022290  0.00581563  1
  Zr  Zr84  1  0.00382736  0.19500130  0.58918542  1
  Zr  Zr85  1  0.49796947  0.10336235  0.69742187  1
  Zr  Zr86  1  0.89190810  0.89448600  0.51124017  1
  Zr  Zr87  1  0.59166936  0.39817276  0.59720432  1
  Zr  Zr88  1  0.09610406  0.69446711  0.90820122  1
  Zr  Zr89  1  0.70121789  0.29832421  0.70050056  1
  Zr  Zr90  1  0.68989604  0.70177380  0.89974332  1
  Zr  Zr91  1  0.90148240  0.49851782  0.51208343  1
  Zr  Zr92  1  0.01910395  0.79454454  0.40151706  1
  Zr  Zr93  1  0.18545613  -0.00783160  0.59921728  1
  Zr  Zr94  1  0.89912012  0.69313049  0.29384632  1
  Zr  Zr95  1  0.60762694  -0.00657140  0.39555183  1
  Zr  Zr96  1  0.69602132  0.49963668  0.90290365  1
  Zr  Zr97  1  0.09530757  0.50573659  0.90155968  1
  Zr  Zr98  1  0.10720738  0.10160620  0.71032498  1
  Zr  Zr99  1  0.89849886  0.69251944  0.10381118  1
  Ta  Ta100  1  0.00226470  -0.00201582  0.60106091  1
  Ta  Ta101  1  0.40020494  0.60587520  0.19783811  1
  Ta  Ta102  1  0.59340766  0.59865094  0.79672431  1
  Ta  Ta103  1  0.79795193  0.80364671  0.00351921  1
  Ta  Ta104  1  0.69989426  0.49918888  0.29489454  1
  Ta  Ta105  1  0.39660908  0.60276723  0.60466263  1
  Ta  Ta106  1  0.00302773  0.40252194  0.40094864  1
  Ta  Ta107  1  0.78344812  0.80468177  0.39917997  1
  Ta  Ta108  1  0.69669999  0.11234806  0.90908798  1
  Ta  Ta109  1  0.49766922  0.89433518  0.10408698  1
  Ta  Ta110  1  0.20842878  0.60367813  0.79436248  1
  Ta  Ta111  1  0.59847821  0.79375101  0.59675083  1
  Ta  Ta112  1  0.49520552  0.50351302  0.70051953  1
  Ta  Ta113  1  0.90389383  0.70344610  0.90314631  1
  Ta  Ta114  1  0.39476014  -0.00319664  0.19186496  1
  Ta  Ta115  1  0.90853907  0.89909654  0.90702032  1
  Ta  Ta116  1  0.89988706  0.30535237  0.29921183  1
  Ta  Ta117  1  0.50190629  0.69800615  0.10117638  1
  Ta  Ta118  1  0.49252582  0.89618803  0.29748341  1
  Ta  Ta119  1  0.30461033  0.50016354  0.69810842  1
  Ta  Ta120  1  0.49840636  0.29624096  0.09809807  1
  Ta  Ta121  1  0.30488792  0.29900139  0.10069479  1
  Ta  Ta122  1  0.29145277  0.10550822  0.89541129  1
  Ta  Ta123  1  0.60168465  0.39556889  0.00183132  1
  Ta  Ta124  1  0.00442005  0.59676105  0.39715214  1
  Ta  Ta125  1  0.60416359  0.79762048  0.00687811  1
  Ta  Ta126  1  0.79854000  0.40016063  0.80427554  1
  Ta  Ta127  1  0.89632982  0.09563729  0.69378977  1
  Ta  Ta128  1  0.10077283  0.10308798  0.09137727  1
  Ta  Ta129  1  0.20593849  0.79822088  -0.00167287  1
  Ta  Ta130  1  0.01410558  0.60402963  0.59775967  1
  Ta  Ta131  1  0.39983643  0.19666329  0.00082391  1
  Ta  Ta132  1  0.80550481  0.19844351  0.40771314  1
  Ta  Ta133  1  0.71066803  0.30188611  0.50328539  1
  Ta  Ta134  1  0.79167398  0.39696196  0.01024245  1
  Ta  Ta135  1  0.29540085  0.10536815  0.70504563  1
  Ta  Ta136  1  0.29981838  0.29533328  0.90144460  1
  Ta  Ta137  1  0.50302272  0.69432785  0.70139805  1
  Ta  Ta138  1  0.10315865  0.91337775  0.28893859  1
  Ta  Ta139  1  0.50151004  0.69503475  0.90224486  1
  Ta  Ta140  1  0.78941683  -0.00075456  0.40475040  1
  Ta  Ta141  1  0.39819540  0.60131297  -0.00346719  1
  Ta  Ta142  1  0.39492406  0.59666371  0.80346817  1
  Ta  Ta143  1  0.39739901  0.19704834  0.18963796  1
  Ta  Ta144  1  0.40183229  0.40424916  0.80511607  1
  Ta  Ta145  1  0.29972574  0.30483242  0.29662871  1
  Ta  Ta146  1  0.59317573  0.39975973  0.80855184  1
  Ta  Ta147  1  0.29957224  0.30686769  0.49860126  1
  Ta  Ta148  1  0.10037810  0.50356300  0.29613730  1
  Ta  Ta149  1  -0.00136964  0.80339683  0.00259441  1
  Ti  Ti150  1  0.19350045  0.79138539  0.60363656  1
  Ti  Ti151  1  0.20666192  0.20063066  0.00430827  1
  Ti  Ti152  1  0.39980660  0.40084808  0.59866755  1
  Ti  Ti153  1  0.79168165  0.20395700  0.00912224  1
  Ti  Ti154  1  0.09880553  0.90471138  0.89987589  1
  Ti  Ti155  1  0.30331678  0.69242799  0.29597723  1
  Ti  Ti156  1  0.39416490  -0.00607520  0.38847478  1
  Ti  Ti157  1  0.10343004  0.28871250  0.89821644  1
  Ti  Ti158  1  0.60839600  0.19645108  0.40314708  1
  Ti  Ti159  1  0.30107343  0.69806295  0.49967982  1
  Ti  Ti160  1  0.49404903  0.70170201  0.29466494  1
  Ti  Ti161  1  0.02419972  0.80398250  0.60314974  1
  Ti  Ti162  1  -0.00081010  0.39935542  0.79777973  1
  Ti  Ti163  1  0.69896464  0.89481906  0.10042009  1
  Ti  Ti164  1  0.39328949  0.80008995  0.38771655  1
  Ti  Ti165  1  0.49575482  0.30544850  0.49021236  1
  Ti  Ti166  1  0.60237593  0.80419146  0.39795936  1
  Ti  Ti167  1  0.49371038  0.89316169  0.49328243  1
  Ti  Ti168  1  0.40213168  -0.00569416  0.60471934  1
  Ti  Ti169  1  0.71211295  0.10206870  0.50456125  1
  Ti  Ti170  1  0.79958259  0.81156864  0.19710391  1
  Ti  Ti171  1  0.50162447  0.50384023  0.89997001  1
  Ti  Ti172  1  0.29795259  0.69213885  0.10292489  1
  Ti  Ti173  1  -0.00380087  0.20146453  0.79677204  1
  Ti  Ti174  1  0.10188525  0.50019738  0.49374665  1
  Ti  Ti175  1  0.69786360  0.69253488  0.10721666  1
  Ti  Ti176  1  0.59552378  0.60026530  0.00532112  1
  Ti  Ti177  1  0.10750748  0.29230957  0.09838554  1
  Ti  Ti178  1  0.00497307  0.39745401  0.59153147  1
  Ti  Ti179  1  0.21986308  0.59740400  -0.01073945  1
  Ti  Ti180  1  0.39425542  0.80263925  0.19861154  1
  Ti  Ti181  1  0.89691172  0.30022744  0.09719299  1
  Ti  Ti182  1  0.30540069  0.50425158  0.10590744  1
  Ti  Ti183  1  0.51346394  0.11122770  0.90548531  1
  Ti  Ti184  1  0.60897908  0.19616740  0.19123576  1
  Ti  Ti185  1  0.69702586  0.50687458  0.10696533  1
  Ti  Ti186  1  0.90165879  0.50387418  0.10701508  1
  Ti  Ti187  1  0.10008466  0.50059426  0.69821655  1
  Ti  Ti188  1  0.19874972  0.60797950  0.60653532  1
  Ti  Ti189  1  0.69470915  0.70190568  0.50470466  1
  Ti  Ti190  1  0.21374435  -0.00226034  0.18886776  1
  Ti  Ti191  1  0.80317074  0.40209213  0.19536828  1
  Ti  Ti192  1  0.00429607  -0.00604964  0.79711004  1
  Ti  Ti193  1  0.29623651  0.89988669  0.89771190  1
  Ti  Ti194  1  0.90015624  0.49254242  0.69609448  1
  Ti  Ti195  1  0.50676695  0.29579706  0.90568375  1
  Ti  Ti196  1  0.50295886  0.10573958  0.09731917  1
  Ti  Ti197  1  0.00607920  0.80253832  0.80009040  1
  Ti  Ti198  1  -0.00467293  0.40392889  0.20289058  1
  Ti  Ti199  1  0.69277405  0.29694704  0.90446170  1
  Mo  Mo200  1  0.39342914  0.39105448  0.39948469  1
  Mo  Mo201  1  0.60764367  0.39523648  0.39977526  1
  Mo  Mo202  1  0.19671260  0.40195740  0.39729514  1
  Mo  Mo203  1  0.20983368  0.60128974  0.20252354  1
  Mo  Mo204  1  0.30473311  0.89419690  0.09998226  1
  Mo  Mo205  1  0.69979890  0.30365454  0.09672193  1
  Mo  Mo206  1  0.30500012  0.50038390  0.89572213  1
  Mo  Mo207  1  -0.00115310  0.59376674  0.20596660  1
  Mo  Mo208  1  0.10274854  0.89368287  0.50609771  1
  Mo  Mo209  1  0.90636618  0.49352092  0.29396238  1
  Mo  Mo210  1  0.90113456  0.12160375  0.08806758  1
  Mo  Mo211  1  -0.01286816  0.60525872  0.00377858  1
  Mo  Mo212  1  0.29931823  0.69474031  0.90244604  1
  Mo  Mo213  1  0.20385789  0.20356433  0.18537978  1
  Mo  Mo214  1  0.80447586  0.19807964  0.59215682  1
  Mo  Mo215  1  0.10014819  0.31256832  0.50050745  1
  Mo  Mo216  1  0.60125232  0.20434909  0.81255715  1
  Mo  Mo217  1  0.69671427  0.89608167  0.30057439  1
  Mo  Mo218  1  0.78418245  0.79505807  0.59321930  1
  Mo  Mo219  1  0.69569524  0.11046855  0.09604153  1
  Mo  Mo220  1  0.39568380  0.39520657  0.19371771  1
  Mo  Mo221  1  0.59788498  0.79153997  0.80003478  1
  Mo  Mo222  1  0.10098504  0.69886711  0.69978825  1
  Mo  Mo223  1  0.80243868  0.39962266  0.60124364  1
  Mo  Mo224  1  0.00398572  -0.00348573  -0.00312698  1
  Mo  Mo225  1  0.39718190  0.61764543  0.39376841  1
  Mo  Mo226  1  0.29616932  0.69039786  0.69678414  1
  Mo  Mo227  1  0.70273080  0.89918384  0.91214328  1
  Mo  Mo228  1  0.79829299  0.57954656  0.19702249  1
  Mo  Mo229  1  0.30045229  0.10603910  0.09485421  1
  Mo  Mo230  1  0.01125926  0.20398952  0.00331644  1
  Mo  Mo231  1  0.09974984  0.09960280  0.50824539  1
  Mo  Mo232  1  0.40162307  0.20937819  0.59781204  1
  Mo  Mo233  1  0.90117388  0.30422325  0.49797196  1
  Mo  Mo234  1  0.20095850  -0.00307415  0.80617851  1
  Mo  Mo235  1  0.69979422  0.10986198  0.31078720  1
  Mo  Mo236  1  0.89188069  0.09537223  0.50630175  1
  Mo  Mo237  1  0.59551993  0.60234675  0.19698737  1
  Mo  Mo238  1  0.69633841  0.89142642  0.49753810  1
  Mo  Mo239  1  0.09223600  0.89643526  0.70668523  1
  Mo  Mo240  1  0.59252329  0.60668703  0.60093908  1
  Mo  Mo241  1  0.10402922  0.69641902  0.50822501  1
  Mo  Mo242  1  0.30534857  0.90398115  0.29535529  1
  Mo  Mo243  1  0.10137494  0.68572500  0.28695467  1
  Mo  Mo244  1  0.89728652  0.88461742  0.09911802  1
  Mo  Mo245  1  0.80322176  0.00167117  0.59410928  1
  Mo  Mo246  1  0.20407272  0.20325181  0.80607813  1
  Mo  Mo247  1  0.20203625  0.20445615  0.60143323  1
  Mo  Mo248  1  0.59602768  0.20567620  0.00500202  1
  Mo  Mo249  1  0.68673140  0.69919199  0.69687327  1
