# generated using pymatgen
data_HfZrTaTiMo
_symmetry_space_group_name_H-M   'P 1'
_cell_length_a   16.87778397
_cell_length_b   16.88563262
_cell_length_c   16.89645386
_cell_angle_alpha   90.01367688
_cell_angle_beta   89.99390203
_cell_angle_gamma   89.99256548
_symmetry_Int_Tables_number   1
_chemical_formula_structural   HfZrTaTiMo
_chemical_formula_sum   'Hf50 Zr50 Ta50 Ti50 Mo50'
_cell_volume   4815.35497960
_cell_formula_units_Z   50
loop_
 _symmetry_equiv_pos_site_id
 _symmetry_equiv_pos_as_xyz
  1  'x, y, z'
loop_
 _atom_site_type_symbol
 _atom_site_label
 _atom_site_symmetry_multiplicity
 _atom_site_fract_x
 _atom_site_fract_y
 _atom_site_fract_z
 _atom_site_occupancy
  Hf  Hf0  1  0.30255876  0.50632966  0.31060256  1
  Hf  Hf1  1  0.19749270  0.40665468  0.59479044  1
  Hf  Hf2  1  0.70045070  0.89895127  0.51241403  1
  Hf  Hf3  1  0.08887979  0.70922776  0.09172869  1
  Hf  Hf4  1  0.39452331  0.39210532  0.20906743  1
  Hf  Hf5  1  0.20607080  0.80546235  0.60223529  1
  Hf  Hf6  1  0.80037302  0.80177458  0.20225615  1
  Hf  Hf7  1  0.70834706  0.91437673  0.89123573  1
  Hf  Hf8  1  0.69599287  0.10824922  0.09681392  1
  Hf  Hf9  1  0.09756140  0.29408382  0.50406743  1
  Hf  Hf10  1  0.40991585  0.58684209  0.80590192  1
  Hf  Hf11  1  0.59910934  0.80285114  0.20479514  1
  Hf  Hf12  1  0.70045035  0.69313770  0.30545822  1
  Hf  Hf13  1  0.79755644  -0.00210752  0.20137546  1
  Hf  Hf14  1  0.90072093  0.29379610  0.50107171  1
  Hf  Hf15  1  0.80784268  0.39258975  0.79450241  1
  Hf  Hf16  1  0.40524365  0.01005900  -0.00931420  1
  Hf  Hf17  1  0.09457669  0.29754441  0.69437406  1
  Hf  Hf18  1  0.00719794  0.41038680  0.40991393  1
  Hf  Hf19  1  0.28674968  0.29782718  0.08967489  1
  Hf  Hf20  1  0.49972080  0.90042338  0.09358388  1
  Hf  Hf21  1  0.59153173  0.01417752  -0.00716034  1
  Hf  Hf22  1  0.79922907  0.80099475  0.40491489  1
  Hf  Hf23  1  0.90116535  0.10050717  0.09274919  1
  Hf  Hf24  1  0.89797136  0.89767103  0.68794510  1
  Hf  Hf25  1  0.49594672  0.70224366  0.08753162  1
  Hf  Hf26  1  0.80110127  0.21049124  0.78817086  1
  Hf  Hf27  1  0.80001744  0.39468460  -0.00677973  1
  Hf  Hf28  1  0.90683943  0.29576154  0.10222968  1
  Hf  Hf29  1  0.49254467  0.50691068  0.31504031  1
  Hf  Hf30  1  0.20487524  0.01332533  0.40468546  1
  Hf  Hf31  1  0.70428747  0.90813860  0.69617013  1
  Hf  Hf32  1  0.89582871  0.90339153  0.89927962  1
  Hf  Hf33  1  0.69152570  0.49906742  0.09507437  1
  Hf  Hf34  1  0.30156794  0.49709243  0.09414643  1
  Hf  Hf35  1  0.79644236  0.60271763  0.61358078  1
  Hf  Hf36  1  0.21407194  0.19333245  0.59880039  1
  Hf  Hf37  1  0.31478859  0.90170160  0.50022536  1
  Hf  Hf38  1  0.39650895  0.20467257  0.40758428  1
  Hf  Hf39  1  0.20875425  0.00933227  0.60092722  1
  Hf  Hf40  1  0.30566406  0.90243653  0.88964817  1
  Hf  Hf41  1  0.09685848  0.90515899  0.69885216  1
  Hf  Hf42  1  0.09610111  0.89882507  0.50121793  1
  Hf  Hf43  1  -0.00121498  0.59510953  -0.00673477  1
  Hf  Hf44  1  0.10186101  0.70164132  0.31274927  1
  Hf  Hf45  1  0.49774483  0.90370486  0.50525666  1
  Hf  Hf46  1  0.90082927  0.49400591  0.10132199  1
  Hf  Hf47  1  0.20302113  0.00423988  0.20136240  1
  Hf  Hf48  1  0.09523292  0.69991935  0.69865329  1
  Hf  Hf49  1  0.59975090  0.01383104  0.40570757  1
  Zr  Zr50  1  0.49592053  0.70761220  0.51092465  1
  Zr  Zr51  1  -0.00033745  0.58593678  0.60356082  1
  Zr  Zr52  1  0.29987516  0.69480788  0.32250764  1
  Zr  Zr53  1  0.01133959  0.38893425  -0.01187089  1
  Zr  Zr54  1  0.59753856  0.39599882  0.20835511  1
  Zr  Zr55  1  0.40946436  0.59603098  0.61254614  1
  Zr  Zr56  1  -0.01408449  0.80220866  0.20870953  1
  Zr  Zr57  1  0.58972082  0.60449220  0.20263214  1
  Zr  Zr58  1  0.89528502  0.10310819  0.31159560  1
  Zr  Zr59  1  0.09459517  0.90009766  0.09327505  1
  Zr  Zr60  1  0.40424673  0.79081001  0.20702687  1
  Zr  Zr61  1  0.10428541  0.70118627  0.50336472  1
  Zr  Zr62  1  -0.00285040  0.59909542  0.20464215  1
  Zr  Zr63  1  0.60545737  0.78670021  0.79425695  1
  Zr  Zr64  1  0.39765731  0.00003520  0.19946989  1
  Zr  Zr65  1  0.60014140  0.20198307  0.59892436  1
  Zr  Zr66  1  0.69913507  0.10227685  0.88901184  1
  Zr  Zr67  1  0.41444257  0.78691146  0.79635460  1
  Zr  Zr68  1  0.80188823  0.60281694  0.19502411  1
  Zr  Zr69  1  0.90281384  0.70201123  0.90230026  1
  Zr  Zr70  1  0.10684429  0.89676509  0.31022217  1
  Zr  Zr71  1  0.59882498  0.79693573  0.39802729  1
  Zr  Zr72  1  0.19882699  0.60142592  -0.00693764  1
  Zr  Zr73  1  0.41212454  0.20090915  -0.01852804  1
  Zr  Zr74  1  0.70405467  0.49639357  0.31740613  1
  Zr  Zr75  1  0.09901240  0.29614830  0.31170831  1
  Zr  Zr76  1  0.69334593  0.48911230  0.70054244  1
  Zr  Zr77  1  0.89726152  0.09646100  0.90109302  1
  Zr  Zr78  1  0.29458788  0.69516189  0.69922772  1
  Zr  Zr79  1  0.69593453  0.49472811  0.89537421  1
  Zr  Zr80  1  0.90168743  0.70977273  0.51540133  1
  Zr  Zr81  1  0.88867169  0.49223620  0.50396701  1
  Zr  Zr82  1  0.19528536  0.39537341  0.79782139  1
  Zr  Zr83  1  0.30259006  0.11460130  0.09772329  1
  Zr  Zr84  1  0.40670726  0.40065408  -0.01360258  1
  Zr  Zr85  1  0.50433282  0.90135479  0.68878472  1
  Zr  Zr86  1  0.59977285  0.79446108  -0.02022794  1
  Zr  Zr87  1  0.21143338  0.79741757  0.19506353  1
  Zr  Zr88  1  0.79815815  0.78390571  0.79218720  1
  Zr  Zr89  1  0.30021720  0.70139734  0.89738082  1
  Zr  Zr90  1  0.70571878  0.90268436  0.08672410  1
  Zr  Zr91  1  0.20488243  0.60655614  0.19407629  1
  Zr  Zr92  1  0.89533175  0.09260863  0.69509378  1
  Zr  Zr93  1  0.79502374  0.20470111  0.20599084  1
  Zr  Zr94  1  0.00227382  0.00674317  0.20591112  1
  Zr  Zr95  1  0.10385730  0.48527768  0.09755419  1
  Zr  Zr96  1  0.49839437  0.29163208  0.10841965  1
  Zr  Zr97  1  0.79347476  0.39333391  0.20699429  1
  Zr  Zr98  1  0.20298242  0.00214924  -0.00263883  1
  Zr  Zr99  1  0.19720286  0.39333830  0.20987986  1
  Ta  Ta100  1  0.59932357  0.20247341  0.40549473  1
  Ta  Ta101  1  0.10494935  0.10105727  0.89539311  1
  Ta  Ta102  1  0.00383766  0.00276361  0.80009051  1
  Ta  Ta103  1  0.60093316  0.01701241  0.59546128  1
  Ta  Ta104  1  0.31017990  0.88894878  0.08681039  1
  Ta  Ta105  1  0.59453664  0.60022439  0.79631817  1
  Ta  Ta106  1  0.50166861  0.49137661  0.50741813  1
  Ta  Ta107  1  0.89912599  0.30419756  0.31325222  1
  Ta  Ta108  1  0.49542263  0.10644986  0.30023004  1
  Ta  Ta109  1  0.31431151  0.90777390  0.69989048  1
  Ta  Ta110  1  0.20181957  0.79950703  -0.00641163  1
  Ta  Ta111  1  0.39942896  0.20327080  0.78960710  1
  Ta  Ta112  1  0.40400524  0.59759441  -0.00679780  1
  Ta  Ta113  1  0.20239021  0.19626422  0.79110658  1
  Ta  Ta114  1  -0.00063385  0.80163997  0.79567543  1
  Ta  Ta115  1  0.19845608  0.19922007  0.21290495  1
  Ta  Ta116  1  0.50158271  0.91344824  0.88325991  1
  Ta  Ta117  1  0.69024424  0.29743030  0.89377643  1
  Ta  Ta118  1  0.80073012  0.38642625  0.61166412  1
  Ta  Ta119  1  0.49577414  0.91139428  0.30855046  1
  Ta  Ta120  1  0.29960476  0.49606272  0.69914791  1
  Ta  Ta121  1  0.49654971  0.30549081  0.69004321  1
  Ta  Ta122  1  0.89738479  0.89895525  0.08096865  1
  Ta  Ta123  1  -0.00808081  0.80440989  0.40427934  1
  Ta  Ta124  1  0.70070915  0.70102949  0.08710443  1
  Ta  Ta125  1  0.00354901  0.19931474  0.79968368  1
  Ta  Ta126  1  0.29919968  0.10307102  0.88620167  1
  Ta  Ta127  1  0.59107563  0.39368226  -0.00875267  1
  Ta  Ta128  1  0.09850700  0.89955369  0.89515911  1
  Ta  Ta129  1  0.79769072  0.59973493  -0.00707615  1
  Ta  Ta130  1  0.70138917  0.09642804  0.69828574  1
  Ta  Ta131  1  0.00798123  0.20149990  0.20472718  1
  Ta  Ta132  1  0.30403820  0.10653708  0.30652000  1
  Ta  Ta133  1  0.40208141  0.39734545  0.79637448  1
  Ta  Ta134  1  0.50267290  0.10973444  0.11547532  1
  Ta  Ta135  1  0.89805662  0.69135013  0.31650398  1
  Ta  Ta136  1  0.69041122  0.29613301  0.08989534  1
  Ta  Ta137  1  0.79641312  0.20788101  -0.00660649  1
  Ta  Ta138  1  0.30584266  0.90158255  0.31307342  1
  Ta  Ta139  1  0.49807324  0.30800806  0.50532789  1
  Ta  Ta140  1  0.29307686  0.29487961  0.89485627  1
  Ta  Ta141  1  0.69883688  0.30718435  0.50218535  1
  Ta  Ta142  1  0.20595023  0.40006860  0.40720504  1
  Ta  Ta143  1  0.30728349  0.50435677  0.50557359  1
  Ta  Ta144  1  0.89605082  0.49879992  0.31115538  1
  Ta  Ta145  1  0.30147431  0.69757463  0.50516109  1
  Ta  Ta146  1  0.59921042  0.00440010  0.20559118  1
  Ta  Ta147  1  0.60192608  0.59957086  0.60536078  1
  Ta  Ta148  1  0.59772275  0.60117179  0.41725145  1
  Ta  Ta149  1  0.10406611  0.11284228  0.09577864  1
  Ti  Ti150  1  0.30784471  0.30218155  0.69441550  1
  Ti  Ti151  1  0.59177068  0.20318437  -0.01291074  1
  Ti  Ti152  1  0.69710817  0.10317202  0.30394615  1
  Ti  Ti153  1  0.58827681  0.39421243  0.79692120  1
  Ti  Ti154  1  0.10123515  0.50436086  0.30547996  1
  Ti  Ti155  1  0.79216797  0.60301348  0.41739526  1
  Ti  Ti156  1  0.78639992  0.20526776  0.40389610  1
  Ti  Ti157  1  0.89080776  0.09966501  0.50226525  1
  Ti  Ti158  1  0.40586179  0.79542006  0.39819342  1
  Ti  Ti159  1  0.79212381  0.20275849  0.60103848  1
  Ti  Ti160  1  0.30635340  0.30337257  0.50777591  1
  Ti  Ti161  1  0.48604898  0.10194246  0.50487297  1
  Ti  Ti162  1  0.49196730  0.09714883  0.69836065  1
  Ti  Ti163  1  0.90709947  0.29271307  0.89690303  1
  Ti  Ti164  1  0.09624965  0.70550903  0.89270359  1
  Ti  Ti165  1  0.89572666  0.70976386  0.08880704  1
  Ti  Ti166  1  0.19463127  0.58813324  0.41825451  1
  Ti  Ti167  1  0.59344147  0.59602421  -0.01286717  1
  Ti  Ti168  1  0.09740028  0.49691639  0.69906995  1
  Ti  Ti169  1  0.79262529  0.00556156  0.41023445  1
  Ti  Ti170  1  0.49763234  0.49887010  0.09815164  1
  Ti  Ti171  1  0.60063002  0.39431044  0.40348693  1
  Ti  Ti172  1  0.20246645  0.00532307  0.79210192  1
  Ti  Ti173  1  0.00089141  0.00613476  0.40322205  1
  Ti  Ti174  1  -0.00555100  0.39556302  0.79244289  1
  Ti  Ti175  1  -0.00529124  0.19364357  0.60293890  1
  Ti  Ti176  1  0.00119579  0.00740340  0.59286787  1
  Ti  Ti177  1  0.19486450  0.59322642  0.79712701  1
  Ti  Ti178  1  0.00043729  0.59672240  0.40781886  1
  Ti  Ti179  1  0.00646495  0.00371405  -0.00539852  1
  Ti  Ti180  1  0.09947358  0.49481762  0.89166624  1
  Ti  Ti181  1  0.59107434  0.20132627  0.79263899  1
  Ti  Ti182  1  0.69555760  0.49068730  0.50655468  1
  Ti  Ti183  1  0.39933136  0.60619310  0.19537637  1
  Ti  Ti184  1  0.69675048  0.90673147  0.30628478  1
  Ti  Ti185  1  0.60386092  0.20474407  0.21523956  1
  Ti  Ti186  1  0.90125237  0.49760838  0.89289639  1
  Ti  Ti187  1  0.29276170  0.49189927  0.89825707  1
  Ti  Ti188  1  0.39532330  0.39722818  0.40657369  1
  Ti  Ti189  1  0.49766339  0.29664723  0.30889362  1
  Ti  Ti190  1  0.80143619  0.59773784  0.79672567  1
  Ti  Ti191  1  0.89674794  0.90656957  0.31307664  1
  Ti  Ti192  1  0.00346940  0.18961248  0.39857107  1
  Ti  Ti193  1  -0.00978225  0.59729512  0.79214731  1
  Ti  Ti194  1  0.10018749  0.10777897  0.49685307  1
  Ti  Ti195  1  0.89784638  0.90486041  0.50790849  1
  Ti  Ti196  1  0.01207319  0.20368220  -0.00383252  1
  Ti  Ti197  1  0.00139389  0.39609885  0.20896111  1
  Ti  Ti198  1  0.09769161  0.10058739  0.70044559  1
  Ti  Ti199  1  0.19715828  0.80472192  0.79833683  1
  Mo  Mo200  1  0.90421670  0.69722484  0.70618281  1
  Mo  Mo201  1  0.80040655  0.79776811  0.60017902  1
  Mo  Mo202  1  0.49973333  0.69249209  0.30934806  1
  Mo  Mo203  1  0.79927307  0.39553715  0.40842673  1
  Mo  Mo204  1  0.29706508  0.29814101  0.31356122  1
  Mo  Mo205  1  0.59711363  0.00990996  0.78909116  1
  Mo  Mo206  1  0.50023849  0.10408399  0.87656238  1
  Mo  Mo207  1  0.50735182  0.69521905  0.69875832  1
  Mo  Mo208  1  0.39675874  0.20365164  0.21403717  1
  Mo  Mo209  1  0.10366180  0.10328367  0.30261026  1
  Mo  Mo210  1  0.70738911  0.10783456  0.50033057  1
  Mo  Mo211  1  0.00175300  0.80414364  -0.01105999  1
  Mo  Mo212  1  0.80324833  0.00368676  0.79197180  1
  Mo  Mo213  1  0.69796000  0.69951362  0.50812484  1
  Mo  Mo214  1  0.70170720  0.68269167  0.89903595  1
  Mo  Mo215  1  0.50148354  0.29777120  0.88174015  1
  Mo  Mo216  1  0.30862129  0.09973830  0.70167137  1
  Mo  Mo217  1  0.20252685  0.59216641  0.60272521  1
  Mo  Mo218  1  0.19313374  0.20164447  -0.01599393  1
  Mo  Mo219  1  0.20675550  0.20253971  0.40717238  1
  Mo  Mo220  1  0.40555387  0.59791497  0.41555271  1
  Mo  Mo221  1  0.40315078  0.01127621  0.60019039  1
  Mo  Mo222  1  0.69543395  0.29549879  0.31481425  1
  Mo  Mo223  1  0.40333120  0.20462678  0.60165652  1
  Mo  Mo224  1  0.40179775  0.00908956  0.79366131  1
  Mo  Mo225  1  0.79838222  0.00710094  0.58967431  1
  Mo  Mo226  1  0.50288025  0.49416322  0.89680707  1
  Mo  Mo227  1  0.10510959  0.49852227  0.50214916  1
  Mo  Mo228  1  0.40351809  0.00903249  0.39984362  1
  Mo  Mo229  1  0.20002889  0.39487003  -0.01397943  1
  Mo  Mo230  1  0.61083894  0.78573257  0.60350995  1
  Mo  Mo231  1  0.59962345  0.40012326  0.59681630  1
  Mo  Mo232  1  0.90900449  0.29469863  0.69234769  1
  Mo  Mo233  1  0.79930595  0.79310132  -0.00214462  1
  Mo  Mo234  1  0.39685299  0.39994451  0.60187133  1
  Mo  Mo235  1  0.39731759  0.79969226  0.60367110  1
  Mo  Mo236  1  0.20830553  0.80410409  0.40802904  1
  Mo  Mo237  1  0.31087292  0.10106185  0.50192598  1
  Mo  Mo238  1  0.50361504  0.68896412  0.89980366  1
  Mo  Mo239  1  0.69038897  0.29543442  0.70014525  1
  Mo  Mo240  1  0.80117599  0.01047996  0.00154833  1
  Mo  Mo241  1  0.30964370  0.70287893  0.08539094  1
  Mo  Mo242  1  0.10008748  0.28988688  0.89045417  1
  Mo  Mo243  1  0.50162875  0.49146335  0.69997892  1
  Mo  Mo244  1  0.09952760  0.28833840  0.10283783  1
  Mo  Mo245  1  0.70055427  0.69215820  0.69853300  1
  Mo  Mo246  1  -0.00381211  0.39723625  0.60630712  1
  Mo  Mo247  1  -0.00044933  0.80696856  0.60169752  1
  Mo  Mo248  1  0.40076684  0.80155372  -0.01019796  1
  Mo  Mo249  1  0.90064787  0.49290860  0.70643920  1
