# generated using pymatgen
data_HfZrTaTiMo
_symmetry_space_group_name_H-M   'P 1'
_cell_length_a   16.88539226
_cell_length_b   16.89190717
_cell_length_c   16.88662546
_cell_angle_alpha   90.02690558
_cell_angle_beta   89.95291186
_cell_angle_gamma   90.02838800
_symmetry_Int_Tables_number   1
_chemical_formula_structural   HfZrTaTiMo
_chemical_formula_sum   'Hf50 Zr50 Ta50 Ti50 Mo50'
_cell_volume   4816.50996523
_cell_formula_units_Z   50
loop_
 _symmetry_equiv_pos_site_id
 _symmetry_equiv_pos_as_xyz
  1  'x, y, z'
loop_
 _atom_site_type_symbol
 _atom_site_label
 _atom_site_symmetry_multiplicity
 _atom_site_fract_x
 _atom_site_fract_y
 _atom_site_fract_z
 _atom_site_occupancy
  Hf  Hf0  1  0.30283253  0.10817430  0.50353535  1
  Hf  Hf1  1  0.59825461  0.20160703  0.39649201  1
  Hf  Hf2  1  0.49638305  0.30274259  0.09618473  1
  Hf  Hf3  1  0.10251518  0.11134536  0.90259252  1
  Hf  Hf4  1  0.80322852  0.59555542  -0.00015521  1
  Hf  Hf5  1  0.39768857  0.00236977  0.00796362  1
  Hf  Hf6  1  0.01325056  0.59087661  0.19750363  1
  Hf  Hf7  1  0.81306885  0.39517276  0.80182732  1
  Hf  Hf8  1  0.49806771  0.69738147  0.10122935  1
  Hf  Hf9  1  0.20257167  0.00783696  0.01691422  1
  Hf  Hf10  1  0.50606695  0.89465573  0.10726772  1
  Hf  Hf11  1  0.49949840  0.88982888  0.30279736  1
  Hf  Hf12  1  0.90103446  0.11219351  0.49532171  1
  Hf  Hf13  1  0.79952704  0.80709803  -0.00569099  1
  Hf  Hf14  1  0.30411880  0.90008951  0.30304023  1
  Hf  Hf15  1  0.60801426  0.80175422  -0.00450037  1
  Hf  Hf16  1  0.48988882  0.49746426  0.69489440  1
  Hf  Hf17  1  0.60499473  -0.00370379  0.80318312  1
  Hf  Hf18  1  0.69992481  0.10625934  0.90403407  1
  Hf  Hf19  1  0.10192082  0.68618542  0.49617545  1
  Hf  Hf20  1  0.59874124  0.59422013  0.79977211  1
  Hf  Hf21  1  0.40511219  0.40477903  0.39800065  1
  Hf  Hf22  1  0.91358180  0.89290733  0.68989843  1
  Hf  Hf23  1  0.09318082  0.29826990  0.30078764  1
  Hf  Hf24  1  0.49039120  0.49833661  0.09913386  1
  Hf  Hf25  1  0.69510887  0.90046126  0.68674860  1
  Hf  Hf26  1  0.00026089  0.39007259  0.79846173  1
  Hf  Hf27  1  0.10334723  0.49918955  0.90019570  1
  Hf  Hf28  1  0.29179424  0.49843290  0.49439943  1
  Hf  Hf29  1  0.20727841  0.78989725  0.60736135  1
  Hf  Hf30  1  0.80529829  0.80600442  0.80395605  1
  Hf  Hf31  1  0.88644141  0.89888668  0.30999605  1
  Hf  Hf32  1  0.00267864  0.79317526  0.80645833  1
  Hf  Hf33  1  0.90330574  0.70224763  0.49348613  1
  Hf  Hf34  1  0.11146861  0.89461051  0.91128761  1
  Hf  Hf35  1  0.29948209  0.30777783  0.29507015  1
  Hf  Hf36  1  -0.00356004  -0.00038872  0.40620899  1
  Hf  Hf37  1  0.39575191  -0.00136192  0.61023256  1
  Hf  Hf38  1  0.49269131  0.29153262  0.69650903  1
  Hf  Hf39  1  0.80610875  0.59554158  0.59603970  1
  Hf  Hf40  1  0.39811383  0.01077612  0.19839482  1
  Hf  Hf41  1  0.50198276  0.10532751  0.51193775  1
  Hf  Hf42  1  0.70468601  0.49387041  0.10037836  1
  Hf  Hf43  1  0.38922623  0.79537425  0.60543449  1
  Hf  Hf44  1  0.00041808  -0.00374045  0.80492757  1
  Hf  Hf45  1  0.18774888  0.00454237  0.40801508  1
  Hf  Hf46  1  0.20046672  0.79000495  0.79733452  1
  Hf  Hf47  1  0.89768071  0.69208810  0.10733550  1
  Hf  Hf48  1  0.70773871  0.69173200  0.88942159  1
  Hf  Hf49  1  0.29386197  0.10479330  0.88895818  1
  Zr  Zr50  1  0.10535743  0.50217650  0.69815436  1
  Zr  Zr51  1  0.00016858  0.00131381  0.20413846  1
  Zr  Zr52  1  -0.00561009  0.00130273  0.00548682  1
  Zr  Zr53  1  0.19664268  0.80313816  0.19658953  1
  Zr  Zr54  1  -0.00604638  0.59163478  0.39910753  1
  Zr  Zr55  1  0.91296375  0.30121358  0.09992587  1
  Zr  Zr56  1  0.19598800  0.20602253  0.59968596  1
  Zr  Zr57  1  0.70629518  0.49788228  0.70055042  1
  Zr  Zr58  1  0.29846268  0.10686066  0.30196719  1
  Zr  Zr59  1  0.50039464  0.10845025  0.89718622  1
  Zr  Zr60  1  0.70051785  0.09797431  0.50558746  1
  Zr  Zr61  1  0.60328063  0.60183118  0.59341785  1
  Zr  Zr62  1  0.81345311  -0.00527868  0.59060958  1
  Zr  Zr63  1  0.07988574  0.87743507  0.51262332  1
  Zr  Zr64  1  0.59659169  0.39933023  0.80060646  1
  Zr  Zr65  1  0.20224778  0.79514970  0.40288174  1
  Zr  Zr66  1  0.69610700  0.30024993  0.90484239  1
  Zr  Zr67  1  0.19920610  0.19927998  0.19256249  1
  Zr  Zr68  1  0.49126561  0.30240968  0.28779669  1
  Zr  Zr69  1  0.19391191  0.59909970  0.00240146  1
  Zr  Zr70  1  0.70436516  0.30937431  0.29806753  1
  Zr  Zr71  1  0.60214699  0.59237111  -0.00281354  1
  Zr  Zr72  1  0.61096926  0.19922484  0.19874354  1
  Zr  Zr73  1  0.89526851  0.29764824  0.50587746  1
  Zr  Zr74  1  0.20044781  0.00003941  0.60634977  1
  Zr  Zr75  1  0.90288394  0.29625152  0.30155258  1
  Zr  Zr76  1  0.80327570  0.19854591  0.01134299  1
  Zr  Zr77  1  0.80378175  0.79281849  0.59651420  1
  Zr  Zr78  1  0.49617744  0.70698145  0.49352202  1
  Zr  Zr79  1  0.09993085  0.70376817  0.09213610  1
  Zr  Zr80  1  0.31115247  0.89837058  0.49119641  1
  Zr  Zr81  1  0.48953089  0.69418555  0.89817536  1
  Zr  Zr82  1  0.88790008  0.50191894  0.28977623  1
  Zr  Zr83  1  0.49857057  0.90137037  0.90200839  1
  Zr  Zr84  1  0.18730877  0.41221600  0.19188639  1
  Zr  Zr85  1  0.29875997  0.90048880  0.89995911  1
  Zr  Zr86  1  0.88939629  0.90237217  0.11458261  1
  Zr  Zr87  1  0.60181223  0.01258722  0.20723169  1
  Zr  Zr88  1  0.00117509  0.40762217  0.40920782  1
  Zr  Zr89  1  0.29869041  0.69176721  0.90103702  1
  Zr  Zr90  1  0.01282280  0.01431671  0.59821940  1
  Zr  Zr91  1  0.51248959  0.89946425  0.50646731  1
  Zr  Zr92  1  -0.00509601  0.80198328  -0.00099263  1
  Zr  Zr93  1  0.50272831  0.70124055  0.69802502  1
  Zr  Zr94  1  0.70445119  0.50435720  0.29866056  1
  Zr  Zr95  1  0.29076300  0.29874028  0.89875690  1
  Zr  Zr96  1  0.70093016  0.10458323  0.69849760  1
  Zr  Zr97  1  0.70344453  0.89845564  0.29768433  1
  Zr  Zr98  1  0.89756677  0.11060557  0.70289523  1
  Zr  Zr99  1  0.38644348  0.19596032  0.00688902  1
  Ta  Ta100  1  0.90264480  0.10766508  0.90326578  1
  Ta  Ta101  1  0.70299508  0.69478355  0.29993703  1
  Ta  Ta102  1  0.60654930  0.79434853  0.39657432  1
  Ta  Ta103  1  0.39356205  0.40229126  -0.00708171  1
  Ta  Ta104  1  0.30034448  0.30316673  0.69341692  1
  Ta  Ta105  1  0.79079229  0.20236538  0.39944482  1
  Ta  Ta106  1  0.70794058  0.29776813  0.69262489  1
  Ta  Ta107  1  0.39783726  0.80390040  0.79361501  1
  Ta  Ta108  1  0.00124347  0.79847892  0.20824400  1
  Ta  Ta109  1  0.39644936  0.59592067  0.20432402  1
  Ta  Ta110  1  0.00558134  0.21179818  0.60783211  1
  Ta  Ta111  1  0.39937229  0.20583687  0.40254291  1
  Ta  Ta112  1  0.50159238  0.10313701  0.69874907  1
  Ta  Ta113  1  0.79869118  0.00157074  0.00112826  1
  Ta  Ta114  1  0.79881209  0.40337730  0.41199126  1
  Ta  Ta115  1  0.50082081  0.70052830  0.29668173  1
  Ta  Ta116  1  0.41431829  0.01285778  0.39504767  1
  Ta  Ta117  1  0.29844334  0.50167049  0.89290233  1
  Ta  Ta118  1  0.79908437  0.18798792  0.19889242  1
  Ta  Ta119  1  0.40142019  0.59827432  0.39591699  1
  Ta  Ta120  1  0.39146543  0.79795540  0.00693183  1
  Ta  Ta121  1  0.59663057  0.40312464  0.40385942  1
  Ta  Ta122  1  0.30141064  0.69427564  0.30255617  1
  Ta  Ta123  1  0.39413152  0.39744931  0.59231254  1
  Ta  Ta124  1  0.50419179  0.11041092  0.10015019  1
  Ta  Ta125  1  0.29978881  0.49904096  0.09393608  1
  Ta  Ta126  1  0.70076040  0.50062165  0.49552866  1
  Ta  Ta127  1  0.80431895  -0.00566571  0.80978995  1
  Ta  Ta128  1  0.10493240  0.69485398  0.30066588  1
  Ta  Ta129  1  0.60416749  0.80290519  0.79939321  1
  Ta  Ta130  1  0.59620788  0.59674564  0.39527549  1
  Ta  Ta131  1  0.19209602  0.00237737  0.19994182  1
  Ta  Ta132  1  0.20567042  0.59911254  0.59742001  1
  Ta  Ta133  1  0.60154310  0.39542411  0.59068300  1
  Ta  Ta134  1  0.09277711  0.11079499  0.09826803  1
  Ta  Ta135  1  0.50610355  0.89873888  0.69679662  1
  Ta  Ta136  1  0.19925752  0.39629750  0.79419900  1
  Ta  Ta137  1  0.00033172  0.40076973  0.60423528  1
  Ta  Ta138  1  0.19591559  0.20708455  0.40584433  1
  Ta  Ta139  1  0.60169122  0.00593983  0.39665060  1
  Ta  Ta140  1  0.59646882  0.59790184  0.20348834  1
  Ta  Ta141  1  0.39394724  0.39713205  0.79797470  1
  Ta  Ta142  1  0.29867680  0.30949303  0.09975960  1
  Ta  Ta143  1  0.39056003  0.59777037  0.59351072  1
  Ta  Ta144  1  0.70322443  0.89716425  0.49094304  1
  Ta  Ta145  1  0.59414929  0.40754745  0.20108989  1
  Ta  Ta146  1  0.69981798  0.90253159  0.10680291  1
  Ta  Ta147  1  0.09257270  0.10846618  0.30565243  1
  Ta  Ta148  1  0.39468301  0.79241142  0.19986207  1
  Ta  Ta149  1  0.49373486  0.29723827  0.89961054  1
  Ti  Ti150  1  0.48255646  0.50296947  0.89860428  1
  Ti  Ti151  1  0.60834252  0.00392589  0.00567061  1
  Ti  Ti152  1  0.09790183  0.89859935  0.30071161  1
  Ti  Ti153  1  0.80201310  0.39924775  0.59990812  1
  Ti  Ti154  1  0.09915730  0.10806091  0.70976467  1
  Ti  Ti155  1  0.10115363  0.29794649  0.90992853  1
  Ti  Ti156  1  0.59315274  0.40255379  -0.00646691  1
  Ti  Ti157  1  0.70327833  0.69975885  0.70151824  1
  Ti  Ti158  1  0.19219439  0.21212231  0.79037661  1
  Ti  Ti159  1  0.49511329  0.29840739  0.50384501  1
  Ti  Ti160  1  0.79583422  0.79116312  0.20255622  1
  Ti  Ti161  1  0.29667952  0.89526059  0.10225615  1
  Ti  Ti162  1  0.11647171  0.50701602  0.31722673  1
  Ti  Ti163  1  0.09860520  0.30464543  0.50333703  1
  Ti  Ti164  1  0.81137508  0.39672027  -0.00592986  1
  Ti  Ti165  1  -0.00089044  0.58916327  0.59432871  1
  Ti  Ti166  1  0.90400275  0.68803203  0.90067364  1
  Ti  Ti167  1  0.60045300  0.20420359  0.79809265  1
  Ti  Ti168  1  0.20131470  0.59820858  0.19940241  1
  Ti  Ti169  1  0.70279544  0.69932117  0.48987577  1
  Ti  Ti170  1  0.30150796  0.69492839  0.09987532  1
  Ti  Ti171  1  0.90674280  0.50490561  0.90043263  1
  Ti  Ti172  1  0.90443698  0.49983210  0.09765109  1
  Ti  Ti173  1  0.69325549  0.30434415  0.09400312  1
  Ti  Ti174  1  0.69789550  0.69961901  0.10909560  1
  Ti  Ti175  1  0.90477382  0.69035728  0.70405932  1
  Ti  Ti176  1  0.80229163  0.39212890  0.19013202  1
  Ti  Ti177  1  0.89297553  0.10009863  0.30526347  1
  Ti  Ti178  1  0.10123046  0.29971014  0.08773105  1
  Ti  Ti179  1  0.80892924  0.20994268  0.80335247  1
  Ti  Ti180  1  0.89011148  0.69407601  0.29977677  1
  Ti  Ti181  1  0.31025023  0.11633189  0.70526333  1
  Ti  Ti182  1  0.09963030  0.89248471  0.69993215  1
  Ti  Ti183  1  0.29789196  0.49620989  0.69935794  1
  Ti  Ti184  1  0.19792685  0.39468474  0.40916205  1
  Ti  Ti185  1  0.71085607  0.49785639  0.89640876  1
  Ti  Ti186  1  -0.00252169  0.21258694  0.80083016  1
  Ti  Ti187  1  0.29978216  0.50027455  0.29645824  1
  Ti  Ti188  1  0.30369736  0.67977697  0.71120352  1
  Ti  Ti189  1  0.00576116  0.60253501  0.80746414  1
  Ti  Ti190  1  0.90428956  0.50475855  0.70447247  1
  Ti  Ti191  1  0.39890857  -0.00229633  0.79277303  1
  Ti  Ti192  1  -0.00356069  0.79602000  0.38922298  1
  Ti  Ti193  1  0.60789900  0.21079603  0.59617870  1
  Ti  Ti194  1  -0.00685883  0.19279399  0.19814206  1
  Ti  Ti195  1  0.00769350  0.40819497  0.19756814  1
  Ti  Ti196  1  0.20301973  -0.00383601  0.78716459  1
  Ti  Ti197  1  0.50045977  0.50195747  0.50071532  1
  Ti  Ti198  1  0.00169291  0.40245554  -0.00175216  1
  Ti  Ti199  1  0.09763981  0.68907343  0.69886167  1
  Mo  Mo200  1  0.40471564  0.79155277  0.39187976  1
  Mo  Mo201  1  0.30082714  0.90023210  0.70737623  1
  Mo  Mo202  1  0.39318358  0.40696711  0.19389476  1
  Mo  Mo203  1  0.00152389  0.20038098  0.40109382  1
  Mo  Mo204  1  0.20024503  0.59515925  0.79369277  1
  Mo  Mo205  1  0.89821840  0.88945063  0.49383066  1
  Mo  Mo206  1  0.39843398  0.20444993  0.59908513  1
  Mo  Mo207  1  0.59800263  0.20281677  0.00335182  1
  Mo  Mo208  1  0.00373158  0.77619336  0.61238684  1
  Mo  Mo209  1  0.70087425  0.09260964  0.09703278  1
  Mo  Mo210  1  0.89467659  0.49753986  0.51117749  1
  Mo  Mo211  1  0.69754535  0.30711841  0.50051372  1
  Mo  Mo212  1  0.61083525  0.79925321  0.59718759  1
  Mo  Mo213  1  0.60402748  0.78974779  0.20020500  1
  Mo  Mo214  1  0.00159026  0.20277092  -0.00158814  1
  Mo  Mo215  1  0.19996192  0.39874197  -0.00334810  1
  Mo  Mo216  1  0.09655541  0.69543512  0.89464386  1
  Mo  Mo217  1  0.09565447  0.11851803  0.49457605  1
  Mo  Mo218  1  0.20680054  0.59791030  0.39767225  1
  Mo  Mo219  1  0.30109263  0.68961414  0.49471758  1
  Mo  Mo220  1  0.79613602  0.60460125  0.19328814  1
  Mo  Mo221  1  0.79850590  0.00445019  0.39911429  1
  Mo  Mo222  1  0.20008679  0.40026819  0.59986555  1
  Mo  Mo223  1  0.39163490  0.59609350  0.00330607  1
  Mo  Mo224  1  -0.00530179  0.59387356  -0.00389318  1
  Mo  Mo225  1  0.19299244  0.20438154  0.00388101  1
  Mo  Mo226  1  0.10144981  0.30292386  0.70091607  1
  Mo  Mo227  1  0.29622975  0.10349298  0.10630968  1
  Mo  Mo228  1  0.20753906  0.80162100  0.00444574  1
  Mo  Mo229  1  0.81331778  0.59737856  0.79806858  1
  Mo  Mo230  1  0.39800133  0.20278309  0.79362863  1
  Mo  Mo231  1  0.39794202  0.20331913  0.19835049  1
  Mo  Mo232  1  0.10439139  0.49456823  0.50654122  1
  Mo  Mo233  1  0.79413942  0.59948841  0.40224835  1
  Mo  Mo234  1  0.70210300  0.90491660  0.90318808  1
  Mo  Mo235  1  0.49818756  0.10808828  0.30319434  1
  Mo  Mo236  1  0.79876236  0.20810230  0.60000947  1
  Mo  Mo237  1  0.89916084  0.10157682  0.10295441  1
  Mo  Mo238  1  0.30121009  0.30463783  0.49638838  1
  Mo  Mo239  1  0.09597518  0.49415739  0.08962486  1
  Mo  Mo240  1  0.89942397  0.30251727  0.69857888  1
  Mo  Mo241  1  0.79689744  0.01387626  0.19823873  1
  Mo  Mo242  1  0.10244977  0.90216167  0.10841364  1
  Mo  Mo243  1  0.89924899  0.90931587  0.89906500  1
  Mo  Mo244  1  0.59538273  -0.00083117  0.60242159  1
  Mo  Mo245  1  0.39593762  0.58853003  0.79411422  1
  Mo  Mo246  1  0.50019723  0.50414349  0.29835432  1
  Mo  Mo247  1  0.70940479  0.09791628  0.30686658  1
  Mo  Mo248  1  0.79756607  0.79393162  0.39972715  1
  Mo  Mo249  1  0.90828605  0.29633029  0.90341499  1
