# generated using pymatgen
data_HfZrTaTiMo
_symmetry_space_group_name_H-M   'P 1'
_cell_length_a   16.88764458
_cell_length_b   16.88432391
_cell_length_c   16.89060584
_cell_angle_alpha   89.96524174
_cell_angle_beta   89.98730145
_cell_angle_gamma   90.00073177
_symmetry_Int_Tables_number   1
_chemical_formula_structural   HfZrTaTiMo
_chemical_formula_sum   'Hf50 Zr50 Ta50 Ti50 Mo50'
_cell_volume   4816.12657275
_cell_formula_units_Z   50
loop_
 _symmetry_equiv_pos_site_id
 _symmetry_equiv_pos_as_xyz
  1  'x, y, z'
loop_
 _atom_site_type_symbol
 _atom_site_label
 _atom_site_symmetry_multiplicity
 _atom_site_fract_x
 _atom_site_fract_y
 _atom_site_fract_z
 _atom_site_occupancy
  Hf  Hf0  1  0.19758518  0.19321455  0.39863731  1
  Hf  Hf1  1  0.90114171  0.70428870  0.30847569  1
  Hf  Hf2  1  0.70915181  0.49318044  0.30649417  1
  Hf  Hf3  1  0.00064467  0.60133309  -0.00254733  1
  Hf  Hf4  1  0.49999669  0.69296674  0.70809998  1
  Hf  Hf5  1  0.88690165  0.29303282  0.30554078  1
  Hf  Hf6  1  0.00811242  0.60161314  0.40875406  1
  Hf  Hf7  1  0.29107966  0.30007083  0.10117464  1
  Hf  Hf8  1  0.80230454  -0.01466362  0.40362336  1
  Hf  Hf9  1  0.29923827  0.29692448  0.89892361  1
  Hf  Hf10  1  0.29612283  0.29243661  0.69876006  1
  Hf  Hf11  1  0.09993275  0.89656128  0.30003826  1
  Hf  Hf12  1  0.70610157  0.09093266  0.90533324  1
  Hf  Hf13  1  0.09757581  0.49819080  0.29756389  1
  Hf  Hf14  1  0.70346662  0.09991462  0.50162658  1
  Hf  Hf15  1  0.49622650  0.50404324  0.31043339  1
  Hf  Hf16  1  0.90766297  0.89479200  0.30081624  1
  Hf  Hf17  1  0.69867573  0.09855778  0.69077273  1
  Hf  Hf18  1  0.49695318  0.09254576  0.90554101  1
  Hf  Hf19  1  0.50041549  0.30064704  0.09947363  1
  Hf  Hf20  1  0.80869708  0.40000720  0.00019356  1
  Hf  Hf21  1  0.52273630  0.72266760  0.10609209  1
  Hf  Hf22  1  0.49685306  0.50643896  0.70417115  1
  Hf  Hf23  1  0.09362582  0.49902820  0.70443507  1
  Hf  Hf24  1  0.09006561  0.31080304  0.88792123  1
  Hf  Hf25  1  0.00117192  0.39393415  0.40466355  1
  Hf  Hf26  1  0.39732735  0.00497538  0.39397984  1
  Hf  Hf27  1  -0.00238649  0.80894750  0.60311028  1
  Hf  Hf28  1  0.70292049  0.50572765  0.89404027  1
  Hf  Hf29  1  0.40900667  0.59979614  0.19172492  1
  Hf  Hf30  1  0.60010647  0.80711902  0.40481843  1
  Hf  Hf31  1  0.50075777  0.29908361  0.30403417  1
  Hf  Hf32  1  0.70287445  0.29749010  0.10490318  1
  Hf  Hf33  1  0.79960469  0.19638975  0.00671096  1
  Hf  Hf34  1  0.90173525  0.89813677  0.90097089  1
  Hf  Hf35  1  0.40025247  0.81062268  0.19872730  1
  Hf  Hf36  1  0.29644173  0.70405124  0.30052356  1
  Hf  Hf37  1  0.80006160  0.60150130  0.19202284  1
  Hf  Hf38  1  -0.00149201  0.60267682  0.80129942  1
  Hf  Hf39  1  0.29085957  0.29256645  0.29142491  1
  Hf  Hf40  1  0.10941377  0.70753543  0.51258223  1
  Hf  Hf41  1  0.28924115  0.50547817  0.29377075  1
  Hf  Hf42  1  0.10026937  0.09292988  0.28786849  1
  Hf  Hf43  1  0.69451661  0.90051980  0.70014394  1
  Hf  Hf44  1  0.90850775  0.29933401  0.69948994  1
  Hf  Hf45  1  0.40011730  0.19281430  0.00070199  1
  Hf  Hf46  1  0.30484807  0.69245946  0.70045888  1
  Hf  Hf47  1  -0.00207452  0.20212905  0.00534491  1
  Hf  Hf48  1  0.49631233  0.89784548  0.69887459  1
  Hf  Hf49  1  0.39822942  0.19018083  0.79950417  1
  Zr  Zr50  1  0.21268387  0.58724455  0.59414291  1
  Zr  Zr51  1  0.70182712  0.10075349  0.30659109  1
  Zr  Zr52  1  0.41622621  0.60473988  0.00360271  1
  Zr  Zr53  1  0.59901561  0.40296433  0.19974000  1
  Zr  Zr54  1  0.20360539  0.40616133  0.79663786  1
  Zr  Zr55  1  0.50743217  0.90782747  0.29875328  1
  Zr  Zr56  1  0.28522927  0.50739061  0.10019671  1
  Zr  Zr57  1  0.59293806  0.20743930  0.80905721  1
  Zr  Zr58  1  0.20135617  0.00778752  0.80240418  1
  Zr  Zr59  1  0.37868313  0.41877069  0.59931538  1
  Zr  Zr60  1  0.16975988  0.62804669  0.20044997  1
  Zr  Zr61  1  0.00038233  0.39968397  0.59763529  1
  Zr  Zr62  1  0.20444836  0.00166979  -0.00526854  1
  Zr  Zr63  1  0.09074753  0.49439183  0.09909606  1
  Zr  Zr64  1  0.60859789  0.59478163  0.59555427  1
  Zr  Zr65  1  0.79125078  -0.00770548  0.19555065  1
  Zr  Zr66  1  0.59578317  -0.00043904  0.80029954  1
  Zr  Zr67  1  0.90316976  0.49955956  0.29777673  1
  Zr  Zr68  1  0.00416226  0.19695476  0.40086445  1
  Zr  Zr69  1  0.61048040  0.39500447  0.41473241  1
  Zr  Zr70  1  0.19632033  0.39982949  0.59408614  1
  Zr  Zr71  1  0.81585054  -0.00783040  0.60257616  1
  Zr  Zr72  1  0.39507361  0.79612228  0.59394366  1
  Zr  Zr73  1  0.40715811  0.18668243  0.21024614  1
  Zr  Zr74  1  0.49235211  0.30831026  0.69638060  1
  Zr  Zr75  1  0.89698745  0.10015684  0.10753544  1
  Zr  Zr76  1  0.59870013  -0.00553378  0.01001497  1
  Zr  Zr77  1  0.28744802  0.71127648  0.09741156  1
  Zr  Zr78  1  0.40355525  0.40801822  -0.00057214  1
  Zr  Zr79  1  0.28506189  0.09901606  0.11798555  1
  Zr  Zr80  1  0.68146151  0.87341649  0.10221504  1
  Zr  Zr81  1  0.40495801  0.81296166  0.00055438  1
  Zr  Zr82  1  0.19118815  0.19499549  -0.00934080  1
  Zr  Zr83  1  0.80553551  0.80703270  0.59327532  1
  Zr  Zr84  1  0.19981203  0.80016458  0.80186489  1
  Zr  Zr85  1  0.30286392  0.69633866  0.89918151  1
  Zr  Zr86  1  0.49489871  0.69352450  0.50027355  1
  Zr  Zr87  1  0.80349866  0.19467561  0.80040075  1
  Zr  Zr88  1  0.29283740  0.90031420  0.50471111  1
  Zr  Zr89  1  0.90567381  0.30188845  0.89653790  1
  Zr  Zr90  1  0.50746088  0.09398644  0.49935070  1
  Zr  Zr91  1  0.60562504  0.60069067  0.19658156  1
  Zr  Zr92  1  0.38432681  0.39807390  0.39997249  1
  Zr  Zr93  1  0.80180848  0.79928708  0.19633916  1
  Zr  Zr94  1  0.70658322  0.70482903  0.49984392  1
  Zr  Zr95  1  0.70536243  0.30255013  0.70199387  1
  Zr  Zr96  1  0.80718439  0.80553132  0.79234967  1
  Zr  Zr97  1  0.79800380  0.40263049  0.59354261  1
  Zr  Zr98  1  0.11076519  0.90054184  0.10475059  1
  Zr  Zr99  1  0.60229820  0.21499443  0.59254983  1
  Ta  Ta100  1  0.70173472  0.49859391  0.09127809  1
  Ta  Ta101  1  0.50156864  0.70111541  0.30670589  1
  Ta  Ta102  1  0.19292154  0.19389019  0.60024035  1
  Ta  Ta103  1  -0.00396671  -0.00342616  0.79072629  1
  Ta  Ta104  1  0.10286882  0.90015058  0.69758695  1
  Ta  Ta105  1  0.89991484  0.10307784  0.49818078  1
  Ta  Ta106  1  0.80053352  -0.01248774  0.00964941  1
  Ta  Ta107  1  0.70762682  0.69852888  0.89747492  1
  Ta  Ta108  1  0.80765919  0.59684929  0.60383482  1
  Ta  Ta109  1  -0.00075086  0.80238863  -0.00009474  1
  Ta  Ta110  1  0.70199139  0.70498842  0.30493063  1
  Ta  Ta111  1  0.19568558  0.00195555  0.40338218  1
  Ta  Ta112  1  0.28941865  0.90502874  0.29300964  1
  Ta  Ta113  1  0.49269935  0.50092282  0.50117171  1
  Ta  Ta114  1  0.60494963  0.60450077  -0.00180065  1
  Ta  Ta115  1  0.60438741  0.40529703  0.59424163  1
  Ta  Ta116  1  0.19971165  0.80088664  0.40334621  1
  Ta  Ta117  1  0.60566969  0.59732799  0.40207011  1
  Ta  Ta118  1  0.70618307  0.89463134  0.90160056  1
  Ta  Ta119  1  0.89965699  0.09780802  0.30033281  1
  Ta  Ta120  1  0.50969627  0.50651954  0.89376866  1
  Ta  Ta121  1  0.89875959  0.70546627  0.09015908  1
  Ta  Ta122  1  0.29632273  0.90003775  0.69850981  1
  Ta  Ta123  1  0.80409949  0.39751645  0.19443472  1
  Ta  Ta124  1  0.19280585  0.40701906  -0.00880715  1
  Ta  Ta125  1  0.89753069  0.49969092  0.49728822  1
  Ta  Ta126  1  0.90341501  0.08911031  0.90169770  1
  Ta  Ta127  1  0.39811476  0.00147435  0.60254998  1
  Ta  Ta128  1  0.10243646  0.29463190  0.50095247  1
  Ta  Ta129  1  0.09085161  0.89959521  0.89451894  1
  Ta  Ta130  1  0.80914002  0.41068630  0.79497255  1
  Ta  Ta131  1  0.60343239  0.19067306  0.19868736  1
  Ta  Ta132  1  0.70328297  0.69446448  0.70707641  1
  Ta  Ta133  1  0.29718195  0.09912644  0.50419301  1
  Ta  Ta134  1  0.60071772  0.19979667  0.00313838  1
  Ta  Ta135  1  0.01164103  0.78559757  0.19254721  1
  Ta  Ta136  1  -0.00299456  0.59923290  0.59839738  1
  Ta  Ta137  1  0.39680229  0.19241708  0.40034382  1
  Ta  Ta138  1  0.79918269  0.59883342  0.40753308  1
  Ta  Ta139  1  0.48638985  0.30210490  0.50163641  1
  Ta  Ta140  1  0.40043351  0.40810413  0.19508223  1
  Ta  Ta141  1  0.00464626  0.19624855  0.59732916  1
  Ta  Ta142  1  -0.00034437  0.20806703  0.19991401  1
  Ta  Ta143  1  0.39578848  0.80457426  0.39979196  1
  Ta  Ta144  1  0.09635781  0.09554336  0.69634664  1
  Ta  Ta145  1  0.90226516  0.69841974  0.70167221  1
  Ta  Ta146  1  0.39385830  -0.00011580  0.79794572  1
  Ta  Ta147  1  0.89563761  0.70267376  0.89891070  1
  Ta  Ta148  1  0.59738542  0.80163150  0.59992458  1
  Ta  Ta149  1  0.70246621  0.50563269  0.70626759  1
  Ti  Ti150  1  0.38808440  0.60415643  0.40856700  1
  Ti  Ti151  1  -0.00321074  -0.00428153  0.00507279  1
  Ti  Ti152  1  -0.00556202  -0.00760899  0.19147359  1
  Ti  Ti153  1  0.30317794  0.90375143  0.89736934  1
  Ti  Ti154  1  0.09821518  0.09889931  0.10596915  1
  Ti  Ti155  1  0.60065005  0.79446667  -0.02027009  1
  Ti  Ti156  1  0.00484791  0.19144900  0.79354242  1
  Ti  Ti157  1  0.50398470  0.09360392  0.10510184  1
  Ti  Ti158  1  0.00421640  0.80510726  0.41259026  1
  Ti  Ti159  1  0.59760267  0.40053731  -0.00570900  1
  Ti  Ti160  1  0.19232740  0.39924535  0.40357453  1
  Ti  Ti161  1  0.19773161  0.80762036  -0.00378056  1
  Ti  Ti162  1  0.39379632  -0.00381784  0.00900319  1
  Ti  Ti163  1  -0.00383991  0.61249989  0.19478065  1
  Ti  Ti164  1  0.68643535  0.90979425  0.50257468  1
  Ti  Ti165  1  0.29573341  0.09611692  0.69359689  1
  Ti  Ti166  1  0.10122155  0.70308876  0.69968519  1
  Ti  Ti167  1  0.49973773  0.90186130  0.89840525  1
  Ti  Ti168  1  0.19512316  0.59822845  0.80599788  1
  Ti  Ti169  1  0.80817325  -0.00205856  0.79673941  1
  Ti  Ti170  1  0.60028523  0.39884385  0.80109329  1
  Ti  Ti171  1  0.18702822  0.59834068  -0.01138438  1
  Ti  Ti172  1  0.19177922  0.00176709  0.59563680  1
  Ti  Ti173  1  0.89870583  0.70337077  0.49927675  1
  Ti  Ti174  1  0.30400419  0.50752002  0.89688194  1
  Ti  Ti175  1  0.60365976  0.00174949  0.20231739  1
  Ti  Ti176  1  0.59955892  0.79443484  0.80516329  1
  Ti  Ti177  1  0.59649778  0.20063423  0.39842614  1
  Ti  Ti178  1  0.39795976  0.00023563  0.19994055  1
  Ti  Ti179  1  0.40322908  0.80051336  0.80626312  1
  Ti  Ti180  1  0.08543614  0.09319350  0.89653184  1
  Ti  Ti181  1  0.90429640  0.49652342  0.09850523  1
  Ti  Ti182  1  0.00572560  -0.00186662  0.41345555  1
  Ti  Ti183  1  0.29700096  0.29166196  0.50110154  1
  Ti  Ti184  1  0.09396794  0.70985309  0.89793294  1
  Ti  Ti185  1  0.90377094  0.10089213  0.69579569  1
  Ti  Ti186  1  0.18907739  0.39163582  0.20074555  1
  Ti  Ti187  1  0.00316391  -0.00089691  0.59453391  1
  Ti  Ti188  1  0.72720677  0.28933242  0.48594021  1
  Ti  Ti189  1  0.70129412  0.30454001  0.90023117  1
  Ti  Ti190  1  0.19575758  0.60300636  0.40485798  1
  Ti  Ti191  1  0.90615875  0.49909854  0.89550449  1
  Ti  Ti192  1  0.50327090  0.09679484  0.69269448  1
  Ti  Ti193  1  0.70787610  0.29315807  0.30159770  1
  Ti  Ti194  1  -0.00491601  0.38693024  0.19708814  1
  Ti  Ti195  1  0.39674309  0.19254554  0.59647790  1
  Ti  Ti196  1  0.80183958  0.60218522  0.00133314  1
  Ti  Ti197  1  0.19272818  0.19281770  0.79677002  1
  Ti  Ti198  1  0.09747456  0.30393365  0.09637259  1
  Ti  Ti199  1  0.40261908  0.40244330  0.80796666  1
  Mo  Mo200  1  0.50818002  0.09992265  0.30080526  1
  Mo  Mo201  1  0.29482401  0.09480767  0.30737418  1
  Mo  Mo202  1  0.09936737  0.30060443  0.29723190  1
  Mo  Mo203  1  0.09540248  0.70927625  0.31728589  1
  Mo  Mo204  1  0.91025288  0.89633264  0.09792742  1
  Mo  Mo205  1  0.49951218  0.90902343  0.10472222  1
  Mo  Mo206  1  0.51063793  0.70157671  0.89508894  1
  Mo  Mo207  1  0.09757853  0.49883841  0.49746571  1
  Mo  Mo208  1  0.59171165  -0.00897948  0.59835017  1
  Mo  Mo209  1  0.19700340  0.80220748  0.60609603  1
  Mo  Mo210  1  0.90234138  0.30212918  0.10723151  1
  Mo  Mo211  1  0.19884749  0.00132698  0.20554471  1
  Mo  Mo212  1  0.30179281  0.90692734  0.10229177  1
  Mo  Mo213  1  0.90017537  0.29265998  0.50181885  1
  Mo  Mo214  1  0.80053786  0.80100395  0.40027113  1
  Mo  Mo215  1  0.69603872  0.10379095  0.10217196  1
  Mo  Mo216  1  -0.00432680  0.40897376  0.79796668  1
  Mo  Mo217  1  0.80508794  0.19074600  0.39920722  1
  Mo  Mo218  1  0.29331881  0.50610410  0.47874400  1
  Mo  Mo219  1  0.19848594  0.80607164  0.20519715  1
  Mo  Mo220  1  0.49870770  0.90317687  0.50334169  1
  Mo  Mo221  1  0.29738040  0.70021313  0.49319282  1
  Mo  Mo222  1  0.70581943  0.50360747  0.50211173  1
  Mo  Mo223  1  0.89869298  0.50569178  0.69830648  1
  Mo  Mo224  1  0.09491427  0.70637850  0.07891024  1
  Mo  Mo225  1  -0.00035631  0.40352449  0.00145580  1
  Mo  Mo226  1  0.60643589  0.60314785  0.80299510  1
  Mo  Mo227  1  0.69896333  0.89546784  0.30420157  1
  Mo  Mo228  1  0.10239458  0.90414648  0.50217910  1
  Mo  Mo229  1  0.50585146  0.30576231  0.90170476  1
  Mo  Mo230  1  0.51264532  0.49670525  0.09096664  1
  Mo  Mo231  1  0.81403725  0.19910069  0.59408314  1
  Mo  Mo232  1  0.79897915  0.20111254  0.20414544  1
  Mo  Mo233  1  0.09948677  0.28706933  0.69928346  1
  Mo  Mo234  1  0.09980197  0.09550166  0.50583878  1
  Mo  Mo235  1  0.60336234  0.79664533  0.21859257  1
  Mo  Mo236  1  0.60371316  -0.00179980  0.40298298  1
  Mo  Mo237  1  0.70579667  0.69415562  0.08904337  1
  Mo  Mo238  1  0.00463440  0.79816856  0.79940278  1
  Mo  Mo239  1  0.30626710  0.09801255  0.89433773  1
  Mo  Mo240  1  0.30388947  0.51044968  0.72436823  1
  Mo  Mo241  1  0.80306339  0.39994879  0.40020295  1
  Mo  Mo242  1  0.40363310  0.59720260  0.80843265  1
  Mo  Mo243  1  0.39653160  0.59623791  0.59366923  1
  Mo  Mo244  1  0.91123883  0.90284074  0.70106288  1
  Mo  Mo245  1  0.80127921  0.79588776  -0.00397282  1
  Mo  Mo246  1  0.18199752  0.20508945  0.20059602  1
  Mo  Mo247  1  0.80586767  0.60188590  0.79936143  1
  Mo  Mo248  1  0.09759136  0.50170849  0.89857319  1
  Mo  Mo249  1  0.91287255  0.90368644  0.49411985  1
