# generated using pymatgen
data_HfZrTaTiMo
_symmetry_space_group_name_H-M   'P 1'
_cell_length_a   16.88243433
_cell_length_b   16.88283655
_cell_length_c   16.88533441
_cell_angle_alpha   90.01629449
_cell_angle_beta   89.99724259
_cell_angle_gamma   89.96698243
_symmetry_Int_Tables_number   1
_chemical_formula_structural   HfZrTaTiMo
_chemical_formula_sum   'Hf50 Zr50 Ta50 Ti50 Mo50'
_cell_volume   4812.71407503
_cell_formula_units_Z   50
loop_
 _symmetry_equiv_pos_site_id
 _symmetry_equiv_pos_as_xyz
  1  'x, y, z'
loop_
 _atom_site_type_symbol
 _atom_site_label
 _atom_site_symmetry_multiplicity
 _atom_site_fract_x
 _atom_site_fract_y
 _atom_site_fract_z
 _atom_site_occupancy
  Hf  Hf0  1  0.29641774  0.29563447  0.30086352  1
  Hf  Hf1  1  0.39823744  0.40506889  0.19357298  1
  Hf  Hf2  1  0.10224329  0.49891193  0.50100288  1
  Hf  Hf3  1  0.50219859  0.29379087  0.70146807  1
  Hf  Hf4  1  0.49083076  0.49377512  0.69018166  1
  Hf  Hf5  1  0.09872655  0.30351133  0.30663614  1
  Hf  Hf6  1  0.50043937  0.89830837  0.90425719  1
  Hf  Hf7  1  0.09379445  0.49737261  0.09201303  1
  Hf  Hf8  1  0.71208713  0.49329460  0.68934431  1
  Hf  Hf9  1  0.49799928  0.89832332  0.29948955  1
  Hf  Hf10  1  0.50049804  0.10374893  0.90432587  1
  Hf  Hf11  1  0.60082119  0.00039482  0.19887692  1
  Hf  Hf12  1  0.49996053  0.29942582  0.09265621  1
  Hf  Hf13  1  -0.00175520  0.00596124  0.80333227  1
  Hf  Hf14  1  0.90121907  0.91149592  0.30497983  1
  Hf  Hf15  1  0.60460578  0.79392291  0.79339132  1
  Hf  Hf16  1  0.70218036  0.10752610  0.69601957  1
  Hf  Hf17  1  0.59670859  0.79796016  0.19795620  1
  Hf  Hf18  1  0.79169812  0.39927426  -0.00386190  1
  Hf  Hf19  1  0.50978460  0.89033310  0.50100999  1
  Hf  Hf20  1  0.60151435  0.19707378  0.19882842  1
  Hf  Hf21  1  0.80460744  0.20664450  -0.00382593  1
  Hf  Hf22  1  0.29960629  0.29605868  0.89811881  1
  Hf  Hf23  1  0.10031268  0.90005405  0.70287492  1
  Hf  Hf24  1  0.89774166  0.30583079  0.70114970  1
  Hf  Hf25  1  0.70120569  0.09709243  0.90384069  1
  Hf  Hf26  1  0.79865344  0.40437037  0.20240606  1
  Hf  Hf27  1  0.60922924  0.00480840  0.39652513  1
  Hf  Hf28  1  0.60896752  -0.00254292  0.59103756  1
  Hf  Hf29  1  0.29736584  0.89213956  0.09415701  1
  Hf  Hf30  1  0.39711738  0.79344521  0.39677615  1
  Hf  Hf31  1  0.10426777  0.10684685  0.89813420  1
  Hf  Hf32  1  0.80127762  0.60724963  0.40727426  1
  Hf  Hf33  1  0.29750231  0.30294082  0.49886684  1
  Hf  Hf34  1  0.09900982  0.90119641  0.49871804  1
  Hf  Hf35  1  0.69801263  0.50146251  0.49891631  1
  Hf  Hf36  1  0.00503900  0.39826930  0.60388090  1
  Hf  Hf37  1  0.89649777  0.70550832  0.30453857  1
  Hf  Hf38  1  0.20154788  0.39581309  0.19635869  1
  Hf  Hf39  1  0.00253684  0.60238318  0.20826461  1
  Hf  Hf40  1  0.19869290  0.00177602  -0.00235991  1
  Hf  Hf41  1  0.60429718  0.19234725  0.39686115  1
  Hf  Hf42  1  0.59881237  0.40891454  0.19302982  1
  Hf  Hf43  1  0.40833526  0.60678867  0.20452586  1
  Hf  Hf44  1  0.30154879  0.29983216  0.69254097  1
  Hf  Hf45  1  0.10890158  0.69969814  0.08778711  1
  Hf  Hf46  1  0.59809232  0.39341050  0.59424888  1
  Hf  Hf47  1  0.40503418  0.60608205  0.79020687  1
  Hf  Hf48  1  0.50025125  0.70638933  0.90277275  1
  Hf  Hf49  1  0.79862421  0.80330278  0.19670519  1
  Zr  Zr50  1  0.90254389  0.71080244  0.89358118  1
  Zr  Zr51  1  0.09590020  0.29909690  0.89607592  1
  Zr  Zr52  1  0.69872555  0.28807066  0.69961290  1
  Zr  Zr53  1  0.80864603  0.00849584  0.79414541  1
  Zr  Zr54  1  0.20242985  0.80476469  0.20616631  1
  Zr  Zr55  1  0.30791476  0.89289824  0.89892556  1
  Zr  Zr56  1  0.89494842  0.69855955  0.09602437  1
  Zr  Zr57  1  0.90216445  0.50057158  0.10081413  1
  Zr  Zr58  1  0.39509317  -0.00141488  0.40311992  1
  Zr  Zr59  1  -0.00754558  0.19801941  -0.00330506  1
  Zr  Zr60  1  -0.00787418  0.79701492  0.60077098  1
  Zr  Zr61  1  0.00616100  0.80945122  0.20152234  1
  Zr  Zr62  1  0.29588000  0.88899586  0.70337393  1
  Zr  Zr63  1  0.79592901  0.59626645  -0.01116595  1
  Zr  Zr64  1  0.70429436  0.90217239  0.08681028  1
  Zr  Zr65  1  0.89449898  0.49821631  0.50834839  1
  Zr  Zr66  1  0.29262033  0.51681253  0.09151913  1
  Zr  Zr67  1  0.80762952  0.19341606  0.39521615  1
  Zr  Zr68  1  0.09665474  0.09477324  0.29779144  1
  Zr  Zr69  1  0.29766396  0.50177583  0.31733381  1
  Zr  Zr70  1  0.50034724  0.69292277  0.49626608  1
  Zr  Zr71  1  0.10509794  0.71373105  0.32029602  1
  Zr  Zr72  1  0.29390522  0.70042567  0.90807327  1
  Zr  Zr73  1  0.00565584  0.80716406  -0.00421111  1
  Zr  Zr74  1  0.49797695  0.49137077  0.90024730  1
  Zr  Zr75  1  0.29222334  0.50990280  0.89426594  1
  Zr  Zr76  1  0.30581090  0.50320696  0.51379242  1
  Zr  Zr77  1  0.89638027  0.50190306  0.69888146  1
  Zr  Zr78  1  0.80653033  0.80440269  0.58504828  1
  Zr  Zr79  1  0.70556532  0.89926656  0.69225078  1
  Zr  Zr80  1  0.69835136  0.69151137  0.29240309  1
  Zr  Zr81  1  0.50016561  0.89433593  0.70550904  1
  Zr  Zr82  1  0.39473809  -0.00212822  0.19235969  1
  Zr  Zr83  1  0.70613205  0.29696049  0.50213901  1
  Zr  Zr84  1  0.40396944  0.78507751  0.60779789  1
  Zr  Zr85  1  0.49816567  0.49986183  0.49513646  1
  Zr  Zr86  1  0.50106008  0.29443873  0.89914151  1
  Zr  Zr87  1  0.29313755  0.10315609  0.50365919  1
  Zr  Zr88  1  0.50216642  0.30212173  0.30385780  1
  Zr  Zr89  1  0.28650321  0.68557808  0.69964498  1
  Zr  Zr90  1  0.88901326  0.09557058  0.11377120  1
  Zr  Zr91  1  0.60552728  0.58963737  0.00035519  1
  Zr  Zr92  1  0.51292364  0.10627990  0.70138258  1
  Zr  Zr93  1  0.19575225  0.39757897  -0.00379982  1
  Zr  Zr94  1  0.61033117  0.59817633  0.79880492  1
  Zr  Zr95  1  0.39644752  0.00137918  0.60390945  1
  Zr  Zr96  1  0.10059873  0.09509152  0.50593947  1
  Zr  Zr97  1  0.19739640  0.60320197  0.20862338  1
  Zr  Zr98  1  -0.00387443  0.19339127  0.40174672  1
  Zr  Zr99  1  0.09520553  0.70070514  0.70650264  1
  Ta  Ta100  1  0.09474212  0.29492235  0.10442924  1
  Ta  Ta101  1  0.39495004  0.00809557  0.80011658  1
  Ta  Ta102  1  0.10327900  0.50802606  0.70069808  1
  Ta  Ta103  1  0.29623403  0.68999086  0.50120143  1
  Ta  Ta104  1  0.79944254  0.60589386  0.79762371  1
  Ta  Ta105  1  0.89601981  0.90719853  0.09311005  1
  Ta  Ta106  1  -0.00370685  0.60075446  0.80001217  1
  Ta  Ta107  1  0.39355649  0.19123830  0.79562607  1
  Ta  Ta108  1  0.90568592  0.30646084  0.10333714  1
  Ta  Ta109  1  0.10432238  0.30130785  0.50128784  1
  Ta  Ta110  1  0.39365585  0.19944192  0.19331891  1
  Ta  Ta111  1  0.89130556  0.90157190  0.90369873  1
  Ta  Ta112  1  -0.01214340  0.80232913  0.41484458  1
  Ta  Ta113  1  0.10075457  0.10275946  0.10588704  1
  Ta  Ta114  1  0.90099045  0.30552106  0.29916273  1
  Ta  Ta115  1  -0.01210197  0.00237017  0.60823933  1
  Ta  Ta116  1  0.80894925  0.20331755  0.81117195  1
  Ta  Ta117  1  0.19731834  0.40468632  0.79280627  1
  Ta  Ta118  1  0.40178017  0.19744743  0.59846308  1
  Ta  Ta119  1  0.70439566  0.09818637  0.09852482  1
  Ta  Ta120  1  0.50048525  0.10329280  0.09515250  1
  Ta  Ta121  1  0.50831985  0.69719360  0.09861573  1
  Ta  Ta122  1  0.48965259  0.10210351  0.29539328  1
  Ta  Ta123  1  -0.00577705  0.20104980  0.20326958  1
  Ta  Ta124  1  0.29405884  0.10302981  0.29593854  1
  Ta  Ta125  1  0.39486135  0.40022903  0.00579852  1
  Ta  Ta126  1  0.60969255  0.39654802  0.80452490  1
  Ta  Ta127  1  0.20556162  0.00671911  0.79793382  1
  Ta  Ta128  1  0.90125152  0.49329330  0.89401417  1
  Ta  Ta129  1  -0.00131392  0.60516642  0.40920149  1
  Ta  Ta130  1  0.50530470  0.50538622  0.30462382  1
  Ta  Ta131  1  0.70228968  0.30254294  0.30021894  1
  Ta  Ta132  1  0.09622259  0.49285135  0.31483581  1
  Ta  Ta133  1  0.72121574  0.09807548  0.28340236  1
  Ta  Ta134  1  0.19737210  0.19674994  0.39925346  1
  Ta  Ta135  1  -0.00240951  0.00397342  -0.00221872  1
  Ta  Ta136  1  0.60256958  -0.00089421  0.80417897  1
  Ta  Ta137  1  0.90472275  0.30461037  0.49824036  1
  Ta  Ta138  1  0.00361264  0.59346875  -0.01583812  1
  Ta  Ta139  1  0.90307796  0.49967650  0.30670931  1
  Ta  Ta140  1  0.80022089  -0.00049984  0.40584467  1
  Ta  Ta141  1  0.19942093  -0.00786035  0.39324994  1
  Ta  Ta142  1  0.59956596  0.60770293  0.60510142  1
  Ta  Ta143  1  0.10222062  0.29521959  0.70059945  1
  Ta  Ta144  1  0.19936909  0.40258664  0.60718812  1
  Ta  Ta145  1  0.80013503  0.40070236  0.39720359  1
  Ta  Ta146  1  0.10273732  0.10489022  0.69813582  1
  Ta  Ta147  1  0.40498290  0.39919590  0.40086967  1
  Ta  Ta148  1  -0.00077411  0.19830992  0.60244634  1
  Ta  Ta149  1  0.70476026  0.89796346  0.90198311  1
  Ti  Ti150  1  0.49898686  0.10247841  0.49784777  1
  Ti  Ti151  1  0.49737250  0.29685506  0.49785940  1
  Ti  Ti152  1  -0.00425091  0.60978660  0.59839424  1
  Ti  Ti153  1  0.70420586  0.51910807  0.11774046  1
  Ti  Ti154  1  -0.01103083  0.19682119  0.79738104  1
  Ti  Ti155  1  0.60918634  0.40443617  -0.00094495  1
  Ti  Ti156  1  0.60867389  0.79882788  0.39643654  1
  Ti  Ti157  1  0.10003760  0.89933257  0.89537475  1
  Ti  Ti158  1  0.00076041  0.40013760  0.20399632  1
  Ti  Ti159  1  0.29547643  0.70103440  0.09041010  1
  Ti  Ti160  1  0.20303298  0.00192261  0.60775234  1
  Ti  Ti161  1  0.71027162  0.10049991  0.50676224  1
  Ti  Ti162  1  0.69687486  0.70693125  0.50052630  1
  Ti  Ti163  1  0.00180847  -0.00065076  0.20026316  1
  Ti  Ti164  1  0.20698547  0.19552843  0.78984564  1
  Ti  Ti165  1  0.49941116  0.89728682  0.09353040  1
  Ti  Ti166  1  0.39864146  0.19742159  0.39847169  1
  Ti  Ti167  1  0.59810577  0.00043863  0.00087403  1
  Ti  Ti168  1  0.40502117  0.79436065  0.00919010  1
  Ti  Ti169  1  0.39658547  0.00737630  0.00271621  1
  Ti  Ti170  1  0.41013494  0.59630518  0.00590406  1
  Ti  Ti171  1  0.60949669  0.20474900  0.00042185  1
  Ti  Ti172  1  0.70345607  0.71547567  0.90954159  1
  Ti  Ti173  1  0.29879339  0.10389847  0.90024673  1
  Ti  Ti174  1  0.59739033  0.60441802  0.39447552  1
  Ti  Ti175  1  0.40059517  0.79079766  0.20019537  1
  Ti  Ti176  1  0.19541519  -0.00520575  0.20435468  1
  Ti  Ti177  1  0.19516762  0.79964008  0.80778873  1
  Ti  Ti178  1  0.29318004  0.89183976  0.50153194  1
  Ti  Ti179  1  0.69883046  0.69915589  0.09638966  1
  Ti  Ti180  1  0.20333695  0.20296462  0.01205289  1
  Ti  Ti181  1  0.10120987  0.90607854  0.09697510  1
  Ti  Ti182  1  0.90125520  0.08965429  0.50184673  1
  Ti  Ti183  1  0.10441622  0.69722079  0.89714588  1
  Ti  Ti184  1  0.70792575  0.90045737  0.30398273  1
  Ti  Ti185  1  0.81763423  0.19310481  0.60090829  1
  Ti  Ti186  1  0.79571869  0.39390050  0.80998676  1
  Ti  Ti187  1  0.70503439  0.29525744  0.10599333  1
  Ti  Ti188  1  0.29623584  0.89790536  0.30276795  1
  Ti  Ti189  1  0.19338511  0.78723156  0.58856905  1
  Ti  Ti190  1  0.29913998  0.69684521  0.31255800  1
  Ti  Ti191  1  0.90196018  0.89519352  0.70605077  1
  Ti  Ti192  1  0.29053931  0.10353932  0.10780637  1
  Ti  Ti193  1  0.70688951  0.70184779  0.68842983  1
  Ti  Ti194  1  0.38870817  0.19888398  0.00711149  1
  Ti  Ti195  1  0.19402384  0.60553177  0.41048104  1
  Ti  Ti196  1  0.39280056  0.39965140  0.79672207  1
  Ti  Ti197  1  0.00562106  0.40410311  0.80339502  1
  Ti  Ti198  1  0.69624749  0.50127124  0.30375512  1
  Ti  Ti199  1  0.80139462  0.79707949  0.79467665  1
  Mo  Mo200  1  0.80762354  0.00350392  0.59426791  1
  Mo  Mo201  1  0.29647384  0.49408534  0.70044358  1
  Mo  Mo202  1  0.79776345  0.80282288  -0.00212660  1
  Mo  Mo203  1  0.60142030  0.79877331  0.00149118  1
  Mo  Mo204  1  0.20752709  0.80347587  0.40849743  1
  Mo  Mo205  1  0.80135432  0.38668185  0.59359504  1
  Mo  Mo206  1  0.50077284  0.49982821  0.09879529  1
  Mo  Mo207  1  0.58979867  0.19515125  0.57945694  1
  Mo  Mo208  1  0.29652805  0.10264653  0.70049981  1
  Mo  Mo209  1  0.90062509  0.91144943  0.49838430  1
  Mo  Mo210  1  0.89406980  0.69752290  0.70143799  1
  Mo  Mo211  1  0.19805129  0.39554935  0.40564998  1
  Mo  Mo212  1  0.70440551  0.89713570  0.48827355  1
  Mo  Mo213  1  0.50714812  0.69453201  0.69786559  1
  Mo  Mo214  1  0.89838838  0.69649377  0.49977360  1
  Mo  Mo215  1  0.19486626  0.80458189  -0.00409456  1
  Mo  Mo216  1  0.09841364  0.69821477  0.50383452  1
  Mo  Mo217  1  0.80381344  0.00235543  -0.00335496  1
  Mo  Mo218  1  0.90418373  0.10886419  0.69918510  1
  Mo  Mo219  1  0.18908824  0.59445809  0.80190743  1
  Mo  Mo220  1  0.40262023  0.79692140  0.80347645  1
  Mo  Mo221  1  -0.00288548  -0.00322673  0.40580436  1
  Mo  Mo222  1  0.80087967  0.59698458  0.20925499  1
  Mo  Mo223  1  0.19324842  0.20477147  0.60066875  1
  Mo  Mo224  1  0.60754929  0.79245812  0.59696322  1
  Mo  Mo225  1  0.90197095  0.30788336  0.89619626  1
  Mo  Mo226  1  0.90249578  0.09975259  0.90047606  1
  Mo  Mo227  1  0.89960524  0.09775460  0.29814868  1
  Mo  Mo228  1  0.40117533  0.39078209  0.59627530  1
  Mo  Mo229  1  0.29922028  0.29225282  0.09736350  1
  Mo  Mo230  1  0.40005946  0.59664034  0.60115772  1
  Mo  Mo231  1  0.50176558  0.69977118  0.29775302  1
  Mo  Mo232  1  0.69766509  0.29732219  0.90197922  1
  Mo  Mo233  1  0.80115494  0.21182940  0.19727606  1
  Mo  Mo234  1  0.18766163  0.60339224  -0.00791360  1
  Mo  Mo235  1  0.70545293  0.49264174  0.88609450  1
  Mo  Mo236  1  -0.00154611  0.80609326  0.80343329  1
  Mo  Mo237  1  -0.00690531  0.39745931  -0.00531511  1
  Mo  Mo238  1  0.09634806  0.90535629  0.30854824  1
  Mo  Mo239  1  0.79468570  0.61383928  0.60102961  1
  Mo  Mo240  1  0.79810052  -0.00669841  0.20074475  1
  Mo  Mo241  1  0.09285305  0.50017561  0.89130516  1
  Mo  Mo242  1  0.19440510  0.59722447  0.60137263  1
  Mo  Mo243  1  0.39795108  0.60089872  0.39646060  1
  Mo  Mo244  1  0.79554085  0.80635540  0.40078829  1
  Mo  Mo245  1  0.60318233  0.40137194  0.39340939  1
  Mo  Mo246  1  0.59938618  0.59967951  0.19949624  1
  Mo  Mo247  1  -0.00349173  0.40200240  0.40217964  1
  Mo  Mo248  1  0.60621980  0.20047698  0.81642507  1
  Mo  Mo249  1  0.19560099  0.19797814  0.19828973  1
