# generated using pymatgen
data_HfZrTaTiMo
_symmetry_space_group_name_H-M   'P 1'
_cell_length_a   16.88345035
_cell_length_b   16.88536032
_cell_length_c   16.88763646
_cell_angle_alpha   90.00723751
_cell_angle_beta   90.00704655
_cell_angle_gamma   89.92751692
_symmetry_Int_Tables_number   1
_chemical_formula_structural   HfZrTaTiMo
_chemical_formula_sum   'Hf50 Zr50 Ta50 Ti50 Mo50'
_cell_volume   4814.37654520
_cell_formula_units_Z   50
loop_
 _symmetry_equiv_pos_site_id
 _symmetry_equiv_pos_as_xyz
  1  'x, y, z'
loop_
 _atom_site_type_symbol
 _atom_site_label
 _atom_site_symmetry_multiplicity
 _atom_site_fract_x
 _atom_site_fract_y
 _atom_site_fract_z
 _atom_site_occupancy
  Hf  Hf0  1  0.19026274  0.59086478  0.80484920  1
  Hf  Hf1  1  0.10418615  0.69783611  0.10232499  1
  Hf  Hf2  1  0.49234352  0.70206662  0.29947920  1
  Hf  Hf3  1  0.09676009  0.49115068  0.29796571  1
  Hf  Hf4  1  0.01297779  0.00728610  0.00396905  1
  Hf  Hf5  1  -0.00043133  0.60556470  0.20456365  1
  Hf  Hf6  1  0.58801463  0.41037879  0.79782577  1
  Hf  Hf7  1  0.59702617  0.80335023  0.19132992  1
  Hf  Hf8  1  0.79973690  -0.00926628  0.40129166  1
  Hf  Hf9  1  0.89139808  0.49995418  0.10581540  1
  Hf  Hf10  1  0.59891841  0.81465384  0.80700217  1
  Hf  Hf11  1  0.00083354  0.19576974  0.18946359  1
  Hf  Hf12  1  0.09648752  0.90762039  0.29040002  1
  Hf  Hf13  1  0.30506451  0.69668191  0.50373575  1
  Hf  Hf14  1  0.40191520  0.19632500  0.20597176  1
  Hf  Hf15  1  0.79328157  0.38469471  0.40532206  1
  Hf  Hf16  1  0.10404819  0.89363895  0.88821715  1
  Hf  Hf17  1  0.70326664  0.09313205  0.69385297  1
  Hf  Hf18  1  0.50192874  0.91177438  0.69348986  1
  Hf  Hf19  1  0.50308562  0.89832877  0.30144801  1
  Hf  Hf20  1  0.20920883  0.79644857  0.19598319  1
  Hf  Hf21  1  0.10006145  0.09938291  0.49781434  1
  Hf  Hf22  1  0.19855122  0.19401628  0.00377342  1
  Hf  Hf23  1  0.89723437  0.30470454  0.69285862  1
  Hf  Hf24  1  0.69873345  0.69373316  0.09734119  1
  Hf  Hf25  1  0.50236631  0.50612264  0.10778373  1
  Hf  Hf26  1  0.79097576  0.20399090  0.58713607  1
  Hf  Hf27  1  0.89947971  0.49752576  0.51340234  1
  Hf  Hf28  1  0.39654741  0.80838850  0.59829521  1
  Hf  Hf29  1  0.89089876  0.71204064  0.51258455  1
  Hf  Hf30  1  0.20609610  -0.00280461  0.79487008  1
  Hf  Hf31  1  0.50793912  0.90304597  0.49520975  1
  Hf  Hf32  1  0.70783449  0.09294144  0.09392685  1
  Hf  Hf33  1  0.49731699  0.30773101  0.49567419  1
  Hf  Hf34  1  0.21542824  0.79945035  -0.00090196  1
  Hf  Hf35  1  0.69812781  0.30180324  0.09898206  1
  Hf  Hf36  1  0.19347507  0.20367578  0.61295688  1
  Hf  Hf37  1  0.89710420  0.09476168  0.50333704  1
  Hf  Hf38  1  -0.00313015  0.38471951  0.41243044  1
  Hf  Hf39  1  0.70009137  0.69819692  0.90364637  1
  Hf  Hf40  1  0.59721901  0.19946465  0.59334546  1
  Hf  Hf41  1  0.79640810  0.60865761  0.40461234  1
  Hf  Hf42  1  0.59479495  0.59816182  0.79308890  1
  Hf  Hf43  1  0.08406530  0.49810444  0.69359712  1
  Hf  Hf44  1  0.88786894  0.69529656  0.10079233  1
  Hf  Hf45  1  0.70343676  0.51233360  0.90692449  1
  Hf  Hf46  1  0.69656413  0.50572615  0.29692025  1
  Hf  Hf47  1  -0.01118182  0.80548281  0.39360748  1
  Hf  Hf48  1  0.39440622  0.81243962  0.80372109  1
  Hf  Hf49  1  0.20248560  0.39412546  0.59871956  1
  Zr  Zr50  1  0.30824578  0.89544585  0.28775433  1
  Zr  Zr51  1  0.29401169  0.10614461  0.50144644  1
  Zr  Zr52  1  0.59539502  0.18970209  -0.01428703  1
  Zr  Zr53  1  0.20590527  0.59226410  0.60519287  1
  Zr  Zr54  1  0.89711982  0.49571607  0.29961100  1
  Zr  Zr55  1  0.00128101  0.79920553  0.00481816  1
  Zr  Zr56  1  0.90711379  0.09200920  0.29984147  1
  Zr  Zr57  1  -0.00288246  0.58953709  -0.01230693  1
  Zr  Zr58  1  0.59661277  0.00389753  0.81258079  1
  Zr  Zr59  1  0.20050436  0.39234342  0.79403586  1
  Zr  Zr60  1  0.30274642  0.10331642  0.70377201  1
  Zr  Zr61  1  0.10300985  0.49383499  0.10680791  1
  Zr  Zr62  1  0.80078446  0.80601691  -0.00687589  1
  Zr  Zr63  1  0.30448098  0.49851680  0.10516036  1
  Zr  Zr64  1  0.60459553  0.19952760  0.20409970  1
  Zr  Zr65  1  0.90425594  0.09856369  0.89619193  1
  Zr  Zr66  1  0.09297859  0.49714856  0.50389734  1
  Zr  Zr67  1  0.80964373  0.20137929  -0.00113294  1
  Zr  Zr68  1  0.20711735  0.59663917  0.39348863  1
  Zr  Zr69  1  0.29643292  0.70207570  0.70499100  1
  Zr  Zr70  1  0.80841345  0.39948858  -0.00401393  1
  Zr  Zr71  1  0.10128507  0.70631809  0.51227654  1
  Zr  Zr72  1  0.89615727  0.90039207  0.69500981  1
  Zr  Zr73  1  0.59272025  0.60155609  0.59884874  1
  Zr  Zr74  1  0.20829363  0.00009356  -0.00108651  1
  Zr  Zr75  1  0.59870056  -0.00306606  -0.00837741  1
  Zr  Zr76  1  0.70232140  0.09566771  0.30370148  1
  Zr  Zr77  1  0.50299510  0.70183755  0.90639631  1
  Zr  Zr78  1  0.10560378  0.30507059  0.10711380  1
  Zr  Zr79  1  0.40643622  0.19546131  0.40052756  1
  Zr  Zr80  1  0.69143386  0.50584550  0.49465913  1
  Zr  Zr81  1  0.40221154  0.39579735  -0.01206187  1
  Zr  Zr82  1  0.59575801  0.19363447  0.79893454  1
  Zr  Zr83  1  0.10872853  0.09713090  0.29047951  1
  Zr  Zr84  1  0.40414630  0.60393204  0.00147047  1
  Zr  Zr85  1  0.49813643  0.29833049  0.10213079  1
  Zr  Zr86  1  0.70236322  0.29907350  0.89002541  1
  Zr  Zr87  1  0.20608328  -0.00835387  0.40276212  1
  Zr  Zr88  1  0.10668252  0.29302963  0.30059341  1
  Zr  Zr89  1  -0.00258683  0.61049776  0.40128983  1
  Zr  Zr90  1  -0.00517822  0.41116879  0.81205423  1
  Zr  Zr91  1  0.10034647  0.70561655  0.89285159  1
  Zr  Zr92  1  0.40070779  0.00151037  0.40388526  1
  Zr  Zr93  1  0.59407686  0.40702878  -0.00667961  1
  Zr  Zr94  1  0.30460091  0.49733694  0.89427494  1
  Zr  Zr95  1  0.29943175  0.29885032  0.10347134  1
  Zr  Zr96  1  0.90830391  0.90125530  0.89356052  1
  Zr  Zr97  1  0.59356298  0.40892714  0.60104230  1
  Zr  Zr98  1  0.20403822  0.79717976  0.39966811  1
  Zr  Zr99  1  0.00586342  0.19776654  0.78851172  1
  Ta  Ta100  1  0.89568091  0.70709794  0.70352343  1
  Ta  Ta101  1  0.21877841  0.40226654  0.21820992  1
  Ta  Ta102  1  0.79584898  0.80468594  0.39787915  1
  Ta  Ta103  1  0.69906925  0.30591864  0.69863933  1
  Ta  Ta104  1  0.09819780  0.89719121  0.50740295  1
  Ta  Ta105  1  0.70067464  0.70758595  0.70018350  1
  Ta  Ta106  1  -0.00651777  0.80375810  0.20075902  1
  Ta  Ta107  1  0.79584025  0.60472349  0.60863826  1
  Ta  Ta108  1  0.20063406  -0.00887393  0.60437640  1
  Ta  Ta109  1  0.59941261  -0.00490128  0.19446176  1
  Ta  Ta110  1  -0.00312415  0.39424467  0.00011755  1
  Ta  Ta111  1  0.80126134  -0.00634184  0.20151288  1
  Ta  Ta112  1  0.40371119  0.40313010  0.21960076  1
  Ta  Ta113  1  0.49267206  0.30164187  0.70128112  1
  Ta  Ta114  1  0.90049879  0.09276713  0.10076422  1
  Ta  Ta115  1  0.29952245  0.29834883  0.49818831  1
  Ta  Ta116  1  0.70038363  0.89996417  0.50494853  1
  Ta  Ta117  1  0.21406516  0.60172773  0.20734224  1
  Ta  Ta118  1  0.80080037  0.40695136  0.79687467  1
  Ta  Ta119  1  0.70548368  0.90263006  0.09698988  1
  Ta  Ta120  1  0.10058819  0.29708145  0.90194700  1
  Ta  Ta121  1  0.69745602  0.70150683  0.29867492  1
  Ta  Ta122  1  -0.00166593  0.20133797  0.40710052  1
  Ta  Ta123  1  0.40281233  0.20404295  0.59915915  1
  Ta  Ta124  1  0.49750289  0.70528440  0.69845072  1
  Ta  Ta125  1  0.20395818  0.60061170  0.00140148  1
  Ta  Ta126  1  0.79223633  -0.00326955  0.80443009  1
  Ta  Ta127  1  0.90062414  0.90782604  0.10375610  1
  Ta  Ta128  1  0.49636086  0.09441287  0.09679908  1
  Ta  Ta129  1  0.79588417  0.80295333  0.80036821  1
  Ta  Ta130  1  0.50954901  0.09318412  0.30313578  1
  Ta  Ta131  1  0.60779784  0.19734483  0.40797033  1
  Ta  Ta132  1  0.09629491  0.70955695  0.70436513  1
  Ta  Ta133  1  0.59559975  0.60522443  0.20224729  1
  Ta  Ta134  1  0.10675391  0.10633679  0.89073934  1
  Ta  Ta135  1  0.50653861  0.30161458  0.30539673  1
  Ta  Ta136  1  0.39859160  0.40226534  0.60012314  1
  Ta  Ta137  1  0.10467251  0.88968855  0.69989937  1
  Ta  Ta138  1  0.80421128  0.20196727  0.19997291  1
  Ta  Ta139  1  0.32186767  0.89997103  0.09250616  1
  Ta  Ta140  1  0.40697002  0.00179566  0.19613749  1
  Ta  Ta141  1  0.70001285  0.90186372  0.69115295  1
  Ta  Ta142  1  0.89641361  0.09597434  0.69350970  1
  Ta  Ta143  1  0.59782537  0.79907198  0.59938270  1
  Ta  Ta144  1  -0.01024791  0.60314607  0.80097900  1
  Ta  Ta145  1  0.90105748  0.29405651  0.29788286  1
  Ta  Ta146  1  0.79502509  0.38875169  0.20384164  1
  Ta  Ta147  1  0.00627582  0.00039149  0.60351237  1
  Ta  Ta148  1  0.20630642  0.39623157  0.40409142  1
  Ta  Ta149  1  0.49274455  0.09906976  0.69610339  1
  Ti  Ti150  1  0.69461798  0.89809736  0.30202020  1
  Ti  Ti151  1  0.10277041  0.70410425  0.29702382  1
  Ti  Ti152  1  0.30060615  0.29183657  0.30892966  1
  Ti  Ti153  1  0.70233136  0.50795857  0.10354763  1
  Ti  Ti154  1  0.60311091  0.39580077  0.39767888  1
  Ti  Ti155  1  0.69725545  0.70630031  0.50376804  1
  Ti  Ti156  1  0.30210859  0.10443652  0.89529462  1
  Ti  Ti157  1  0.19480810  0.40404226  -0.00858106  1
  Ti  Ti158  1  0.50081214  0.69633763  0.49360210  1
  Ti  Ti159  1  0.40935723  0.59141210  0.59977417  1
  Ti  Ti160  1  0.90375371  0.29705813  0.89400175  1
  Ti  Ti161  1  -0.00295838  -0.00801168  0.40416677  1
  Ti  Ti162  1  0.00179863  0.20296060  0.59523852  1
  Ti  Ti163  1  0.50466841  0.50442983  0.30885913  1
  Ti  Ti164  1  0.29511883  0.29195800  0.89096950  1
  Ti  Ti165  1  0.79999310  0.80884074  0.20548169  1
  Ti  Ti166  1  0.39611247  0.20382830  0.79526343  1
  Ti  Ti167  1  0.39674373  0.40603443  0.39776489  1
  Ti  Ti168  1  0.80727420  0.60218518  0.80050650  1
  Ti  Ti169  1  0.39321874  0.80064978  0.40461098  1
  Ti  Ti170  1  -0.00856440  0.61023007  0.60860552  1
  Ti  Ti171  1  0.60058788  0.39975204  0.20760296  1
  Ti  Ti172  1  0.00793491  0.00356322  0.78790838  1
  Ti  Ti173  1  0.59431196  0.80905356  0.00389562  1
  Ti  Ti174  1  0.89495510  0.90000460  0.51023937  1
  Ti  Ti175  1  0.30817835  0.49745374  0.49867626  1
  Ti  Ti176  1  0.10610005  0.90761507  0.10912030  1
  Ti  Ti177  1  0.79351592  0.39644810  0.59611236  1
  Ti  Ti178  1  0.09014057  0.30569706  0.69841190  1
  Ti  Ti179  1  0.00375956  0.20167188  0.00264582  1
  Ti  Ti180  1  0.39765565  -0.00047375  0.80737852  1
  Ti  Ti181  1  0.30150415  0.70024387  0.89575601  1
  Ti  Ti182  1  0.79861652  0.19686272  0.79480860  1
  Ti  Ti183  1  0.47295480  0.90470103  0.92557721  1
  Ti  Ti184  1  0.39423595  0.00171567  0.59387663  1
  Ti  Ti185  1  0.40863291  0.59405637  0.79867742  1
  Ti  Ti186  1  0.31835539  0.69950587  0.10930128  1
  Ti  Ti187  1  0.70749911  0.50203220  0.70009960  1
  Ti  Ti188  1  0.39764603  0.19253986  -0.00349474  1
  Ti  Ti189  1  0.29705620  0.09526994  0.11018452  1
  Ti  Ti190  1  0.60615826  0.79552897  0.40345484  1
  Ti  Ti191  1  0.60192348  0.01081137  0.58549482  1
  Ti  Ti192  1  0.29116821  0.10091294  0.29412595  1
  Ti  Ti193  1  -0.00010116  0.80502011  0.60435146  1
  Ti  Ti194  1  0.89547130  0.50013314  0.69618806  1
  Ti  Ti195  1  0.88686901  0.70267200  0.29304227  1
  Ti  Ti196  1  0.40106482  0.59442555  0.39755689  1
  Ti  Ti197  1  0.31169526  0.49446653  0.70385200  1
  Ti  Ti198  1  0.79594413  0.20409217  0.40209122  1
  Ti  Ti199  1  0.49118468  0.29552550  0.89101304  1
  Mo  Mo200  1  0.29711076  0.89616009  0.50693753  1
  Mo  Mo201  1  0.89438958  0.69578929  0.89033823  1
  Mo  Mo202  1  -0.00557284  0.79639133  0.79221598  1
  Mo  Mo203  1  0.80232866  -0.00064826  -0.00039772  1
  Mo  Mo204  1  0.69513251  0.30083786  0.49871797  1
  Mo  Mo205  1  0.20689135  0.80050857  0.79846913  1
  Mo  Mo206  1  0.10442290  0.29258067  0.50107274  1
  Mo  Mo207  1  0.60574728  -0.00032853  0.40014789  1
  Mo  Mo208  1  0.30767233  0.49919728  0.30814441  1
  Mo  Mo209  1  0.79084841  0.59865501  0.20466160  1
  Mo  Mo210  1  0.71682657  0.09608748  0.89655663  1
  Mo  Mo211  1  0.09580889  0.09245580  0.69596204  1
  Mo  Mo212  1  0.50140173  0.50371403  0.89769918  1
  Mo  Mo213  1  -0.00557234  0.38941294  0.60126920  1
  Mo  Mo214  1  0.39855048  0.79504989  0.00125640  1
  Mo  Mo215  1  0.48533716  0.50299340  0.69984473  1
  Mo  Mo216  1  0.21021881  -0.00179655  0.19038268  1
  Mo  Mo217  1  0.59541698  0.61306466  0.39876603  1
  Mo  Mo218  1  0.50230867  0.70284215  0.10322331  1
  Mo  Mo219  1  0.39905201  0.39128715  0.79432566  1
  Mo  Mo220  1  0.31135277  0.69562399  0.29634473  1
  Mo  Mo221  1  0.50044334  0.90252111  0.09829763  1
  Mo  Mo222  1  0.40717412  0.79950970  0.18943437  1
  Mo  Mo223  1  0.70023297  0.29835333  0.30082595  1
  Mo  Mo224  1  0.20881419  0.19684400  0.20214755  1
  Mo  Mo225  1  0.19942222  0.20467378  0.40173219  1
  Mo  Mo226  1  0.79992472  -0.00162439  0.59911212  1
  Mo  Mo227  1  0.30892847  0.29964131  0.69650421  1
  Mo  Mo228  1  0.30199638  0.90631779  0.69957743  1
  Mo  Mo229  1  0.19904363  0.20196452  0.80381520  1
  Mo  Mo230  1  0.78997936  0.80040534  0.59972709  1
  Mo  Mo231  1  0.39703219  0.01469860  0.00169594  1
  Mo  Mo232  1  0.89758470  0.89527867  0.29440031  1
  Mo  Mo233  1  0.90367855  0.30007857  0.10518764  1
  Mo  Mo234  1  0.69918278  0.09446123  0.49578207  1
  Mo  Mo235  1  -0.01417069  0.39167611  0.19877277  1
  Mo  Mo236  1  0.50224811  0.09861303  0.50235994  1
  Mo  Mo237  1  -0.00108569  -0.00199061  0.19206346  1
  Mo  Mo238  1  0.40281592  0.59967767  0.20971744  1
  Mo  Mo239  1  0.89879465  0.29234052  0.50073206  1
  Mo  Mo240  1  0.30307714  0.90132346  0.90131678  1
  Mo  Mo241  1  0.10270341  0.09939726  0.09660476  1
  Mo  Mo242  1  0.10097010  0.49511488  0.90757517  1
  Mo  Mo243  1  0.70634799  0.89866868  0.90253134  1
  Mo  Mo244  1  0.79932991  0.59927723  0.00056231  1
  Mo  Mo245  1  0.47478527  0.10307300  0.89688393  1
  Mo  Mo246  1  0.89394306  0.50315734  0.89875291  1
  Mo  Mo247  1  0.20134670  0.80555524  0.60374971  1
  Mo  Mo248  1  0.48997985  0.50203294  0.48776406  1
  Mo  Mo249  1  0.60043351  0.60034313  0.01007070  1
