# generated using pymatgen
data_HfZrTaTiMo
_symmetry_space_group_name_H-M   'P 1'
_cell_length_a   16.89662152
_cell_length_b   16.89486167
_cell_length_c   16.89329957
_cell_angle_alpha   90.03032433
_cell_angle_beta   89.98500719
_cell_angle_gamma   90.04220600
_symmetry_Int_Tables_number   1
_chemical_formula_structural   HfZrTaTiMo
_chemical_formula_sum   'Hf50 Zr50 Ta50 Ti50 Mo50'
_cell_volume   4822.46191433
_cell_formula_units_Z   50
loop_
 _symmetry_equiv_pos_site_id
 _symmetry_equiv_pos_as_xyz
  1  'x, y, z'
loop_
 _atom_site_type_symbol
 _atom_site_label
 _atom_site_symmetry_multiplicity
 _atom_site_fract_x
 _atom_site_fract_y
 _atom_site_fract_z
 _atom_site_occupancy
  Hf  Hf0  1  0.39252159  0.01610209  0.80354967  1
  Hf  Hf1  1  0.80245146  0.80599458  0.59007266  1
  Hf  Hf2  1  -0.00444517  0.19160580  0.81107570  1
  Hf  Hf3  1  0.40048294  0.39594490  0.60573244  1
  Hf  Hf4  1  0.90238238  0.09847618  0.49696902  1
  Hf  Hf5  1  0.88982305  0.70335727  0.30389822  1
  Hf  Hf6  1  0.10147536  0.69499814  0.89022747  1
  Hf  Hf7  1  -0.00105834  0.81055570  0.40839022  1
  Hf  Hf8  1  -0.00252345  0.20648884  0.39820318  1
  Hf  Hf9  1  0.19869751  0.81423290  0.18320467  1
  Hf  Hf10  1  0.79438510  0.20236734  0.40047984  1
  Hf  Hf11  1  0.41009015  0.60228713  0.40255692  1
  Hf  Hf12  1  0.39627451  0.00734161  0.60248446  1
  Hf  Hf13  1  0.70390659  0.31042432  0.90310595  1
  Hf  Hf14  1  0.12153663  0.11776943  0.70280989  1
  Hf  Hf15  1  0.01107107  -0.00048582  0.59921263  1
  Hf  Hf16  1  0.00575019  0.59264503  0.00250540  1
  Hf  Hf17  1  0.79911835  0.00282689  0.20507078  1
  Hf  Hf18  1  0.60140469  -0.00314168  0.40068740  1
  Hf  Hf19  1  0.40794287  0.58501444  0.18494053  1
  Hf  Hf20  1  0.40615507  0.79096087  0.79597103  1
  Hf  Hf21  1  0.29047829  0.28650565  0.70843093  1
  Hf  Hf22  1  0.30211017  0.49598182  0.29866358  1
  Hf  Hf23  1  0.09541792  0.69514414  0.50002674  1
  Hf  Hf24  1  0.69928759  0.70141470  0.69301254  1
  Hf  Hf25  1  0.89748019  0.89934206  0.10417873  1
  Hf  Hf26  1  0.49959896  0.10175885  0.09865838  1
  Hf  Hf27  1  0.39694662  0.40363064  0.00715199  1
  Hf  Hf28  1  0.29333579  0.29713364  0.50207127  1
  Hf  Hf29  1  0.80238795  0.19937021  0.19775185  1
  Hf  Hf30  1  0.39119974  0.20002066  0.39679527  1
  Hf  Hf31  1  0.29107465  0.90031909  0.70161983  1
  Hf  Hf32  1  0.90117055  0.49609969  0.89364769  1
  Hf  Hf33  1  0.59520595  0.60240686  -0.00094271  1
  Hf  Hf34  1  0.89554787  0.30680032  0.29132913  1
  Hf  Hf35  1  0.20774364  0.58935596  0.00026925  1
  Hf  Hf36  1  0.40502777  0.60754203  0.60133143  1
  Hf  Hf37  1  0.10160385  0.30980059  0.71432819  1
  Hf  Hf38  1  0.79041713  0.00480589  0.60133465  1
  Hf  Hf39  1  0.10313409  0.48469591  0.88736985  1
  Hf  Hf40  1  0.40720423  0.79547028  -0.00172745  1
  Hf  Hf41  1  0.29704364  0.69941683  0.29800734  1
  Hf  Hf42  1  0.80132148  0.00173325  -0.00230858  1
  Hf  Hf43  1  0.09841691  0.50814267  0.49807368  1
  Hf  Hf44  1  0.30926212  0.10064084  0.10769521  1
  Hf  Hf45  1  0.00366631  0.80409149  0.20133517  1
  Hf  Hf46  1  0.00308002  0.01131323  0.80553238  1
  Hf  Hf47  1  0.90214312  0.89900636  0.70744224  1
  Hf  Hf48  1  0.60025430  0.39453155  0.39371512  1
  Hf  Hf49  1  0.28978020  0.89550837  0.30672182  1
  Zr  Zr50  1  0.88667214  0.49147128  0.09976556  1
  Zr  Zr51  1  0.79446042  0.79341024  0.80259226  1
  Zr  Zr52  1  0.60077404  -0.00657417  0.20638184  1
  Zr  Zr53  1  0.48736583  0.29292596  0.10308050  1
  Zr  Zr54  1  0.60408702  0.20660726  -0.00008586  1
  Zr  Zr55  1  0.70991217  0.50229191  0.28904142  1
  Zr  Zr56  1  0.69735623  0.30708690  0.50847408  1
  Zr  Zr57  1  0.59852012  0.20657613  0.79472180  1
  Zr  Zr58  1  0.49556380  0.10369152  0.49808291  1
  Zr  Zr59  1  0.78593022  0.60590472  -0.01657515  1
  Zr  Zr60  1  0.29657899  0.50575283  0.49798437  1
  Zr  Zr61  1  0.40539812  0.79159503  0.59751414  1
  Zr  Zr62  1  0.60862959  0.20615230  0.20513965  1
  Zr  Zr63  1  0.00777656  0.00809579  0.00196816  1
  Zr  Zr64  1  0.50155473  0.90495042  0.70133664  1
  Zr  Zr65  1  0.79427019  0.18926677  0.79467744  1
  Zr  Zr66  1  0.11274447  0.29921127  0.89528148  1
  Zr  Zr67  1  0.10430086  0.29726534  0.10176465  1
  Zr  Zr68  1  0.20301024  0.19868139  0.20760382  1
  Zr  Zr69  1  0.00311261  0.20718782  0.59778839  1
  Zr  Zr70  1  0.29196735  0.90232177  0.49895947  1
  Zr  Zr71  1  0.88680551  0.69914750  0.10693568  1
  Zr  Zr72  1  0.59490816  0.40086141  0.19321785  1
  Zr  Zr73  1  0.09823460  0.91330360  0.30181680  1
  Zr  Zr74  1  0.20438983  0.79917429  0.00044681  1
  Zr  Zr75  1  0.29989994  0.89726272  0.89777627  1
  Zr  Zr76  1  0.10153393  0.89724868  0.89144430  1
  Zr  Zr77  1  0.80164582  0.40290556  0.40249526  1
  Zr  Zr78  1  0.80185228  0.59646561  0.60128393  1
  Zr  Zr79  1  0.28490320  0.08529805  0.31292542  1
  Zr  Zr80  1  0.49896573  0.49644055  0.89449311  1
  Zr  Zr81  1  0.40157031  -0.00978001  0.20710947  1
  Zr  Zr82  1  0.00063096  0.19232523  0.00216877  1
  Zr  Zr83  1  0.00955644  0.80170175  0.00869722  1
  Zr  Zr84  1  0.19481145  0.40401659  0.60441201  1
  Zr  Zr85  1  0.89248030  0.30551525  0.90184951  1
  Zr  Zr86  1  0.30561896  0.69523448  0.10083057  1
  Zr  Zr87  1  0.11293578  0.70069148  0.30993786  1
  Zr  Zr88  1  0.70689732  0.70441574  0.29481569  1
  Zr  Zr89  1  0.41382988  0.80196175  0.40292665  1
  Zr  Zr90  1  0.00426076  0.59494087  0.20331536  1
  Zr  Zr91  1  0.59806545  0.60074077  0.39946187  1
  Zr  Zr92  1  0.50754101  0.71027020  0.28387390  1
  Zr  Zr93  1  0.89784673  0.30876580  0.69994839  1
  Zr  Zr94  1  0.79339284  -0.00412571  0.40348966  1
  Zr  Zr95  1  0.60217896  0.79476908  -0.00884209  1
  Zr  Zr96  1  0.91062721  0.70344746  0.89150203  1
  Zr  Zr97  1  0.28042348  0.69920089  0.49016602  1
  Zr  Zr98  1  0.50051617  0.50378211  0.70258365  1
  Zr  Zr99  1  0.00162209  0.40126888  0.20022678  1
  Ta  Ta100  1  0.78783613  0.41651908  0.79091812  1
  Ta  Ta101  1  0.70014446  0.70571476  0.10790426  1
  Ta  Ta102  1  0.28737976  0.10436422  0.50733586  1
  Ta  Ta103  1  0.70004212  0.09899894  0.09679409  1
  Ta  Ta104  1  0.39894322  0.38651868  0.79962661  1
  Ta  Ta105  1  0.20611911  0.19115033  0.00200264  1
  Ta  Ta106  1  0.00292401  0.40258494  0.39976037  1
  Ta  Ta107  1  0.69989403  0.10241902  0.30303784  1
  Ta  Ta108  1  0.18761838  0.79907644  0.60469179  1
  Ta  Ta109  1  0.90694571  0.50260348  0.50299628  1
  Ta  Ta110  1  0.60585923  0.00645218  0.59977543  1
  Ta  Ta111  1  0.19088871  0.60020805  0.61491238  1
  Ta  Ta112  1  0.79029577  0.19322144  0.60018663  1
  Ta  Ta113  1  0.00083480  0.80189295  0.60018955  1
  Ta  Ta114  1  0.89878232  0.90160869  0.89537105  1
  Ta  Ta115  1  0.69747096  0.09498425  0.90130433  1
  Ta  Ta116  1  0.60250194  0.00523506  0.79872829  1
  Ta  Ta117  1  -0.00207600  0.39418162  0.00247299  1
  Ta  Ta118  1  0.50692818  0.89220059  0.10134993  1
  Ta  Ta119  1  0.50483091  0.49327530  0.50166454  1
  Ta  Ta120  1  0.40420949  -0.00733075  0.00289600  1
  Ta  Ta121  1  0.20250011  0.00062085  0.01128168  1
  Ta  Ta122  1  0.59974924  0.19914793  0.60227354  1
  Ta  Ta123  1  0.29496834  0.69533369  0.70330534  1
  Ta  Ta124  1  0.49852262  0.29945670  0.50200490  1
  Ta  Ta125  1  0.30368363  0.49651770  0.89169055  1
  Ta  Ta126  1  0.40029895  0.39699550  0.40097130  1
  Ta  Ta127  1  0.08956343  0.09652938  0.30100966  1
  Ta  Ta128  1  0.59751958  0.79748648  0.79762350  1
  Ta  Ta129  1  0.69981775  0.90466337  0.89341061  1
  Ta  Ta130  1  0.60836448  0.60388075  0.80037079  1
  Ta  Ta131  1  0.19447055  0.39644725  0.39457142  1
  Ta  Ta132  1  0.59620243  0.59821920  0.18592141  1
  Ta  Ta133  1  0.60416011  0.80708565  0.40513723  1
  Ta  Ta134  1  0.50154649  0.10018047  0.90292048  1
  Ta  Ta135  1  0.70283138  0.49945557  0.09442274  1
  Ta  Ta136  1  0.79303227  0.59472392  0.79327515  1
  Ta  Ta137  1  0.48858826  0.29823029  0.29860747  1
  Ta  Ta138  1  0.09896106  0.29960621  0.30009061  1
  Ta  Ta139  1  0.69461692  0.50310994  0.50848124  1
  Ta  Ta140  1  0.72010931  0.31237623  0.09553189  1
  Ta  Ta141  1  0.69755640  0.90341042  0.70274380  1
  Ta  Ta142  1  0.19924908  0.58518071  0.19719341  1
  Ta  Ta143  1  0.10875913  0.48784039  0.09597058  1
  Ta  Ta144  1  0.39907548  0.20061332  0.60869166  1
  Ta  Ta145  1  0.60175467  0.20314431  0.39940253  1
  Ta  Ta146  1  0.49935507  0.10711850  0.70379698  1
  Ta  Ta147  1  0.60033667  0.80110498  0.59477012  1
  Ta  Ta148  1  0.70479217  0.70427082  0.49276954  1
  Ta  Ta149  1  0.90917846  0.69764111  0.69796781  1
  Ti  Ti150  1  0.40340150  0.80587927  0.19285339  1
  Ti  Ti151  1  0.80596620  0.19373503  0.00157112  1
  Ti  Ti152  1  0.59939588  0.40469254  0.00128389  1
  Ti  Ti153  1  0.49641306  0.29834995  0.89628848  1
  Ti  Ti154  1  0.40280205  0.59377926  0.00199053  1
  Ti  Ti155  1  0.10122407  0.89703938  0.70557069  1
  Ti  Ti156  1  0.40638639  -0.00395050  0.39879523  1
  Ti  Ti157  1  0.89872346  0.30842781  0.50675854  1
  Ti  Ti158  1  0.89641802  0.09591532  0.69961806  1
  Ti  Ti159  1  0.79486062  0.80141648  -0.00598940  1
  Ti  Ti160  1  0.30152373  0.50234663  0.70898498  1
  Ti  Ti161  1  0.10548974  0.69012762  0.10241231  1
  Ti  Ti162  1  0.30427137  0.68510021  0.88928577  1
  Ti  Ti163  1  0.50534714  0.90743870  0.89726793  1
  Ti  Ti164  1  -0.00164620  0.59299238  0.39181511  1
  Ti  Ti165  1  0.60203514  0.40175717  0.79325910  1
  Ti  Ti166  1  0.89326678  0.50357446  0.29700569  1
  Ti  Ti167  1  0.19001797  0.20687955  0.40187479  1
  Ti  Ti168  1  0.20401188  0.01172627  0.80838251  1
  Ti  Ti169  1  0.09277956  0.69976319  0.70128215  1
  Ti  Ti170  1  0.49569221  0.68831513  0.88896968  1
  Ti  Ti171  1  0.49779334  0.10553171  0.29796541  1
  Ti  Ti172  1  0.90278155  0.90717358  0.49836922  1
  Ti  Ti173  1  0.00316149  0.59131748  0.78798605  1
  Ti  Ti174  1  0.21331316  0.39205788  -0.00045030  1
  Ti  Ti175  1  -0.00360892  0.19384967  0.19899589  1
  Ti  Ti176  1  0.70491896  0.88640215  0.29981758  1
  Ti  Ti177  1  0.19840529  0.59286867  0.79247577  1
  Ti  Ti178  1  0.30724028  0.29704607  0.11142260  1
  Ti  Ti179  1  0.39012259  0.20102989  -0.01676496  1
  Ti  Ti180  1  0.60159820  -0.00319045  -0.00004708  1
  Ti  Ti181  1  0.20021483  0.79090396  0.79480558  1
  Ti  Ti182  1  0.79728062  0.40971335  0.60463273  1
  Ti  Ti183  1  0.50392149  0.90338131  0.50422356  1
  Ti  Ti184  1  0.90271566  0.09757417  0.10543323  1
  Ti  Ti185  1  0.90024078  0.90593920  0.30391238  1
  Ti  Ti186  1  0.59596677  0.60687538  0.59730647  1
  Ti  Ti187  1  0.49644605  0.49201919  0.29650894  1
  Ti  Ti188  1  0.59589943  0.39865376  0.60777856  1
  Ti  Ti189  1  0.90271652  0.69474428  0.49834714  1
  Ti  Ti190  1  0.19559073  0.00287718  0.60300234  1
  Ti  Ti191  1  0.00515066  0.40463913  0.59799870  1
  Ti  Ti192  1  0.22973272  0.18480158  0.82433419  1
  Ti  Ti193  1  0.20618895  0.39783364  0.20174446  1
  Ti  Ti194  1  0.17952457  -0.00272687  0.42019535  1
  Ti  Ti195  1  0.91010044  0.49910031  0.69572253  1
  Ti  Ti196  1  0.70022796  0.89340099  0.10182196  1
  Ti  Ti197  1  0.80110606  0.59645830  0.40706515  1
  Ti  Ti198  1  0.70049144  0.30552523  0.69649336  1
  Ti  Ti199  1  0.10060330  0.10818063  0.49970347  1
  Mo  Mo200  1  0.69243789  0.09776782  0.69929784  1
  Mo  Mo201  1  0.88514843  0.09379911  0.89792070  1
  Mo  Mo202  1  0.10410196  0.09961649  0.10896930  1
  Mo  Mo203  1  0.19468713  0.58835371  0.38792031  1
  Mo  Mo204  1  -0.00811254  0.01000481  0.20516162  1
  Mo  Mo205  1  0.69423572  0.49847709  0.89395258  1
  Mo  Mo206  1  0.18961257  0.00250909  0.18721048  1
  Mo  Mo207  1  0.29566327  0.30473061  0.30404747  1
  Mo  Mo208  1  0.09400446  0.50163988  0.70086062  1
  Mo  Mo209  1  0.50759575  0.69952794  0.69892922  1
  Mo  Mo210  1  0.69472263  0.10504908  0.49990236  1
  Mo  Mo211  1  0.79749082  -0.00134369  0.80185495  1
  Mo  Mo212  1  0.80372373  0.80298495  0.40536448  1
  Mo  Mo213  1  0.39736379  0.19864559  0.21512931  1
  Mo  Mo214  1  0.50251592  0.70023933  0.09617849  1
  Mo  Mo215  1  0.79932807  0.80927871  0.20307259  1
  Mo  Mo216  1  0.79376197  0.59959181  0.19592999  1
  Mo  Mo217  1  0.19811869  0.20175488  0.58972347  1
  Mo  Mo218  1  0.50041246  0.30004939  0.69811791  1
  Mo  Mo219  1  0.09662244  0.89991086  0.50919452  1
  Mo  Mo220  1  0.50304794  0.89637881  0.30094487  1
  Mo  Mo221  1  0.51596132  0.69743381  0.50104766  1
  Mo  Mo222  1  0.11870670  0.09984809  0.90300636  1
  Mo  Mo223  1  0.39732870  0.60034409  0.79837519  1
  Mo  Mo224  1  0.89877046  0.29561533  0.09616740  1
  Mo  Mo225  1  -0.01220765  0.40254240  0.79652363  1
  Mo  Mo226  1  0.79746939  0.40478736  -0.00609091  1
  Mo  Mo227  1  0.00397790  0.80142980  0.78967850  1
  Mo  Mo228  1  0.29932325  0.10242796  0.69440694  1
  Mo  Mo229  1  0.29695806  0.49065091  0.09820480  1
  Mo  Mo230  1  0.21602122  0.40622786  0.79959051  1
  Mo  Mo231  1  0.31016491  0.90368341  0.09958042  1
  Mo  Mo232  1  0.90240426  0.09995063  0.29904064  1
  Mo  Mo233  1  0.09622971  0.91353596  0.10358517  1
  Mo  Mo234  1  0.39478474  0.39482434  0.20514054  1
  Mo  Mo235  1  -0.00322871  0.00707986  0.40274818  1
  Mo  Mo236  1  -0.00186076  0.60353760  0.60405375  1
  Mo  Mo237  1  0.69104152  0.50140766  0.69508556  1
  Mo  Mo238  1  0.69583076  0.89755253  0.50444424  1
  Mo  Mo239  1  0.10449335  0.49358651  0.29920268  1
  Mo  Mo240  1  0.30505164  0.30077316  0.90333574  1
  Mo  Mo241  1  0.09689542  0.30773368  0.49295797  1
  Mo  Mo242  1  0.69587168  0.70336605  0.89369615  1
  Mo  Mo243  1  0.60340581  0.80292686  0.19519253  1
  Mo  Mo244  1  0.50438357  0.49711736  0.09502231  1
  Mo  Mo245  1  0.30790174  0.09228294  0.91677373  1
  Mo  Mo246  1  0.69802167  0.29698976  0.29550312  1
  Mo  Mo247  1  0.40544939  0.20056226  0.80566539  1
  Mo  Mo248  1  0.79949798  0.39881244  0.19694380  1
  Mo  Mo249  1  0.19199165  0.80957252  0.41175728  1
