# generated using pymatgen
data_HfZrTaTiMo
_symmetry_space_group_name_H-M   'P 1'
_cell_length_a   16.89354438
_cell_length_b   16.89196418
_cell_length_c   16.89795855
_cell_angle_alpha   90.02126010
_cell_angle_beta   89.97227352
_cell_angle_gamma   90.02779504
_symmetry_Int_Tables_number   1
_chemical_formula_structural   HfZrTaTiMo
_chemical_formula_sum   'Hf50 Zr50 Ta50 Ti50 Mo50'
_cell_volume   4822.08695252
_cell_formula_units_Z   50
loop_
 _symmetry_equiv_pos_site_id
 _symmetry_equiv_pos_as_xyz
  1  'x, y, z'
loop_
 _atom_site_type_symbol
 _atom_site_label
 _atom_site_symmetry_multiplicity
 _atom_site_fract_x
 _atom_site_fract_y
 _atom_site_fract_z
 _atom_site_occupancy
  Hf  Hf0  1  0.30554865  0.30537125  0.29610311  1
  Hf  Hf1  1  0.90765609  0.10230451  0.90108119  1
  Hf  Hf2  1  0.49590047  0.69562025  0.49377700  1
  Hf  Hf3  1  0.49360213  0.50252685  0.88790736  1
  Hf  Hf4  1  0.00034120  -0.00179066  0.19763402  1
  Hf  Hf5  1  0.70198597  0.69226002  0.29486102  1
  Hf  Hf6  1  0.70068115  0.29727520  0.10188978  1
  Hf  Hf7  1  0.60159911  0.20635910  0.39799393  1
  Hf  Hf8  1  0.10722138  0.50544228  0.31033154  1
  Hf  Hf9  1  0.91370509  0.69839985  0.08896602  1
  Hf  Hf10  1  0.69767834  0.90261526  0.70308753  1
  Hf  Hf11  1  0.00355672  0.79654771  0.81178694  1
  Hf  Hf12  1  0.39397253  0.80181101  0.59533626  1
  Hf  Hf13  1  0.70390014  0.89836974  0.28839424  1
  Hf  Hf14  1  -0.00100654  0.18960480  0.61388625  1
  Hf  Hf15  1  0.81094006  0.80109286  0.39939559  1
  Hf  Hf16  1  0.70222255  0.50003027  0.29863297  1
  Hf  Hf17  1  0.79601196  0.20567221  0.39719307  1
  Hf  Hf18  1  0.59170130  0.80053377  0.60353771  1
  Hf  Hf19  1  -0.00092014  0.39902611  0.19769368  1
  Hf  Hf20  1  0.90141603  0.50045265  0.50099819  1
  Hf  Hf21  1  0.30027374  0.30235017  0.49494230  1
  Hf  Hf22  1  0.60440862  0.19193596  0.81175643  1
  Hf  Hf23  1  0.48826490  0.29139215  0.10566622  1
  Hf  Hf24  1  0.11145566  0.69484244  0.29922053  1
  Hf  Hf25  1  0.59120600  0.40940047  0.19158000  1
  Hf  Hf26  1  0.39584313  0.79378726  0.38717992  1
  Hf  Hf27  1  0.10179797  0.30733144  0.50009647  1
  Hf  Hf28  1  0.10393148  0.89740029  0.69458826  1
  Hf  Hf29  1  0.70595969  0.70846661  0.70129180  1
  Hf  Hf30  1  0.80890021  0.81452373  0.82395247  1
  Hf  Hf31  1  0.58381438  0.80856810  0.80923708  1
  Hf  Hf32  1  0.29519477  0.10017517  0.71264140  1
  Hf  Hf33  1  0.29727399  0.89856712  0.90395241  1
  Hf  Hf34  1  0.29768397  0.50575041  0.89706076  1
  Hf  Hf35  1  0.50503830  0.49838996  0.69917890  1
  Hf  Hf36  1  0.10132112  0.50446564  0.70237824  1
  Hf  Hf37  1  0.80084981  0.40372182  -0.00031182  1
  Hf  Hf38  1  0.70171146  0.50232942  0.89549759  1
  Hf  Hf39  1  0.30148289  0.09872446  0.29831084  1
  Hf  Hf40  1  0.10916139  0.89578083  0.30857547  1
  Hf  Hf41  1  0.00112747  0.80248501  0.20568562  1
  Hf  Hf42  1  0.90548099  0.89414186  0.08420553  1
  Hf  Hf43  1  0.69565276  0.10045317  0.69268842  1
  Hf  Hf44  1  0.10960105  0.11078780  0.89750128  1
  Hf  Hf45  1  0.90468530  0.09985047  0.09134861  1
  Hf  Hf46  1  0.59710107  0.61214573  0.79866738  1
  Hf  Hf47  1  0.10159083  0.50877084  0.09172899  1
  Hf  Hf48  1  0.11054951  0.88801192  0.09039917  1
  Hf  Hf49  1  -0.00615047  0.20067746  0.39505189  1
  Zr  Zr50  1  0.30200927  0.29871976  0.10140588  1
  Zr  Zr51  1  0.49469878  0.50485747  0.30372087  1
  Zr  Zr52  1  0.50421366  0.28655749  0.69142003  1
  Zr  Zr53  1  0.20083255  0.00016065  0.19539128  1
  Zr  Zr54  1  0.49517224  0.09883126  0.70254831  1
  Zr  Zr55  1  0.69836568  0.08812567  0.09822255  1
  Zr  Zr56  1  0.00607165  0.20698813  0.79285322  1
  Zr  Zr57  1  0.58699880  0.60261130  0.01077016  1
  Zr  Zr58  1  0.59628435  0.79997669  0.39520271  1
  Zr  Zr59  1  0.70103275  0.10739230  0.50644467  1
  Zr  Zr60  1  0.10138854  0.30262428  0.09270980  1
  Zr  Zr61  1  0.19124238  0.60296669  0.81486693  1
  Zr  Zr62  1  0.60963664  0.38869843  0.79422404  1
  Zr  Zr63  1  0.29533858  0.50623803  0.10615459  1
  Zr  Zr64  1  0.39739163  0.61306088  0.00376685  1
  Zr  Zr65  1  0.38781354  0.38117947  0.79623966  1
  Zr  Zr66  1  0.49503834  0.90582061  0.09916688  1
  Zr  Zr67  1  0.80570684  0.20165949  0.19891293  1
  Zr  Zr68  1  0.70366111  0.90306567  0.50285781  1
  Zr  Zr69  1  0.90212656  0.09274435  0.50126337  1
  Zr  Zr70  1  0.90104834  0.50285854  0.70826138  1
  Zr  Zr71  1  0.10126420  0.69787697  0.69551661  1
  Zr  Zr72  1  0.58282101  0.79107826  0.19903032  1
  Zr  Zr73  1  0.10338678  0.30580505  0.30309578  1
  Zr  Zr74  1  0.80545866  0.60866140  0.80589564  1
  Zr  Zr75  1  0.59554418  0.40175450  0.00207486  1
  Zr  Zr76  1  0.49193986  0.30448018  0.30005160  1
  Zr  Zr77  1  0.59418197  0.00081500  0.39642097  1
  Zr  Zr78  1  0.70351882  0.09334494  0.29294346  1
  Zr  Zr79  1  0.40351432  0.59714295  0.59581485  1
  Zr  Zr80  1  0.29811719  0.89702023  0.70840094  1
  Zr  Zr81  1  0.29525139  0.50519657  0.70206937  1
  Zr  Zr82  1  0.09933168  0.09484714  0.30299161  1
  Zr  Zr83  1  0.00121813  0.39172295  0.61473643  1
  Zr  Zr84  1  0.40078479  0.40222074  0.00131530  1
  Zr  Zr85  1  0.79234151  -0.01495777  -0.01584950  1
  Zr  Zr86  1  0.70253590  0.70534028  0.10092133  1
  Zr  Zr87  1  0.80178323  0.00421205  0.80276931  1
  Zr  Zr88  1  0.80426077  0.20604136  0.79376609  1
  Zr  Zr89  1  0.60210261  0.59655450  0.40517669  1
  Zr  Zr90  1  0.70036099  0.71237302  0.91361882  1
  Zr  Zr91  1  0.29758507  0.69950794  0.70276351  1
  Zr  Zr92  1  0.88969620  0.29925793  0.51011391  1
  Zr  Zr93  1  0.89775543  0.49732631  0.30584364  1
  Zr  Zr94  1  0.90877538  0.68835588  0.30792179  1
  Zr  Zr95  1  0.91003907  0.90056600  0.69664434  1
  Zr  Zr96  1  0.19893923  0.19162180  0.40385331  1
  Zr  Zr97  1  0.39778508  0.39809160  0.59802613  1
  Zr  Zr98  1  0.39353546  -0.00112873  0.59600941  1
  Zr  Zr99  1  0.19622839  0.19304401  0.60468367  1
  Ta  Ta100  1  0.28873183  0.50359951  0.49131249  1
  Ta  Ta101  1  0.59074711  -0.00208101  0.59891690  1
  Ta  Ta102  1  0.90587509  0.30779353  0.90374721  1
  Ta  Ta103  1  0.10292750  0.10801441  0.09157786  1
  Ta  Ta104  1  0.10898676  0.69695327  0.10193619  1
  Ta  Ta105  1  0.90321578  0.30165277  0.09198079  1
  Ta  Ta106  1  0.19702220  0.79545081  0.81427736  1
  Ta  Ta107  1  0.19787844  0.79810015  0.58423220  1
  Ta  Ta108  1  0.49572965  0.10386083  0.49881427  1
  Ta  Ta109  1  0.80992605  0.00121114  0.60434584  1
  Ta  Ta110  1  0.49406830  0.10110642  0.10083500  1
  Ta  Ta111  1  0.70462209  0.70139615  0.50443152  1
  Ta  Ta112  1  0.80669891  0.59758920  0.19106045  1
  Ta  Ta113  1  0.19824635  0.20041768  0.19518001  1
  Ta  Ta114  1  0.79649081  0.19914946  -0.00837973  1
  Ta  Ta115  1  0.90988865  0.90139331  0.50131349  1
  Ta  Ta116  1  0.90625112  0.70185666  0.70143347  1
  Ta  Ta117  1  0.09723726  0.69465458  0.92021461  1
  Ta  Ta118  1  0.91345241  0.50296024  0.90366650  1
  Ta  Ta119  1  0.30001808  0.89548918  0.09817663  1
  Ta  Ta120  1  0.49655497  0.29171969  0.90416926  1
  Ta  Ta121  1  0.39727237  -0.00324873  0.39681859  1
  Ta  Ta122  1  0.39982096  0.61337427  0.20464708  1
  Ta  Ta123  1  0.20295131  0.40728163  0.20508413  1
  Ta  Ta124  1  0.29209083  0.68992170  0.49192037  1
  Ta  Ta125  1  0.30168307  0.10342973  0.09718901  1
  Ta  Ta126  1  0.20486806  0.39959127  0.60486595  1
  Ta  Ta127  1  0.00332805  0.79354339  0.58695585  1
  Ta  Ta128  1  0.69509002  0.31168064  0.29746796  1
  Ta  Ta129  1  0.80853265  0.59975965  -0.00083614  1
  Ta  Ta130  1  0.70209929  0.50139465  0.69485917  1
  Ta  Ta131  1  0.90656413  0.49994380  0.09397542  1
  Ta  Ta132  1  0.59628334  0.19743287  0.19969437  1
  Ta  Ta133  1  0.39952921  0.79786771  -0.00187832  1
  Ta  Ta134  1  0.49406307  0.90269262  0.49631124  1
  Ta  Ta135  1  0.39757892  0.00552146  -0.00297412  1
  Ta  Ta136  1  0.81077821  0.79874169  0.59646924  1
  Ta  Ta137  1  0.19513067  0.40071570  -0.01591799  1
  Ta  Ta138  1  -0.00212706  0.60616825  0.59340447  1
  Ta  Ta139  1  0.60485876  0.60111695  0.60079332  1
  Ta  Ta140  1  0.10447696  0.50171748  0.49998593  1
  Ta  Ta141  1  0.00805733  0.00583338  0.79505894  1
  Ta  Ta142  1  0.59873697  0.19136116  -0.00121206  1
  Ta  Ta143  1  0.81155695  0.80061805  0.19825663  1
  Ta  Ta144  1  -0.00089902  0.20099355  0.19712855  1
  Ta  Ta145  1  0.49305719  0.10018912  0.29388918  1
  Ta  Ta146  1  0.19643290  -0.00145981  0.59586318  1
  Ta  Ta147  1  0.80170308  0.60508500  0.59959112  1
  Ta  Ta148  1  0.01054410  0.39933017  0.80998674  1
  Ta  Ta149  1  0.50183910  0.30007411  0.49666735  1
  Ti  Ti150  1  0.70275133  0.28944274  0.67826101  1
  Ti  Ti151  1  0.78692528  0.39433511  0.40806655  1
  Ti  Ti152  1  0.59612248  -0.00067303  0.81469440  1
  Ti  Ti153  1  0.10054154  0.90299343  0.49567640  1
  Ti  Ti154  1  0.39587402  -0.00095298  0.19804821  1
  Ti  Ti155  1  0.00328137  0.20997925  -0.00424983  1
  Ti  Ti156  1  0.50142748  0.49459446  0.49607644  1
  Ti  Ti157  1  0.39330819  0.41084197  0.39974187  1
  Ti  Ti158  1  0.40162527  0.19454737  0.40085614  1
  Ti  Ti159  1  0.70140789  0.50952020  0.10248982  1
  Ti  Ti160  1  0.81161703  -0.01271623  0.19737898  1
  Ti  Ti161  1  0.39737097  0.19081655  -0.01091730  1
  Ti  Ti162  1  -0.00259202  0.39939259  0.40240111  1
  Ti  Ti163  1  0.19467312  0.00156750  0.80375481  1
  Ti  Ti164  1  0.29419251  0.89703025  0.29490736  1
  Ti  Ti165  1  0.01153089  -0.00086479  -0.00745512  1
  Ti  Ti166  1  0.59535342  -0.00052201  0.19712903  1
  Ti  Ti167  1  0.39014405  0.19850686  0.81308878  1
  Ti  Ti168  1  0.79557196  0.39855377  0.60746336  1
  Ti  Ti169  1  0.89910455  0.09511815  0.29593946  1
  Ti  Ti170  1  0.00192744  0.59652351  0.19932251  1
  Ti  Ti171  1  0.48795986  0.70153141  0.70598666  1
  Ti  Ti172  1  0.11953043  0.30321013  0.71187776  1
  Ti  Ti173  1  0.10534473  0.89755176  0.90606915  1
  Ti  Ti174  1  0.20656883  0.79517367  0.39983384  1
  Ti  Ti175  1  -0.00623536  -0.00866320  0.39387672  1
  Ti  Ti176  1  0.58212125  0.80239473  -0.00325657  1
  Ti  Ti177  1  0.29361590  0.90074348  0.49123018  1
  Ti  Ti178  1  0.20655020  0.00790358  -0.00174345  1
  Ti  Ti179  1  0.80190929  0.40472256  0.19289714  1
  Ti  Ti180  1  0.80141121  0.60310035  0.41078759  1
  Ti  Ti181  1  0.09406225  0.08271983  0.49992217  1
  Ti  Ti182  1  0.48960570  0.90343515  0.70505960  1
  Ti  Ti183  1  0.40666749  0.00264055  0.81779577  1
  Ti  Ti184  1  0.39358806  0.20004999  0.59668530  1
  Ti  Ti185  1  0.60655906  0.39743121  0.58929839  1
  Ti  Ti186  1  0.70226786  0.49935437  0.50594817  1
  Ti  Ti187  1  0.89391587  0.30742570  0.29695031  1
  Ti  Ti188  1  0.21108063  0.20634900  -0.00994224  1
  Ti  Ti189  1  0.10449763  0.68814582  0.49084270  1
  Ti  Ti190  1  0.29964186  0.09275726  0.49528890  1
  Ti  Ti191  1  0.49223797  0.90466853  0.29665595  1
  Ti  Ti192  1  0.70058388  0.89008541  0.09229741  1
  Ti  Ti193  1  0.59104837  0.00271656  -0.01384259  1
  Ti  Ti194  1  0.28606662  0.70659589  0.10386733  1
  Ti  Ti195  1  0.80781668  -0.00665116  0.39600418  1
  Ti  Ti196  1  0.80379013  0.39449504  0.79630614  1
  Ti  Ti197  1  0.39357955  0.79267452  0.19978377  1
  Ti  Ti198  1  -0.00044867  0.79564280  0.40611464  1
  Ti  Ti199  1  0.70174883  0.29934806  0.90519080  1
  Mo  Mo200  1  0.49323964  0.69744435  0.29770745  1
  Mo  Mo201  1  0.00550118  0.59665990  0.41077552  1
  Mo  Mo202  1  0.19968402  0.60240772  0.00458293  1
  Mo  Mo203  1  0.40124357  0.61423650  0.80263647  1
  Mo  Mo204  1  0.00910870  0.79955909  -0.00273082  1
  Mo  Mo205  1  0.89177781  0.30582748  0.70755433  1
  Mo  Mo206  1  0.49479826  0.10091944  0.90551730  1
  Mo  Mo207  1  0.00745459  -0.00510729  0.59771292  1
  Mo  Mo208  1  0.00237486  0.59830826  -0.00168337  1
  Mo  Mo209  1  0.29514931  0.70594382  0.90427640  1
  Mo  Mo210  1  0.39374070  0.59690990  0.39711281  1
  Mo  Mo211  1  -0.00139675  0.60256014  0.80622755  1
  Mo  Mo212  1  0.49008113  0.70585734  0.10175752  1
  Mo  Mo213  1  0.19690926  0.39662912  0.80349344  1
  Mo  Mo214  1  0.49012345  0.90472615  0.90290794  1
  Mo  Mo215  1  0.90421861  0.09642965  0.69895951  1
  Mo  Mo216  1  0.09738797  0.49930586  0.90205967  1
  Mo  Mo217  1  0.20838906  0.79883952  0.20105071  1
  Mo  Mo218  1  0.20316619  0.59923861  0.39729687  1
  Mo  Mo219  1  0.59569946  0.59860066  0.19702518  1
  Mo  Mo220  1  0.92725178  0.90509150  0.90292892  1
  Mo  Mo221  1  0.39661480  0.79981925  0.80603392  1
  Mo  Mo222  1  0.20501043  0.60304211  0.20284096  1
  Mo  Mo223  1  0.19412818  0.59996240  0.58993691  1
  Mo  Mo224  1  0.29689414  0.69799958  0.29730008  1
  Mo  Mo225  1  0.29762088  0.09726737  0.90309897  1
  Mo  Mo226  1  0.39764411  0.18716566  0.20004560  1
  Mo  Mo227  1  0.20556894  0.79524843  0.00031506  1
  Mo  Mo228  1  0.29511671  0.29066516  0.70120642  1
  Mo  Mo229  1  0.59465755  0.19838056  0.59216738  1
  Mo  Mo230  1  0.48834693  0.70553465  0.89706435  1
  Mo  Mo231  1  0.80747774  0.79907530  0.00060923  1
  Mo  Mo232  1  0.80157671  0.19927030  0.60384532  1
  Mo  Mo233  1  0.20589059  -0.00729331  0.40915775  1
  Mo  Mo234  1  0.90840624  0.69677506  0.90437641  1
  Mo  Mo235  1  0.67902212  0.90268719  0.90669193  1
  Mo  Mo236  1  0.90299020  0.90048034  0.30469067  1
  Mo  Mo237  1  0.49254011  0.50976140  0.11260096  1
  Mo  Mo238  1  0.90223617  0.69977766  0.50381979  1
  Mo  Mo239  1  0.60414315  0.40035134  0.40972557  1
  Mo  Mo240  1  0.39489930  0.41709762  0.20155551  1
  Mo  Mo241  1  0.10634364  0.08945437  0.70318506  1
  Mo  Mo242  1  0.69454888  0.09965174  0.90274877  1
  Mo  Mo243  1  0.20814653  0.20716350  0.80385998  1
  Mo  Mo244  1  0.29879540  0.29468685  0.90029917  1
  Mo  Mo245  1  0.69572045  0.30812118  0.50161311  1
  Mo  Mo246  1  0.00094048  0.40134911  -0.00364350  1
  Mo  Mo247  1  0.10470055  0.30152226  0.89870050  1
  Mo  Mo248  1  0.30042914  0.50497885  0.30148187  1
  Mo  Mo249  1  0.20491576  0.40300622  0.40215211  1
