# generated using pymatgen
data_HfZrTaTiMo
_symmetry_space_group_name_H-M   'P 1'
_cell_length_a   16.88781888
_cell_length_b   16.89483422
_cell_length_c   16.89187178
_cell_angle_alpha   90.03993484
_cell_angle_beta   89.97295268
_cell_angle_gamma   90.01745584
_symmetry_Int_Tables_number   1
_chemical_formula_structural   HfZrTaTiMo
_chemical_formula_sum   'Hf50 Zr50 Ta50 Ti50 Mo50'
_cell_volume   4819.53456530
_cell_formula_units_Z   50
loop_
 _symmetry_equiv_pos_site_id
 _symmetry_equiv_pos_as_xyz
  1  'x, y, z'
loop_
 _atom_site_type_symbol
 _atom_site_label
 _atom_site_symmetry_multiplicity
 _atom_site_fract_x
 _atom_site_fract_y
 _atom_site_fract_z
 _atom_site_occupancy
  Hf  Hf0  1  0.29301923  0.48631441  0.10009577  1
  Hf  Hf1  1  0.29529640  0.30150442  0.10113851  1
  Hf  Hf2  1  -0.00575023  0.79721528  0.40762310  1
  Hf  Hf3  1  0.29305987  0.30245479  0.90207098  1
  Hf  Hf4  1  0.70815594  0.29626169  0.88999139  1
  Hf  Hf5  1  0.39938125  0.00425064  0.19896919  1
  Hf  Hf6  1  0.60396706  0.60635578  -0.01266753  1
  Hf  Hf7  1  0.19316836  0.39399421  0.39618388  1
  Hf  Hf8  1  0.49561500  0.71170686  0.09689379  1
  Hf  Hf9  1  0.10765234  0.69749291  0.89768845  1
  Hf  Hf10  1  0.40140133  -0.00140171  0.39371211  1
  Hf  Hf11  1  0.90316060  0.09988294  0.10723941  1
  Hf  Hf12  1  0.09804018  0.08988075  0.68755292  1
  Hf  Hf13  1  0.90116513  0.50481617  0.51164877  1
  Hf  Hf14  1  0.40932245  0.39411206  0.39087499  1
  Hf  Hf15  1  0.78889971  0.79290581  -0.00944453  1
  Hf  Hf16  1  0.69428571  0.09696248  0.69760629  1
  Hf  Hf17  1  0.60889761  0.39063412  0.60707617  1
  Hf  Hf18  1  0.49243437  0.29761694  0.50797334  1
  Hf  Hf19  1  0.88843960  0.71256052  0.29755082  1
  Hf  Hf20  1  0.49917640  0.89768887  0.09547229  1
  Hf  Hf21  1  0.29648343  0.10173982  0.50034086  1
  Hf  Hf22  1  0.89701919  0.49540641  0.10622938  1
  Hf  Hf23  1  0.39970879  -0.00417189  0.61188670  1
  Hf  Hf24  1  0.70656442  0.89121306  0.29918305  1
  Hf  Hf25  1  0.40429765  0.59855711  0.80387395  1
  Hf  Hf26  1  0.70199635  0.50543408  0.30352992  1
  Hf  Hf27  1  0.40820108  0.19439609  0.38688447  1
  Hf  Hf28  1  0.20185325  0.60660368  0.19341608  1
  Hf  Hf29  1  0.70057234  0.89852900  0.70192028  1
  Hf  Hf30  1  0.80123680  0.59838134  0.80139195  1
  Hf  Hf31  1  0.50188423  0.09875144  0.51141949  1
  Hf  Hf32  1  0.79892076  0.20465975  0.59789536  1
  Hf  Hf33  1  0.50317816  0.50140263  0.09935313  1
  Hf  Hf34  1  0.60060652  0.19548439  0.00339060  1
  Hf  Hf35  1  0.79673629  0.60045737  -0.00530374  1
  Hf  Hf36  1  0.00571180  0.20668612  -0.00214677  1
  Hf  Hf37  1  0.70855113  0.49840611  0.50000160  1
  Hf  Hf38  1  0.59896828  0.79583334  0.59507784  1
  Hf  Hf39  1  0.09860157  0.30639599  0.10929165  1
  Hf  Hf40  1  0.09646416  0.70295778  0.09595006  1
  Hf  Hf41  1  0.19216015  0.20524861  0.79581434  1
  Hf  Hf42  1  0.09735097  0.70372698  0.29791353  1
  Hf  Hf43  1  0.10015675  0.89678460  0.10174010  1
  Hf  Hf44  1  0.00720503  0.80511537  0.79819841  1
  Hf  Hf45  1  0.79913966  0.00717576  0.40453741  1
  Hf  Hf46  1  0.29996936  0.70735820  0.89009225  1
  Hf  Hf47  1  0.40577392  0.60398901  0.59956245  1
  Hf  Hf48  1  0.90631196  0.31408901  0.49552973  1
  Hf  Hf49  1  0.49853043  0.70468377  0.70729017  1
  Zr  Zr50  1  0.00692627  -0.00414382  -0.00824251  1
  Zr  Zr51  1  0.39907969  0.00120880  0.80297382  1
  Zr  Zr52  1  0.89485574  0.89906953  0.10058095  1
  Zr  Zr53  1  0.10539263  0.69194568  0.70651479  1
  Zr  Zr54  1  0.10184666  0.90686668  0.50672307  1
  Zr  Zr55  1  0.70262443  0.09989888  0.89999192  1
  Zr  Zr56  1  0.39923786  0.59947897  -0.00609677  1
  Zr  Zr57  1  0.20267462  0.80145060  0.39992690  1
  Zr  Zr58  1  0.39064972  0.18473350  0.00299447  1
  Zr  Zr59  1  -0.00270401  0.20198783  0.59928420  1
  Zr  Zr60  1  0.59216904  0.19956515  0.78882374  1
  Zr  Zr61  1  0.09222249  0.50240777  0.30264933  1
  Zr  Zr62  1  -0.01481772  0.39584294  0.22413199  1
  Zr  Zr63  1  0.20145900  0.59464724  0.60530769  1
  Zr  Zr64  1  0.89686112  0.90212737  0.29750602  1
  Zr  Zr65  1  0.49288188  0.29512730  0.10259273  1
  Zr  Zr66  1  0.09289675  0.30372484  0.49628836  1
  Zr  Zr67  1  0.29799943  0.29763311  0.28850837  1
  Zr  Zr68  1  0.40243266  0.80144534  0.39885465  1
  Zr  Zr69  1  0.30877975  0.30313346  0.69429220  1
  Zr  Zr70  1  0.49642527  0.29374691  0.89951754  1
  Zr  Zr71  1  0.70293242  0.30229642  0.10300794  1
  Zr  Zr72  1  0.50766674  0.49523700  0.49905026  1
  Zr  Zr73  1  0.21061660  -0.01133844  0.61126157  1
  Zr  Zr74  1  0.29940334  0.49624475  0.29499185  1
  Zr  Zr75  1  0.80136855  0.19845397  0.40519622  1
  Zr  Zr76  1  0.89055512  0.10541091  0.89703099  1
  Zr  Zr77  1  0.79678278  0.01079198  0.58839626  1
  Zr  Zr78  1  0.69729460  0.70702789  0.30372523  1
  Zr  Zr79  1  -0.00257509  0.59506083  -0.00237319  1
  Zr  Zr80  1  0.30862653  0.48736883  0.50417721  1
  Zr  Zr81  1  0.69976461  0.49813200  0.10554642  1
  Zr  Zr82  1  0.00405427  0.20766123  0.79406806  1
  Zr  Zr83  1  0.19741640  -0.01438414  0.80237747  1
  Zr  Zr84  1  0.88509767  0.89822511  0.89572277  1
  Zr  Zr85  1  0.89881050  0.90414452  0.69491813  1
  Zr  Zr86  1  0.39081661  0.61587689  0.19991571  1
  Zr  Zr87  1  0.60043789  0.38804375  0.21334358  1
  Zr  Zr88  1  0.60110642  0.00231316  0.40098007  1
  Zr  Zr89  1  0.40832045  0.40589727  0.80515278  1
  Zr  Zr90  1  0.70408655  0.69877262  0.70362192  1
  Zr  Zr91  1  0.20604143  0.60384931  0.40081227  1
  Zr  Zr92  1  0.00635964  -0.00320738  0.80063293  1
  Zr  Zr93  1  0.09969500  0.49991108  0.88700569  1
  Zr  Zr94  1  0.50793073  0.51263770  0.30165629  1
  Zr  Zr95  1  0.29643489  0.70910026  0.51165362  1
  Zr  Zr96  1  0.10002307  0.90674349  0.29842180  1
  Zr  Zr97  1  0.20849404  0.00052228  0.19571585  1
  Zr  Zr98  1  0.20618153  0.00275751  0.00134576  1
  Zr  Zr99  1  0.89279470  0.30048667  0.89156014  1
  Ta  Ta100  1  0.60160707  0.00228407  0.20162034  1
  Ta  Ta101  1  0.30011116  0.49857134  0.70348602  1
  Ta  Ta102  1  0.50211518  0.90214196  0.50759761  1
  Ta  Ta103  1  0.19418501  0.19900738  0.39761265  1
  Ta  Ta104  1  0.19429145  0.39769136  0.60394485  1
  Ta  Ta105  1  0.80641929  0.79401200  0.59521122  1
  Ta  Ta106  1  0.90037410  0.90101442  0.50145591  1
  Ta  Ta107  1  0.81632641  0.40271135  0.37656319  1
  Ta  Ta108  1  0.40313343  0.61366979  0.40039691  1
  Ta  Ta109  1  0.08742233  0.49874310  0.50377886  1
  Ta  Ta110  1  0.69576409  0.90302173  0.89635090  1
  Ta  Ta111  1  0.50431955  0.89697122  0.70219594  1
  Ta  Ta112  1  0.70588033  0.69739969  0.50183342  1
  Ta  Ta113  1  0.70093637  0.10180190  0.29879284  1
  Ta  Ta114  1  0.59156831  -0.00323551  0.80119845  1
  Ta  Ta115  1  -0.00469961  0.80037380  0.19594595  1
  Ta  Ta116  1  0.39392788  -0.00181705  0.00383454  1
  Ta  Ta117  1  0.89632424  0.70359012  0.09948813  1
  Ta  Ta118  1  0.60253231  0.60049356  0.60016796  1
  Ta  Ta119  1  0.09121240  0.69283877  0.50832977  1
  Ta  Ta120  1  0.89756474  0.49026378  0.89198627  1
  Ta  Ta121  1  -0.00128651  0.00635708  0.40448779  1
  Ta  Ta122  1  0.40353395  0.40768802  -0.00623410  1
  Ta  Ta123  1  0.19545338  0.19750917  0.20261483  1
  Ta  Ta124  1  0.59862595  0.40349186  -0.01236279  1
  Ta  Ta125  1  0.50552191  0.49855556  0.69749062  1
  Ta  Ta126  1  0.89613708  0.30322734  0.10715212  1
  Ta  Ta127  1  0.09684356  0.09906890  0.30225160  1
  Ta  Ta128  1  0.79910465  0.20449533  0.20864990  1
  Ta  Ta129  1  0.30596656  0.89003729  0.90527745  1
  Ta  Ta130  1  -0.00022216  0.79824646  0.60228605  1
  Ta  Ta131  1  0.60390843  0.40020830  0.79490514  1
  Ta  Ta132  1  0.80062087  0.60395977  0.20106769  1
  Ta  Ta133  1  0.69941072  0.09909252  0.10575408  1
  Ta  Ta134  1  0.60635909  0.20145584  0.59640975  1
  Ta  Ta135  1  0.59622246  0.19478228  0.21141180  1
  Ta  Ta136  1  0.30371747  0.29478451  0.50397197  1
  Ta  Ta137  1  0.20467171  0.59921898  0.00160927  1
  Ta  Ta138  1  -0.00214260  0.39665739  -0.00518372  1
  Ta  Ta139  1  0.80656992  0.60591967  0.40437261  1
  Ta  Ta140  1  0.90588820  0.09898360  0.29804185  1
  Ta  Ta141  1  0.80095142  0.40129324  -0.00206449  1
  Ta  Ta142  1  0.19675579  0.20534757  0.59854358  1
  Ta  Ta143  1  0.79434645  0.00360659  0.20023067  1
  Ta  Ta144  1  0.60352218  0.20342551  0.39824391  1
  Ta  Ta145  1  0.50209957  0.71050421  0.29715743  1
  Ta  Ta146  1  0.70432665  0.50039188  0.69955374  1
  Ta  Ta147  1  0.09485599  0.10089622  0.10948159  1
  Ta  Ta148  1  0.60034596  0.79885489  0.81068337  1
  Ta  Ta149  1  0.90050647  0.69267882  0.69367418  1
  Ti  Ti150  1  0.29920554  0.89739390  0.29807006  1
  Ti  Ti151  1  0.19636598  0.80126779  0.61482551  1
  Ti  Ti152  1  0.30046863  0.90236406  0.49866712  1
  Ti  Ti153  1  0.80702420  0.39819839  0.61748440  1
  Ti  Ti154  1  -0.00330898  0.39512827  0.78737534  1
  Ti  Ti155  1  0.90042916  0.09848466  0.69752350  1
  Ti  Ti156  1  0.59744107  0.00109219  -0.00094249  1
  Ti  Ti157  1  -0.00804672  0.59445632  0.79384895  1
  Ti  Ti158  1  0.09375753  0.49838614  0.69580104  1
  Ti  Ti159  1  0.59850118  0.59695739  0.80626203  1
  Ti  Ti160  1  0.30224324  0.11086362  0.69665682  1
  Ti  Ti161  1  -0.00903068  0.60374863  0.40246289  1
  Ti  Ti162  1  0.90057809  0.70191307  0.89272819  1
  Ti  Ti163  1  0.29233560  0.10053166  0.30104874  1
  Ti  Ti164  1  0.49216403  0.29690662  0.69281064  1
  Ti  Ti165  1  0.59570931  0.79883007  0.40786707  1
  Ti  Ti166  1  0.21772220  0.79485595  0.19463136  1
  Ti  Ti167  1  -0.00776721  0.60468534  0.20039103  1
  Ti  Ti168  1  0.19033802  0.39619418  0.79190350  1
  Ti  Ti169  1  0.19358407  0.19780436  0.00334574  1
  Ti  Ti170  1  0.49532119  0.89309315  0.90269999  1
  Ti  Ti171  1  0.10275002  0.09607442  0.49681478  1
  Ti  Ti172  1  0.18701816  0.40048618  -0.00636738  1
  Ti  Ti173  1  0.20810920  0.80040514  0.00425140  1
  Ti  Ti174  1  0.49875484  0.09439631  0.90115262  1
  Ti  Ti175  1  0.29471498  0.10138058  0.89590515  1
  Ti  Ti176  1  0.60536413  0.38529125  0.39428989  1
  Ti  Ti177  1  0.80168388  0.20137357  0.01152655  1
  Ti  Ti178  1  0.30963424  0.87078417  0.71741080  1
  Ti  Ti179  1  0.70121576  0.70587985  0.10436607  1
  Ti  Ti180  1  0.40888172  0.39764746  0.20264425  1
  Ti  Ti181  1  0.40282436  0.19124838  0.79589823  1
  Ti  Ti182  1  0.10313522  0.10351744  0.90031493  1
  Ti  Ti183  1  0.70282647  0.49103633  0.89255108  1
  Ti  Ti184  1  0.70008120  0.89654510  0.50123904  1
  Ti  Ti185  1  0.40311699  0.80027185  0.60106701  1
  Ti  Ti186  1  0.59515659  0.61407456  0.41086491  1
  Ti  Ti187  1  0.60212697  0.80443379  0.19702426  1
  Ti  Ti188  1  0.79311767  0.00150630  0.00443880  1
  Ti  Ti189  1  0.60185492  0.61023800  0.19751452  1
  Ti  Ti190  1  0.09752884  0.49535003  0.10445744  1
  Ti  Ti191  1  0.00026758  0.20321878  0.21055855  1
  Ti  Ti192  1  0.50393958  0.89565074  0.29542425  1
  Ti  Ti193  1  0.70809552  0.30815978  0.49580361  1
  Ti  Ti194  1  0.79663444  0.00419209  0.79720801  1
  Ti  Ti195  1  0.28883838  0.49826605  0.89522017  1
  Ti  Ti196  1  0.69543694  0.90286976  0.09647367  1
  Ti  Ti197  1  0.60241781  0.79655560  -0.00934919  1
  Ti  Ti198  1  -0.00191281  0.80185752  -0.00678344  1
  Ti  Ti199  1  0.50050670  0.09849000  0.10500893  1
  Mo  Mo200  1  0.30729308  0.89418595  0.09696467  1
  Mo  Mo201  1  0.30390053  0.70795633  0.29545765  1
  Mo  Mo202  1  0.89668351  0.52281601  0.30287890  1
  Mo  Mo203  1  0.68913975  0.10714294  0.49884389  1
  Mo  Mo204  1  0.00165534  0.40594873  0.61064812  1
  Mo  Mo205  1  0.29570114  0.10617112  0.10515541  1
  Mo  Mo206  1  0.39618539  0.80840104  0.20093920  1
  Mo  Mo207  1  0.51268774  0.49938595  0.89510979  1
  Mo  Mo208  1  0.10005964  0.30839724  0.69642731  1
  Mo  Mo209  1  0.50110901  0.28996567  0.30006602  1
  Mo  Mo210  1  0.41190416  0.79979989  0.80566555  1
  Mo  Mo211  1  0.11428922  0.88443900  0.90509456  1
  Mo  Mo212  1  0.59748744  -0.00612512  0.60316377  1
  Mo  Mo213  1  0.90183296  0.28473177  0.30327698  1
  Mo  Mo214  1  0.70449082  0.29704529  0.30526404  1
  Mo  Mo215  1  0.69962933  0.70371713  0.89454665  1
  Mo  Mo216  1  0.09560803  0.28984501  0.30344844  1
  Mo  Mo217  1  0.80186845  0.39892876  0.20557553  1
  Mo  Mo218  1  0.18754402  0.39802716  0.19923477  1
  Mo  Mo219  1  -0.00135325  0.00240397  0.20491938  1
  Mo  Mo220  1  0.10123604  0.30698377  0.90040054  1
  Mo  Mo221  1  -0.00165559  0.60099259  0.60488086  1
  Mo  Mo222  1  0.50706868  0.09624557  0.29598375  1
  Mo  Mo223  1  0.29687041  0.70816046  0.09091507  1
  Mo  Mo224  1  0.79474346  0.80165446  0.18134988  1
  Mo  Mo225  1  0.70463786  0.30135114  0.70039680  1
  Mo  Mo226  1  0.20833061  0.59137713  0.79968500  1
  Mo  Mo227  1  0.39880613  0.80377500  -0.00099398  1
  Mo  Mo228  1  0.80238157  0.20515665  0.77651832  1
  Mo  Mo229  1  0.40209544  0.40178071  0.60453951  1
  Mo  Mo230  1  0.30325685  0.70139188  0.70331375  1
  Mo  Mo231  1  0.79899229  0.59909120  0.60137404  1
  Mo  Mo232  1  0.91351555  0.09871928  0.49828950  1
  Mo  Mo233  1  0.89965702  0.69994099  0.50512789  1
  Mo  Mo234  1  0.79751116  0.80264363  0.41906641  1
  Mo  Mo235  1  0.50530673  0.70430104  0.49916924  1
  Mo  Mo236  1  0.90117367  0.49925146  0.70273404  1
  Mo  Mo237  1  -0.00268222  0.00099069  0.59241284  1
  Mo  Mo238  1  0.39783390  0.19556645  0.60356210  1
  Mo  Mo239  1  0.09943738  0.89151203  0.69782792  1
  Mo  Mo240  1  0.79893441  0.79549933  0.79674438  1
  Mo  Mo241  1  0.20293303  0.79957146  0.80111868  1
  Mo  Mo242  1  -0.00522729  0.40847388  0.40244676  1
  Mo  Mo243  1  0.89857382  0.30697924  0.69847172  1
  Mo  Mo244  1  0.20283738  0.00689142  0.39685163  1
  Mo  Mo245  1  0.50390235  0.70505150  0.90016755  1
  Mo  Mo246  1  0.50165740  0.09688682  0.69824125  1
  Mo  Mo247  1  0.39668321  0.18746996  0.19927231  1
  Mo  Mo248  1  0.00302013  0.19370424  0.39744667  1
  Mo  Mo249  1  0.79799135  0.40431739  0.79479159  1
