# generated using pymatgen
data_HfZrTaTiMo
_symmetry_space_group_name_H-M   'P 1'
_cell_length_a   16.88752399
_cell_length_b   16.89797737
_cell_length_c   16.88690343
_cell_angle_alpha   90.00153869
_cell_angle_beta   89.99616591
_cell_angle_gamma   89.95947394
_symmetry_Int_Tables_number   1
_chemical_formula_structural   HfZrTaTiMo
_chemical_formula_sum   'Hf50 Zr50 Ta50 Ti50 Mo50'
_cell_volume   4818.92994898
_cell_formula_units_Z   50
loop_
 _symmetry_equiv_pos_site_id
 _symmetry_equiv_pos_as_xyz
  1  'x, y, z'
loop_
 _atom_site_type_symbol
 _atom_site_label
 _atom_site_symmetry_multiplicity
 _atom_site_fract_x
 _atom_site_fract_y
 _atom_site_fract_z
 _atom_site_occupancy
  Hf  Hf0  1  0.60607878  0.18539959  0.79404273  1
  Hf  Hf1  1  0.09434408  0.10277484  0.10099124  1
  Hf  Hf2  1  0.49701022  0.49741901  0.29369219  1
  Hf  Hf3  1  0.19805445  0.41253008  0.01315243  1
  Hf  Hf4  1  0.18904745  0.59022458  0.17767246  1
  Hf  Hf5  1  0.40366702  0.79711645  -0.00053546  1
  Hf  Hf6  1  0.10001126  0.89901302  0.09267638  1
  Hf  Hf7  1  0.60817625  0.60043099  0.80698224  1
  Hf  Hf8  1  0.09284818  0.09644660  0.89155612  1
  Hf  Hf9  1  0.69093227  0.49696488  0.10145776  1
  Hf  Hf10  1  0.00463754  0.80023296  0.38508977  1
  Hf  Hf11  1  0.30424829  0.29995258  0.30018698  1
  Hf  Hf12  1  0.50329843  0.91060640  0.50626413  1
  Hf  Hf13  1  0.70284039  0.29976804  0.90564280  1
  Hf  Hf14  1  0.89662956  0.49034429  0.30873906  1
  Hf  Hf15  1  0.40030965  0.39622892  0.60197190  1
  Hf  Hf16  1  0.89036622  0.69497932  0.69849060  1
  Hf  Hf17  1  0.80184772  0.59607311  0.40732851  1
  Hf  Hf18  1  0.49927666  0.90721291  0.29166674  1
  Hf  Hf19  1  0.69439064  0.90417984  0.09836452  1
  Hf  Hf20  1  0.21136324  0.80719048  0.59281735  1
  Hf  Hf21  1  0.10173781  0.70546717  0.69931063  1
  Hf  Hf22  1  0.20995150  0.78622938  0.00000237  1
  Hf  Hf23  1  0.59182501  0.79674232  0.19480814  1
  Hf  Hf24  1  0.40618906  0.39575627  0.79640767  1
  Hf  Hf25  1  0.39876050  0.60250776  0.80728252  1
  Hf  Hf26  1  0.29697460  0.49919122  0.70282095  1
  Hf  Hf27  1  0.09530884  0.29615886  0.10645826  1
  Hf  Hf28  1  0.30190539  0.09836231  0.10151822  1
  Hf  Hf29  1  0.89443022  0.89639314  0.90912337  1
  Hf  Hf30  1  0.10128367  0.89902210  0.89886239  1
  Hf  Hf31  1  0.69978430  0.09909134  0.29416863  1
  Hf  Hf32  1  0.50789751  0.29726667  0.89584335  1
  Hf  Hf33  1  0.70747087  0.30309630  0.71087982  1
  Hf  Hf34  1  0.80264283  0.00249077  0.19345588  1
  Hf  Hf35  1  0.39501124  0.00737665  0.40029351  1
  Hf  Hf36  1  0.49638559  0.29990229  0.29801502  1
  Hf  Hf37  1  0.10114682  0.70316384  0.90205112  1
  Hf  Hf38  1  0.79351299  0.01068017  -0.00201894  1
  Hf  Hf39  1  0.39369217  0.60380608  0.59916309  1
  Hf  Hf40  1  0.29951997  0.90439159  0.10456721  1
  Hf  Hf41  1  0.81001138  0.39666576  0.59672985  1
  Hf  Hf42  1  0.90752907  0.29697421  0.49187446  1
  Hf  Hf43  1  0.30121023  0.10621629  0.70679084  1
  Hf  Hf44  1  0.10246282  0.90899663  0.70906001  1
  Hf  Hf45  1  0.70489964  0.09960011  0.49619915  1
  Hf  Hf46  1  0.19161376  0.40349452  0.79746909  1
  Hf  Hf47  1  0.79523568  0.59240366  -0.00406925  1
  Hf  Hf48  1  -0.00942417  0.80437234  0.79626814  1
  Hf  Hf49  1  0.39169231  0.60009675  0.40262083  1
  Zr  Zr50  1  0.00857498  0.20081894  0.60046505  1
  Zr  Zr51  1  0.40977460  0.20910849  0.61043881  1
  Zr  Zr52  1  0.90119950  0.48923783  0.90049272  1
  Zr  Zr53  1  0.20069508  0.19324281  0.21064182  1
  Zr  Zr54  1  0.69470769  0.69641711  0.10034762  1
  Zr  Zr55  1  -0.00914801  0.58597178  0.59282330  1
  Zr  Zr56  1  0.89358963  0.71051722  0.49930651  1
  Zr  Zr57  1  0.59389798  0.39183625  0.61339785  1
  Zr  Zr58  1  0.80424335  0.39148061  0.19941100  1
  Zr  Zr59  1  0.89006659  0.49148523  0.70989046  1
  Zr  Zr60  1  0.89068374  0.70271743  0.29977123  1
  Zr  Zr61  1  0.70325377  0.90414316  0.49304816  1
  Zr  Zr62  1  0.19265717  0.78438689  0.19546473  1
  Zr  Zr63  1  0.30569965  0.68786396  0.28341146  1
  Zr  Zr64  1  0.09836146  0.48731171  0.49499187  1
  Zr  Zr65  1  0.40348936  0.80940038  0.80424331  1
  Zr  Zr66  1  0.60524282  0.81042355  0.61277683  1
  Zr  Zr67  1  0.89459750  0.71042885  0.08953626  1
  Zr  Zr68  1  -0.00133441  0.00416351  0.59103462  1
  Zr  Zr69  1  0.39222630  0.81183123  0.60262933  1
  Zr  Zr70  1  0.69634074  0.29490275  0.49445523  1
  Zr  Zr71  1  0.10512780  0.90847729  0.48636523  1
  Zr  Zr72  1  0.09062950  0.30192861  0.90726000  1
  Zr  Zr73  1  0.90972155  0.09623501  0.71112516  1
  Zr  Zr74  1  0.19395690  0.59467351  0.60162555  1
  Zr  Zr75  1  0.30843334  0.30651147  0.10880123  1
  Zr  Zr76  1  0.61411523  0.59431756  0.60379664  1
  Zr  Zr77  1  0.58862439  0.80568055  -0.00548449  1
  Zr  Zr78  1  0.00822168  0.59182381  0.79682420  1
  Zr  Zr79  1  0.50614651  0.49448606  0.49191441  1
  Zr  Zr80  1  -0.00829345  -0.00033205  0.20118629  1
  Zr  Zr81  1  0.00277683  0.60202718  0.20309302  1
  Zr  Zr82  1  0.01353743  0.59572587  0.01077257  1
  Zr  Zr83  1  0.50823018  0.69990595  0.50348833  1
  Zr  Zr84  1  0.79230540  0.80388458  0.79804373  1
  Zr  Zr85  1  0.50255083  0.10686315  0.50162718  1
  Zr  Zr86  1  -0.00979600  0.00166207  0.00478525  1
  Zr  Zr87  1  0.20868977  0.00375587  0.59513975  1
  Zr  Zr88  1  0.39112926  0.79990178  0.40670962  1
  Zr  Zr89  1  0.59573037  0.79844127  0.39394730  1
  Zr  Zr90  1  0.80683906  -0.00024451  0.60169140  1
  Zr  Zr91  1  0.20452388  0.19688162  -0.00483524  1
  Zr  Zr92  1  0.50495247  0.70172536  0.70496681  1
  Zr  Zr93  1  0.30358813  0.30043366  0.89718212  1
  Zr  Zr94  1  0.11060064  0.91515724  0.29191604  1
  Zr  Zr95  1  0.69106048  0.49754009  0.29670149  1
  Zr  Zr96  1  0.69908087  0.48373482  0.48590843  1
  Zr  Zr97  1  0.50572963  0.09779830  0.10112969  1
  Zr  Zr98  1  0.20691355  0.79075790  0.39811594  1
  Zr  Zr99  1  -0.00911764  0.81494393  0.59755128  1
  Ta  Ta100  1  0.29175706  0.70642690  0.71030192  1
  Ta  Ta101  1  0.40054507  -0.00151734  -0.00778000  1
  Ta  Ta102  1  0.29920731  0.90682796  0.29146820  1
  Ta  Ta103  1  -0.00258132  0.20840354  0.79830882  1
  Ta  Ta104  1  -0.00330429  0.80352685  0.19483262  1
  Ta  Ta105  1  -0.00035972  0.39678857  0.20251867  1
  Ta  Ta106  1  0.70148869  0.30004463  0.30015058  1
  Ta  Ta107  1  0.80652558  0.19731293  0.60348977  1
  Ta  Ta108  1  0.70846132  0.70907808  0.49854879  1
  Ta  Ta109  1  0.29856169  0.49110205  0.29029238  1
  Ta  Ta110  1  0.50305273  0.49704182  0.90633643  1
  Ta  Ta111  1  0.09809425  0.30131539  0.30654126  1
  Ta  Ta112  1  0.00670188  0.39132873  0.61012724  1
  Ta  Ta113  1  0.09805088  0.69917520  0.49596991  1
  Ta  Ta114  1  0.80768297  0.20028329  0.39477232  1
  Ta  Ta115  1  -0.00962926  0.01196932  0.39942081  1
  Ta  Ta116  1  0.59262410  0.38870272  0.18976574  1
  Ta  Ta117  1  0.40746690  0.20003583  -0.00181859  1
  Ta  Ta118  1  0.49575813  0.09881587  0.89467510  1
  Ta  Ta119  1  0.79345487  0.01081246  0.80750585  1
  Ta  Ta120  1  0.39812567  0.00728071  0.20351954  1
  Ta  Ta121  1  0.80410852  0.19768244  0.80481900  1
  Ta  Ta122  1  0.89611111  0.70191329  0.90476437  1
  Ta  Ta123  1  0.50305495  0.29752670  0.49006155  1
  Ta  Ta124  1  0.59883263  0.00586404  -0.00956239  1
  Ta  Ta125  1  0.20621524  0.00296070  -0.00514841  1
  Ta  Ta126  1  0.89678609  0.10713760  0.29964545  1
  Ta  Ta127  1  0.69988703  0.90395871  0.29793614  1
  Ta  Ta128  1  0.20276253  0.39483966  0.39969429  1
  Ta  Ta129  1  0.60162311  0.01349178  0.61730252  1
  Ta  Ta130  1  0.00415345  0.59791260  0.39839456  1
  Ta  Ta131  1  0.30468563  0.50429146  0.91141892  1
  Ta  Ta132  1  0.10477862  0.49061830  0.29759875  1
  Ta  Ta133  1  0.79827370  0.80791976  0.19785025  1
  Ta  Ta134  1  0.19671769  0.59720800  0.39523453  1
  Ta  Ta135  1  0.29829901  0.90119751  0.89720682  1
  Ta  Ta136  1  0.89472294  0.11985172  0.10138008  1
  Ta  Ta137  1  0.39477882  0.39741729  0.40279840  1
  Ta  Ta138  1  0.89945565  0.29238108  0.09501114  1
  Ta  Ta139  1  0.29427033  0.49216621  0.49746152  1
  Ta  Ta140  1  0.70369402  0.29176380  0.09759027  1
  Ta  Ta141  1  0.70069516  0.70683196  0.90566972  1
  Ta  Ta142  1  0.50096329  0.10521504  0.29824914  1
  Ta  Ta143  1  0.70031849  0.70133816  0.29723322  1
  Ta  Ta144  1  0.69614044  0.91348289  0.71120950  1
  Ta  Ta145  1  0.20298779  0.60076242  0.80897441  1
  Ta  Ta146  1  0.30206014  0.11414731  0.50056809  1
  Ta  Ta147  1  0.19553002  0.38630582  0.60268662  1
  Ta  Ta148  1  0.60237699  0.20370934  0.19735141  1
  Ta  Ta149  1  0.41022932  0.40018325  0.00610347  1
  Ti  Ti150  1  0.89023249  0.90349582  0.30275700  1
  Ti  Ti151  1  0.48991424  0.09333205  0.71136888  1
  Ti  Ti152  1  0.70472983  0.70086048  0.69894768  1
  Ti  Ti153  1  0.80084251  0.81440633  0.60734773  1
  Ti  Ti154  1  0.79648049  0.58950396  0.59408672  1
  Ti  Ti155  1  0.59281658  0.39519921  0.00757909  1
  Ti  Ti156  1  0.31626457  0.67871975  0.09089774  1
  Ti  Ti157  1  0.20453144  0.19915172  0.39892013  1
  Ti  Ti158  1  0.29560758  0.29249798  0.70272065  1
  Ti  Ti159  1  0.10533033  0.10872868  0.49097214  1
  Ti  Ti160  1  0.59483089  0.59862075  0.00066541  1
  Ti  Ti161  1  -0.00795425  0.20762830  0.21382964  1
  Ti  Ti162  1  0.49958331  0.68670405  0.28587208  1
  Ti  Ti163  1  0.80199031  0.39776045  0.00388966  1
  Ti  Ti164  1  0.60159941  0.19539794  -0.00084465  1
  Ti  Ti165  1  0.59841276  0.00446973  0.39479869  1
  Ti  Ti166  1  0.00127970  0.39035469  0.79001527  1
  Ti  Ti167  1  -0.00252083  0.40014804  0.00989730  1
  Ti  Ti168  1  0.30943783  0.10200728  0.89213998  1
  Ti  Ti169  1  0.29965525  0.29488660  0.49983541  1
  Ti  Ti170  1  0.49619606  0.50761020  0.10402447  1
  Ti  Ti171  1  0.39574267  -0.00327561  0.60803891  1
  Ti  Ti172  1  0.88861718  0.90434665  0.47928883  1
  Ti  Ti173  1  0.10596649  0.29260771  0.49579841  1
  Ti  Ti174  1  0.60323358  0.19707196  0.60993135  1
  Ti  Ti175  1  -0.00034194  0.39484029  0.39771682  1
  Ti  Ti176  1  0.40584507  0.19798758  0.19903613  1
  Ti  Ti177  1  0.19143334  0.20557955  0.79631192  1
  Ti  Ti178  1  0.79779058  0.59849084  0.19881779  1
  Ti  Ti179  1  0.10441525  0.10063754  0.70471232  1
  Ti  Ti180  1  0.09595987  0.10467925  0.30497080  1
  Ti  Ti181  1  0.79398345  0.59869129  0.80890143  1
  Ti  Ti182  1  0.70427715  0.49089622  0.71374368  1
  Ti  Ti183  1  0.50109308  0.69218133  0.90601547  1
  Ti  Ti184  1  0.21007351  -0.00013670  0.80162738  1
  Ti  Ti185  1  0.59495683  0.80943625  0.80451016  1
  Ti  Ti186  1  0.21114670  0.01443925  0.39143018  1
  Ti  Ti187  1  0.60058383  0.19953263  0.39295156  1
  Ti  Ti188  1  0.89672668  0.29853557  0.90405335  1
  Ti  Ti189  1  0.50510689  0.50050185  0.70842673  1
  Ti  Ti190  1  0.70013095  0.10876063  0.10044573  1
  Ti  Ti191  1  0.60349992  0.60747862  0.39597330  1
  Ti  Ti192  1  0.90314274  0.10961918  0.90504852  1
  Ti  Ti193  1  0.49755462  0.91184504  0.10143171  1
  Ti  Ti194  1  0.69503621  0.48607475  0.89900218  1
  Ti  Ti195  1  0.40389451  0.79561074  0.19198579  1
  Ti  Ti196  1  0.69432077  0.90418951  0.89922994  1
  Ti  Ti197  1  0.10328936  0.50054264  0.90488984  1
  Ti  Ti198  1  0.89984960  0.49605296  0.10325861  1
  Ti  Ti199  1  0.31326204  0.49909143  0.10340562  1
  Mo  Mo200  1  0.20183688  0.20192826  0.59552429  1
  Mo  Mo201  1  0.09281194  0.48597543  0.10356050  1
  Mo  Mo202  1  -0.00816646  0.20284291  -0.00490530  1
  Mo  Mo203  1  0.20472029  0.00634239  0.20055862  1
  Mo  Mo204  1  0.20741741  0.59521505  -0.00173225  1
  Mo  Mo205  1  0.80461477  0.00325793  0.39088854  1
  Mo  Mo206  1  0.09774608  0.68663016  0.29948445  1
  Mo  Mo207  1  0.28820146  0.68317665  0.50635233  1
  Mo  Mo208  1  0.40217932  0.40265314  0.19606992  1
  Mo  Mo209  1  0.40631747  0.59411615  -0.00041980  1
  Mo  Mo210  1  -0.00532573  0.00265075  0.80466210  1
  Mo  Mo211  1  0.80055145  0.39159526  0.80851894  1
  Mo  Mo212  1  0.69673999  0.10281680  0.90209873  1
  Mo  Mo213  1  0.80525681  0.39066016  0.39740270  1
  Mo  Mo214  1  0.79235980  0.80347195  -0.00210028  1
  Mo  Mo215  1  0.00743602  0.19640720  0.39672365  1
  Mo  Mo216  1  0.59408810  0.38757075  0.38724507  1
  Mo  Mo217  1  0.89844221  0.10515847  0.49112509  1
  Mo  Mo218  1  0.39888488  0.00177670  0.80194946  1
  Mo  Mo219  1  0.10184812  0.49041932  0.70116485  1
  Mo  Mo220  1  0.19744739  0.39927040  0.20563976  1
  Mo  Mo221  1  0.59520023  0.60160669  0.19929449  1
  Mo  Mo222  1  0.59842845  0.00062712  0.80247305  1
  Mo  Mo223  1  0.79721073  0.20143982  0.19937031  1
  Mo  Mo224  1  0.79370875  0.80493231  0.38878854  1
  Mo  Mo225  1  0.10282770  0.29424733  0.70198694  1
  Mo  Mo226  1  0.50319751  0.91667449  0.70707386  1
  Mo  Mo227  1  0.40087303  0.59289421  0.19416626  1
  Mo  Mo228  1  0.09059983  0.70798597  0.09598461  1
  Mo  Mo229  1  0.79935029  0.20055549  -0.00203692  1
  Mo  Mo230  1  0.39900454  0.20289847  0.40349858  1
  Mo  Mo231  1  0.60243871  0.40683158  0.80527977  1
  Mo  Mo232  1  0.49872905  0.91241729  0.89903659  1
  Mo  Mo233  1  0.90286220  0.29706779  0.30066590  1
  Mo  Mo234  1  0.89194008  0.90785204  0.71282095  1
  Mo  Mo235  1  -0.00296559  0.79753034  0.00014194  1
  Mo  Mo236  1  0.50789647  0.29570406  0.70488446  1
  Mo  Mo237  1  0.89310874  0.89596367  0.10173609  1
  Mo  Mo238  1  0.30147039  0.92037370  0.49059117  1
  Mo  Mo239  1  0.40355292  0.19941707  0.80322797  1
  Mo  Mo240  1  0.20473415  0.80022682  0.80132288  1
  Mo  Mo241  1  0.29868197  0.90575935  0.71104096  1
  Mo  Mo242  1  0.90203774  0.29502347  0.70335047  1
  Mo  Mo243  1  0.30581816  0.10480066  0.30160113  1
  Mo  Mo244  1  0.29972794  0.69566891  0.90053252  1
  Mo  Mo245  1  0.50513541  0.29462266  0.09573364  1
  Mo  Mo246  1  0.71012482  0.10354734  0.70074095  1
  Mo  Mo247  1  0.59800126  0.00534128  0.19616633  1
  Mo  Mo248  1  0.90510827  0.49043782  0.49825028  1
  Mo  Mo249  1  0.49487152  0.68759612  0.09920494  1
