# generated using pymatgen
data_HfZrTaTiMo
_symmetry_space_group_name_H-M   'P 1'
_cell_length_a   16.87928127
_cell_length_b   16.88637237
_cell_length_c   16.88655896
_cell_angle_alpha   90.06923145
_cell_angle_beta   90.02802065
_cell_angle_gamma   89.98018987
_symmetry_Int_Tables_number   1
_chemical_formula_structural   HfZrTaTiMo
_chemical_formula_sum   'Hf50 Zr50 Ta50 Ti50 Mo50'
_cell_volume   4813.16863377
_cell_formula_units_Z   50
loop_
 _symmetry_equiv_pos_site_id
 _symmetry_equiv_pos_as_xyz
  1  'x, y, z'
loop_
 _atom_site_type_symbol
 _atom_site_label
 _atom_site_symmetry_multiplicity
 _atom_site_fract_x
 _atom_site_fract_y
 _atom_site_fract_z
 _atom_site_occupancy
  Hf  Hf0  1  0.19981708  0.60198779  0.80366062  1
  Hf  Hf1  1  0.39549485  0.20881447  0.20593302  1
  Hf  Hf2  1  0.48922251  0.10669528  0.69773471  1
  Hf  Hf3  1  0.20100610  0.79633065  0.19436699  1
  Hf  Hf4  1  0.09862217  0.69630172  0.69436464  1
  Hf  Hf5  1  0.30534728  0.90110518  0.09677717  1
  Hf  Hf6  1  0.58778499  0.19102589  0.40190216  1
  Hf  Hf7  1  0.19376647  -0.00909573  -0.00068198  1
  Hf  Hf8  1  0.49636262  0.09445439  0.29244389  1
  Hf  Hf9  1  0.19604615  0.80589925  0.60109482  1
  Hf  Hf10  1  0.90386227  0.30155751  0.70787493  1
  Hf  Hf11  1  0.30770748  0.90741058  0.30037704  1
  Hf  Hf12  1  0.50723927  0.90059481  0.30021243  1
  Hf  Hf13  1  0.70044378  0.70049056  0.10209985  1
  Hf  Hf14  1  -0.00885110  -0.00439980  -0.00628033  1
  Hf  Hf15  1  0.20110013  0.60322993  0.19072966  1
  Hf  Hf16  1  0.29702811  0.09972309  0.49044549  1
  Hf  Hf17  1  0.59993406  0.61504031  0.41024487  1
  Hf  Hf18  1  0.09770365  0.49419972  0.09569990  1
  Hf  Hf19  1  0.59119634  0.00069930  0.58135211  1
  Hf  Hf20  1  0.69089875  0.50329344  0.09995437  1
  Hf  Hf21  1  0.69770460  0.89527920  0.08700815  1
  Hf  Hf22  1  0.71186371  0.10142719  0.49327600  1
  Hf  Hf23  1  0.59317532  0.20407649  0.59847979  1
  Hf  Hf24  1  0.41079099  0.79396634  0.40855802  1
  Hf  Hf25  1  0.50239732  0.49790410  0.49480212  1
  Hf  Hf26  1  0.58262853  0.39642797  0.79455656  1
  Hf  Hf27  1  0.50444412  0.69764018  0.29232975  1
  Hf  Hf28  1  0.40508212  0.79196218  0.80380954  1
  Hf  Hf29  1  0.40618207  0.40562024  0.60635286  1
  Hf  Hf30  1  0.00522756  0.60562475  -0.00273240  1
  Hf  Hf31  1  0.80200141  0.38732817  0.38649034  1
  Hf  Hf32  1  0.21009542  0.39645595  0.20409324  1
  Hf  Hf33  1  0.40106857  -0.00023175  0.59384610  1
  Hf  Hf34  1  0.10482848  0.10204812  0.29512100  1
  Hf  Hf35  1  0.30303260  0.89630917  0.69981761  1
  Hf  Hf36  1  0.69242912  0.10530626  0.09760499  1
  Hf  Hf37  1  0.07337345  0.32204425  0.90445176  1
  Hf  Hf38  1  0.00836978  0.40533431  0.59749524  1
  Hf  Hf39  1  0.20292513  0.21033528  0.81587436  1
  Hf  Hf40  1  0.90271290  0.49999854  0.30184169  1
  Hf  Hf41  1  0.40171711  0.00137985  0.80805778  1
  Hf  Hf42  1  0.60009622  0.79300742  0.59547505  1
  Hf  Hf43  1  0.79730738  0.39105624  0.00201587  1
  Hf  Hf44  1  0.89342551  0.70333490  0.09603462  1
  Hf  Hf45  1  0.70094671  0.29566381  0.49565681  1
  Hf  Hf46  1  0.79359176  0.61250205  0.40381507  1
  Hf  Hf47  1  0.09613187  0.10207354  0.10977841  1
  Hf  Hf48  1  0.00554370  0.59932661  0.80468379  1
  Hf  Hf49  1  0.39929741  0.39687362  0.00160674  1
  Zr  Zr50  1  0.89956602  0.09925442  0.10406413  1
  Zr  Zr51  1  -0.00013658  0.39085650  0.20757610  1
  Zr  Zr52  1  0.40574496  0.21796738  0.81419740  1
  Zr  Zr53  1  0.79439149  0.39496481  0.20083018  1
  Zr  Zr54  1  0.29923805  0.09288738  0.90872643  1
  Zr  Zr55  1  -0.00923841  0.79925446  0.60100453  1
  Zr  Zr56  1  0.79704476  0.20642783  0.21060480  1
  Zr  Zr57  1  0.09565402  0.09837824  0.69956873  1
  Zr  Zr58  1  0.19764533  0.20654326  0.58890691  1
  Zr  Zr59  1  0.90339177  0.09645022  0.49746314  1
  Zr  Zr60  1  0.09749814  0.30082534  0.69955831  1
  Zr  Zr61  1  0.70781055  0.70150797  0.70954227  1
  Zr  Zr62  1  0.00701038  0.79929128  0.19854070  1
  Zr  Zr63  1  0.09476319  0.09560701  0.90213643  1
  Zr  Zr64  1  0.29652449  0.09170968  0.30287928  1
  Zr  Zr65  1  0.10874701  0.50858343  0.50296213  1
  Zr  Zr66  1  0.69709242  0.09627300  0.90615066  1
  Zr  Zr67  1  0.89257663  0.70760519  0.29621155  1
  Zr  Zr68  1  0.80344298  0.59643097  -0.01227694  1
  Zr  Zr69  1  0.09845319  0.09600225  0.49086778  1
  Zr  Zr70  1  0.79373075  -0.00371168  0.19867040  1
  Zr  Zr71  1  0.19502414  0.41160123  0.80134184  1
  Zr  Zr72  1  0.90035758  0.50174634  0.50126271  1
  Zr  Zr73  1  0.79934761  0.39932909  0.60572505  1
  Zr  Zr74  1  0.69860122  0.49782959  0.49977199  1
  Zr  Zr75  1  -0.01256689  0.19201794  0.81032924  1
  Zr  Zr76  1  0.79865147  0.39753689  0.80635556  1
  Zr  Zr77  1  0.59917063  -0.00686705  0.79927444  1
  Zr  Zr78  1  0.59903077  0.39656620  0.20354942  1
  Zr  Zr79  1  0.20376510  0.39923740  -0.00057051  1
  Zr  Zr80  1  0.92411091  0.47362646  0.90376674  1
  Zr  Zr81  1  0.89930741  0.29264089  0.49631460  1
  Zr  Zr82  1  0.29419655  0.09182866  0.11343001  1
  Zr  Zr83  1  0.30392051  0.30438636  0.69964556  1
  Zr  Zr84  1  0.10332913  0.49834031  0.30976749  1
  Zr  Zr85  1  0.70419427  0.90273555  0.49366521  1
  Zr  Zr86  1  0.69805773  0.09624120  0.70186657  1
  Zr  Zr87  1  0.41339943  0.60244972  0.79654563  1
  Zr  Zr88  1  0.58991210  0.20410163  0.80916512  1
  Zr  Zr89  1  -0.00780629  0.61329242  0.40987465  1
  Zr  Zr90  1  0.29934293  0.69593250  0.50599052  1
  Zr  Zr91  1  0.39797895  0.20010781  0.00192383  1
  Zr  Zr92  1  0.89825776  0.90700734  0.49498415  1
  Zr  Zr93  1  0.50049123  0.89115629  0.69625342  1
  Zr  Zr94  1  0.50572971  0.69703167  0.10338551  1
  Zr  Zr95  1  0.29983029  0.90280710  0.49326743  1
  Zr  Zr96  1  0.59729167  0.60543233  -0.01450891  1
  Zr  Zr97  1  0.70079485  0.51065617  0.70738017  1
  Zr  Zr98  1  0.19251750  -0.01001438  0.79558224  1
  Zr  Zr99  1  0.10476300  0.69535750  0.30408735  1
  Ta  Ta100  1  0.69028925  0.50413486  0.30423138  1
  Ta  Ta101  1  0.90293559  0.90286235  0.29484544  1
  Ta  Ta102  1  0.09423342  0.89262158  0.09192235  1
  Ta  Ta103  1  0.60059488  -0.00172380  0.19499990  1
  Ta  Ta104  1  0.30400531  0.50527809  0.30213502  1
  Ta  Ta105  1  0.40273012  0.59899503  0.39946322  1
  Ta  Ta106  1  0.30801134  0.50186097  0.89643683  1
  Ta  Ta107  1  0.19545863  0.80281978  0.39598013  1
  Ta  Ta108  1  0.58551498  0.20186856  -0.00094643  1
  Ta  Ta109  1  0.50404923  0.30106092  0.10584203  1
  Ta  Ta110  1  0.39912262  0.60283407  -0.00372011  1
  Ta  Ta111  1  0.19758812  0.79833598  0.80013354  1
  Ta  Ta112  1  0.30056517  0.88967102  0.90626563  1
  Ta  Ta113  1  0.19694757  -0.00154509  0.60092255  1
  Ta  Ta114  1  -0.00419457  0.20416139  0.00301012  1
  Ta  Ta115  1  0.80228948  -0.00755843  -0.00884166  1
  Ta  Ta116  1  0.09854592  0.90362800  0.49660356  1
  Ta  Ta117  1  0.30067999  0.51000169  0.69463130  1
  Ta  Ta118  1  0.29799382  0.10458970  0.69830506  1
  Ta  Ta119  1  0.49951390  0.89581999  0.90847014  1
  Ta  Ta120  1  0.80423501  0.19472300  0.61365408  1
  Ta  Ta121  1  0.91084340  0.10086352  0.29675827  1
  Ta  Ta122  1  0.49967479  0.50051521  0.10017658  1
  Ta  Ta123  1  0.79940819  0.19822332  0.80762685  1
  Ta  Ta124  1  0.39981162  0.40372609  0.39079113  1
  Ta  Ta125  1  0.80175153  -0.00564033  0.61473123  1
  Ta  Ta126  1  0.59328030  0.60385678  0.60657012  1
  Ta  Ta127  1  0.40046655  0.79896105  0.19652531  1
  Ta  Ta128  1  0.30345146  0.70062451  0.69522860  1
  Ta  Ta129  1  0.80139068  0.00382762  0.38414214  1
  Ta  Ta130  1  0.70025508  0.89141419  0.89364324  1
  Ta  Ta131  1  0.80563932  -0.00500683  0.80364739  1
  Ta  Ta132  1  0.19337996  0.21114288  0.00448692  1
  Ta  Ta133  1  0.79677792  0.59635347  0.20311033  1
  Ta  Ta134  1  0.49912438  0.49804317  0.90084771  1
  Ta  Ta135  1  0.49613910  0.30721975  0.49269627  1
  Ta  Ta136  1  0.89946128  0.49909019  0.10292838  1
  Ta  Ta137  1  0.00150712  0.80368278  0.40255398  1
  Ta  Ta138  1  0.10177700  0.69990859  0.50432791  1
  Ta  Ta139  1  0.90541507  0.29599510  0.10015592  1
  Ta  Ta140  1  -0.00024746  0.60314360  0.19188617  1
  Ta  Ta141  1  0.30648906  0.69967449  0.29903646  1
  Ta  Ta142  1  0.20207366  0.60205306  -0.00393116  1
  Ta  Ta143  1  0.69839859  0.29488715  0.70305478  1
  Ta  Ta144  1  0.30018603  0.31322237  0.49177948  1
  Ta  Ta145  1  0.40272247  0.79285024  -0.00070737  1
  Ta  Ta146  1  0.00336827  0.20797498  0.39359878  1
  Ta  Ta147  1  0.59550178  0.39829744  0.60606509  1
  Ta  Ta148  1  0.10733238  0.29885398  0.30120148  1
  Ta  Ta149  1  0.89927734  0.89505217  0.09794495  1
  Ti  Ti150  1  0.39947636  0.40206195  0.20280823  1
  Ti  Ti151  1  0.69238964  0.10001265  0.29966230  1
  Ti  Ti152  1  0.60188497  0.79777346  0.40885219  1
  Ti  Ti153  1  0.30131235  0.70174761  0.09325283  1
  Ti  Ti154  1  0.20419362  0.21550521  0.39587245  1
  Ti  Ti155  1  0.50397658  0.50347249  0.29764797  1
  Ti  Ti156  1  0.80449887  0.20162160  -0.00744628  1
  Ti  Ti157  1  0.29602528  0.29557169  0.10441070  1
  Ti  Ti158  1  0.20094968  0.40589825  0.59730866  1
  Ti  Ti159  1  0.10380617  0.71059747  0.90389106  1
  Ti  Ti160  1  0.49616731  0.09428157  0.10280077  1
  Ti  Ti161  1  0.60200398  0.80629983  0.19667467  1
  Ti  Ti162  1  0.59681374  0.79145692  0.80107091  1
  Ti  Ti163  1  0.89931581  0.70311725  0.71038998  1
  Ti  Ti164  1  0.68465205  0.29011911  0.30587260  1
  Ti  Ti165  1  0.81287676  0.59991453  0.81263438  1
  Ti  Ti166  1  0.29838594  0.70280829  0.90394419  1
  Ti  Ti167  1  0.69572627  0.90090510  0.30421832  1
  Ti  Ti168  1  0.90152569  0.09234015  0.70548355  1
  Ti  Ti169  1  0.00273506  -0.00881919  0.61241434  1
  Ti  Ti170  1  0.70411168  0.70296624  0.89058531  1
  Ti  Ti171  1  0.68826808  0.29197131  0.09572326  1
  Ti  Ti172  1  0.80335174  0.79933275  -0.01427876  1
  Ti  Ti173  1  0.68983392  0.49656017  0.89556541  1
  Ti  Ti174  1  0.18218243  -0.01986427  0.20457232  1
  Ti  Ti175  1  0.30151967  0.50136490  0.49958265  1
  Ti  Ti176  1  0.79916277  0.80503951  0.60670491  1
  Ti  Ti177  1  0.21034905  0.60304955  0.40104966  1
  Ti  Ti178  1  0.79434379  0.80514448  0.20265217  1
  Ti  Ti179  1  0.30680602  0.50514559  0.09853555  1
  Ti  Ti180  1  0.69489281  0.70349093  0.29317325  1
  Ti  Ti181  1  0.90328454  0.89603450  0.71267081  1
  Ti  Ti182  1  0.69088270  0.30099968  0.90517438  1
  Ti  Ti183  1  -0.00028383  0.19993103  0.59601708  1
  Ti  Ti184  1  0.80592195  0.61803202  0.59273191  1
  Ti  Ti185  1  0.09338664  0.88980636  0.89359808  1
  Ti  Ti186  1  0.42817194  -0.00090266  0.41551388  1
  Ti  Ti187  1  -0.00102640  0.79610527  -0.00456361  1
  Ti  Ti188  1  0.41134805  0.60566424  0.59962601  1
  Ti  Ti189  1  0.39905753  0.59909646  0.19800858  1
  Ti  Ti190  1  0.50134513  0.30314021  0.30156356  1
  Ti  Ti191  1  0.90266625  0.89005760  0.89207830  1
  Ti  Ti192  1  0.49679348  0.90144692  0.09867510  1
  Ti  Ti193  1  0.00547176  -0.00627621  0.38456531  1
  Ti  Ti194  1  0.59540943  0.79502609  -0.00998208  1
  Ti  Ti195  1  0.90587719  0.51061050  0.69605214  1
  Ti  Ti196  1  0.39650858  0.20869751  0.39852014  1
  Ti  Ti197  1  0.39852345  0.20568501  0.59022651  1
  Ti  Ti198  1  0.59250011  -0.00086499  -0.00117718  1
  Ti  Ti199  1  0.79876808  0.79847937  0.40221413  1
  Mo  Mo200  1  0.70543760  0.70631547  0.50783586  1
  Mo  Mo201  1  0.00170611  0.41308678  0.77979108  1
  Mo  Mo202  1  0.48975098  0.11270436  0.49596560  1
  Mo  Mo203  1  0.10480632  0.50796520  0.69423046  1
  Mo  Mo204  1  0.49926837  0.69612071  0.50300107  1
  Mo  Mo205  1  0.00320640  0.20144702  0.20276935  1
  Mo  Mo206  1  0.49976684  0.50395619  0.69797838  1
  Mo  Mo207  1  0.30257207  0.30821061  0.90437727  1
  Mo  Mo208  1  0.70786385  0.89639161  0.70415382  1
  Mo  Mo209  1  0.49878817  0.08634859  0.91516917  1
  Mo  Mo210  1  0.10260934  0.70057204  0.08899964  1
  Mo  Mo211  1  0.00203817  0.79752302  0.80292504  1
  Mo  Mo212  1  0.60666949  0.00149983  0.39173759  1
  Mo  Mo213  1  0.30253245  0.30786049  0.30348170  1
  Mo  Mo214  1  -0.00746350  0.60503640  0.60554512  1
  Mo  Mo215  1  0.40678390  -0.00922761  0.00180325  1
  Mo  Mo216  1  0.39822946  0.40955449  0.80154966  1
  Mo  Mo217  1  0.40369422  0.79152256  0.60188586  1
  Mo  Mo218  1  0.50255966  0.70276119  0.90076471  1
  Mo  Mo219  1  0.09829002  0.89790811  0.30145415  1
  Mo  Mo220  1  0.49854417  0.30112380  0.68728957  1
  Mo  Mo221  1  -0.00140391  -0.00765524  0.19713161  1
  Mo  Mo222  1  0.80376214  0.19258260  0.38822611  1
  Mo  Mo223  1  0.19982915  0.21129335  0.19889126  1
  Mo  Mo224  1  0.50094710  0.31389293  0.91465687  1
  Mo  Mo225  1  0.59467012  0.39455084  0.39564887  1
  Mo  Mo226  1  0.10397869  0.30680729  0.49040449  1
  Mo  Mo227  1  0.20913254  0.40440721  0.40167326  1
  Mo  Mo228  1  0.80487763  0.80332449  0.80237316  1
  Mo  Mo229  1  0.50273070  0.69733835  0.69890109  1
  Mo  Mo230  1  0.90301024  0.71188124  0.89435111  1
  Mo  Mo231  1  0.10843241  0.50564740  0.90336909  1
  Mo  Mo232  1  0.01007340  0.38729566  0.40392979  1
  Mo  Mo233  1  0.91093594  0.29233320  0.29845664  1
  Mo  Mo234  1  0.20641693  0.59916196  0.60296883  1
  Mo  Mo235  1  0.50557087  0.89275430  0.49602742  1
  Mo  Mo236  1  0.18844778  -0.00936857  0.39732064  1
  Mo  Mo237  1  0.60372107  0.59667115  0.20698762  1
  Mo  Mo238  1  -0.00956734  -0.01014516  0.79988174  1
  Mo  Mo239  1  0.10141538  0.29299992  0.10493695  1
  Mo  Mo240  1  0.89122085  0.09522328  0.90235422  1
  Mo  Mo241  1  0.09431573  0.89782712  0.69976394  1
  Mo  Mo242  1  0.41253458  -0.00727409  0.19258364  1
  Mo  Mo243  1  0.59290743  0.19871423  0.19671177  1
  Mo  Mo244  1  0.20028646  0.79616516  -0.00566809  1
  Mo  Mo245  1  0.59800214  0.39798426  -0.00026343  1
  Mo  Mo246  1  0.89422036  0.29366285  0.90747753  1
  Mo  Mo247  1  0.60129636  0.59843965  0.80099379  1
  Mo  Mo248  1  -0.00062211  0.39634756  0.02110334  1
  Mo  Mo249  1  0.89521577  0.71089262  0.50561556  1
