# generated using pymatgen
data_HfZrTaTiMo
_symmetry_space_group_name_H-M   'P 1'
_cell_length_a   16.88674090
_cell_length_b   16.87473228
_cell_length_c   16.88270053
_cell_angle_alpha   90.02551420
_cell_angle_beta   89.99764275
_cell_angle_gamma   89.99856993
_symmetry_Int_Tables_number   1
_chemical_formula_structural   HfZrTaTiMo
_chemical_formula_sum   'Hf50 Zr50 Ta50 Ti50 Mo50'
_cell_volume   4810.88089180
_cell_formula_units_Z   50
loop_
 _symmetry_equiv_pos_site_id
 _symmetry_equiv_pos_as_xyz
  1  'x, y, z'
loop_
 _atom_site_type_symbol
 _atom_site_label
 _atom_site_symmetry_multiplicity
 _atom_site_fract_x
 _atom_site_fract_y
 _atom_site_fract_z
 _atom_site_occupancy
  Hf  Hf0  1  0.28918656  0.29442639  0.09464042  1
  Hf  Hf1  1  0.39712062  0.00100387  0.60407213  1
  Hf  Hf2  1  0.40166985  0.00903430  0.20680163  1
  Hf  Hf3  1  0.50762445  0.89769395  0.30626550  1
  Hf  Hf4  1  0.29854832  0.10788644  0.50316204  1
  Hf  Hf5  1  0.62749397  0.01173498  0.20711060  1
  Hf  Hf6  1  0.29976527  0.89550525  0.50236589  1
  Hf  Hf7  1  0.51090185  0.91092811  0.10106897  1
  Hf  Hf8  1  0.19552466  0.80451464  0.20729784  1
  Hf  Hf9  1  0.71084050  0.70068568  0.89734764  1
  Hf  Hf10  1  -0.00359178  0.39762963  0.40538957  1
  Hf  Hf11  1  0.89619923  0.50366971  0.30117381  1
  Hf  Hf12  1  0.08929378  0.70834689  0.49977238  1
  Hf  Hf13  1  0.49059944  0.30159295  0.31197209  1
  Hf  Hf14  1  0.89529833  0.69538397  0.09961037  1
  Hf  Hf15  1  0.50615997  0.09699186  0.70691544  1
  Hf  Hf16  1  0.50698010  0.09198561  0.89071564  1
  Hf  Hf17  1  0.50189370  0.49149069  0.09449523  1
  Hf  Hf18  1  0.39965379  0.19928418  -0.01017462  1
  Hf  Hf19  1  0.79974100  0.41487554  0.58794980  1
  Hf  Hf20  1  0.40446823  0.20302896  0.60888143  1
  Hf  Hf21  1  0.70913970  0.69890204  0.30459540  1
  Hf  Hf22  1  -0.00099551  0.20146810  0.79922374  1
  Hf  Hf23  1  0.39672572  0.39624321  0.19514986  1
  Hf  Hf24  1  0.39915404  0.19748682  0.19996057  1
  Hf  Hf25  1  0.60905037  0.80136995  0.20018519  1
  Hf  Hf26  1  0.09801400  0.69806905  0.91377427  1
  Hf  Hf27  1  0.90210523  0.50062093  0.09771003  1
  Hf  Hf28  1  0.60630487  0.40561116  0.40940046  1
  Hf  Hf29  1  0.20174419  0.60071991  0.39798012  1
  Hf  Hf30  1  -0.00182140  0.19914973  -0.00380403  1
  Hf  Hf31  1  0.89067212  0.29551683  0.09222903  1
  Hf  Hf32  1  0.29849004  0.69837447  0.90281917  1
  Hf  Hf33  1  0.60473963  0.20909071  0.80052591  1
  Hf  Hf34  1  0.40220213  0.38961401  -0.01303908  1
  Hf  Hf35  1  0.19354166  0.00237319  0.79888555  1
  Hf  Hf36  1  -0.01027150  0.81683321  0.00093832  1
  Hf  Hf37  1  0.78805638  0.40476233  0.19130138  1
  Hf  Hf38  1  0.40174249  0.59190207  0.79942464  1
  Hf  Hf39  1  0.60320734  0.19627364  0.39964488  1
  Hf  Hf40  1  0.60341631  0.59358119  0.80596437  1
  Hf  Hf41  1  0.09327067  0.69917865  0.09730592  1
  Hf  Hf42  1  0.49512492  0.49898432  0.30324625  1
  Hf  Hf43  1  0.19601788  0.00017368  0.40344055  1
  Hf  Hf44  1  0.50503400  0.69627010  0.70249355  1
  Hf  Hf45  1  0.30407478  0.30076995  0.50135822  1
  Hf  Hf46  1  0.08510355  0.89503951  0.50346148  1
  Hf  Hf47  1  0.70469124  0.50543542  0.30507887  1
  Hf  Hf48  1  0.51427654  0.10251930  0.09332946  1
  Hf  Hf49  1  0.08370236  0.70212286  0.30915118  1
  Zr  Zr50  1  0.19539176  0.59659487  0.79507487  1
  Zr  Zr51  1  0.00028875  0.40150399  0.60461543  1
  Zr  Zr52  1  0.30433028  0.70310986  0.30136960  1
  Zr  Zr53  1  0.40370505  0.60454250  0.40868951  1
  Zr  Zr54  1  0.01059325  0.39206120  -0.00398449  1
  Zr  Zr55  1  0.60373308  0.59831702  0.19084598  1
  Zr  Zr56  1  0.78619564  0.18073633  0.19767943  1
  Zr  Zr57  1  0.89112963  0.31400896  0.70760088  1
  Zr  Zr58  1  0.20050680  0.59335912  0.20058212  1
  Zr  Zr59  1  0.18995346  0.40335220  0.79970951  1
  Zr  Zr60  1  0.19534072  0.00419545  0.60816782  1
  Zr  Zr61  1  0.18571830  0.20454579  0.40742303  1
  Zr  Zr62  1  0.00199595  0.20134786  0.19533341  1
  Zr  Zr63  1  0.60038761  0.79475830  0.59891093  1
  Zr  Zr64  1  0.82278609  0.00756935  0.59250919  1
  Zr  Zr65  1  0.30370211  0.49418673  0.50080555  1
  Zr  Zr66  1  0.20109094  0.60759761  0.61280783  1
  Zr  Zr67  1  0.49888617  0.90563111  0.70876647  1
  Zr  Zr68  1  0.60348357  0.00767089  0.39603985  1
  Zr  Zr69  1  0.89246138  0.29901118  0.30001762  1
  Zr  Zr70  1  0.29128301  0.90399954  0.10014783  1
  Zr  Zr71  1  0.71189055  0.90542155  0.70297575  1
  Zr  Zr72  1  0.89721121  0.49134054  0.89089722  1
  Zr  Zr73  1  0.80774278  0.81119199  0.20419830  1
  Zr  Zr74  1  0.09448780  0.90779748  0.10757770  1
  Zr  Zr75  1  -0.00983183  0.19111118  0.60473605  1
  Zr  Zr76  1  0.78372979  0.58026057  0.00037036  1
  Zr  Zr77  1  0.70519729  0.50516393  0.70424648  1
  Zr  Zr78  1  0.70462779  0.89633667  0.49212740  1
  Zr  Zr79  1  0.60144931  0.19676562  0.21075381  1
  Zr  Zr80  1  0.10693670  0.10032418  0.10093196  1
  Zr  Zr81  1  0.60378873  0.80073553  -0.00087600  1
  Zr  Zr82  1  0.70519985  0.70140842  0.49981372  1
  Zr  Zr83  1  0.19459972  0.39812747  0.19619382  1
  Zr  Zr84  1  0.80105367  0.20215195  0.80248134  1
  Zr  Zr85  1  -0.00274730  0.80030043  0.79872902  1
  Zr  Zr86  1  0.29001567  0.89092652  0.90269865  1
  Zr  Zr87  1  0.28613311  0.69990279  0.08549820  1
  Zr  Zr88  1  0.60372732  0.20806243  0.60241972  1
  Zr  Zr89  1  0.39590625  0.00467354  -0.00647568  1
  Zr  Zr90  1  0.18856881  0.39664128  0.59966358  1
  Zr  Zr91  1  -0.01202217  0.60084636  0.60516039  1
  Zr  Zr92  1  0.09208980  0.51118240  0.49499795  1
  Zr  Zr93  1  0.60226359  0.80889636  0.80816926  1
  Zr  Zr94  1  0.60300431  0.00527066  0.59382060  1
  Zr  Zr95  1  0.89741451  0.69261849  0.90621095  1
  Zr  Zr96  1  0.69441469  0.29276533  0.08672665  1
  Zr  Zr97  1  0.41397457  0.79902575  0.00056007  1
  Zr  Zr98  1  0.19078802  0.79197775  0.79164973  1
  Zr  Zr99  1  0.40646610  0.79550254  0.19493640  1
  Ta  Ta100  1  0.40563949  0.59992161  0.60466696  1
  Ta  Ta101  1  0.29913559  0.10670945  0.30892174  1
  Ta  Ta102  1  0.40608412  0.79791100  0.40773893  1
  Ta  Ta103  1  0.20086230  0.00642420  0.21502054  1
  Ta  Ta104  1  0.81866857  0.79825031  0.59678018  1
  Ta  Ta105  1  0.09028521  0.09571069  0.30539544  1
  Ta  Ta106  1  0.08988222  0.89959087  0.69306032  1
  Ta  Ta107  1  -0.00334724  0.59859672  0.20176718  1
  Ta  Ta108  1  0.30808322  0.49089558  0.70128919  1
  Ta  Ta109  1  0.90345062  0.09420393  0.30130074  1
  Ta  Ta110  1  0.00588498  0.59560723  0.79831593  1
  Ta  Ta111  1  0.09889456  0.10055780  0.89536431  1
  Ta  Ta112  1  0.60128228  0.39530233  0.20089364  1
  Ta  Ta113  1  -0.00218676  0.00238952  -0.00500189  1
  Ta  Ta114  1  0.30183699  0.49811245  0.08962288  1
  Ta  Ta115  1  0.38369995  0.00423989  0.80181035  1
  Ta  Ta116  1  0.29857679  0.29934683  0.70278551  1
  Ta  Ta117  1  0.19294697  0.39784010  0.39711285  1
  Ta  Ta118  1  0.30218837  0.90223042  0.30736327  1
  Ta  Ta119  1  0.19821739  0.79401420  0.60796140  1
  Ta  Ta120  1  0.09140878  0.49966796  0.30064902  1
  Ta  Ta121  1  0.40199034  0.00285797  0.40134514  1
  Ta  Ta122  1  0.09683457  0.29956545  0.29969766  1
  Ta  Ta123  1  0.00498414  0.39771666  0.19529192  1
  Ta  Ta124  1  0.71284320  0.90453435  0.09597503  1
  Ta  Ta125  1  0.08937573  0.09944218  0.50787806  1
  Ta  Ta126  1  0.49635126  0.30463696  0.49943395  1
  Ta  Ta127  1  0.50775976  0.70085386  0.30537378  1
  Ta  Ta128  1  0.59834979  0.40360899  0.60091016  1
  Ta  Ta129  1  0.40971278  0.40193927  0.60763276  1
  Ta  Ta130  1  0.40326555  0.60153594  0.18856988  1
  Ta  Ta131  1  0.09059132  0.90375364  0.30594176  1
  Ta  Ta132  1  0.80611519  0.00096213  0.00068397  1
  Ta  Ta133  1  0.49993745  0.69706851  0.90023273  1
  Ta  Ta134  1  0.40618194  0.59503030  -0.00266419  1
  Ta  Ta135  1  0.59746026  0.60230355  0.41166283  1
  Ta  Ta136  1  0.89849413  0.09818324  0.89918247  1
  Ta  Ta137  1  0.70907993  0.70213448  0.09587417  1
  Ta  Ta138  1  0.70785348  0.09542399  0.70378300  1
  Ta  Ta139  1  0.81469235  0.80699016  0.39450426  1
  Ta  Ta140  1  0.39912935  0.79284167  0.60182771  1
  Ta  Ta141  1  0.70662550  0.30135069  0.50018848  1
  Ta  Ta142  1  0.61104613  -0.00630503  -0.01246199  1
  Ta  Ta143  1  0.29936082  0.89226289  0.70120323  1
  Ta  Ta144  1  0.49990639  0.89469095  0.49732333  1
  Ta  Ta145  1  0.71288109  0.10678809  0.50137218  1
  Ta  Ta146  1  0.29973636  0.29942920  0.30989891  1
  Ta  Ta147  1  0.89199111  0.29885217  0.49824989  1
  Ta  Ta148  1  0.39612151  0.20205515  0.80479690  1
  Ta  Ta149  1  0.59763574  0.59570008  -0.00327382  1
  Ti  Ti150  1  0.80533485  0.60164814  0.59444627  1
  Ti  Ti151  1  0.80447914  -0.00179223  0.39532353  1
  Ti  Ti152  1  0.60331893  0.39977643  -0.00966168  1
  Ti  Ti153  1  0.80439834  0.19749349  0.40221171  1
  Ti  Ti154  1  0.29165939  0.09992614  0.09969006  1
  Ti  Ti155  1  0.90693483  0.90407215  0.69573270  1
  Ti  Ti156  1  0.01001121  0.40108651  0.79832031  1
  Ti  Ti157  1  0.80583912  0.19703965  0.60282230  1
  Ti  Ti158  1  0.71657481  0.90336863  0.89742134  1
  Ti  Ti159  1  0.70842495  0.09206197  0.89494519  1
  Ti  Ti160  1  0.30089750  0.49214947  0.89816868  1
  Ti  Ti161  1  0.90844263  0.91338487  0.29563230  1
  Ti  Ti162  1  0.89447531  0.69621614  0.70556685  1
  Ti  Ti163  1  0.90863126  0.70537781  0.48736388  1
  Ti  Ti164  1  0.89269361  0.50278032  0.71146053  1
  Ti  Ti165  1  -0.00059028  0.00500149  0.79433430  1
  Ti  Ti166  1  -0.00996325  0.80241105  0.20490214  1
  Ti  Ti167  1  0.59847596  0.59293939  0.59614279  1
  Ti  Ti168  1  0.70567054  0.30781727  0.69552274  1
  Ti  Ti169  1  0.40113338  0.80097119  0.80021417  1
  Ti  Ti170  1  0.70715783  0.30434539  0.89774340  1
  Ti  Ti171  1  0.10665627  0.29344558  0.89699811  1
  Ti  Ti172  1  0.19595345  0.58038497  -0.00654821  1
  Ti  Ti173  1  0.29281654  0.29704373  0.88811285  1
  Ti  Ti174  1  0.30331072  0.49352814  0.30068594  1
  Ti  Ti175  1  0.28701925  0.11606686  0.70649870  1
  Ti  Ti176  1  0.80645006  0.59699101  0.41157213  1
  Ti  Ti177  1  0.89444295  0.90897383  0.89475481  1
  Ti  Ti178  1  0.20096129  0.19504498  -0.01078698  1
  Ti  Ti179  1  0.80803058  0.80255833  0.79643862  1
  Ti  Ti180  1  0.49480612  0.31034471  0.71173831  1
  Ti  Ti181  1  0.19452168  0.39893712  -0.00399093  1
  Ti  Ti182  1  0.50041948  0.48976704  0.89361670  1
  Ti  Ti183  1  0.50698520  0.29638057  0.09309282  1
  Ti  Ti184  1  0.49791635  0.49670518  0.50439695  1
  Ti  Ti185  1  0.49459060  0.10587827  0.49560004  1
  Ti  Ti186  1  0.59998510  0.39880611  0.79953816  1
  Ti  Ti187  1  0.29995196  0.70342186  0.50629102  1
  Ti  Ti188  1  0.71203640  0.69776089  0.70051652  1
  Ti  Ti189  1  -0.01073699  0.00290767  0.41126096  1
  Ti  Ti190  1  0.11006227  0.28220174  0.69911510  1
  Ti  Ti191  1  0.19778288  0.19899720  0.20808336  1
  Ti  Ti192  1  0.20053563  0.80166718  0.40122889  1
  Ti  Ti193  1  0.09610658  0.50275646  0.09664060  1
  Ti  Ti194  1  0.60620218  0.19816727  -0.01535926  1
  Ti  Ti195  1  0.79463057  0.39683968  -0.00846617  1
  Ti  Ti196  1  0.19300229  0.00152255  -0.00955124  1
  Ti  Ti197  1  0.89827911  0.08998697  0.10184464  1
  Ti  Ti198  1  0.70551867  0.30253454  0.30912022  1
  Ti  Ti199  1  -0.00382860  0.20125438  0.40566381  1
  Mo  Mo200  1  0.19332439  0.19988805  0.60368060  1
  Mo  Mo201  1  0.81021070  -0.00015371  0.80157575  1
  Mo  Mo202  1  0.79012108  0.39989871  0.80484212  1
  Mo  Mo203  1  0.50420967  0.49637580  0.69758305  1
  Mo  Mo204  1  0.59899852  0.79650839  0.39680577  1
  Mo  Mo205  1  0.61737773  0.00357052  0.80552257  1
  Mo  Mo206  1  0.19814427  0.20015592  0.80138012  1
  Mo  Mo207  1  0.89503987  0.29887127  0.90223956  1
  Mo  Mo208  1  0.09698629  0.49999375  0.90262066  1
  Mo  Mo209  1  0.49570758  0.90311366  0.89561401  1
  Mo  Mo210  1  -0.00063762  0.00056445  0.60241873  1
  Mo  Mo211  1  0.48976707  0.10153799  0.30555006  1
  Mo  Mo212  1  0.09073285  0.29438483  0.49895295  1
  Mo  Mo213  1  -0.01006286  0.79828629  0.60394238  1
  Mo  Mo214  1  0.00057074  0.00410517  0.20558852  1
  Mo  Mo215  1  0.80126487  0.81308008  -0.00071358  1
  Mo  Mo216  1  0.40239953  0.19790487  0.40403242  1
  Mo  Mo217  1  0.69210166  0.48840234  0.89821639  1
  Mo  Mo218  1  0.90296824  0.89830988  0.49258657  1
  Mo  Mo219  1  0.71146383  0.90251384  0.30122053  1
  Mo  Mo220  1  0.39591285  0.40085400  0.40608833  1
  Mo  Mo221  1  0.50207813  0.69943357  0.50381410  1
  Mo  Mo222  1  0.89398394  0.50332299  0.49425173  1
  Mo  Mo223  1  0.09201021  0.90996578  0.89847995  1
  Mo  Mo224  1  0.89759568  0.69305558  0.30008063  1
  Mo  Mo225  1  0.80028110  0.19007032  -0.00695539  1
  Mo  Mo226  1  -0.00973687  0.60216417  0.39587812  1
  Mo  Mo227  1  0.09460858  0.50502187  0.70443895  1
  Mo  Mo228  1  0.70280286  0.09597616  0.07448438  1
  Mo  Mo229  1  0.80306508  0.60102381  0.79555675  1
  Mo  Mo230  1  0.69669429  0.50616921  0.50222343  1
  Mo  Mo231  1  0.50878392  0.68951852  0.09637259  1
  Mo  Mo232  1  0.80829416  0.00173695  0.19769364  1
  Mo  Mo233  1  0.18245161  0.81493533  -0.00255147  1
  Mo  Mo234  1  0.50777534  0.29751003  0.89402857  1
  Mo  Mo235  1  0.89930610  0.10581122  0.48630286  1
  Mo  Mo236  1  0.90024797  0.91196606  0.10316217  1
  Mo  Mo237  1  0.00515453  0.59032321  0.00163972  1
  Mo  Mo238  1  0.79771586  0.39718819  0.40241727  1
  Mo  Mo239  1  0.09352169  0.09630144  0.70152709  1
  Mo  Mo240  1  0.29199282  0.10517313  0.89653600  1
  Mo  Mo241  1  -0.01128128  0.80635380  0.39374334  1
  Mo  Mo242  1  0.80069059  0.60201194  0.19530269  1
  Mo  Mo243  1  0.69196396  0.49085040  0.09554736  1
  Mo  Mo244  1  0.08327193  0.70481340  0.69576223  1
  Mo  Mo245  1  0.31393172  0.70098721  0.69932949  1
  Mo  Mo246  1  0.72017067  0.09953862  0.31893341  1
  Mo  Mo247  1  0.39796185  0.39567082  0.79862473  1
  Mo  Mo248  1  0.10981114  0.29757752  0.10001733  1
  Mo  Mo249  1  0.89911115  0.09370250  0.71107327  1
