# generated using pymatgen
data_HfZrTaTiMo
_symmetry_space_group_name_H-M   'P 1'
_cell_length_a   16.88400177
_cell_length_b   16.87902419
_cell_length_c   16.88689847
_cell_angle_alpha   89.94152540
_cell_angle_beta   89.99444839
_cell_angle_gamma   89.97824207
_symmetry_Int_Tables_number   1
_chemical_formula_structural   HfZrTaTiMo
_chemical_formula_sum   'Hf50 Zr50 Ta50 Ti50 Mo50'
_cell_volume   4812.51789376
_cell_formula_units_Z   50
loop_
 _symmetry_equiv_pos_site_id
 _symmetry_equiv_pos_as_xyz
  1  'x, y, z'
loop_
 _atom_site_type_symbol
 _atom_site_label
 _atom_site_symmetry_multiplicity
 _atom_site_fract_x
 _atom_site_fract_y
 _atom_site_fract_z
 _atom_site_occupancy
  Hf  Hf0  1  0.19910560  0.60056759  -0.00286378  1
  Hf  Hf1  1  0.40184502  0.79736848  0.80139721  1
  Hf  Hf2  1  0.80213122  0.59967491  -0.00242491  1
  Hf  Hf3  1  0.30238285  0.29771792  0.09697604  1
  Hf  Hf4  1  0.70174133  0.89590542  0.69513372  1
  Hf  Hf5  1  0.40764871  0.00325475  -0.00699704  1
  Hf  Hf6  1  0.69498121  0.70519921  0.50082190  1
  Hf  Hf7  1  0.70199354  0.49487775  0.90366445  1
  Hf  Hf8  1  0.10110644  0.50157930  0.89042098  1
  Hf  Hf9  1  0.20159058  0.79834412  -0.01481598  1
  Hf  Hf10  1  0.29848776  0.90680613  0.10347335  1
  Hf  Hf11  1  0.10453688  0.69890998  0.31497911  1
  Hf  Hf12  1  0.10294579  0.09816427  0.10389599  1
  Hf  Hf13  1  0.59878393  0.39460052  0.59840029  1
  Hf  Hf14  1  0.40412259  0.79688649  0.20505179  1
  Hf  Hf15  1  0.40752322  0.39892975  -0.00604216  1
  Hf  Hf16  1  0.88751261  0.29102977  0.30388679  1
  Hf  Hf17  1  0.70480628  0.69722532  0.89213008  1
  Hf  Hf18  1  0.10175349  0.30022863  0.49800475  1
  Hf  Hf19  1  0.78001267  0.40572866  0.20219721  1
  Hf  Hf20  1  0.00259540  0.79157903  -0.01455813  1
  Hf  Hf21  1  0.40309144  0.39413406  0.79256117  1
  Hf  Hf22  1  0.30525457  0.90343442  0.50242296  1
  Hf  Hf23  1  0.09627889  0.29463060  0.70428431  1
  Hf  Hf24  1  0.79197781  0.01065815  0.80400366  1
  Hf  Hf25  1  0.10281490  0.90815869  0.10329540  1
  Hf  Hf26  1  0.90588999  0.90700765  0.10313356  1
  Hf  Hf27  1  0.40340812  0.00238193  0.79837445  1
  Hf  Hf28  1  0.11275874  0.50741757  0.32075502  1
  Hf  Hf29  1  0.00163520  0.19389566  0.20976986  1
  Hf  Hf30  1  0.60710530  0.20534120  0.80173434  1
  Hf  Hf31  1  -0.00899154  0.19847486  0.59343639  1
  Hf  Hf32  1  0.79313149  0.39406664  0.79965103  1
  Hf  Hf33  1  0.59143059  0.80336477  0.80269186  1
  Hf  Hf34  1  0.80000413  0.79838389  0.20877039  1
  Hf  Hf35  1  -0.00098358  0.79964204  0.60233122  1
  Hf  Hf36  1  0.59546659  0.39094917  0.79785998  1
  Hf  Hf37  1  0.00399486  0.81480619  0.22042764  1
  Hf  Hf38  1  0.00698235  0.40072056  0.20394743  1
  Hf  Hf39  1  0.89248545  0.89470618  0.49563811  1
  Hf  Hf40  1  0.50264147  0.09267929  0.51276100  1
  Hf  Hf41  1  0.60052842  0.20001723  -0.00126102  1
  Hf  Hf42  1  0.30114864  0.50648013  0.89045762  1
  Hf  Hf43  1  0.30377107  0.69765290  0.10252485  1
  Hf  Hf44  1  0.70445524  0.10764291  0.30107031  1
  Hf  Hf45  1  0.00233528  -0.00313566  0.39175881  1
  Hf  Hf46  1  0.20816237  0.19143550  0.39850085  1
  Hf  Hf47  1  0.79784043  0.00454307  0.59827499  1
  Hf  Hf48  1  0.30022132  0.09656971  0.10122593  1
  Hf  Hf49  1  0.09178023  0.09180603  0.70237769  1
  Zr  Zr50  1  0.60265497  0.00716067  -0.00943048  1
  Zr  Zr51  1  0.10091412  0.29510931  0.09474421  1
  Zr  Zr52  1  0.20393198  0.40695402  0.19972169  1
  Zr  Zr53  1  0.58976349  0.59965935  0.00390486  1
  Zr  Zr54  1  0.78498921  0.39998647  0.41081530  1
  Zr  Zr55  1  0.09204085  0.51104978  0.69995564  1
  Zr  Zr56  1  0.90387334  0.90554629  0.88670255  1
  Zr  Zr57  1  0.20238889  0.00661641  -0.01877939  1
  Zr  Zr58  1  0.00292745  0.40731945  0.00056084  1
  Zr  Zr59  1  0.49749349  0.90924700  0.68154331  1
  Zr  Zr60  1  0.79619286  0.01199278  -0.00381123  1
  Zr  Zr61  1  0.59288098  0.00433976  0.39293338  1
  Zr  Zr62  1  0.20252360  0.80577489  0.21150988  1
  Zr  Zr63  1  0.89100280  0.50810268  0.30125385  1
  Zr  Zr64  1  0.29940852  0.08822254  0.29803209  1
  Zr  Zr65  1  -0.00257873  0.40059195  0.40572028  1
  Zr  Zr66  1  0.20352660  0.60115777  0.60015772  1
  Zr  Zr67  1  0.89840135  0.09920842  0.70309498  1
  Zr  Zr68  1  0.10253939  0.70359596  0.10250541  1
  Zr  Zr69  1  0.88685938  0.50036986  0.10053357  1
  Zr  Zr70  1  0.89251139  0.30039192  0.69981413  1
  Zr  Zr71  1  -0.00173685  0.00988827  -0.01207721  1
  Zr  Zr72  1  0.90453051  0.69593224  0.31173867  1
  Zr  Zr73  1  -0.00491854  0.40627886  0.60058418  1
  Zr  Zr74  1  0.70002060  0.90242153  0.10406549  1
  Zr  Zr75  1  0.69471106  0.89813142  0.49755971  1
  Zr  Zr76  1  0.70103708  0.68973623  0.10734463  1
  Zr  Zr77  1  0.89230671  0.50898917  0.51372200  1
  Zr  Zr78  1  0.21298357  0.19021741  0.79957308  1
  Zr  Zr79  1  0.90477177  0.69572971  0.11072937  1
  Zr  Zr80  1  0.69689946  0.10850315  0.49268217  1
  Zr  Zr81  1  0.31392738  0.50831519  0.49604662  1
  Zr  Zr82  1  0.20933859  0.40237002  0.60397717  1
  Zr  Zr83  1  0.89120082  0.29680186  0.10131441  1
  Zr  Zr84  1  0.59725834  0.79281464  0.20122199  1
  Zr  Zr85  1  0.80494573  0.79853768  -0.00553695  1
  Zr  Zr86  1  0.21664991  0.39587487  0.39696389  1
  Zr  Zr87  1  0.20034633  0.79616027  0.59954576  1
  Zr  Zr88  1  0.09947946  0.09065076  0.50041123  1
  Zr  Zr89  1  0.21165814  0.19274413  0.60234924  1
  Zr  Zr90  1  0.40830749  0.79493380  -0.00871419  1
  Zr  Zr91  1  0.40666308  0.39783498  0.60414428  1
  Zr  Zr92  1  0.02006853  0.58617735  0.19284025  1
  Zr  Zr93  1  0.50559058  0.90204073  0.10046314  1
  Zr  Zr94  1  0.21162018  0.39786259  0.78861545  1
  Zr  Zr95  1  0.50567588  0.68516703  0.31197666  1
  Zr  Zr96  1  0.31638599  0.29369266  0.49952515  1
  Zr  Zr97  1  0.40683236  0.19978618  0.20479012  1
  Zr  Zr98  1  0.40077366  0.40170504  0.21061497  1
  Zr  Zr99  1  0.59789616  0.60390120  0.79729708  1
  Ta  Ta100  1  0.80311968  0.79116449  0.79191974  1
  Ta  Ta101  1  0.09919649  0.90226709  0.70250261  1
  Ta  Ta102  1  0.40135104  0.80070104  0.39968959  1
  Ta  Ta103  1  0.20498807  0.19830898  -0.00852681  1
  Ta  Ta104  1  0.89503589  0.10518462  0.10648556  1
  Ta  Ta105  1  -0.01012725  0.20159540  0.81237126  1
  Ta  Ta106  1  0.69999765  0.90252102  0.30409251  1
  Ta  Ta107  1  -0.00087107  0.79429270  0.79415905  1
  Ta  Ta108  1  0.79286220  0.20134823  -0.00513483  1
  Ta  Ta109  1  0.89588142  0.69581255  0.69485271  1
  Ta  Ta110  1  0.78907293  0.20885230  0.59603480  1
  Ta  Ta111  1  0.59343258  0.79453279  -0.00772959  1
  Ta  Ta112  1  0.79060013  0.60411057  0.60704857  1
  Ta  Ta113  1  0.68309497  0.50760240  0.30687171  1
  Ta  Ta114  1  0.68967708  0.29491015  0.30644454  1
  Ta  Ta115  1  0.40581656  0.19699151  -0.00532246  1
  Ta  Ta116  1  0.29798476  0.89809150  0.88802222  1
  Ta  Ta117  1  0.89598815  0.70244353  0.50473755  1
  Ta  Ta118  1  0.80180000  0.00318898  0.20482686  1
  Ta  Ta119  1  0.50386381  0.29947951  0.10117435  1
  Ta  Ta120  1  -0.00950283  0.40002057  0.80189300  1
  Ta  Ta121  1  0.78883691  0.60227041  0.40675241  1
  Ta  Ta122  1  0.49897291  0.70156498  0.50143159  1
  Ta  Ta123  1  0.20162568  0.20159856  0.20719868  1
  Ta  Ta124  1  0.30176175  0.69198946  0.30898801  1
  Ta  Ta125  1  0.89451783  0.50119670  0.89527940  1
  Ta  Ta126  1  0.40433321  -0.00186517  0.40006117  1
  Ta  Ta127  1  -0.01236256  0.60242266  0.79815947  1
  Ta  Ta128  1  0.49779329  0.69876595  0.69122599  1
  Ta  Ta129  1  0.49707923  0.51164513  0.69368484  1
  Ta  Ta130  1  0.10411681  0.29570339  0.30519561  1
  Ta  Ta131  1  0.59417535  0.19947204  0.20282094  1
  Ta  Ta132  1  0.09372129  0.69717515  0.49887920  1
  Ta  Ta133  1  0.50060488  0.89320409  0.49948889  1
  Ta  Ta134  1  0.40664158  0.59514254  0.19842971  1
  Ta  Ta135  1  0.59910565  0.00473321  0.79825207  1
  Ta  Ta136  1  0.69634739  0.29952415  0.10373638  1
  Ta  Ta137  1  0.59942047  0.39653521  0.00218064  1
  Ta  Ta138  1  0.69917830  0.50164864  0.69863000  1
  Ta  Ta139  1  0.89057404  0.10140767  0.48786047  1
  Ta  Ta140  1  0.30677597  0.29303452  0.89701324  1
  Ta  Ta141  1  0.20456873  0.00114795  0.79481349  1
  Ta  Ta142  1  0.40160311  0.60803405  0.80051143  1
  Ta  Ta143  1  0.29624492  0.89940909  0.69887091  1
  Ta  Ta144  1  0.41519056  0.00096971  0.20685363  1
  Ta  Ta145  1  0.40972250  0.19316310  0.39482998  1
  Ta  Ta146  1  0.20479624  0.39808796  -0.00595877  1
  Ta  Ta147  1  0.49954346  0.10848587  0.88915574  1
  Ta  Ta148  1  0.40377372  0.60347854  -0.00403656  1
  Ta  Ta149  1  0.10200625  0.29803290  0.89742260  1
  Ti  Ti150  1  0.69084028  0.10199089  0.69447297  1
  Ti  Ti151  1  0.78799978  0.39760829  0.60281174  1
  Ti  Ti152  1  0.59586795  0.01056521  0.20071011  1
  Ti  Ti153  1  0.10132249  0.90045118  0.88141735  1
  Ti  Ti154  1  -0.00587036  -0.00483394  0.59596830  1
  Ti  Ti155  1  0.50616538  0.89447989  0.30528095  1
  Ti  Ti156  1  0.00074332  0.19402989  0.39656192  1
  Ti  Ti157  1  0.79158334  0.20336200  0.80699040  1
  Ti  Ti158  1  0.31173845  0.51590926  0.31096317  1
  Ti  Ti159  1  0.89404015  0.30495184  0.90784851  1
  Ti  Ti160  1  0.20680786  0.59372714  0.19925828  1
  Ti  Ti161  1  0.60050453  0.79496398  0.60367847  1
  Ti  Ti162  1  -0.00028485  0.59533127  0.41697142  1
  Ti  Ti163  1  0.59470638  0.58910327  0.19711896  1
  Ti  Ti164  1  0.30679759  0.69672292  0.49186638  1
  Ti  Ti165  1  -0.00551172  0.19813427  -0.00586193  1
  Ti  Ti166  1  0.09871346  0.89499270  0.49669367  1
  Ti  Ti167  1  0.49376571  0.28102001  0.70009329  1
  Ti  Ti168  1  0.59250097  0.39818207  0.20528602  1
  Ti  Ti169  1  0.79485499  0.79642074  0.39690339  1
  Ti  Ti170  1  0.69989287  0.89629130  0.89619723  1
  Ti  Ti171  1  0.69220015  0.69442430  0.30837931  1
  Ti  Ti172  1  0.40152612  0.19001163  0.60206559  1
  Ti  Ti173  1  0.59177478  0.40005087  0.40175898  1
  Ti  Ti174  1  0.20340792  0.80224579  0.40403866  1
  Ti  Ti175  1  0.20636984  0.00034187  0.60018285  1
  Ti  Ti176  1  0.90005693  0.89960799  0.70037812  1
  Ti  Ti177  1  0.49917859  0.51436748  0.49410175  1
  Ti  Ti178  1  0.60403729  0.20652205  0.60252179  1
  Ti  Ti179  1  0.49934851  0.49554834  0.10285646  1
  Ti  Ti180  1  0.31506506  0.09282063  0.69396462  1
  Ti  Ti181  1  0.29720100  0.69807998  0.70777269  1
  Ti  Ti182  1  0.39577912  0.79353570  0.59889156  1
  Ti  Ti183  1  0.00094190  0.60159506  -0.00737318  1
  Ti  Ti184  1  0.30352175  0.50181109  0.09441564  1
  Ti  Ti185  1  0.00340502  0.00502005  0.21508739  1
  Ti  Ti186  1  0.70389174  0.10821691  0.10963075  1
  Ti  Ti187  1  0.88841248  0.10274043  0.30408710  1
  Ti  Ti188  1  0.10752883  0.69558454  0.87964257  1
  Ti  Ti189  1  0.09570005  0.10360584  0.89121621  1
  Ti  Ti190  1  0.30110947  0.90222364  0.30246739  1
  Ti  Ti191  1  0.88971500  0.29364274  0.49461463  1
  Ti  Ti192  1  0.19827986  -0.00355043  0.39841877  1
  Ti  Ti193  1  0.60011580  0.60223776  0.60098529  1
  Ti  Ti194  1  0.50606001  0.28886026  0.49342183  1
  Ti  Ti195  1  0.69024458  0.50457524  0.50341374  1
  Ti  Ti196  1  0.41292545  0.39504030  0.39009536  1
  Ti  Ti197  1  0.09837492  0.69869767  0.70246505  1
  Ti  Ti198  1  0.49973410  0.50101431  0.89415090  1
  Ti  Ti199  1  0.88985399  0.90495499  0.30938682  1
  Mo  Mo200  1  0.49731373  0.69010837  0.10095326  1
  Mo  Mo201  1  0.39510193  0.00010655  0.59695179  1
  Mo  Mo202  1  0.10994906  0.90405573  0.31150257  1
  Mo  Mo203  1  0.11294173  0.50050406  0.08671455  1
  Mo  Mo204  1  0.00434232  -0.00099258  0.79592500  1
  Mo  Mo205  1  0.31500338  0.52008560  0.70021096  1
  Mo  Mo206  1  0.80205195  0.79653243  0.60564496  1
  Mo  Mo207  1  0.50321668  0.49638081  0.30370110  1
  Mo  Mo208  1  0.69880677  0.10716657  0.89181509  1
  Mo  Mo209  1  0.69863206  0.30000036  0.69287483  1
  Mo  Mo210  1  0.60229496  0.00328540  0.60353850  1
  Mo  Mo211  1  0.00154629  0.80238865  0.40858164  1
  Mo  Mo212  1  0.30616964  0.10024530  0.89788021  1
  Mo  Mo213  1  0.89610101  0.11361838  0.90273104  1
  Mo  Mo214  1  0.79780764  0.20437645  0.40244307  1
  Mo  Mo215  1  0.49822149  0.29900706  0.90464517  1
  Mo  Mo216  1  0.49875460  0.69944589  0.89826477  1
  Mo  Mo217  1  0.30453105  0.29162099  0.30234155  1
  Mo  Mo218  1  0.31049653  0.08957191  0.49858307  1
  Mo  Mo219  1  0.50512391  0.30133698  0.30503326  1
  Mo  Mo220  1  0.09872649  0.50904953  0.50207592  1
  Mo  Mo221  1  0.69152660  0.30291380  0.49877441  1
  Mo  Mo222  1  0.19623551  0.00161054  0.20934328  1
  Mo  Mo223  1  0.69774871  0.70089031  0.69554815  1
  Mo  Mo224  1  0.80110429  0.59556478  0.79393402  1
  Mo  Mo225  1  0.60045368  0.59560520  0.41333180  1
  Mo  Mo226  1  0.90243423  0.69588754  0.89008656  1
  Mo  Mo227  1  0.79250112  0.19954085  0.19785835  1
  Mo  Mo228  1  0.59401166  0.20674763  0.39864810  1
  Mo  Mo229  1  0.77918530  0.59864233  0.21256818  1
  Mo  Mo230  1  0.40499305  0.19651880  0.79654587  1
  Mo  Mo231  1  0.79094408  0.39665408  -0.00068809  1
  Mo  Mo232  1  0.40240089  0.61065847  0.60181778  1
  Mo  Mo233  1  0.19591661  0.80270114  0.79389966  1
  Mo  Mo234  1  0.20480413  0.61001862  0.79718026  1
  Mo  Mo235  1  0.29895618  0.70054430  0.89403839  1
  Mo  Mo236  1  0.20674289  0.60731191  0.40848012  1
  Mo  Mo237  1  0.50368611  0.10404248  0.10291340  1
  Mo  Mo238  1  0.50222519  0.09867859  0.30056376  1
  Mo  Mo239  1  0.10270276  0.09865350  0.29961697  1
  Mo  Mo240  1  0.59592685  0.80178791  0.40154320  1
  Mo  Mo241  1  0.70136931  0.30300100  0.91013034  1
  Mo  Mo242  1  0.50739820  0.10315251  0.69646115  1
  Mo  Mo243  1  0.40526263  0.60231408  0.40226748  1
  Mo  Mo244  1  0.50595192  0.90576685  0.89555842  1
  Mo  Mo245  1  0.31524617  0.28120717  0.70059108  1
  Mo  Mo246  1  0.80156915  0.00014592  0.39407736  1
  Mo  Mo247  1  0.68769846  0.49236410  0.10591331  1
  Mo  Mo248  1  -0.00493327  0.60787302  0.60250720  1
  Mo  Mo249  1  0.88823696  0.50463896  0.70490140  1
