# generated using pymatgen
data_HfZrTaTiMo
_symmetry_space_group_name_H-M   'P 1'
_cell_length_a   16.88862256
_cell_length_b   16.88032135
_cell_length_c   16.88169723
_cell_angle_alpha   90.04535855
_cell_angle_beta   90.06173160
_cell_angle_gamma   89.97513340
_symmetry_Int_Tables_number   1
_chemical_formula_structural   HfZrTaTiMo
_chemical_formula_sum   'Hf50 Zr50 Ta50 Ti50 Mo50'
_cell_volume   4812.72024754
_cell_formula_units_Z   50
loop_
 _symmetry_equiv_pos_site_id
 _symmetry_equiv_pos_as_xyz
  1  'x, y, z'
loop_
 _atom_site_type_symbol
 _atom_site_label
 _atom_site_symmetry_multiplicity
 _atom_site_fract_x
 _atom_site_fract_y
 _atom_site_fract_z
 _atom_site_occupancy
  Hf  Hf0  1  0.19707242  0.19940551  0.20212165  1
  Hf  Hf1  1  0.80038994  0.80093098  -0.00244094  1
  Hf  Hf2  1  0.59865015  0.60392337  0.19898465  1
  Hf  Hf3  1  0.89586033  0.49531860  0.09934418  1
  Hf  Hf4  1  0.50322245  0.91162851  0.49811586  1
  Hf  Hf5  1  0.79000165  0.80303461  0.19590104  1
  Hf  Hf6  1  0.71399933  0.10898517  0.70178768  1
  Hf  Hf7  1  0.60275191  0.80417821  0.60105454  1
  Hf  Hf8  1  0.19308168  0.60292214  0.39946568  1
  Hf  Hf9  1  0.79034742  0.39445064  0.39221526  1
  Hf  Hf10  1  0.10019361  0.90506893  0.11271485  1
  Hf  Hf11  1  0.50292003  0.70845776  0.70887645  1
  Hf  Hf12  1  0.60076334  0.60075398  -0.00379001  1
  Hf  Hf13  1  0.60432406  0.20963782  0.60172013  1
  Hf  Hf14  1  0.19756779  0.00339570  0.79621627  1
  Hf  Hf15  1  0.79739575  -0.00360316  0.39596394  1
  Hf  Hf16  1  0.39278935  0.20931522  0.58760069  1
  Hf  Hf17  1  0.20750675  0.39376497  0.59764282  1
  Hf  Hf18  1  0.79875192  0.59920866  0.40168539  1
  Hf  Hf19  1  0.59660932  0.39894859  0.00048404  1
  Hf  Hf20  1  0.49420840  0.70469840  0.09119770  1
  Hf  Hf21  1  0.90439186  0.88143053  0.49538116  1
  Hf  Hf22  1  0.49097239  0.30187504  0.70165083  1
  Hf  Hf23  1  0.39801410  0.39823915  -0.00365543  1
  Hf  Hf24  1  0.89429541  0.49796575  0.50692335  1
  Hf  Hf25  1  0.00862881  0.58927355  0.80508022  1
  Hf  Hf26  1  0.70838679  0.10376965  0.50224713  1
  Hf  Hf27  1  0.69998610  0.69257434  0.50730802  1
  Hf  Hf28  1  0.09754470  0.49363464  0.50118393  1
  Hf  Hf29  1  0.00762879  0.19276221  0.19823629  1
  Hf  Hf30  1  0.59658900  0.40172616  0.60314645  1
  Hf  Hf31  1  0.10629385  0.09411172  0.49574856  1
  Hf  Hf32  1  0.71361177  0.49763865  0.90523315  1
  Hf  Hf33  1  0.29144609  0.90635267  0.29433976  1
  Hf  Hf34  1  -0.00091430  -0.00594223  0.59615960  1
  Hf  Hf35  1  0.40625618  0.59070401  0.80463094  1
  Hf  Hf36  1  0.70740377  0.50719515  0.69925326  1
  Hf  Hf37  1  0.60047674  0.01188816  0.19658125  1
  Hf  Hf38  1  0.40518445  0.79333989  0.39644022  1
  Hf  Hf39  1  0.60387182  0.40144207  0.20493517  1
  Hf  Hf40  1  0.29637394  0.69910602  0.10143654  1
  Hf  Hf41  1  0.40049247  0.40538375  0.19953438  1
  Hf  Hf42  1  0.28660632  0.69921793  0.29192936  1
  Hf  Hf43  1  0.59746428  0.39876314  0.80278709  1
  Hf  Hf44  1  0.89454463  0.29377965  0.29384421  1
  Hf  Hf45  1  0.20280557  0.20715732  0.80498538  1
  Hf  Hf46  1  0.10395098  0.50075478  0.29069915  1
  Hf  Hf47  1  0.40686234  0.59274005  0.60054216  1
  Hf  Hf48  1  0.79861446  0.00514860  0.20227020  1
  Hf  Hf49  1  0.19893856  0.00881822  0.01095881  1
  Zr  Zr50  1  0.59755186  0.19952941  0.80688329  1
  Zr  Zr51  1  0.89672962  0.09705674  0.69844967  1
  Zr  Zr52  1  0.20405456  0.39286679  0.39236917  1
  Zr  Zr53  1  0.89166710  0.71267120  0.30884343  1
  Zr  Zr54  1  0.49781327  0.09764863  0.69395338  1
  Zr  Zr55  1  0.89147323  0.28827820  0.69821642  1
  Zr  Zr56  1  0.29969925  0.70436918  0.70402879  1
  Zr  Zr57  1  0.71368236  0.09710992  0.90881383  1
  Zr  Zr58  1  0.89792293  0.49764874  0.70131722  1
  Zr  Zr59  1  0.60471778  0.20467566  0.39292115  1
  Zr  Zr60  1  0.29386658  0.69741075  0.50053718  1
  Zr  Zr61  1  0.08964909  0.70870066  0.51341981  1
  Zr  Zr62  1  -0.00081364  0.60730393  0.20316310  1
  Zr  Zr63  1  0.59221743  0.59489275  0.80790709  1
  Zr  Zr64  1  0.50021106  0.91209893  0.30273704  1
  Zr  Zr65  1  0.09268886  0.90209485  0.90016372  1
  Zr  Zr66  1  0.30667256  0.89968690  0.90386521  1
  Zr  Zr67  1  0.09076443  0.10311030  0.90850496  1
  Zr  Zr68  1  0.90617263  0.90166976  0.29949068  1
  Zr  Zr69  1  0.71447941  0.29088740  0.91373260  1
  Zr  Zr70  1  0.89542995  0.69648312  0.68878254  1
  Zr  Zr71  1  0.19902345  0.79981357  0.00167738  1
  Zr  Zr72  1  0.49985117  0.09689314  0.49308849  1
  Zr  Zr73  1  0.10307926  0.28941042  0.49701505  1
  Zr  Zr74  1  0.09404906  0.49760649  0.08937354  1
  Zr  Zr75  1  0.68836730  0.71208772  0.31799887  1
  Zr  Zr76  1  0.89585774  0.28853553  0.49510466  1
  Zr  Zr77  1  0.58618236  0.00935611  -0.00953458  1
  Zr  Zr78  1  0.20069538  0.59323826  0.80533785  1
  Zr  Zr79  1  0.30104740  0.89979856  0.70339297  1
  Zr  Zr80  1  0.30436671  0.10652683  0.90766148  1
  Zr  Zr81  1  0.60097017  0.80322520  -0.00956180  1
  Zr  Zr82  1  0.60157122  0.80657790  0.19789151  1
  Zr  Zr83  1  0.10100975  0.70549699  0.70242672  1
  Zr  Zr84  1  -0.00975551  0.79949977  0.80553363  1
  Zr  Zr85  1  0.60283222  -0.00479790  0.80416351  1
  Zr  Zr86  1  0.31412129  0.28683372  0.29705545  1
  Zr  Zr87  1  0.89643119  0.30260833  0.09141923  1
  Zr  Zr88  1  0.90486704  0.49324283  0.91468183  1
  Zr  Zr89  1  -0.00228372  0.60385517  0.40166783  1
  Zr  Zr90  1  0.40340855  0.80062997  0.59416577  1
  Zr  Zr91  1  0.10267884  0.29417898  0.69571652  1
  Zr  Zr92  1  0.40359766  0.79728910  0.20419219  1
  Zr  Zr93  1  0.29142889  0.90974073  0.49188457  1
  Zr  Zr94  1  0.89471873  0.49255348  0.28943339  1
  Zr  Zr95  1  -0.00185237  0.20219727  0.80452005  1
  Zr  Zr96  1  0.40246904  0.59714735  -0.01110835  1
  Zr  Zr97  1  0.40464970  0.40830290  0.40013961  1
  Zr  Zr98  1  0.50646854  0.29569735  0.29630148  1
  Zr  Zr99  1  0.70341753  0.91850612  0.08357769  1
  Ta  Ta100  1  0.70224744  0.29986859  0.49600000  1
  Ta  Ta101  1  0.80533150  -0.00825801  0.80259059  1
  Ta  Ta102  1  0.90332453  0.09904681  0.09871485  1
  Ta  Ta103  1  0.48849931  0.10786927  0.29144153  1
  Ta  Ta104  1  0.10366276  0.69713925  0.10456595  1
  Ta  Ta105  1  0.80078217  -0.01028054  0.59785826  1
  Ta  Ta106  1  0.30503794  0.90661094  0.10582333  1
  Ta  Ta107  1  0.00498153  0.39850714  0.80400424  1
  Ta  Ta108  1  0.09841285  0.30091420  0.09484727  1
  Ta  Ta109  1  0.39463953  0.39787829  0.80533601  1
  Ta  Ta110  1  0.40564744  0.59685343  0.20648297  1
  Ta  Ta111  1  0.09476219  0.69466066  0.91149642  1
  Ta  Ta112  1  0.70548801  0.70171393  0.70430725  1
  Ta  Ta113  1  0.90690560  0.90388644  0.10208870  1
  Ta  Ta114  1  0.49908821  0.29199183  0.10315247  1
  Ta  Ta115  1  0.19730388  0.58703757  0.60726061  1
  Ta  Ta116  1  0.29414980  0.10219789  0.49715999  1
  Ta  Ta117  1  0.79159923  0.39257644  0.60219863  1
  Ta  Ta118  1  0.09556692  0.30593017  0.91241171  1
  Ta  Ta119  1  0.30283470  0.29706586  0.09615635  1
  Ta  Ta120  1  -0.00221856  0.79848236  0.00758401  1
  Ta  Ta121  1  0.80310156  0.38808596  0.80214502  1
  Ta  Ta122  1  0.09481831  0.89740442  0.69585883  1
  Ta  Ta123  1  0.89906919  0.90823181  0.90819649  1
  Ta  Ta124  1  0.19895260  0.20409332  0.00700605  1
  Ta  Ta125  1  0.39505843  0.20309381  0.80418844  1
  Ta  Ta126  1  0.49789256  0.49999045  0.10042559  1
  Ta  Ta127  1  0.70708092  0.70241681  0.89168457  1
  Ta  Ta128  1  0.50046057  0.90262613  0.70362362  1
  Ta  Ta129  1  0.20578234  0.19396536  0.39249006  1
  Ta  Ta130  1  0.78714680  0.60652964  0.19508770  1
  Ta  Ta131  1  0.48808359  0.90714596  0.09563405  1
  Ta  Ta132  1  0.70976579  0.89266308  0.70245575  1
  Ta  Ta133  1  0.40483541  0.00747647  0.80197931  1
  Ta  Ta134  1  0.89872789  0.10316571  0.90960404  1
  Ta  Ta135  1  0.69458300  0.49851619  0.50059276  1
  Ta  Ta136  1  -0.00020864  0.39522612  0.60376700  1
  Ta  Ta137  1  0.20123932  0.39384211  0.19560003  1
  Ta  Ta138  1  0.19762681  0.40067778  0.80430177  1
  Ta  Ta139  1  0.30207852  0.49102484  0.69886891  1
  Ta  Ta140  1  0.00173704  0.39343382  0.39428599  1
  Ta  Ta141  1  0.70136402  0.29496265  0.10471114  1
  Ta  Ta142  1  0.30158425  0.50189931  0.49934418  1
  Ta  Ta143  1  0.90067406  0.70004200  0.10004299  1
  Ta  Ta144  1  0.20011876  0.59684733  -0.00416654  1
  Ta  Ta145  1  0.30812353  0.10471545  0.10756507  1
  Ta  Ta146  1  0.00523395  0.79899879  0.20064526  1
  Ta  Ta147  1  0.29803740  0.10420253  0.69269995  1
  Ta  Ta148  1  0.00057553  0.19088376  0.59415851  1
  Ta  Ta149  1  0.29508958  0.50234024  0.10247531  1
  Ti  Ti150  1  0.79570773  0.19857844  0.20027182  1
  Ti  Ti151  1  0.80642319  0.60423855  0.80499194  1
  Ti  Ti152  1  0.29541361  0.49349236  0.90101667  1
  Ti  Ti153  1  0.18821258  0.80513401  0.39797510  1
  Ti  Ti154  1  0.31052440  0.71121780  0.89993014  1
  Ti  Ti155  1  0.50156172  0.30450516  0.49099066  1
  Ti  Ti156  1  0.40665631  0.59942811  0.39218961  1
  Ti  Ti157  1  0.30012871  0.29866463  0.69958744  1
  Ti  Ti158  1  0.29621340  0.50736066  0.29436064  1
  Ti  Ti159  1  0.51316735  0.69744623  0.49011754  1
  Ti  Ti160  1  0.60983265  0.00263814  0.39091470  1
  Ti  Ti161  1  0.39853598  0.40149744  0.59511032  1
  Ti  Ti162  1  0.69698818  0.49918058  0.30063316  1
  Ti  Ti163  1  0.19405387  0.81058888  0.59670119  1
  Ti  Ti164  1  0.00091803  0.00343521  0.01128953  1
  Ti  Ti165  1  0.00431710  -0.00441360  0.40158329  1
  Ti  Ti166  1  0.70875389  0.11108284  0.09215240  1
  Ti  Ti167  1  0.38774117  0.01410566  0.39154228  1
  Ti  Ti168  1  0.00878328  0.38959386  0.20227718  1
  Ti  Ti169  1  0.48977156  0.10873325  0.10259313  1
  Ti  Ti170  1  0.20144047  0.39847564  -0.00286488  1
  Ti  Ti171  1  0.79771807  0.60875056  0.00718789  1
  Ti  Ti172  1  0.10254267  0.90556623  0.29806463  1
  Ti  Ti173  1  0.01364648  0.79752529  0.39570923  1
  Ti  Ti174  1  0.19651484  -0.00269757  0.59960475  1
  Ti  Ti175  1  0.90284016  0.10073111  0.30217013  1
  Ti  Ti176  1  0.69965650  0.89296507  0.49171991  1
  Ti  Ti177  1  0.19730759  0.80040081  0.80650254  1
  Ti  Ti178  1  0.40301947  0.00719134  -0.00029807  1
  Ti  Ti179  1  0.89693517  0.89356475  0.70000548  1
  Ti  Ti180  1  0.80053476  0.79739756  0.59586005  1
  Ti  Ti181  1  0.50533908  0.49899917  0.49595011  1
  Ti  Ti182  1  0.70787173  0.49352453  0.09847630  1
  Ti  Ti183  1  0.70026787  0.11147220  0.29696554  1
  Ti  Ti184  1  0.61274546  -0.00415887  0.60440335  1
  Ti  Ti185  1  0.39454816  0.00200697  0.60097120  1
  Ti  Ti186  1  0.89725512  0.10137005  0.49332167  1
  Ti  Ti187  1  0.09961691  0.08888206  0.30276265  1
  Ti  Ti188  1  0.48833280  0.89346085  0.89793620  1
  Ti  Ti189  1  0.00391068  0.59145566  0.60546569  1
  Ti  Ti190  1  0.59068689  0.58973522  0.39214467  1
  Ti  Ti191  1  0.59293789  0.59535152  0.60711806  1
  Ti  Ti192  1  0.49091218  0.28945914  0.90714453  1
  Ti  Ti193  1  0.90309293  0.69646622  0.90801372  1
  Ti  Ti194  1  -0.00367580  -0.00031904  0.79644086  1
  Ti  Ti195  1  0.10354389  0.10086843  0.69299871  1
  Ti  Ti196  1  0.00618609  0.19887674  0.39173889  1
  Ti  Ti197  1  0.59216286  0.19680128  0.00478719  1
  Ti  Ti198  1  0.60629329  0.80598423  0.80531319  1
  Ti  Ti199  1  0.20026501  0.01319532  0.20183711  1
  Mo  Mo200  1  0.80096330  0.79925091  0.80366737  1
  Mo  Mo201  1  0.10407793  0.49580166  0.90197612  1
  Mo  Mo202  1  0.10436139  0.71071860  0.29326862  1
  Mo  Mo203  1  0.78662847  0.40192624  0.19810823  1
  Mo  Mo204  1  0.60284663  0.19622214  0.19111542  1
  Mo  Mo205  1  0.39984539  0.00534706  0.19469653  1
  Mo  Mo206  1  0.20470434  0.19391959  0.59773542  1
  Mo  Mo207  1  0.40099083  0.19900911  0.19508406  1
  Mo  Mo208  1  0.59656075  0.80714203  0.40918687  1
  Mo  Mo209  1  0.00083388  0.60793737  0.00263808  1
  Mo  Mo210  1  0.79210231  0.59754390  0.59887208  1
  Mo  Mo211  1  0.79778034  0.39588958  0.00375437  1
  Mo  Mo212  1  0.90448173  0.29798855  0.90039391  1
  Mo  Mo213  1  0.19403287  0.80378823  0.20052102  1
  Mo  Mo214  1  0.80606328  0.19750326  0.81175370  1
  Mo  Mo215  1  0.49931206  0.69362113  0.30933695  1
  Mo  Mo216  1  0.70397992  0.30152922  0.70027949  1
  Mo  Mo217  1  0.09793746  0.29988658  0.29621313  1
  Mo  Mo218  1  0.10270757  0.48961827  0.69828742  1
  Mo  Mo219  1  0.49838863  0.48187064  0.90278340  1
  Mo  Mo220  1  0.39703682  0.80697158  0.00019897  1
  Mo  Mo221  1  0.49115772  0.49312460  0.69931630  1
  Mo  Mo222  1  0.00159977  0.39640677  -0.00208317  1
  Mo  Mo223  1  0.71232343  0.89705439  0.89032144  1
  Mo  Mo224  1  0.00218308  0.19997043  0.00415580  1
  Mo  Mo225  1  0.30336522  0.29848649  0.49398891  1
  Mo  Mo226  1  -0.00317960  0.80402736  0.60377185  1
  Mo  Mo227  1  0.80792849  0.19705802  0.00886477  1
  Mo  Mo228  1  0.70317508  0.69485262  0.09204615  1
  Mo  Mo229  1  0.81265845  0.00242620  0.00302726  1
  Mo  Mo230  1  0.40745206  0.80348900  0.80378618  1
  Mo  Mo231  1  0.69584045  0.90736649  0.30702210  1
  Mo  Mo232  1  0.09838491  0.90084411  0.49818917  1
  Mo  Mo233  1  0.39906405  0.19541394  0.40213918  1
  Mo  Mo234  1  0.50269396  0.50445032  0.29816991  1
  Mo  Mo235  1  0.50240223  0.71791650  0.89663957  1
  Mo  Mo236  1  0.39972560  0.20422628  0.00216911  1
  Mo  Mo237  1  0.49223745  0.10592197  0.90208777  1
  Mo  Mo238  1  0.29891707  0.09747942  0.29977276  1
  Mo  Mo239  1  0.80030597  0.19866832  0.58828904  1
  Mo  Mo240  1  0.10054416  0.10134281  0.10319308  1
  Mo  Mo241  1  0.70453277  0.29690567  0.29399766  1
  Mo  Mo242  1  0.60265834  0.40558787  0.40404314  1
  Mo  Mo243  1  0.19591726  0.00402924  0.39320112  1
  Mo  Mo244  1  -0.00006357  0.00303409  0.20495365  1
  Mo  Mo245  1  0.79990291  0.19387927  0.38986407  1
  Mo  Mo246  1  0.29259318  0.30281206  0.90208835  1
  Mo  Mo247  1  0.20322199  0.59464472  0.19378461  1
  Mo  Mo248  1  0.89680339  0.69988976  0.50564236  1
  Mo  Mo249  1  0.79013588  0.80167970  0.40726387  1
