# generated using pymatgen
data_HfZrTaTiMo
_symmetry_space_group_name_H-M   'P 1'
_cell_length_a   16.89246433
_cell_length_b   16.89409330
_cell_length_c   16.89415136
_cell_angle_alpha   89.96936177
_cell_angle_beta   90.00763706
_cell_angle_gamma   89.98782441
_symmetry_Int_Tables_number   1
_chemical_formula_structural   HfZrTaTiMo
_chemical_formula_sum   'Hf50 Zr50 Ta50 Ti50 Mo50'
_cell_volume   4821.30053295
_cell_formula_units_Z   50
loop_
 _symmetry_equiv_pos_site_id
 _symmetry_equiv_pos_as_xyz
  1  'x, y, z'
loop_
 _atom_site_type_symbol
 _atom_site_label
 _atom_site_symmetry_multiplicity
 _atom_site_fract_x
 _atom_site_fract_y
 _atom_site_fract_z
 _atom_site_occupancy
  Hf  Hf0  1  0.39923853  0.79760416  -0.00136639  1
  Hf  Hf1  1  0.29739458  0.50149663  0.70319996  1
  Hf  Hf2  1  0.59217225  0.59641241  0.60326473  1
  Hf  Hf3  1  0.70709709  0.70455870  0.89772721  1
  Hf  Hf4  1  0.00081580  0.19725534  0.79756826  1
  Hf  Hf5  1  0.70354989  0.90397412  0.51104111  1
  Hf  Hf6  1  0.29959037  0.88918589  0.28567642  1
  Hf  Hf7  1  0.50526471  0.49866627  0.90912562  1
  Hf  Hf8  1  0.50021962  0.10123342  0.10628122  1
  Hf  Hf9  1  0.60048226  0.60350160  0.40250958  1
  Hf  Hf10  1  0.49045317  0.29577573  0.49375998  1
  Hf  Hf11  1  0.60059048  0.80673106  0.39775037  1
  Hf  Hf12  1  0.38669813  0.80399443  0.59331742  1
  Hf  Hf13  1  0.90897815  0.91500641  0.29627323  1
  Hf  Hf14  1  0.10286480  0.09188765  0.91047376  1
  Hf  Hf15  1  0.71109414  0.49139306  0.69651333  1
  Hf  Hf16  1  0.49752341  0.90329722  0.50148891  1
  Hf  Hf17  1  0.81273222  0.59012752  0.00131506  1
  Hf  Hf18  1  0.69797474  0.30393515  0.90474627  1
  Hf  Hf19  1  0.80325294  0.19802877  0.19314259  1
  Hf  Hf20  1  0.49230389  0.70653940  0.29554293  1
  Hf  Hf21  1  -0.00377038  0.60425319  0.61048315  1
  Hf  Hf22  1  0.91057385  0.70378325  0.09198982  1
  Hf  Hf23  1  0.69785741  0.30990764  0.10266454  1
  Hf  Hf24  1  0.70389735  0.70690896  0.50719942  1
  Hf  Hf25  1  0.19310409  0.79903836  0.80584318  1
  Hf  Hf26  1  0.00619366  0.20614695  0.19419054  1
  Hf  Hf27  1  0.70987716  0.70111219  0.30243111  1
  Hf  Hf28  1  0.90742178  0.90380134  0.09975253  1
  Hf  Hf29  1  0.83006780  0.40402967  0.19072499  1
  Hf  Hf30  1  0.59226897  0.39683031  0.79857632  1
  Hf  Hf31  1  0.80415924  0.80295629  0.19980819  1
  Hf  Hf32  1  0.29896546  0.90574673  0.70355186  1
  Hf  Hf33  1  0.70617925  0.10182025  0.49758951  1
  Hf  Hf34  1  0.10093344  0.90756795  0.29223174  1
  Hf  Hf35  1  0.00049890  0.39428292  0.80549618  1
  Hf  Hf36  1  0.70664948  0.71835224  0.70485668  1
  Hf  Hf37  1  0.28972851  0.91411899  0.90717415  1
  Hf  Hf38  1  0.20111479  0.59932437  0.59322599  1
  Hf  Hf39  1  0.59347082  0.80065679  -0.00398390  1
  Hf  Hf40  1  0.39784055  0.39672655  0.80017488  1
  Hf  Hf41  1  0.40275084  0.80282188  0.81004257  1
  Hf  Hf42  1  0.20547417  0.60536117  0.20120509  1
  Hf  Hf43  1  0.58686548  0.40513024  0.60621371  1
  Hf  Hf44  1  0.30510500  0.10480662  0.70803064  1
  Hf  Hf45  1  0.81547384  0.61968873  0.61294698  1
  Hf  Hf46  1  0.29269295  0.49448700  0.09697387  1
  Hf  Hf47  1  0.39183678  -0.00081699  0.39842257  1
  Hf  Hf48  1  -0.00206073  0.80555990  0.39710239  1
  Hf  Hf49  1  0.19872543  0.79743580  0.59190210  1
  Zr  Zr50  1  0.08976422  0.69104837  0.49025609  1
  Zr  Zr51  1  0.49636080  0.89894776  0.10746264  1
  Zr  Zr52  1  0.80884338  0.39874513  0.80754721  1
  Zr  Zr53  1  0.80047685  0.19504603  0.79936007  1
  Zr  Zr54  1  0.49307293  0.70281843  0.69392649  1
  Zr  Zr55  1  0.10524396  0.49074726  0.09433478  1
  Zr  Zr56  1  0.39973325  0.61118127  0.00491488  1
  Zr  Zr57  1  0.38601438  0.39793175  0.59665196  1
  Zr  Zr58  1  0.71427360  0.50383466  0.50392166  1
  Zr  Zr59  1  0.60511546  0.19411310  0.00223053  1
  Zr  Zr60  1  0.19146617  0.60491687  0.80783415  1
  Zr  Zr61  1  0.70479076  0.49587765  0.29107904  1
  Zr  Zr62  1  -0.02426662  0.79809156  0.59228202  1
  Zr  Zr63  1  0.69868676  0.90680583  0.89525240  1
  Zr  Zr64  1  0.20011406  0.00255111  0.59756308  1
  Zr  Zr65  1  0.19616031  0.19947389  0.80017713  1
  Zr  Zr66  1  0.47529346  0.50560083  0.48775942  1
  Zr  Zr67  1  0.48495274  0.28502470  0.70427174  1
  Zr  Zr68  1  0.09108588  0.89797541  0.69732291  1
  Zr  Zr69  1  0.80914539  0.81037280  0.40683728  1
  Zr  Zr70  1  0.00177917  0.58903471  0.19262322  1
  Zr  Zr71  1  0.10351569  0.29010347  0.50116023  1
  Zr  Zr72  1  0.59787346  0.39939197  0.40234327  1
  Zr  Zr73  1  0.69675683  0.29629092  0.29485146  1
  Zr  Zr74  1  0.81410938  0.59630535  0.80496006  1
  Zr  Zr75  1  0.60687674  0.60864356  0.19360188  1
  Zr  Zr76  1  0.20725376  0.00817261  0.19211545  1
  Zr  Zr77  1  0.49354162  0.50050183  0.29770352  1
  Zr  Zr78  1  0.89994806  0.89994365  0.90014085  1
  Zr  Zr79  1  0.71163020  0.29673950  0.50753292  1
  Zr  Zr80  1  0.19849670  0.19863145  0.00880442  1
  Zr  Zr81  1  0.81253701  0.39569453  0.39505404  1
  Zr  Zr82  1  0.40214689  0.38694041  -0.00328299  1
  Zr  Zr83  1  0.90377936  0.09781061  0.30192813  1
  Zr  Zr84  1  0.49547602  0.09280733  0.90050389  1
  Zr  Zr85  1  0.60778249  0.00638181  0.20316520  1
  Zr  Zr86  1  0.51080657  0.49533344  0.10206021  1
  Zr  Zr87  1  0.59695506  0.59981965  0.79839018  1
  Zr  Zr88  1  -0.00042665  0.39586582  0.59160912  1
  Zr  Zr89  1  0.90261516  0.50779509  0.49289928  1
  Zr  Zr90  1  0.50527269  0.29238390  0.11218051  1
  Zr  Zr91  1  0.59593038  0.19127082  0.60446839  1
  Zr  Zr92  1  0.39280112  0.39658819  0.20223249  1
  Zr  Zr93  1  0.09746642  0.49739145  0.70375492  1
  Zr  Zr94  1  0.39892957  0.60529285  0.80916118  1
  Zr  Zr95  1  0.00492109  0.39968573  0.38697445  1
  Zr  Zr96  1  0.69467790  0.08937946  0.89751059  1
  Zr  Zr97  1  0.20476516  0.80043924  0.40354935  1
  Zr  Zr98  1  0.49603466  0.89565238  0.29157752  1
  Zr  Zr99  1  0.90466055  0.09602925  0.90540667  1
  Ta  Ta100  1  0.90629670  0.69238396  0.29869572  1
  Ta  Ta101  1  0.09881495  0.49538581  0.90882622  1
  Ta  Ta102  1  0.80719242  0.00126559  0.60564154  1
  Ta  Ta103  1  0.38829966  0.19786814  0.59717140  1
  Ta  Ta104  1  0.90971715  0.70581118  0.90414485  1
  Ta  Ta105  1  0.69651486  0.90030693  0.09921545  1
  Ta  Ta106  1  0.10090230  0.29308753  0.69110690  1
  Ta  Ta107  1  0.70405608  0.10385687  0.30581859  1
  Ta  Ta108  1  0.29600634  0.10341548  0.49969383  1
  Ta  Ta109  1  0.10490685  0.89781488  0.09398431  1
  Ta  Ta110  1  0.20261752  0.00313220  0.39990183  1
  Ta  Ta111  1  0.49393927  0.09924113  0.49797744  1
  Ta  Ta112  1  0.69668850  0.49449286  0.91293050  1
  Ta  Ta113  1  0.09971505  0.09972867  0.30124980  1
  Ta  Ta114  1  0.69967261  0.49252432  0.09466824  1
  Ta  Ta115  1  0.20744611  0.39950962  0.40495607  1
  Ta  Ta116  1  0.09941224  0.90024601  0.90971689  1
  Ta  Ta117  1  0.49709119  0.10897980  0.29729048  1
  Ta  Ta118  1  0.90762013  0.09600571  0.10084406  1
  Ta  Ta119  1  0.59522046  0.00145932  0.60735256  1
  Ta  Ta120  1  0.10327716  0.70877024  0.09148767  1
  Ta  Ta121  1  0.30429871  0.50016400  0.31072249  1
  Ta  Ta122  1  0.19865995  0.39112977  0.80043369  1
  Ta  Ta123  1  0.09698895  0.10086143  0.49738603  1
  Ta  Ta124  1  0.09116324  0.91123530  0.49576756  1
  Ta  Ta125  1  0.38850363  0.79631253  0.40471268  1
  Ta  Ta126  1  0.80371837  0.19757361  0.00777915  1
  Ta  Ta127  1  0.59667887  0.19500469  0.39936741  1
  Ta  Ta128  1  0.49504425  0.29207688  0.29787026  1
  Ta  Ta129  1  0.79436193  0.00644196  0.01218790  1
  Ta  Ta130  1  0.00591187  0.79929380  0.19822042  1
  Ta  Ta131  1  0.30027776  0.29311816  0.89665901  1
  Ta  Ta132  1  0.80864232  0.59566511  0.19267671  1
  Ta  Ta133  1  0.28787540  0.49272291  0.90735895  1
  Ta  Ta134  1  0.59342006  0.19674509  0.79809190  1
  Ta  Ta135  1  0.20366844  0.39500295  0.59721794  1
  Ta  Ta136  1  0.59937800  0.00534066  0.40037661  1
  Ta  Ta137  1  0.39321506  0.19783280  0.39897499  1
  Ta  Ta138  1  0.00376835  0.20048645  0.39726596  1
  Ta  Ta139  1  0.90368601  0.29646095  0.91067636  1
  Ta  Ta140  1  -0.01027125  0.00551680  0.59967109  1
  Ta  Ta141  1  0.00081837  0.00180207  0.79174449  1
  Ta  Ta142  1  0.70543133  0.29738925  0.69759698  1
  Ta  Ta143  1  0.58750901  0.81073310  0.80266174  1
  Ta  Ta144  1  0.90118163  0.29289430  0.69065533  1
  Ta  Ta145  1  0.20107593  0.19751987  0.39714578  1
  Ta  Ta146  1  0.09113220  0.70321154  0.70524458  1
  Ta  Ta147  1  0.29710245  0.29830004  0.29990932  1
  Ta  Ta148  1  0.10106905  0.70052400  0.29545019  1
  Ta  Ta149  1  0.49401149  0.70342889  0.49814986  1
  Ti  Ti150  1  0.40328358  0.00487251  0.60276375  1
  Ti  Ti151  1  0.70462552  0.70525913  0.09890574  1
  Ti  Ti152  1  0.30780032  0.10519444  0.09601823  1
  Ti  Ti153  1  0.00091542  0.80066244  0.80539465  1
  Ti  Ti154  1  0.89626216  0.68641087  0.47841473  1
  Ti  Ti155  1  0.40013099  0.20257280  -0.00463092  1
  Ti  Ti156  1  0.59267618  0.81051495  0.60864038  1
  Ti  Ti157  1  0.70297645  0.90544073  0.29919160  1
  Ti  Ti158  1  0.70543920  0.89907102  0.70196487  1
  Ti  Ti159  1  0.40906295  -0.00498073  0.79820749  1
  Ti  Ti160  1  0.39408073  0.00614997  0.19914712  1
  Ti  Ti161  1  0.89898850  0.28591072  0.50021871  1
  Ti  Ti162  1  0.18796299  0.00398980  0.79792104  1
  Ti  Ti163  1  0.09641767  0.09161771  0.10160887  1
  Ti  Ti164  1  0.90456876  0.10307354  0.49601629  1
  Ti  Ti165  1  0.50131721  0.71103249  0.11218869  1
  Ti  Ti166  1  0.80880649  0.18817113  0.60563077  1
  Ti  Ti167  1  0.28584810  0.70490278  0.91136597  1
  Ti  Ti168  1  0.20024860  0.19962513  0.19954171  1
  Ti  Ti169  1  0.20739283  0.60021543  0.39866631  1
  Ti  Ti170  1  0.69898108  0.09589902  0.70135991  1
  Ti  Ti171  1  0.09480832  0.10634191  0.68586532  1
  Ti  Ti172  1  0.90008210  0.48775766  0.69648170  1
  Ti  Ti173  1  -0.00369361  0.59911953  0.80861249  1
  Ti  Ti174  1  0.29405458  0.69988691  0.70118214  1
  Ti  Ti175  1  0.90611429  0.29242435  0.29939589  1
  Ti  Ti176  1  0.80047655  0.80470932  0.00011491  1
  Ti  Ti177  1  0.79661008  0.00481597  0.19539120  1
  Ti  Ti178  1  0.19464724  0.60681691  -0.00053815  1
  Ti  Ti179  1  0.10883483  0.49573257  0.29674447  1
  Ti  Ti180  1  0.10180628  0.30487286  0.91190559  1
  Ti  Ti181  1  0.30018376  0.10764691  0.29701715  1
  Ti  Ti182  1  0.10103693  0.50185439  0.49143391  1
  Ti  Ti183  1  0.11064567  0.30342268  0.29432074  1
  Ti  Ti184  1  0.80911440  0.00282888  0.78983018  1
  Ti  Ti185  1  0.38927290  0.60210367  0.59308667  1
  Ti  Ti186  1  0.89348166  0.89417403  0.70222743  1
  Ti  Ti187  1  0.00342763  -0.00285298  0.00336686  1
  Ti  Ti188  1  0.81283377  0.40048792  0.00194278  1
  Ti  Ti189  1  0.29065709  0.88890050  0.09753140  1
  Ti  Ti190  1  0.00187519  0.20508499  0.00786048  1
  Ti  Ti191  1  0.60157927  0.61003008  0.00153824  1
  Ti  Ti192  1  0.29280528  0.29965366  0.10464025  1
  Ti  Ti193  1  0.38970743  0.60881060  0.19859529  1
  Ti  Ti194  1  0.80289097  0.00118113  0.40505233  1
  Ti  Ti195  1  0.39967999  -0.00414584  0.00479690  1
  Ti  Ti196  1  0.10653066  0.31368398  0.10646260  1
  Ti  Ti197  1  0.58536585  -0.00533143  0.78479430  1
  Ti  Ti198  1  0.30181848  0.09787708  0.90249153  1
  Ti  Ti199  1  -0.00928072  0.39975183  0.00879475  1
  Mo  Mo200  1  0.80232908  0.81048027  0.60679217  1
  Mo  Mo201  1  0.90711766  0.29457692  0.09175259  1
  Mo  Mo202  1  0.00714416  0.59644350  0.38430901  1
  Mo  Mo203  1  0.70557092  0.09702610  0.10502254  1
  Mo  Mo204  1  0.49691592  0.90681430  0.90029644  1
  Mo  Mo205  1  0.38650971  0.19636535  0.20296191  1
  Mo  Mo206  1  0.60472361  0.19796706  0.20906535  1
  Mo  Mo207  1  0.61733010  0.80178551  0.19865286  1
  Mo  Mo208  1  0.48930244  0.50379621  0.69994758  1
  Mo  Mo209  1  0.39589492  0.19625635  0.80735315  1
  Mo  Mo210  1  0.09219958  0.69901667  0.90352170  1
  Mo  Mo211  1  0.80478284  0.59947891  0.38772213  1
  Mo  Mo212  1  0.28979668  0.29632522  0.69960501  1
  Mo  Mo213  1  0.29705952  0.69611521  0.29925333  1
  Mo  Mo214  1  0.49578842  0.90255155  0.69730322  1
  Mo  Mo215  1  0.00711298  0.00733688  0.40395440  1
  Mo  Mo216  1  0.19454006  0.79600364  0.19272995  1
  Mo  Mo217  1  0.30121135  0.69118728  0.49739633  1
  Mo  Mo218  1  0.29841735  0.91215981  0.49830250  1
  Mo  Mo219  1  0.20332935  0.00157114  0.00589122  1
  Mo  Mo220  1  0.00691700  0.60107231  -0.00792879  1
  Mo  Mo221  1  0.38972414  0.61337617  0.39776704  1
  Mo  Mo222  1  0.19871574  0.80050692  -0.00168194  1
  Mo  Mo223  1  0.01017882  0.39275227  0.20064777  1
  Mo  Mo224  1  -0.00212711  0.19290281  0.59668735  1
  Mo  Mo225  1  0.60121168  -0.00406322  0.00768243  1
  Mo  Mo226  1  0.90506601  0.71414974  0.72209557  1
  Mo  Mo227  1  0.60240311  0.39845552  -0.00152876  1
  Mo  Mo228  1  0.80841793  0.19705315  0.39958816  1
  Mo  Mo229  1  0.00870407  0.00314595  0.19262399  1
  Mo  Mo230  1  0.90138503  0.09764710  0.69808513  1
  Mo  Mo231  1  0.90805348  0.49928007  0.09431597  1
  Mo  Mo232  1  0.20188972  0.39933934  0.21190387  1
  Mo  Mo233  1  0.20168006  0.19970057  0.59811596  1
  Mo  Mo234  1  0.20109238  0.39021992  -0.00787590  1
  Mo  Mo235  1  0.91123726  0.49495946  0.90742094  1
  Mo  Mo236  1  0.29098795  0.50007975  0.49443930  1
  Mo  Mo237  1  0.90741712  0.50760987  0.29575031  1
  Mo  Mo238  1  0.49383400  0.09420267  0.69728720  1
  Mo  Mo239  1  0.80753496  0.38533397  0.60188758  1
  Mo  Mo240  1  0.50880639  0.70261927  0.90432519  1
  Mo  Mo241  1  0.00600121  0.80200493  -0.00101557  1
  Mo  Mo242  1  0.49680766  0.29039710  0.89789522  1
  Mo  Mo243  1  0.29197095  0.70175702  0.09910709  1
  Mo  Mo244  1  0.89962374  0.91993623  0.49834844  1
  Mo  Mo245  1  0.29598094  0.29400134  0.49508920  1
  Mo  Mo246  1  0.59527659  0.39918840  0.19813346  1
  Mo  Mo247  1  0.38104081  0.78407180  0.19313501  1
  Mo  Mo248  1  0.80551845  0.80544011  0.80304930  1
  Mo  Mo249  1  0.38926386  0.38641087  0.39655287  1
