# generated using pymatgen
data_HfZrTaTiMo
_symmetry_space_group_name_H-M   'P 1'
_cell_length_a   16.88508431
_cell_length_b   16.89073417
_cell_length_c   16.89389149
_cell_angle_alpha   89.97610557
_cell_angle_beta   89.96752786
_cell_angle_gamma   90.00583606
_symmetry_Int_Tables_number   1
_chemical_formula_structural   HfZrTaTiMo
_chemical_formula_sum   'Hf50 Zr50 Ta50 Ti50 Mo50'
_cell_volume   4818.16147937
_cell_formula_units_Z   50
loop_
 _symmetry_equiv_pos_site_id
 _symmetry_equiv_pos_as_xyz
  1  'x, y, z'
loop_
 _atom_site_type_symbol
 _atom_site_label
 _atom_site_symmetry_multiplicity
 _atom_site_fract_x
 _atom_site_fract_y
 _atom_site_fract_z
 _atom_site_occupancy
  Hf  Hf0  1  0.00193342  0.78951108  -0.00160247  1
  Hf  Hf1  1  0.79270845  0.40648499  0.59851519  1
  Hf  Hf2  1  -0.00128543  0.39757829  0.40937685  1
  Hf  Hf3  1  0.20500805  0.78570534  0.40107040  1
  Hf  Hf4  1  0.70209211  0.09506350  0.90061387  1
  Hf  Hf5  1  0.40749767  0.40004115  -0.00683507  1
  Hf  Hf6  1  0.09877605  0.90512618  0.10291593  1
  Hf  Hf7  1  0.10420581  0.49699984  0.29401006  1
  Hf  Hf8  1  0.60094679  0.20500396  0.60787485  1
  Hf  Hf9  1  0.09969331  0.09846349  0.29974142  1
  Hf  Hf10  1  0.90043892  0.90559789  0.09327527  1
  Hf  Hf11  1  0.20306259  0.00675329  0.40919473  1
  Hf  Hf12  1  0.09906122  0.90140264  0.30191856  1
  Hf  Hf13  1  0.00160754  0.20405042  0.40551974  1
  Hf  Hf14  1  0.40636945  0.21297718  0.40555940  1
  Hf  Hf15  1  0.11261968  0.89344927  0.70372423  1
  Hf  Hf16  1  0.50622417  0.69574663  0.08608333  1
  Hf  Hf17  1  0.42012392  0.40793980  0.19452579  1
  Hf  Hf18  1  0.10800989  0.89449901  0.88987529  1
  Hf  Hf19  1  0.79811837  0.19466395  0.61102753  1
  Hf  Hf20  1  0.20567320  0.60173216  0.41324787  1
  Hf  Hf21  1  0.20793759  0.78541506  0.00923912  1
  Hf  Hf22  1  0.50231894  0.10626023  0.29263007  1
  Hf  Hf23  1  0.10538748  0.10364143  0.89056539  1
  Hf  Hf24  1  0.39699676  0.00607968  0.40460083  1
  Hf  Hf25  1  0.29814899  0.89290120  0.70203627  1
  Hf  Hf26  1  0.50225838  0.10649053  0.89490093  1
  Hf  Hf27  1  0.88748258  0.68644169  0.09754538  1
  Hf  Hf28  1  0.30345932  0.89259814  0.51162115  1
  Hf  Hf29  1  0.59190555  0.59979878  0.79998686  1
  Hf  Hf30  1  0.79687605  0.79380449  0.19702169  1
  Hf  Hf31  1  -0.00170939  0.20824332  0.19487421  1
  Hf  Hf32  1  0.90059491  0.30433197  0.70081093  1
  Hf  Hf33  1  0.59902422  0.21010027  -0.00103484  1
  Hf  Hf34  1  0.89339926  0.90131184  0.90063952  1
  Hf  Hf35  1  0.49341864  0.49637788  0.51058134  1
  Hf  Hf36  1  0.69699657  0.88931658  0.51044117  1
  Hf  Hf37  1  -0.00377096  0.40434643  -0.01176692  1
  Hf  Hf38  1  0.10404319  0.89659775  0.51029990  1
  Hf  Hf39  1  0.10700043  0.69643839  0.88466232  1
  Hf  Hf40  1  0.39755365  0.60193646  -0.00542306  1
  Hf  Hf41  1  0.19687973  0.40467952  -0.00836612  1
  Hf  Hf42  1  0.80185631  0.79652805  0.79061879  1
  Hf  Hf43  1  0.89197570  0.49491274  0.10122089  1
  Hf  Hf44  1  0.79438248  0.21882896  -0.00724997  1
  Hf  Hf45  1  0.19745227  0.20470515  0.19729964  1
  Hf  Hf46  1  0.30997510  0.10116108  0.09681647  1
  Hf  Hf47  1  0.29383482  0.49837779  0.10656216  1
  Hf  Hf48  1  0.49438863  0.89140455  0.50883214  1
  Hf  Hf49  1  0.41290738  0.20709721  0.18975081  1
  Zr  Zr50  1  0.39148356  0.78431836  0.20484477  1
  Zr  Zr51  1  0.69261665  0.69578333  0.90531817  1
  Zr  Zr52  1  0.58937194  0.80118204  0.79923799  1
  Zr  Zr53  1  0.90358017  0.50103041  0.69779183  1
  Zr  Zr54  1  0.21225687  0.00139724  -0.01015604  1
  Zr  Zr55  1  0.60099684  0.59477373  0.40258211  1
  Zr  Zr56  1  0.50264573  0.09701314  0.50772368  1
  Zr  Zr57  1  0.49712974  0.69828209  0.51260609  1
  Zr  Zr58  1  0.80111007  -0.00276744  0.40261614  1
  Zr  Zr59  1  0.69478810  0.10532415  0.09918816  1
  Zr  Zr60  1  0.69408621  0.89410660  0.08939742  1
  Zr  Zr61  1  -0.00115975  0.60027891  0.40704170  1
  Zr  Zr62  1  0.89520764  0.49523710  0.29523589  1
  Zr  Zr63  1  0.30573193  0.89690266  0.30576902  1
  Zr  Zr64  1  0.29761482  0.49505517  0.30015749  1
  Zr  Zr65  1  0.09947939  0.69080266  0.69914469  1
  Zr  Zr66  1  0.80031544  0.79968583  0.39918039  1
  Zr  Zr67  1  0.69385184  0.11080771  0.29189243  1
  Zr  Zr68  1  -0.00419273  0.00124179  0.78885265  1
  Zr  Zr69  1  0.21115579  0.20307628  -0.01055991  1
  Zr  Zr70  1  0.30430933  0.69744525  0.71315930  1
  Zr  Zr71  1  0.19684445  0.40706270  0.41800926  1
  Zr  Zr72  1  0.70013660  0.09322470  0.50536502  1
  Zr  Zr73  1  -0.00121719  0.00347829  0.60901281  1
  Zr  Zr74  1  0.10219529  0.29607385  0.88697193  1
  Zr  Zr75  1  0.70099308  0.30895633  0.28469507  1
  Zr  Zr76  1  0.21034938  0.40238907  0.60827245  1
  Zr  Zr77  1  0.30469818  0.88004339  0.89024195  1
  Zr  Zr78  1  0.69960399  0.69305452  0.30293487  1
  Zr  Zr79  1  0.90488041  0.09971123  0.29502080  1
  Zr  Zr80  1  0.78975124  -0.00411582  0.19978297  1
  Zr  Zr81  1  0.60526223  0.40281813  0.40738516  1
  Zr  Zr82  1  0.00393223  0.78571604  0.19772478  1
  Zr  Zr83  1  0.90128770  0.09851718  0.09162646  1
  Zr  Zr84  1  0.00414670  0.59445484  -0.00223495  1
  Zr  Zr85  1  0.48963256  0.89404235  0.09436547  1
  Zr  Zr86  1  0.20834700  0.00084500  0.19734403  1
  Zr  Zr87  1  0.29975720  0.30837506  0.10045774  1
  Zr  Zr88  1  0.29964458  0.31003309  0.30199843  1
  Zr  Zr89  1  0.91269752  0.90401084  0.29559382  1
  Zr  Zr90  1  0.39404131  0.20615583  0.61079549  1
  Zr  Zr91  1  0.59751398  0.21252056  0.40836002  1
  Zr  Zr92  1  0.79656199  0.40582122  0.81418365  1
  Zr  Zr93  1  0.59303251  0.79132762  0.20634593  1
  Zr  Zr94  1  0.19967807  0.59991602  0.00001723  1
  Zr  Zr95  1  0.90078815  0.10122412  0.90374403  1
  Zr  Zr96  1  0.39542147  0.00539511  0.80133126  1
  Zr  Zr97  1  0.80321069  0.21021585  0.40340595  1
  Zr  Zr98  1  0.40849110  0.60087531  0.20438234  1
  Zr  Zr99  1  0.59788476  -0.00953462  0.39336625  1
  Ta  Ta100  1  0.21019096  0.59251486  0.59858917  1
  Ta  Ta101  1  0.80368347  -0.00232914  0.61099053  1
  Ta  Ta102  1  0.89919814  0.89741782  0.50844547  1
  Ta  Ta103  1  0.10121928  0.50334854  0.70229575  1
  Ta  Ta104  1  0.00335748  0.59971114  0.19812846  1
  Ta  Ta105  1  0.89672445  0.68861961  0.30393024  1
  Ta  Ta106  1  0.68971325  0.50322736  0.70105050  1
  Ta  Ta107  1  -0.01237274  0.79691410  0.60774290  1
  Ta  Ta108  1  0.69755681  0.69799189  0.69341249  1
  Ta  Ta109  1  0.40207166  0.40696327  0.79063909  1
  Ta  Ta110  1  0.50332200  0.30741214  0.70467039  1
  Ta  Ta111  1  0.90068977  0.30162905  0.50860808  1
  Ta  Ta112  1  0.09357312  0.10476478  0.08954699  1
  Ta  Ta113  1  0.59836206  -0.00391300  0.79778688  1
  Ta  Ta114  1  0.69677655  0.69889181  0.51056340  1
  Ta  Ta115  1  0.78640353  0.40232798  -0.00120298  1
  Ta  Ta116  1  0.89439299  0.69353547  0.89709243  1
  Ta  Ta117  1  0.39651127  0.60118138  0.40042927  1
  Ta  Ta118  1  0.40368812  0.00249589  -0.00764866  1
  Ta  Ta119  1  0.10203933  0.30531363  0.30113974  1
  Ta  Ta120  1  0.59111492  -0.00263535  -0.00559811  1
  Ta  Ta121  1  0.39606681  0.00677482  0.60814400  1
  Ta  Ta122  1  0.69961611  0.90178460  0.89687045  1
  Ta  Ta123  1  0.79606026  0.59722861  0.79771641  1
  Ta  Ta124  1  0.50419403  0.50042603  0.89738802  1
  Ta  Ta125  1  0.79375510  0.58934656  0.41070004  1
  Ta  Ta126  1  0.89067629  0.70180503  0.50524762  1
  Ta  Ta127  1  0.79494724  0.59989711  0.60141365  1
  Ta  Ta128  1  0.59849456  0.58787551  0.19522533  1
  Ta  Ta129  1  0.79615023  0.20016370  0.79687980  1
  Ta  Ta130  1  0.40795824  0.20602086  -0.00785248  1
  Ta  Ta131  1  0.31101630  0.31223050  0.50399323  1
  Ta  Ta132  1  -0.00996575  0.79487630  0.79221882  1
  Ta  Ta133  1  0.50157130  0.10365212  0.70555667  1
  Ta  Ta134  1  0.79627347  0.00286638  0.78907185  1
  Ta  Ta135  1  0.00260006  0.00005823  0.41528003  1
  Ta  Ta136  1  0.69468875  0.30921844  0.70852072  1
  Ta  Ta137  1  -0.00181085  0.79580184  0.40912659  1
  Ta  Ta138  1  0.20231757  0.78773457  0.19939258  1
  Ta  Ta139  1  0.79699893  0.79376657  -0.00463088  1
  Ta  Ta140  1  0.30278809  0.50511598  0.88548880  1
  Ta  Ta141  1  0.00322647  0.40298878  0.79833704  1
  Ta  Ta142  1  -0.00288032  0.19716529  0.78865991  1
  Ta  Ta143  1  0.58741941  -0.00089496  0.19273979  1
  Ta  Ta144  1  0.30451865  0.10999882  0.30083925  1
  Ta  Ta145  1  0.10527220  0.10736191  0.50862469  1
  Ta  Ta146  1  0.79570875  0.40761306  0.40630492  1
  Ta  Ta147  1  0.00374694  0.19869233  0.60691491  1
  Ta  Ta148  1  0.90366466  0.10126496  0.50707710  1
  Ta  Ta149  1  0.69847356  0.89786085  0.69846540  1
  Ti  Ti150  1  0.58872170  0.80259506  -0.01486403  1
  Ti  Ti151  1  0.89990202  0.50143376  0.50563465  1
  Ti  Ti152  1  0.10180008  0.49854536  0.10827428  1
  Ti  Ti153  1  0.20106726  0.61531925  0.19853464  1
  Ti  Ti154  1  0.89919818  0.30654156  0.09371698  1
  Ti  Ti155  1  0.39669668  0.20677634  0.79894824  1
  Ti  Ti156  1  0.10480479  0.50385505  0.88160182  1
  Ti  Ti157  1  0.51032772  0.30947480  0.88748091  1
  Ti  Ti158  1  0.49079584  0.89875779  0.69991044  1
  Ti  Ti159  1  0.20663476  0.40161524  0.79140480  1
  Ti  Ti160  1  -0.00955629  0.60729473  0.60335573  1
  Ti  Ti161  1  0.50964967  0.30796272  0.29579243  1
  Ti  Ti162  1  0.09263497  0.69874704  0.50869993  1
  Ti  Ti163  1  0.20581498  0.01915477  0.61439053  1
  Ti  Ti164  1  0.69196287  0.89572905  0.29819717  1
  Ti  Ti165  1  -0.01249254  0.59721914  0.80159052  1
  Ti  Ti166  1  0.09330912  0.50671241  0.51570614  1
  Ti  Ti167  1  0.59545025  0.79669504  0.61197573  1
  Ti  Ti168  1  0.09678486  0.69487690  0.30309910  1
  Ti  Ti169  1  0.29537428  0.11264243  0.50705091  1
  Ti  Ti170  1  0.10584772  0.29326704  0.50939149  1
  Ti  Ti171  1  0.00639802  0.39577928  0.60197793  1
  Ti  Ti172  1  0.10542663  0.29653331  0.69888721  1
  Ti  Ti173  1  0.49194496  0.89278512  0.30395072  1
  Ti  Ti174  1  0.89751656  0.30864949  0.29771479  1
  Ti  Ti175  1  0.20246529  0.78297610  0.60029188  1
  Ti  Ti176  1  0.78376323  0.58571887  0.20144177  1
  Ti  Ti177  1  0.20387664  0.20532559  0.40411778  1
  Ti  Ti178  1  0.21305236  0.19543219  0.78300092  1
  Ti  Ti179  1  0.90558232  0.29851088  0.89507319  1
  Ti  Ti180  1  0.51750463  0.31001746  0.09721772  1
  Ti  Ti181  1  0.60897817  0.20246295  0.79796222  1
  Ti  Ti182  1  0.69465387  0.68774919  0.09128405  1
  Ti  Ti183  1  0.40398463  0.00184577  0.19811973  1
  Ti  Ti184  1  0.30709482  0.89463704  0.09650541  1
  Ti  Ti185  1  0.80038998  0.21353028  0.18928965  1
  Ti  Ti186  1  0.39538373  0.58257468  0.61578222  1
  Ti  Ti187  1  0.00754481  0.00010929  -0.00656839  1
  Ti  Ti188  1  0.59704311  0.40379167  0.60631772  1
  Ti  Ti189  1  0.30532427  0.30557441  0.88754586  1
  Ti  Ti190  1  0.00207262  0.39572799  0.19583435  1
  Ti  Ti191  1  0.31763226  0.70053825  0.51124988  1
  Ti  Ti192  1  0.50345021  0.49642910  0.30815514  1
  Ti  Ti193  1  0.49102568  0.69505561  0.69900168  1
  Ti  Ti194  1  0.59040547  0.79213531  0.39772563  1
  Ti  Ti195  1  0.79213070  0.58543730  -0.01283915  1
  Ti  Ti196  1  0.09445181  0.29936791  0.09024651  1
  Ti  Ti197  1  0.59963431  0.00056014  0.61595156  1
  Ti  Ti198  1  0.70088495  0.30460033  0.50873420  1
  Ti  Ti199  1  0.61172045  0.41408055  0.18684575  1
  Mo  Mo200  1  0.10112567  0.69467335  0.10754222  1
  Mo  Mo201  1  0.29749313  0.69407667  0.30689151  1
  Mo  Mo202  1  0.69884340  0.30945107  0.09640679  1
  Mo  Mo203  1  0.20115759  0.20737319  0.59685290  1
  Mo  Mo204  1  0.39910474  0.79452183  -0.00583897  1
  Mo  Mo205  1  0.89765323  0.50270545  0.89893542  1
  Mo  Mo206  1  0.40834808  0.40255742  0.40063951  1
  Mo  Mo207  1  0.70075303  0.49786320  0.29524660  1
  Mo  Mo208  1  0.49132174  0.70214936  0.89798122  1
  Mo  Mo209  1  0.59409440  0.20878157  0.19003363  1
  Mo  Mo210  1  0.49829983  0.69426993  0.31216717  1
  Mo  Mo211  1  0.30361400  0.30283894  0.70709421  1
  Mo  Mo212  1  -0.00344801  0.20818560  -0.00576580  1
  Mo  Mo213  1  0.60031702  0.60092941  0.60785834  1
  Mo  Mo214  1  0.59658529  0.40311364  0.79970117  1
  Mo  Mo215  1  0.10964639  0.10790480  0.69891305  1
  Mo  Mo216  1  0.40442928  0.39835833  0.60581097  1
  Mo  Mo217  1  0.30320901  0.10478387  0.70124515  1
  Mo  Mo218  1  0.60339915  0.40306630  -0.00708224  1
  Mo  Mo219  1  0.20472071  0.58901429  0.79551898  1
  Mo  Mo220  1  0.20447052  0.01535609  0.79190357  1
  Mo  Mo221  1  0.78958393  -0.01049899  -0.00855411  1
  Mo  Mo222  1  0.69247226  0.30254804  0.89452857  1
  Mo  Mo223  1  0.40882980  0.79313899  0.80291425  1
  Mo  Mo224  1  0.30160942  0.69596334  0.10249007  1
  Mo  Mo225  1  0.40460544  0.80427685  0.60927352  1
  Mo  Mo226  1  0.30894063  0.11486948  0.89621829  1
  Mo  Mo227  1  0.31163737  0.50307387  0.50614875  1
  Mo  Mo228  1  0.89555880  0.10498775  0.70050437  1
  Mo  Mo229  1  0.00784938  0.00870254  0.18770906  1
  Mo  Mo230  1  0.69342929  0.50011258  0.89921509  1
  Mo  Mo231  1  0.69819248  0.50272155  0.51115164  1
  Mo  Mo232  1  0.40155445  0.78980904  0.40431603  1
  Mo  Mo233  1  0.30143150  0.49901791  0.70321117  1
  Mo  Mo234  1  0.49900656  0.49794956  0.70217183  1
  Mo  Mo235  1  0.89284649  0.89495661  0.69833126  1
  Mo  Mo236  1  0.80027699  0.39659640  0.19118322  1
  Mo  Mo237  1  0.59937036  0.59115724  -0.00175186  1
  Mo  Mo238  1  0.19862405  0.78667877  0.79755904  1
  Mo  Mo239  1  0.49971924  0.90169840  0.89926029  1
  Mo  Mo240  1  0.49865357  0.31063547  0.51335124  1
  Mo  Mo241  1  0.89602897  0.69410509  0.69941594  1
  Mo  Mo242  1  0.49790769  0.09739859  0.09337430  1
  Mo  Mo243  1  0.69422126  0.09579917  0.70679876  1
  Mo  Mo244  1  0.30535628  0.69308966  0.89681631  1
  Mo  Mo245  1  0.18049663  0.39428803  0.19044208  1
  Mo  Mo246  1  0.40455256  0.59726364  0.80240354  1
  Mo  Mo247  1  0.69974239  0.50160133  0.09451939  1
  Mo  Mo248  1  0.50971723  0.49966849  0.08803608  1
  Mo  Mo249  1  0.79701139  0.79668464  0.60099579  1
