# generated using pymatgen
data_HfZrTaTiMo
_symmetry_space_group_name_H-M   'P 1'
_cell_length_a   16.87512203
_cell_length_b   16.89226838
_cell_length_c   16.88766862
_cell_angle_alpha   90.04558318
_cell_angle_beta   89.95970318
_cell_angle_gamma   89.95149295
_symmetry_Int_Tables_number   1
_chemical_formula_structural   HfZrTaTiMo
_chemical_formula_sum   'Hf50 Zr50 Ta50 Ti50 Mo50'
_cell_volume   4813.97901155
_cell_formula_units_Z   50
loop_
 _symmetry_equiv_pos_site_id
 _symmetry_equiv_pos_as_xyz
  1  'x, y, z'
loop_
 _atom_site_type_symbol
 _atom_site_label
 _atom_site_symmetry_multiplicity
 _atom_site_fract_x
 _atom_site_fract_y
 _atom_site_fract_z
 _atom_site_occupancy
  Hf  Hf0  1  0.09839966  0.88906136  0.29305156  1
  Hf  Hf1  1  0.30150934  0.51087502  0.09976603  1
  Hf  Hf2  1  0.79817551  0.80438219  0.60102957  1
  Hf  Hf3  1  0.59485395  0.59841153  0.60379872  1
  Hf  Hf4  1  0.10412834  0.50326918  0.09162454  1
  Hf  Hf5  1  0.30220022  0.89387246  0.70606561  1
  Hf  Hf6  1  0.69600358  0.69586955  0.48923194  1
  Hf  Hf7  1  0.20375553  0.78724866  0.59607731  1
  Hf  Hf8  1  0.20859609  0.39840443  0.19568608  1
  Hf  Hf9  1  0.59737264  0.59617508  0.20369152  1
  Hf  Hf10  1  0.79615215  0.19661678  0.60330834  1
  Hf  Hf11  1  0.40157932  -0.00511880  0.59804904  1
  Hf  Hf12  1  0.80164214  0.40033954  0.19228778  1
  Hf  Hf13  1  0.38804937  0.79819187  0.39587673  1
  Hf  Hf14  1  0.69764457  0.30517249  0.89745611  1
  Hf  Hf15  1  0.10291579  0.10996341  0.50505494  1
  Hf  Hf16  1  -0.00904709  0.01693595  0.20173577  1
  Hf  Hf17  1  0.29748372  0.68794633  0.28921365  1
  Hf  Hf18  1  0.51282195  0.08680557  0.71220840  1
  Hf  Hf19  1  0.39775537  0.20015057  0.00519313  1
  Hf  Hf20  1  0.69730225  0.31706223  0.49823599  1
  Hf  Hf21  1  0.00062046  0.00592869  -0.00050291  1
  Hf  Hf22  1  0.70563577  0.50411489  0.30695473  1
  Hf  Hf23  1  0.60980939  0.19461255  0.40123911  1
  Hf  Hf24  1  0.20462022  0.20915877  0.00437117  1
  Hf  Hf25  1  0.39733276  0.40472501  0.60114036  1
  Hf  Hf26  1  0.79342510  0.40207019  0.00722975  1
  Hf  Hf27  1  0.29788153  0.31515066  0.89516792  1
  Hf  Hf28  1  0.11096704  0.90652063  0.69909913  1
  Hf  Hf29  1  0.00763547  0.78720368  0.80531534  1
  Hf  Hf30  1  0.60603018  0.19405456  0.59855383  1
  Hf  Hf31  1  0.91074221  0.28988636  0.09752622  1
  Hf  Hf32  1  0.70055597  0.69438375  0.09291390  1
  Hf  Hf33  1  0.69393646  0.70083529  0.70988258  1
  Hf  Hf34  1  0.69552490  0.09588189  0.90757887  1
  Hf  Hf35  1  0.50411227  0.90151747  0.29636212  1
  Hf  Hf36  1  0.69263565  0.30539868  0.70589203  1
  Hf  Hf37  1  0.19508233  0.59375380  0.39946421  1
  Hf  Hf38  1  0.40687897  0.19358762  0.80845051  1
  Hf  Hf39  1  0.80282768  0.40303965  0.60400340  1
  Hf  Hf40  1  0.69647596  0.90412068  0.71654429  1
  Hf  Hf41  1  0.50074169  0.50034786  0.49219807  1
  Hf  Hf42  1  0.49902329  0.30072764  0.29353283  1
  Hf  Hf43  1  0.19825309  0.01015807  0.19461353  1
  Hf  Hf44  1  0.90425116  0.49560736  0.89737440  1
  Hf  Hf45  1  0.50682999  0.89303603  0.48511971  1
  Hf  Hf46  1  0.29235190  0.50011098  0.71178018  1
  Hf  Hf47  1  0.00083520  0.59848014  0.40019095  1
  Hf  Hf48  1  0.90055258  0.30326575  0.89798376  1
  Hf  Hf49  1  0.29228448  0.29505975  0.49485349  1
  Zr  Zr50  1  0.19098710  0.19523008  0.80291166  1
  Zr  Zr51  1  0.61280162  -0.00295204  0.59250429  1
  Zr  Zr52  1  0.28983953  0.09143387  0.69467546  1
  Zr  Zr53  1  0.80285035  0.80036280  0.81040584  1
  Zr  Zr54  1  0.89885582  0.69643784  0.50162404  1
  Zr  Zr55  1  0.50543218  0.10186055  0.28537738  1
  Zr  Zr56  1  0.90417811  0.68737979  0.70000094  1
  Zr  Zr57  1  0.09513657  0.50251354  0.27930708  1
  Zr  Zr58  1  0.09676605  0.31380404  0.89975313  1
  Zr  Zr59  1  0.40455065  0.19724879  0.60482291  1
  Zr  Zr60  1  0.50348708  0.90345052  0.09634828  1
  Zr  Zr61  1  0.08412723  0.12450953  0.10011931  1
  Zr  Zr62  1  0.19403164  0.00262718  0.39203296  1
  Zr  Zr63  1  0.40178968  0.19904079  0.40012236  1
  Zr  Zr64  1  0.60094928  0.80021170  0.59736919  1
  Zr  Zr65  1  0.00491356  0.79837526  0.59898674  1
  Zr  Zr66  1  0.00976028  0.40578795  0.40707574  1
  Zr  Zr67  1  0.18957681  0.40483167  0.59330336  1
  Zr  Zr68  1  0.59155293  0.60058109  0.80961345  1
  Zr  Zr69  1  0.29283783  0.30287025  0.70465114  1
  Zr  Zr70  1  0.20135068  0.01269051  0.00491607  1
  Zr  Zr71  1  0.49693398  0.69586864  0.49252834  1
  Zr  Zr72  1  -0.00172156  0.00785787  0.39257656  1
  Zr  Zr73  1  0.00267475  0.40917114  0.60647376  1
  Zr  Zr74  1  0.10635100  0.89392626  0.90264801  1
  Zr  Zr75  1  0.50060022  0.08932592  0.49212085  1
  Zr  Zr76  1  0.89810232  0.89518700  0.30068703  1
  Zr  Zr77  1  0.50414437  0.31168266  0.49819247  1
  Zr  Zr78  1  0.80075662  0.19533877  0.39776417  1
  Zr  Zr79  1  0.10146251  0.89035337  0.09937320  1
  Zr  Zr80  1  0.38651603  0.61391168  0.81323759  1
  Zr  Zr81  1  0.29167566  0.90430230  0.50125468  1
  Zr  Zr82  1  0.79687450  0.00623205  0.19644420  1
  Zr  Zr83  1  0.29754365  0.11278351  0.29650071  1
  Zr  Zr84  1  0.59236151  0.20320588  0.00074877  1
  Zr  Zr85  1  0.79825473  0.78879894  0.19756735  1
  Zr  Zr86  1  0.49958529  0.88913453  0.71485963  1
  Zr  Zr87  1  0.50537117  0.31008434  0.70923130  1
  Zr  Zr88  1  0.49488097  0.69555924  0.09662616  1
  Zr  Zr89  1  0.90066313  0.11324708  0.91522424  1
  Zr  Zr90  1  0.90087752  0.89456677  0.09649948  1
  Zr  Zr91  1  0.30111300  0.89329297  0.90558554  1
  Zr  Zr92  1  0.60492412  0.40298930  0.19262268  1
  Zr  Zr93  1  0.10699901  0.69074565  0.09970887  1
  Zr  Zr94  1  0.39881873  0.79832956  0.19717570  1
  Zr  Zr95  1  0.80916060  0.00219553  0.81312501  1
  Zr  Zr96  1  0.90436078  0.10169447  0.50445525  1
  Zr  Zr97  1  0.21152102  0.77387930  0.80405492  1
  Zr  Zr98  1  0.90848339  0.29869558  0.29850719  1
  Zr  Zr99  1  0.90663923  0.90977890  0.70257141  1
  Ta  Ta100  1  0.50773329  0.69798386  0.30428743  1
  Ta  Ta101  1  0.39087602  0.00552491  0.19133529  1
  Ta  Ta102  1  0.70428017  0.09243580  0.70968002  1
  Ta  Ta103  1  0.70241140  0.29828796  0.29213638  1
  Ta  Ta104  1  0.90947145  0.29661322  0.50524358  1
  Ta  Ta105  1  0.30255676  0.30395666  0.29985900  1
  Ta  Ta106  1  0.00310623  0.00292908  0.60084508  1
  Ta  Ta107  1  0.59211411  0.59510107  -0.00716416  1
  Ta  Ta108  1  0.70066641  0.69671713  0.90344608  1
  Ta  Ta109  1  0.69211316  0.49515631  0.70161006  1
  Ta  Ta110  1  0.80477288  0.79588313  0.39627466  1
  Ta  Ta111  1  0.09820593  0.69670259  0.28943052  1
  Ta  Ta112  1  0.61777438  0.00254987  0.39129221  1
  Ta  Ta113  1  0.40252463  -0.00232308  0.81386332  1
  Ta  Ta114  1  0.09480490  0.30976480  0.10460555  1
  Ta  Ta115  1  0.49313232  0.50181649  0.70707098  1
  Ta  Ta116  1  0.19378694  0.79021951  0.39899481  1
  Ta  Ta117  1  0.10388838  0.68097760  0.69778913  1
  Ta  Ta118  1  0.00051925  0.19619488  0.79814270  1
  Ta  Ta119  1  0.60600815  0.79794005  0.19923981  1
  Ta  Ta120  1  0.79961523  0.20015668  0.79741745  1
  Ta  Ta121  1  0.80053840  0.79761109  -0.00406800  1
  Ta  Ta122  1  0.30435160  0.50031180  0.49190671  1
  Ta  Ta123  1  -0.00044301  0.78643143  -0.00550750  1
  Ta  Ta124  1  0.89866557  0.68885782  0.90173698  1
  Ta  Ta125  1  0.49192440  0.50238350  0.09960488  1
  Ta  Ta126  1  0.19847098  0.40307314  0.39792937  1
  Ta  Ta127  1  0.39996947  0.40172496  0.00266547  1
  Ta  Ta128  1  0.89865367  0.90545759  0.49808413  1
  Ta  Ta129  1  0.79577328  0.59149069  0.60559867  1
  Ta  Ta130  1  0.71193822  0.90097229  0.48763977  1
  Ta  Ta131  1  0.90632157  0.29783203  0.70364447  1
  Ta  Ta132  1  0.28696119  0.10333988  0.50286099  1
  Ta  Ta133  1  0.59410870  0.40702347  0.00042107  1
  Ta  Ta134  1  0.30129554  0.09838614  0.90270323  1
  Ta  Ta135  1  0.89793540  0.50353439  0.50423021  1
  Ta  Ta136  1  0.09718699  0.90075022  0.49915484  1
  Ta  Ta137  1  0.00245875  0.79390891  0.39993877  1
  Ta  Ta138  1  0.29075687  0.49842303  0.90866288  1
  Ta  Ta139  1  0.69746029  0.50159739  0.49757947  1
  Ta  Ta140  1  0.49708992  0.30266533  0.10443680  1
  Ta  Ta141  1  0.40660866  0.00612897  0.00019127  1
  Ta  Ta142  1  0.29371585  0.89885604  0.29186645  1
  Ta  Ta143  1  0.39179205  -0.00142311  0.39011957  1
  Ta  Ta144  1  0.10318538  0.29812363  0.29568945  1
  Ta  Ta145  1  0.00576661  0.58710870  0.79821849  1
  Ta  Ta146  1  0.48986170  0.70453306  0.70881991  1
  Ta  Ta147  1  0.29997414  0.89656011  0.09504215  1
  Ta  Ta148  1  0.60130552  0.80225164  -0.01037450  1
  Ta  Ta149  1  0.79933372  0.59068025  0.79892553  1
  Ti  Ti150  1  0.90600036  0.89725060  0.90598967  1
  Ti  Ti151  1  0.19889840  0.59315372  0.59634904  1
  Ti  Ti152  1  0.09714889  0.69219656  0.50340921  1
  Ti  Ti153  1  0.69728111  0.50759776  0.09554467  1
  Ti  Ti154  1  0.90250479  0.49967645  0.29476414  1
  Ti  Ti155  1  0.70024217  0.89300730  0.30044487  1
  Ti  Ti156  1  0.59862997  0.19535379  0.80823406  1
  Ti  Ti157  1  0.79032980  0.20529331  0.01049019  1
  Ti  Ti158  1  0.19187378  0.59688808  0.81384506  1
  Ti  Ti159  1  0.79842886  0.00651382  0.39331821  1
  Ti  Ti160  1  0.00917159  0.59946027  -0.01394909  1
  Ti  Ti161  1  0.80387301  0.40484412  0.79348884  1
  Ti  Ti162  1  0.60826652  -0.00075721  0.19638184  1
  Ti  Ti163  1  0.09465317  0.12626433  0.30188342  1
  Ti  Ti164  1  0.30231873  0.68723774  0.49640553  1
  Ti  Ti165  1  0.00164169  0.40568503  0.00084616  1
  Ti  Ti166  1  0.39433173  0.60075739  0.60483860  1
  Ti  Ti167  1  0.69749503  0.69673165  0.30519545  1
  Ti  Ti168  1  0.09752184  0.28658928  0.49590386  1
  Ti  Ti169  1  0.90225582  0.69240363  0.29670346  1
  Ti  Ti170  1  0.00959369  0.01250511  0.80580845  1
  Ti  Ti171  1  0.70069681  0.50017739  0.89887738  1
  Ti  Ti172  1  0.59009658  0.41287726  0.81039847  1
  Ti  Ti173  1  0.29852048  0.69334807  0.09377113  1
  Ti  Ti174  1  0.59618556  0.40755453  0.38670649  1
  Ti  Ti175  1  0.79770041  -0.00185444  0.00639505  1
  Ti  Ti176  1  0.69579729  0.89878561  0.09119670  1
  Ti  Ti177  1  0.80615915  0.59732915  0.19695614  1
  Ti  Ti178  1  0.80511389  0.59771509  0.40056038  1
  Ti  Ti179  1  0.20519175  0.79555260  0.19557720  1
  Ti  Ti180  1  0.91267529  0.50475596  0.10344913  1
  Ti  Ti181  1  0.09902130  0.10285000  0.69180182  1
  Ti  Ti182  1  0.90301926  0.68790545  0.09114435  1
  Ti  Ti183  1  0.49606160  0.31190260  0.90021141  1
  Ti  Ti184  1  0.09659480  0.30116201  0.70175896  1
  Ti  Ti185  1  0.90297857  0.10206540  0.69920148  1
  Ti  Ti186  1  0.40527721  0.59321636  0.38775191  1
  Ti  Ti187  1  0.80068663  0.59491166  -0.00394364  1
  Ti  Ti188  1  0.19760777  0.00674185  0.80804026  1
  Ti  Ti189  1  0.70233270  0.11059345  0.28518580  1
  Ti  Ti190  1  0.21007307  0.20865635  0.19125573  1
  Ti  Ti191  1  0.50362842  0.10256499  0.10520131  1
  Ti  Ti192  1  0.30785004  0.49861497  0.29861085  1
  Ti  Ti193  1  0.40199134  0.79264676  -0.00871140  1
  Ti  Ti194  1  -0.00627050  0.78646744  0.19572422  1
  Ti  Ti195  1  0.39506020  0.78947448  0.60070533  1
  Ti  Ti196  1  0.80782656  0.40170877  0.40097990  1
  Ti  Ti197  1  0.69551970  0.10763626  0.10246772  1
  Ti  Ti198  1  0.40044163  0.40256519  0.19912531  1
  Ti  Ti199  1  0.59438885  -0.01465072  0.83269076  1
  Mo  Mo200  1  0.70913824  0.08564285  0.50453495  1
  Mo  Mo201  1  0.00004339  0.20348296  0.60975781  1
  Mo  Mo202  1  0.10258087  0.50939844  0.50368998  1
  Mo  Mo203  1  0.61230604  0.80169224  0.38760554  1
  Mo  Mo204  1  -0.01416956  0.60411692  0.19696879  1
  Mo  Mo205  1  0.09925852  0.69052257  0.90018693  1
  Mo  Mo206  1  0.09951570  0.10385912  0.89673666  1
  Mo  Mo207  1  0.89407815  0.10850373  0.29646329  1
  Mo  Mo208  1  0.59487769  0.79673391  0.81582838  1
  Mo  Mo209  1  0.49347217  0.50112388  0.29699718  1
  Mo  Mo210  1  0.60472387  0.20354258  0.19430752  1
  Mo  Mo211  1  0.19132952  0.20244503  0.60135063  1
  Mo  Mo212  1  -0.00027209  0.39968025  0.79403166  1
  Mo  Mo213  1  0.39251632  0.40597422  0.39181928  1
  Mo  Mo214  1  0.19722947  0.21051081  0.39694567  1
  Mo  Mo215  1  0.69486967  0.30023474  0.09885649  1
  Mo  Mo216  1  0.89584872  0.49614603  0.70295467  1
  Mo  Mo217  1  0.49969131  0.09223161  0.90503250  1
  Mo  Mo218  1  0.59860421  0.41223015  0.60471680  1
  Mo  Mo219  1  0.79866278  0.20021184  0.19419190  1
  Mo  Mo220  1  0.88801707  0.11009450  0.10078147  1
  Mo  Mo221  1  0.40045975  0.20494815  0.19162728  1
  Mo  Mo222  1  0.70092760  0.89887231  0.91307085  1
  Mo  Mo223  1  0.10199859  0.50373192  0.70466000  1
  Mo  Mo224  1  0.49698486  0.89511150  0.90730584  1
  Mo  Mo225  1  0.29665090  0.69480987  0.92250851  1
  Mo  Mo226  1  0.48948223  0.49901765  0.90649332  1
  Mo  Mo227  1  0.30713941  0.10400076  0.09896581  1
  Mo  Mo228  1  0.19387698  0.00013399  0.60036383  1
  Mo  Mo229  1  0.20099341  0.59997687  -0.00658857  1
  Mo  Mo230  1  0.20315646  0.40316400  0.00278819  1
  Mo  Mo231  1  0.10126374  0.49811835  0.89839766  1
  Mo  Mo232  1  0.40000344  0.59821179  0.00008395  1
  Mo  Mo233  1  0.40046216  0.79605265  0.80676238  1
  Mo  Mo234  1  0.20659125  0.59801864  0.19895336  1
  Mo  Mo235  1  -0.00272288  0.20598779  0.20713435  1
  Mo  Mo236  1  0.20327133  0.79117478  0.00585083  1
  Mo  Mo237  1  0.00279500  0.20632018  0.40040269  1
  Mo  Mo238  1  -0.00017438  0.40333493  0.19287589  1
  Mo  Mo239  1  0.60133838  0.00054017  0.00971373  1
  Mo  Mo240  1  0.00578299  0.20947313  -0.00750162  1
  Mo  Mo241  1  0.49759805  0.70464556  0.90335506  1
  Mo  Mo242  1  0.18898593  0.41068136  0.79894876  1
  Mo  Mo243  1  0.60255470  0.59776537  0.39496700  1
  Mo  Mo244  1  0.40289855  0.41053586  0.80918188  1
  Mo  Mo245  1  0.30606969  0.30599407  0.10352442  1
  Mo  Mo246  1  0.80500997  -0.00004999  0.60266420  1
  Mo  Mo247  1  0.40498689  0.59595411  0.20327129  1
  Mo  Mo248  1  0.29890048  0.69153694  0.68461242  1
  Mo  Mo249  1  0.00353037  0.59364006  0.60197876  1
