# generated using pymatgen
data_HfZrTaTiMo
_symmetry_space_group_name_H-M   'P 1'
_cell_length_a   16.88379353
_cell_length_b   16.88637948
_cell_length_c   16.87770068
_cell_angle_alpha   90.04203595
_cell_angle_beta   89.98254735
_cell_angle_gamma   90.01967395
_symmetry_Int_Tables_number   1
_chemical_formula_structural   HfZrTaTiMo
_chemical_formula_sum   'Hf50 Zr50 Ta50 Ti50 Mo50'
_cell_volume   4811.93437074
_cell_formula_units_Z   50
loop_
 _symmetry_equiv_pos_site_id
 _symmetry_equiv_pos_as_xyz
  1  'x, y, z'
loop_
 _atom_site_type_symbol
 _atom_site_label
 _atom_site_symmetry_multiplicity
 _atom_site_fract_x
 _atom_site_fract_y
 _atom_site_fract_z
 _atom_site_occupancy
  Hf  Hf0  1  0.79929566  -0.00534222  0.60394898  1
  Hf  Hf1  1  0.40725339  0.00546831  0.80281822  1
  Hf  Hf2  1  0.20176315  0.79023496  0.59990432  1
  Hf  Hf3  1  0.60331879  0.20573763  0.00133482  1
  Hf  Hf4  1  0.19590836  0.19789133  0.40022480  1
  Hf  Hf5  1  -0.00554377  0.59413713  0.80731084  1
  Hf  Hf6  1  0.30357425  0.30168608  0.29391289  1
  Hf  Hf7  1  0.58749853  0.20309066  0.61211421  1
  Hf  Hf8  1  0.90383536  0.89810490  0.09516278  1
  Hf  Hf9  1  0.89387351  0.69644230  0.10619810  1
  Hf  Hf10  1  0.89374465  0.50314856  0.70294972  1
  Hf  Hf11  1  0.69820500  0.10215796  0.70778521  1
  Hf  Hf12  1  0.40548931  0.60601002  0.60349753  1
  Hf  Hf13  1  0.59432566  0.60007776  0.79807321  1
  Hf  Hf14  1  0.79283722  0.79603826  -0.00026494  1
  Hf  Hf15  1  0.19379053  0.00672281  0.40237691  1
  Hf  Hf16  1  0.69292146  0.11440601  0.29605974  1
  Hf  Hf17  1  0.70286786  0.69403577  0.69937660  1
  Hf  Hf18  1  0.20724957  0.59906594  0.60350022  1
  Hf  Hf19  1  0.89564192  0.30566180  0.70015824  1
  Hf  Hf20  1  0.40204212  0.78769642  -0.00144129  1
  Hf  Hf21  1  0.69775078  0.90382313  0.89952693  1
  Hf  Hf22  1  0.69989921  0.30147749  0.49838805  1
  Hf  Hf23  1  0.09116158  0.29845589  0.50402203  1
  Hf  Hf24  1  0.59451791  -0.00066538  0.39396487  1
  Hf  Hf25  1  0.30167658  0.10979567  0.70867888  1
  Hf  Hf26  1  0.40500403  0.21062823  0.59720879  1
  Hf  Hf27  1  0.69575322  0.89704086  0.49520382  1
  Hf  Hf28  1  0.20435748  0.00646062  -0.00185177  1
  Hf  Hf29  1  0.50263293  0.90206254  0.90757671  1
  Hf  Hf30  1  0.21030564  0.40994386  0.79941733  1
  Hf  Hf31  1  0.90527912  0.69877782  0.49522397  1
  Hf  Hf32  1  0.20159563  0.20160125  0.59353618  1
  Hf  Hf33  1  0.79769758  0.80294434  0.60489970  1
  Hf  Hf34  1  0.29346720  0.88449190  0.29974463  1
  Hf  Hf35  1  0.59787947  0.79977384  0.79453515  1
  Hf  Hf36  1  -0.00317798  0.41021754  0.39346389  1
  Hf  Hf37  1  0.80363139  0.00220829  0.19838872  1
  Hf  Hf38  1  0.00601934  0.20012114  0.19181151  1
  Hf  Hf39  1  0.40041888  0.20618000  0.40814027  1
  Hf  Hf40  1  0.20253577  0.40175927  0.18860257  1
  Hf  Hf41  1  -0.00658975  0.59313290  0.00755366  1
  Hf  Hf42  1  -0.00638849  0.79747773  0.80426822  1
  Hf  Hf43  1  0.10370118  0.69933047  0.10705765  1
  Hf  Hf44  1  0.09932456  0.10764938  0.70386792  1
  Hf  Hf45  1  0.30462290  0.89157024  0.49379762  1
  Hf  Hf46  1  0.60058684  0.39786287  0.00183537  1
  Hf  Hf47  1  0.31952191  0.10137454  0.09674699  1
  Hf  Hf48  1  -0.01285328  0.21141268  0.81285456  1
  Hf  Hf49  1  0.30358025  0.89835268  0.10227798  1
  Zr  Zr50  1  0.08906710  0.68926296  0.69757712  1
  Zr  Zr51  1  0.70068133  0.10353196  0.50087815  1
  Zr  Zr52  1  0.58462571  0.20823446  0.40963595  1
  Zr  Zr53  1  0.89457473  0.29580428  0.49649697  1
  Zr  Zr54  1  0.69368134  0.90428559  0.09776789  1
  Zr  Zr55  1  -0.00038335  0.19714220  0.38258877  1
  Zr  Zr56  1  0.40179798  0.00053427  0.39543732  1
  Zr  Zr57  1  0.50679793  0.50371440  0.29977197  1
  Zr  Zr58  1  0.90945181  0.10338699  0.49691921  1
  Zr  Zr59  1  0.90367715  0.10058481  0.70099913  1
  Zr  Zr60  1  0.40734772  0.39498737  0.40706163  1
  Zr  Zr61  1  0.80641241  0.19502612  0.19811163  1
  Zr  Zr62  1  0.90783229  0.89775251  0.48354489  1
  Zr  Zr63  1  0.77773993  0.59420352  0.01402298  1
  Zr  Zr64  1  0.59948191  0.79486308  0.19691963  1
  Zr  Zr65  1  0.09802349  0.30210800  0.70221196  1
  Zr  Zr66  1  0.30255045  0.50692302  0.48855761  1
  Zr  Zr67  1  0.09489506  0.89529916  0.90550626  1
  Zr  Zr68  1  0.39894141  0.40232605  0.80296252  1
  Zr  Zr69  1  -0.00823648  0.41352048  0.59474878  1
  Zr  Zr70  1  0.10535599  0.30429479  0.89892826  1
  Zr  Zr71  1  0.20833133  0.79412203  -0.00168680  1
  Zr  Zr72  1  0.20749904  0.79167627  0.80328048  1
  Zr  Zr73  1  -0.00103909  0.80307636  0.60582579  1
  Zr  Zr74  1  0.59311966  0.79200926  0.60118733  1
  Zr  Zr75  1  0.09927029  0.10367088  0.89813906  1
  Zr  Zr76  1  0.70005031  0.30765099  0.30102265  1
  Zr  Zr77  1  0.40663521  0.78574486  0.79668975  1
  Zr  Zr78  1  0.89204345  0.69574791  0.30383621  1
  Zr  Zr79  1  0.19877097  0.20277062  0.00587021  1
  Zr  Zr80  1  0.30612935  0.10448468  0.29181444  1
  Zr  Zr81  1  -0.00209817  0.80109684  0.20970468  1
  Zr  Zr82  1  0.89781791  0.30783155  0.10368913  1
  Zr  Zr83  1  0.29794002  0.69270283  0.29997608  1
  Zr  Zr84  1  0.40730891  -0.00422735  0.60836729  1
  Zr  Zr85  1  0.49782280  0.90713460  0.09576369  1
  Zr  Zr86  1  0.10010799  0.88993436  0.48750205  1
  Zr  Zr87  1  0.19084346  0.00072730  0.19498453  1
  Zr  Zr88  1  0.69690430  0.30437069  0.70367204  1
  Zr  Zr89  1  0.30065836  0.89844060  0.70166331  1
  Zr  Zr90  1  0.89810406  0.09326177  0.90337949  1
  Zr  Zr91  1  0.21032271  0.59728156  0.79799510  1
  Zr  Zr92  1  0.61547565  0.59779767  0.18152198  1
  Zr  Zr93  1  0.49573069  0.49466219  0.09839821  1
  Zr  Zr94  1  0.59221247  0.39734862  0.80311050  1
  Zr  Zr95  1  0.80575676  0.00522259  0.38515980  1
  Zr  Zr96  1  0.00079642  0.40086894  0.00483155  1
  Zr  Zr97  1  0.11848884  0.50600382  0.30195477  1
  Zr  Zr98  1  0.18842648  0.20015245  0.19119557  1
  Zr  Zr99  1  0.79586149  0.59256121  0.58972929  1
  Ta  Ta100  1  0.30179615  0.09711948  0.50420055  1
  Ta  Ta101  1  0.89687192  0.89875220  0.90479226  1
  Ta  Ta102  1  0.79927203  0.20229493  0.60398370  1
  Ta  Ta103  1  0.59849671  0.78046842  -0.00141065  1
  Ta  Ta104  1  0.40141805  0.39936296  0.60093193  1
  Ta  Ta105  1  0.10248101  0.50203832  0.90342460  1
  Ta  Ta106  1  0.20954195  0.40407200  -0.00063899  1
  Ta  Ta107  1  0.49996649  0.09077175  0.50648232  1
  Ta  Ta108  1  0.49870673  0.89106593  0.49516854  1
  Ta  Ta109  1  0.50329251  0.10568533  0.10256179  1
  Ta  Ta110  1  0.30885692  0.70599246  0.48959896  1
  Ta  Ta111  1  0.50005954  0.69316101  0.30128115  1
  Ta  Ta112  1  0.09382000  0.69395903  0.91080247  1
  Ta  Ta113  1  0.79181506  0.39619712  -0.00012214  1
  Ta  Ta114  1  0.70155612  0.69101406  0.30288454  1
  Ta  Ta115  1  0.49489746  0.68723077  0.09613899  1
  Ta  Ta116  1  0.01139676  0.00108851  0.59656721  1
  Ta  Ta117  1  0.10020641  0.50726238  0.50288517  1
  Ta  Ta118  1  0.70366249  0.50328264  0.30014357  1
  Ta  Ta119  1  0.00150890  0.59187816  0.20623984  1
  Ta  Ta120  1  0.80105766  0.41438937  0.40606418  1
  Ta  Ta121  1  0.89455196  0.69693752  0.90471703  1
  Ta  Ta122  1  0.00383392  0.60015428  0.40004817  1
  Ta  Ta123  1  0.19656938  0.00323624  0.59892676  1
  Ta  Ta124  1  0.49235752  0.50971209  0.90895970  1
  Ta  Ta125  1  0.88839572  0.49805277  0.90552706  1
  Ta  Ta126  1  0.20903116  0.40378935  0.60032440  1
  Ta  Ta127  1  0.80090638  0.79840503  0.80006605  1
  Ta  Ta128  1  0.59939654  0.79445882  0.39472688  1
  Ta  Ta129  1  0.78919935  0.41070043  0.59524091  1
  Ta  Ta130  1  0.59596904  -0.00932720  0.61091052  1
  Ta  Ta131  1  0.50584786  0.30282622  0.28617248  1
  Ta  Ta132  1  0.09659408  0.89424735  0.10053315  1
  Ta  Ta133  1  0.20318886  0.59346317  0.00144995  1
  Ta  Ta134  1  0.40016912  0.59778892  0.79584549  1
  Ta  Ta135  1  0.40293013  0.79111740  0.19816977  1
  Ta  Ta136  1  0.79638371  0.20205484  0.00018579  1
  Ta  Ta137  1  0.79358129  0.01020937  0.00298629  1
  Ta  Ta138  1  0.79361812  0.59724613  0.80538282  1
  Ta  Ta139  1  0.30063291  0.29977522  0.70243412  1
  Ta  Ta140  1  0.60131071  0.59415962  0.59495090  1
  Ta  Ta141  1  0.50143788  0.49905560  0.69639347  1
  Ta  Ta142  1  0.79753223  0.20568533  0.80838554  1
  Ta  Ta143  1  0.20666892  0.00444633  0.80549817  1
  Ta  Ta144  1  0.40832978  0.20575141  -0.00779927  1
  Ta  Ta145  1  0.60225567  0.01653397  -0.00276277  1
  Ta  Ta146  1  0.59448674  0.00162774  0.79404015  1
  Ta  Ta147  1  0.31092963  0.30165402  0.09695886  1
  Ta  Ta148  1  0.49938570  0.11019982  0.28595008  1
  Ta  Ta149  1  0.49842239  0.89188420  0.29804464  1
  Ti  Ti150  1  0.30124337  0.50620878  0.30185365  1
  Ti  Ti151  1  0.79587952  -0.00654476  0.79981323  1
  Ti  Ti152  1  0.30187079  0.28869206  0.89524366  1
  Ti  Ti153  1  0.69894004  0.69222324  0.48600590  1
  Ti  Ti154  1  0.10461213  0.90358976  0.70455932  1
  Ti  Ti155  1  0.88427764  0.49650009  0.11372406  1
  Ti  Ti156  1  0.69877374  0.29767948  0.89643370  1
  Ti  Ti157  1  0.89054787  0.50608198  0.29766089  1
  Ti  Ti158  1  0.19528566  0.61126293  0.40885806  1
  Ti  Ti159  1  0.69705745  0.69497306  0.89974045  1
  Ti  Ti160  1  0.39696431  0.39479594  -0.00805986  1
  Ti  Ti161  1  0.20385861  0.39299502  0.40893494  1
  Ti  Ti162  1  -0.00683504  0.40440202  0.81041755  1
  Ti  Ti163  1  0.89069102  0.30789717  0.29816301  1
  Ti  Ti164  1  -0.00016517  0.20569906  0.00579173  1
  Ti  Ti165  1  0.00159706  -0.00200242  0.00393139  1
  Ti  Ti166  1  0.40712038  -0.00413149  0.20357207  1
  Ti  Ti167  1  0.79601949  0.80279775  0.39116126  1
  Ti  Ti168  1  0.09518224  0.49886522  0.69902116  1
  Ti  Ti169  1  0.69515302  0.89838261  0.29809076  1
  Ti  Ti170  1  0.50423509  0.50658950  0.49614979  1
  Ti  Ti171  1  0.08552534  0.08511096  0.29452531  1
  Ti  Ti172  1  0.79364011  0.40516758  0.80538016  1
  Ti  Ti173  1  0.89691311  0.69205413  0.70101082  1
  Ti  Ti174  1  0.69838993  0.10341589  0.89466955  1
  Ti  Ti175  1  0.90175327  0.90374064  0.70643506  1
  Ti  Ti176  1  0.50411337  0.10774797  0.89818676  1
  Ti  Ti177  1  0.00225381  0.40701414  0.20201346  1
  Ti  Ti178  1  0.79414309  0.80187160  0.20411830  1
  Ti  Ti179  1  0.30799919  0.68105264  0.90748595  1
  Ti  Ti180  1  0.39800126  0.59854327  0.19970372  1
  Ti  Ti181  1  0.90773168  0.09620798  0.09761873  1
  Ti  Ti182  1  0.49777259  0.69694995  0.48608539  1
  Ti  Ti183  1  0.41900991  0.20822316  0.79795266  1
  Ti  Ti184  1  0.29622128  0.69191172  0.10884433  1
  Ti  Ti185  1  0.30607466  0.50470657  0.09567406  1
  Ti  Ti186  1  0.09766612  0.89437077  0.30131591  1
  Ti  Ti187  1  0.60023856  0.00684905  0.19738220  1
  Ti  Ti188  1  0.59533774  0.40487221  0.59780641  1
  Ti  Ti189  1  0.10476167  0.50496537  0.10165168  1
  Ti  Ti190  1  0.39794428  0.40367605  0.19956366  1
  Ti  Ti191  1  0.60144046  0.40707740  0.40452411  1
  Ti  Ti192  1  0.00307458  -0.00536361  0.79994480  1
  Ti  Ti193  1  0.30949705  0.90814220  0.90519146  1
  Ti  Ti194  1  0.49709205  0.29999033  0.10677958  1
  Ti  Ti195  1  0.69966191  0.30441187  0.11368295  1
  Ti  Ti196  1  0.10879580  0.70332868  0.30038581  1
  Ti  Ti197  1  0.10231552  0.30927749  0.29631108  1
  Ti  Ti198  1  0.69361523  0.50100826  0.90116819  1
  Ti  Ti199  1  0.40798638  0.79255233  0.60669057  1
  Mo  Mo200  1  0.90812537  0.09444730  0.29399090  1
  Mo  Mo201  1  0.69835857  0.10413988  0.09625038  1
  Mo  Mo202  1  0.49682146  0.30736929  0.70213309  1
  Mo  Mo203  1  0.10093174  0.31650139  0.09984322  1
  Mo  Mo204  1  0.40673508  0.20939650  0.19301981  1
  Mo  Mo205  1  -0.00594435  0.79408891  -0.00079477  1
  Mo  Mo206  1  0.30347692  0.50190630  0.90945986  1
  Mo  Mo207  1  0.60215837  0.39840500  0.19889324  1
  Mo  Mo208  1  0.69641487  0.49867370  0.69790299  1
  Mo  Mo209  1  0.30893760  0.49663624  0.69419135  1
  Mo  Mo210  1  0.59860043  0.19704295  0.80814041  1
  Mo  Mo211  1  0.88550080  0.30786010  0.90430839  1
  Mo  Mo212  1  0.09958401  0.09679937  0.50296234  1
  Mo  Mo213  1  0.30862980  0.69765813  0.69248318  1
  Mo  Mo214  1  0.80510962  0.20758822  0.39855479  1
  Mo  Mo215  1  0.70060643  0.47920564  0.10757697  1
  Mo  Mo216  1  0.50077570  0.68980950  0.90429782  1
  Mo  Mo217  1  0.79907416  0.40393899  0.20659567  1
  Mo  Mo218  1  0.89952864  0.89737200  0.29601367  1
  Mo  Mo219  1  0.19626042  0.79036127  0.39849104  1
  Mo  Mo220  1  0.69945384  0.70824724  0.10540379  1
  Mo  Mo221  1  0.80076067  0.59340819  0.20325023  1
  Mo  Mo222  1  0.19930776  0.79842725  0.19934802  1
  Mo  Mo223  1  0.21287833  0.20145442  0.80144542  1
  Mo  Mo224  1  0.90073641  0.50618813  0.49189678  1
  Mo  Mo225  1  -0.00287696  0.19580240  0.60834889  1
  Mo  Mo226  1  -0.00302939  -0.00371241  0.20010423  1
  Mo  Mo227  1  0.50300479  0.89661929  0.69969869  1
  Mo  Mo228  1  0.09936442  0.69524874  0.49328007  1
  Mo  Mo229  1  0.00222259  -0.00434014  0.38974781  1
  Mo  Mo230  1  0.39399865  0.59784027  0.00372409  1
  Mo  Mo231  1  0.00606227  0.79219775  0.39223012  1
  Mo  Mo232  1  0.70289465  0.90175166  0.70645857  1
  Mo  Mo233  1  0.20346415  0.59641600  0.19307340  1
  Mo  Mo234  1  0.79717418  0.59616414  0.39879473  1
  Mo  Mo235  1  0.31032171  0.10840812  0.89850811  1
  Mo  Mo236  1  0.00101552  0.59772893  0.59610824  1
  Mo  Mo237  1  0.59721535  0.59797007  -0.00536026  1
  Mo  Mo238  1  0.69116494  0.49815003  0.49497426  1
  Mo  Mo239  1  0.50289763  0.10248312  0.70491732  1
  Mo  Mo240  1  0.60298112  0.60260968  0.40226734  1
  Mo  Mo241  1  0.29431323  0.30290141  0.50312862  1
  Mo  Mo242  1  0.40675927  0.01420707  -0.00636114  1
  Mo  Mo243  1  0.50494439  0.31523492  0.50526171  1
  Mo  Mo244  1  0.40946612  0.79478965  0.39466348  1
  Mo  Mo245  1  0.08343638  0.08673077  0.09606625  1
  Mo  Mo246  1  0.40626630  0.60149970  0.40026977  1
  Mo  Mo247  1  0.49845279  0.30071801  0.90425474  1
  Mo  Mo248  1  0.59842141  0.20498369  0.19100577  1
  Mo  Mo249  1  0.50395312  0.69225851  0.69678997  1
