# generated using pymatgen
data_HfZrTaTiMo
_symmetry_space_group_name_H-M   'P 1'
_cell_length_a   16.88824356
_cell_length_b   16.88787891
_cell_length_c   16.88735369
_cell_angle_alpha   89.96841000
_cell_angle_beta   90.05157871
_cell_angle_gamma   89.98584842
_symmetry_Int_Tables_number   1
_chemical_formula_structural   HfZrTaTiMo
_chemical_formula_sum   'Hf50 Zr50 Ta50 Ti50 Mo50'
_cell_volume   4816.38210583
_cell_formula_units_Z   50
loop_
 _symmetry_equiv_pos_site_id
 _symmetry_equiv_pos_as_xyz
  1  'x, y, z'
loop_
 _atom_site_type_symbol
 _atom_site_label
 _atom_site_symmetry_multiplicity
 _atom_site_fract_x
 _atom_site_fract_y
 _atom_site_fract_z
 _atom_site_occupancy
  Hf  Hf0  1  0.19851424  -0.00380335  0.79666023  1
  Hf  Hf1  1  0.38907166  0.77689973  0.59880697  1
  Hf  Hf2  1  0.69706772  0.09674546  0.10829234  1
  Hf  Hf3  1  0.70144188  0.31784078  0.69980824  1
  Hf  Hf4  1  0.40043301  0.80096776  0.39101010  1
  Hf  Hf5  1  0.51423399  0.67577550  0.69152433  1
  Hf  Hf6  1  0.78736575  0.61189010  0.59683324  1
  Hf  Hf7  1  0.69963499  0.09801356  0.70261186  1
  Hf  Hf8  1  0.39555177  -0.00113063  0.79438778  1
  Hf  Hf9  1  0.59653924  0.20451326  0.59054845  1
  Hf  Hf10  1  0.59272668  0.00528647  0.59399177  1
  Hf  Hf11  1  0.79406320  0.20686629  0.59837183  1
  Hf  Hf12  1  0.70872831  0.49354721  0.09490068  1
  Hf  Hf13  1  0.19304357  0.78973963  0.59646634  1
  Hf  Hf14  1  0.89093985  0.10490465  0.29732903  1
  Hf  Hf15  1  0.19604585  0.79465008  0.19862425  1
  Hf  Hf16  1  0.40155445  0.39058851  -0.00413735  1
  Hf  Hf17  1  0.88927357  0.48656865  0.69766330  1
  Hf  Hf18  1  0.59246756  0.00376998  0.39750685  1
  Hf  Hf19  1  0.30419475  0.49912295  0.09487084  1
  Hf  Hf20  1  0.30720667  0.10599063  0.89366789  1
  Hf  Hf21  1  0.60803047  0.59780278  0.40139247  1
  Hf  Hf22  1  0.40488776  0.42163124  0.61117478  1
  Hf  Hf23  1  0.90635488  0.30518072  0.29826288  1
  Hf  Hf24  1  -0.00609893  0.60269237  0.60118978  1
  Hf  Hf25  1  0.09202078  0.49620431  0.49806516  1
  Hf  Hf26  1  0.90458314  0.70308540  0.48765392  1
  Hf  Hf27  1  0.59898915  0.40095861  0.20678513  1
  Hf  Hf28  1  0.90644890  0.10848153  0.50872007  1
  Hf  Hf29  1  0.49502711  0.29771916  0.30666851  1
  Hf  Hf30  1  0.29501149  0.89331769  0.69562735  1
  Hf  Hf31  1  0.50278269  0.70367739  0.29278093  1
  Hf  Hf32  1  0.10614156  0.30591375  0.30461025  1
  Hf  Hf33  1  0.01147305  0.20030876  0.40590726  1
  Hf  Hf34  1  0.29590260  0.89695819  0.49285493  1
  Hf  Hf35  1  0.09127417  0.49688037  0.10309306  1
  Hf  Hf36  1  0.71112371  0.68937938  0.10463133  1
  Hf  Hf37  1  0.38948655  0.58265518  0.77205327  1
  Hf  Hf38  1  -0.00171993  0.79862641  0.19798517  1
  Hf  Hf39  1  0.30642424  0.89840023  0.10211734  1
  Hf  Hf40  1  0.19877828  0.00291416  0.00414897  1
  Hf  Hf41  1  0.20006677  0.60264935  0.39393624  1
  Hf  Hf42  1  0.12161309  0.10708896  0.30092339  1
  Hf  Hf43  1  0.00974869  0.00322842  0.19258154  1
  Hf  Hf44  1  0.79787614  0.79833927  0.80379593  1
  Hf  Hf45  1  0.30122692  0.30633014  0.49599374  1
  Hf  Hf46  1  0.89865314  0.90697091  0.29917386  1
  Hf  Hf47  1  0.90667493  0.31471750  0.50390909  1
  Hf  Hf48  1  0.19564838  0.59792036  -0.00555443  1
  Hf  Hf49  1  0.09172937  0.69637276  0.48643963  1
  Zr  Zr50  1  0.61922545  0.78586681  0.59918236  1
  Zr  Zr51  1  0.91093908  0.30352650  0.70048437  1
  Zr  Zr52  1  0.09847283  0.10297835  0.89400411  1
  Zr  Zr53  1  0.40038400  0.19706984  0.59486741  1
  Zr  Zr54  1  0.60374836  0.79281404  0.80126727  1
  Zr  Zr55  1  0.30080599  0.90890741  0.29556780  1
  Zr  Zr56  1  0.60082678  0.79805891  0.00428165  1
  Zr  Zr57  1  0.49430950  0.11323261  0.71283930  1
  Zr  Zr58  1  0.70762295  0.50503940  0.29297778  1
  Zr  Zr59  1  0.20406295  0.39992352  0.79738295  1
  Zr  Zr60  1  0.88775090  0.10237636  0.10909241  1
  Zr  Zr61  1  0.00682213  0.00176499  0.40328619  1
  Zr  Zr62  1  0.50575511  0.69178117  0.49999477  1
  Zr  Zr63  1  0.60296794  0.59443089  -0.00230097  1
  Zr  Zr64  1  0.90380737  0.89872187  0.70345576  1
  Zr  Zr65  1  0.78914081  0.21072304  0.40096255  1
  Zr  Zr66  1  0.60265468  0.80405178  0.20310532  1
  Zr  Zr67  1  0.89923584  0.30498467  0.89754181  1
  Zr  Zr68  1  0.59762337  -0.00496730  0.80555398  1
  Zr  Zr69  1  0.50171169  0.29681693  0.10279772  1
  Zr  Zr70  1  0.10465564  0.30101020  0.10957316  1
  Zr  Zr71  1  0.79081703  0.20319599  0.80565561  1
  Zr  Zr72  1  0.90723325  0.70102445  0.91438248  1
  Zr  Zr73  1  0.90169818  0.10167157  0.89729994  1
  Zr  Zr74  1  0.08893907  0.10949372  0.69736658  1
  Zr  Zr75  1  0.60069009  0.20924134  0.81689147  1
  Zr  Zr76  1  0.20507355  0.20196224  0.00169775  1
  Zr  Zr77  1  0.09178874  0.49147788  0.69847889  1
  Zr  Zr78  1  0.80018066  -0.00154482  0.59583595  1
  Zr  Zr79  1  0.49461807  0.90137492  0.90850520  1
  Zr  Zr80  1  -0.00402133  0.60239635  0.80173949  1
  Zr  Zr81  1  0.80499571  0.79562764  0.20013981  1
  Zr  Zr82  1  0.00602185  0.19434671  0.00740838  1
  Zr  Zr83  1  0.89776989  0.30081517  0.10382343  1
  Zr  Zr84  1  0.30289657  0.50240868  0.89627441  1
  Zr  Zr85  1  0.80277645  0.80016019  0.59521125  1
  Zr  Zr86  1  0.48783132  0.68380918  0.90091434  1
  Zr  Zr87  1  0.39906628  0.59347114  0.20384290  1
  Zr  Zr88  1  0.70267676  0.29970752  0.10332247  1
  Zr  Zr89  1  0.39853253  0.00733399  0.59507338  1
  Zr  Zr90  1  0.69613476  0.50013338  0.70030484  1
  Zr  Zr91  1  0.19480707  0.60449962  0.20493195  1
  Zr  Zr92  1  0.50111743  0.89116282  0.49826360  1
  Zr  Zr93  1  0.08772811  0.69619513  0.08606167  1
  Zr  Zr94  1  0.39638695  0.59866217  0.40517030  1
  Zr  Zr95  1  0.00380661  -0.00912777  0.59263287  1
  Zr  Zr96  1  0.30837371  0.29786091  0.70236067  1
  Zr  Zr97  1  0.39554904  0.79212848  0.79264651  1
  Zr  Zr98  1  0.19379068  0.00287774  0.59277210  1
  Zr  Zr99  1  0.20900659  0.40255299  0.20631875  1
  Ta  Ta100  1  0.80441060  0.40135696  0.20586688  1
  Ta  Ta101  1  0.90449386  0.10522706  0.70388218  1
  Ta  Ta102  1  0.29295130  0.50655855  0.50991059  1
  Ta  Ta103  1  0.39590312  0.79687305  -0.00081968  1
  Ta  Ta104  1  0.80366132  -0.00383750  0.00202875  1
  Ta  Ta105  1  0.30609109  0.69903743  0.09280066  1
  Ta  Ta106  1  0.71020472  0.69722419  0.91013475  1
  Ta  Ta107  1  0.70226166  0.90948987  0.10356449  1
  Ta  Ta108  1  -0.00004043  -0.00507384  0.00543240  1
  Ta  Ta109  1  0.29450392  0.10458183  0.48506544  1
  Ta  Ta110  1  0.49956618  0.49893850  0.09380476  1
  Ta  Ta111  1  0.49112519  0.69839888  0.10044078  1
  Ta  Ta112  1  0.59796682  0.19668805  0.20631416  1
  Ta  Ta113  1  0.49396908  0.89946887  0.10678370  1
  Ta  Ta114  1  0.01326445  0.19482403  0.20223519  1
  Ta  Ta115  1  0.79739438  0.60065841  0.80563394  1
  Ta  Ta116  1  0.40023142  0.39790449  0.20693180  1
  Ta  Ta117  1  0.19604344  0.79297783  0.80303706  1
  Ta  Ta118  1  0.89838093  0.49265257  0.90265626  1
  Ta  Ta119  1  0.59618116  0.19655284  0.00139739  1
  Ta  Ta120  1  0.89777936  0.49907714  0.49269084  1
  Ta  Ta121  1  0.09304321  0.49680537  0.89922713  1
  Ta  Ta122  1  0.09397627  0.30145243  0.88660417  1
  Ta  Ta123  1  0.40668259  0.19650232  0.00369693  1
  Ta  Ta124  1  0.70274712  0.91086102  0.29877183  1
  Ta  Ta125  1  0.29665183  0.69450135  0.89655061  1
  Ta  Ta126  1  0.80068504  -0.00392081  0.80590339  1
  Ta  Ta127  1  0.19914644  0.19894774  0.59536980  1
  Ta  Ta128  1  0.50131951  0.31085487  0.70916806  1
  Ta  Ta129  1  0.70228071  0.89976894  0.49159997  1
  Ta  Ta130  1  0.59919315  0.40288973  0.40287857  1
  Ta  Ta131  1  0.78818496  0.19721305  -0.00243156  1
  Ta  Ta132  1  0.08550760  0.49852554  0.30294365  1
  Ta  Ta133  1  0.69921033  0.90180882  0.70250605  1
  Ta  Ta134  1  0.49734885  0.49331086  0.89681724  1
  Ta  Ta135  1  0.79679267  0.79938867  0.39298972  1
  Ta  Ta136  1  0.10419729  0.89622872  0.30211823  1
  Ta  Ta137  1  -0.00103155  -0.00649294  0.80454541  1
  Ta  Ta138  1  0.09539937  0.89210613  0.90337383  1
  Ta  Ta139  1  0.70016041  0.10008183  0.29725108  1
  Ta  Ta140  1  0.30730323  0.10564069  0.11299263  1
  Ta  Ta141  1  0.70420350  0.90129374  0.91036646  1
  Ta  Ta142  1  0.49610821  0.30807184  0.49668610  1
  Ta  Ta143  1  0.00247475  0.39940311  -0.00068290  1
  Ta  Ta144  1  0.20360795  0.40463252  0.40174162  1
  Ta  Ta145  1  0.19930839  0.39234065  -0.00545802  1
  Ta  Ta146  1  0.79970947  0.60577555  0.39332249  1
  Ta  Ta147  1  0.49635373  0.10551273  0.29759995  1
  Ta  Ta148  1  0.09998026  0.30551335  0.50597555  1
  Ta  Ta149  1  0.30599179  0.29349223  0.10937759  1
  Ti  Ti150  1  0.59969406  0.59906237  0.19911005  1
  Ti  Ti151  1  0.90298343  0.49842334  0.10217440  1
  Ti  Ti152  1  0.50048112  0.49996054  0.30302716  1
  Ti  Ti153  1  -0.00797720  0.60309517  0.20051020  1
  Ti  Ti154  1  0.90154620  0.90116109  0.90508233  1
  Ti  Ti155  1  0.59678707  0.40175776  0.81149797  1
  Ti  Ti156  1  0.90605899  0.49879429  0.30325700  1
  Ti  Ti157  1  0.40108615  0.40912368  0.40377423  1
  Ti  Ti158  1  0.09695904  0.89173461  0.70499575  1
  Ti  Ti159  1  0.30112086  0.49571227  0.30620329  1
  Ti  Ti160  1  0.59268234  0.00320678  0.00888208  1
  Ti  Ti161  1  0.09416477  0.88455024  0.48408417  1
  Ti  Ti162  1  0.29757333  0.89510518  0.90216966  1
  Ti  Ti163  1  0.79387460  0.40241794  0.39516534  1
  Ti  Ti164  1  0.20239702  0.20155010  0.78922922  1
  Ti  Ti165  1  0.20174149  0.00509030  0.19599144  1
  Ti  Ti166  1  0.59234143  0.40989384  0.59222185  1
  Ti  Ti167  1  0.80133100  -0.00057693  0.40587629  1
  Ti  Ti168  1  0.60945633  0.80070016  0.39051922  1
  Ti  Ti169  1  0.40214873  0.00612764  0.00747330  1
  Ti  Ti170  1  0.89825336  0.70199824  0.70321996  1
  Ti  Ti171  1  0.59018597  0.00008211  0.20498592  1
  Ti  Ti172  1  0.69584121  0.31417700  0.49987961  1
  Ti  Ti173  1  0.30573429  0.70478141  0.29041841  1
  Ti  Ti174  1  0.69937624  0.31715076  0.91576977  1
  Ti  Ti175  1  0.50202112  0.89224322  0.69334313  1
  Ti  Ti176  1  -0.01079367  0.81089325  0.01163350  1
  Ti  Ti177  1  0.69798865  0.09847162  0.49435230  1
  Ti  Ti178  1  0.19866698  0.00287886  0.40131548  1
  Ti  Ti179  1  0.40740262  0.00630463  0.20439664  1
  Ti  Ti180  1  0.81291045  0.59466888  0.00292427  1
  Ti  Ti181  1  0.59896469  0.20330570  0.40161891  1
  Ti  Ti182  1  0.39355762  0.19775221  0.39342667  1
  Ti  Ti183  1  0.70852152  0.49148555  0.90531273  1
  Ti  Ti184  1  0.60903962  0.59446066  0.80757112  1
  Ti  Ti185  1  0.30947867  0.29485569  0.89275511  1
  Ti  Ti186  1  0.69801980  0.08934920  0.90858662  1
  Ti  Ti187  1  0.49641713  0.10308586  0.90547230  1
  Ti  Ti188  1  0.10295047  0.69490158  0.70400450  1
  Ti  Ti189  1  0.90431761  0.69401754  0.30057006  1
  Ti  Ti190  1  0.80710231  0.80610646  0.01082121  1
  Ti  Ti191  1  0.20254390  0.79739351  -0.00469733  1
  Ti  Ti192  1  0.09709499  0.70058171  0.90070169  1
  Ti  Ti193  1  0.19948198  0.79005171  0.39085321  1
  Ti  Ti194  1  0.19827117  0.39698225  0.60248441  1
  Ti  Ti195  1  0.70462198  0.49820100  0.50045240  1
  Ti  Ti196  1  0.00273870  0.80014353  0.80252258  1
  Ti  Ti197  1  0.10434854  0.89877595  0.09657625  1
  Ti  Ti198  1  0.40483531  0.00678659  0.39533196  1
  Ti  Ti199  1  -0.00077605  0.80050097  0.59673784  1
  Mo  Mo200  1  0.11160959  0.09711969  0.10685936  1
  Mo  Mo201  1  0.70334559  0.69554554  0.72006193  1
  Mo  Mo202  1  0.52036871  0.49547560  0.70339653  1
  Mo  Mo203  1  0.79359611  -0.00101276  0.20193816  1
  Mo  Mo204  1  0.21308423  0.20024206  0.20680694  1
  Mo  Mo205  1  0.89983855  0.68988723  0.09994551  1
  Mo  Mo206  1  0.10964699  0.11179991  0.49584394  1
  Mo  Mo207  1  0.40317939  0.20490207  0.80852355  1
  Mo  Mo208  1  0.60689390  0.59079331  0.59205131  1
  Mo  Mo209  1  0.08947524  0.70004024  0.29982569  1
  Mo  Mo210  1  -0.00214292  0.58698988  -0.00202299  1
  Mo  Mo211  1  0.40700280  0.39920244  0.79977109  1
  Mo  Mo212  1  0.00737165  0.20873099  0.59959698  1
  Mo  Mo213  1  0.70414408  0.69893638  0.29579706  1
  Mo  Mo214  1  0.78734777  0.20492781  0.20708771  1
  Mo  Mo215  1  0.89962441  0.89383530  0.48986695  1
  Mo  Mo216  1  0.50250877  0.90785328  0.29709550  1
  Mo  Mo217  1  0.29291692  0.10310148  0.69790540  1
  Mo  Mo218  1  0.70463729  0.70279587  0.48062279  1
  Mo  Mo219  1  0.00286600  0.40280417  0.40009938  1
  Mo  Mo220  1  0.50037992  0.09575939  0.10190538  1
  Mo  Mo221  1  0.20877792  0.21083017  0.40315749  1
  Mo  Mo222  1  0.30553688  0.10210568  0.29893578  1
  Mo  Mo223  1  0.00028965  0.39931460  0.80469481  1
  Mo  Mo224  1  0.39221215  0.59545286  0.59716129  1
  Mo  Mo225  1  0.50140524  0.30020075  0.90342324  1
  Mo  Mo226  1  0.79491414  0.40431240  0.58430157  1
  Mo  Mo227  1  -0.00535756  0.40385077  0.20233363  1
  Mo  Mo228  1  0.89824585  0.90461462  0.09755998  1
  Mo  Mo229  1  0.28045943  0.69037119  0.69991108  1
  Mo  Mo230  1  0.27807643  0.50271181  0.69150828  1
  Mo  Mo231  1  0.69658485  0.30036104  0.30357186  1
  Mo  Mo232  1  0.40048177  0.80105848  0.19398848  1
  Mo  Mo233  1  0.50215354  0.49839318  0.50065422  1
  Mo  Mo234  1  0.79457529  0.40496239  0.81275595  1
  Mo  Mo235  1  0.59725867  0.40048500  -0.00476471  1
  Mo  Mo236  1  0.40022494  0.59880591  0.00143213  1
  Mo  Mo237  1  0.00018848  0.40388877  0.59680054  1
  Mo  Mo238  1  0.30546217  0.30189899  0.30556956  1
  Mo  Mo239  1  0.19727023  0.60300720  0.60048868  1
  Mo  Mo240  1  0.40113833  0.19808217  0.20447738  1
  Mo  Mo241  1  0.49545668  0.11542576  0.48136618  1
  Mo  Mo242  1  0.10085781  0.29763422  0.69487309  1
  Mo  Mo243  1  -0.00805609  0.59693366  0.39181582  1
  Mo  Mo244  1  -0.00171071  0.80148111  0.38882465  1
  Mo  Mo245  1  0.80567975  0.40278231  0.00539134  1
  Mo  Mo246  1  0.81698270  0.59660981  0.20035445  1
  Mo  Mo247  1  0.19305532  0.60619176  0.79924034  1
  Mo  Mo248  1  0.00163546  0.20235627  0.79491325  1
  Mo  Mo249  1  0.29099021  0.69559609  0.49819220  1
