# generated using pymatgen
data_HfZrTaTiMo
_symmetry_space_group_name_H-M   'P 1'
_cell_length_a   16.87911965
_cell_length_b   16.89208249
_cell_length_c   16.88140503
_cell_angle_alpha   90.01248826
_cell_angle_beta   90.02943462
_cell_angle_gamma   89.99145707
_symmetry_Int_Tables_number   1
_chemical_formula_structural   HfZrTaTiMo
_chemical_formula_sum   'Hf50 Zr50 Ta50 Ti50 Mo50'
_cell_volume   4813.28417341
_cell_formula_units_Z   50
loop_
 _symmetry_equiv_pos_site_id
 _symmetry_equiv_pos_as_xyz
  1  'x, y, z'
loop_
 _atom_site_type_symbol
 _atom_site_label
 _atom_site_symmetry_multiplicity
 _atom_site_fract_x
 _atom_site_fract_y
 _atom_site_fract_z
 _atom_site_occupancy
  Hf  Hf0  1  0.29444438  0.69379073  0.90457125  1
  Hf  Hf1  1  0.48853183  0.70364560  0.68094702  1
  Hf  Hf2  1  0.90441081  0.69440139  0.09667248  1
  Hf  Hf3  1  0.60158451  0.39842952  0.00555822  1
  Hf  Hf4  1  0.01129898  0.79447115  0.19531947  1
  Hf  Hf5  1  0.90347911  0.68698491  0.49516830  1
  Hf  Hf6  1  0.59776990  0.79325140  -0.00385402  1
  Hf  Hf7  1  0.90642147  0.28283823  0.30150211  1
  Hf  Hf8  1  0.00461487  0.80700759  0.59920152  1
  Hf  Hf9  1  0.10929495  0.11009129  0.10413720  1
  Hf  Hf10  1  0.39940032  0.39218647  0.59042070  1
  Hf  Hf11  1  0.79913124  0.80913748  0.59867593  1
  Hf  Hf12  1  0.39612092  0.59950843  0.79712788  1
  Hf  Hf13  1  0.30191332  0.89574755  0.69359114  1
  Hf  Hf14  1  0.39626668  0.20657851  0.40059847  1
  Hf  Hf15  1  0.29524401  0.89905733  0.89819820  1
  Hf  Hf16  1  0.40210460  0.59859626  0.40729754  1
  Hf  Hf17  1  0.39133457  0.78882345  0.20084270  1
  Hf  Hf18  1  0.40498849  0.21284925  0.20170653  1
  Hf  Hf19  1  0.90316494  0.10485282  0.69553733  1
  Hf  Hf20  1  0.60103299  0.59402114  -0.00196439  1
  Hf  Hf21  1  0.29546369  0.90327675  0.30244780  1
  Hf  Hf22  1  0.00865431  -0.00607172  0.00153213  1
  Hf  Hf23  1  0.09324634  0.10615274  0.49720045  1
  Hf  Hf24  1  0.00971824  0.38089212  0.19161546  1
  Hf  Hf25  1  0.19623038  0.79934216  0.01295517  1
  Hf  Hf26  1  0.69400780  0.49512131  0.88888989  1
  Hf  Hf27  1  0.80549240  0.40700035  0.79552721  1
  Hf  Hf28  1  0.89864582  0.09323857  0.30648058  1
  Hf  Hf29  1  0.89566690  0.90590657  0.29749624  1
  Hf  Hf30  1  0.39596758  0.20796036  0.60324884  1
  Hf  Hf31  1  0.79513398  0.21111896  0.58883806  1
  Hf  Hf32  1  0.18844437  -0.00421398  0.79698941  1
  Hf  Hf33  1  -0.00514553  0.21804899  0.02281669  1
  Hf  Hf34  1  0.10045212  0.50054273  0.49747001  1
  Hf  Hf35  1  0.49822842  0.68878162  0.10715450  1
  Hf  Hf36  1  0.60243836  0.00619052  0.20420178  1
  Hf  Hf37  1  0.39448573  0.79148611  0.00739671  1
  Hf  Hf38  1  0.49376608  0.49895625  0.10375685  1
  Hf  Hf39  1  0.69323618  0.69135728  0.30463180  1
  Hf  Hf40  1  0.11026996  0.30869241  0.91771476  1
  Hf  Hf41  1  0.79873178  0.59205101  -0.00554302  1
  Hf  Hf42  1  0.89853604  0.89147836  0.09954845  1
  Hf  Hf43  1  0.90440948  0.30659399  0.69858253  1
  Hf  Hf44  1  0.00293851  -0.00453112  0.60531651  1
  Hf  Hf45  1  0.40304814  0.79716704  0.40352055  1
  Hf  Hf46  1  0.90302048  0.50827079  0.49338190  1
  Hf  Hf47  1  0.40273886  0.39490159  0.40474614  1
  Hf  Hf48  1  0.30711639  0.49068294  0.70213223  1
  Hf  Hf49  1  0.90462966  0.91430777  0.48192442  1
  Zr  Zr50  1  0.69295895  0.10258103  0.90456281  1
  Zr  Zr51  1  0.70077386  0.90282602  0.10301630  1
  Zr  Zr52  1  0.69836257  0.69666241  0.68833234  1
  Zr  Zr53  1  0.00167675  0.80352143  0.79395959  1
  Zr  Zr54  1  0.90212524  0.50011074  0.30238080  1
  Zr  Zr55  1  0.19951412  0.59481501  0.19302710  1
  Zr  Zr56  1  0.79500889  0.79532299  0.40181312  1
  Zr  Zr57  1  0.10232221  0.11124038  0.90226888  1
  Zr  Zr58  1  0.29948739  0.30435954  0.09054000  1
  Zr  Zr59  1  0.49968218  0.90626291  0.10516997  1
  Zr  Zr60  1  0.29348009  0.11183279  0.90719130  1
  Zr  Zr61  1  0.10322460  0.90400777  0.30076323  1
  Zr  Zr62  1  0.59696133  -0.00019055  0.40397182  1
  Zr  Zr63  1  0.80000537  0.40018436  0.59374015  1
  Zr  Zr64  1  0.69848993  0.90148094  0.90026458  1
  Zr  Zr65  1  0.89888090  0.89424379  0.90312192  1
  Zr  Zr66  1  0.59079529  0.21494790  0.00499732  1
  Zr  Zr67  1  0.59758495  0.39465603  0.39636431  1
  Zr  Zr68  1  0.69821817  0.69464992  0.10742397  1
  Zr  Zr69  1  0.80109830  0.00814289  0.00614651  1
  Zr  Zr70  1  0.40424911  0.79754170  0.79841777  1
  Zr  Zr71  1  0.20224111  0.01015989  0.39740030  1
  Zr  Zr72  1  0.50057076  0.89570756  0.30203075  1
  Zr  Zr73  1  0.60304546  0.39771856  0.58957041  1
  Zr  Zr74  1  0.50800538  0.11399105  0.30417446  1
  Zr  Zr75  1  0.60297208  0.00227949  0.78559084  1
  Zr  Zr76  1  0.90262351  0.69153134  0.68716546  1
  Zr  Zr77  1  -0.00089445  0.20972583  0.80740312  1
  Zr  Zr78  1  0.50638905  0.90775734  0.90405145  1
  Zr  Zr79  1  0.78981823  0.39081233  0.19688439  1
  Zr  Zr80  1  0.10031270  0.30261785  0.69986311  1
  Zr  Zr81  1  0.39736498  0.00695588  0.00227504  1
  Zr  Zr82  1  0.30252956  0.49458787  0.29844524  1
  Zr  Zr83  1  0.29513092  0.10280308  0.50654431  1
  Zr  Zr84  1  0.40482736  0.00834955  0.79368170  1
  Zr  Zr85  1  0.79626813  0.38502227  0.40441617  1
  Zr  Zr86  1  -0.00215761  0.59115317  0.80663305  1
  Zr  Zr87  1  0.79750517  0.20281103  0.80056904  1
  Zr  Zr88  1  0.20520346  0.40388884  0.80272252  1
  Zr  Zr89  1  0.40563431  0.20478323  0.80164526  1
  Zr  Zr90  1  0.20726509  0.60097360  0.40588523  1
  Zr  Zr91  1  0.90436427  0.68666581  0.30091076  1
  Zr  Zr92  1  0.89899307  0.10608781  0.90531726  1
  Zr  Zr93  1  0.29145731  0.91354471  0.11641146  1
  Zr  Zr94  1  0.00736829  0.00049512  0.19349629  1
  Zr  Zr95  1  0.20927054  0.59943265  0.60518160  1
  Zr  Zr96  1  0.79204247  -0.00038687  0.60027686  1
  Zr  Zr97  1  0.90499794  0.49306998  0.09746517  1
  Zr  Zr98  1  0.31479039  0.71092653  0.52127041  1
  Zr  Zr99  1  0.80584886  0.60184050  0.80178221  1
  Ta  Ta100  1  0.80069702  -0.00527678  0.78760293  1
  Ta  Ta101  1  0.29119917  0.10125660  0.69752836  1
  Ta  Ta102  1  0.50429536  0.30805884  0.70558328  1
  Ta  Ta103  1  0.10132558  0.69501760  0.90389996  1
  Ta  Ta104  1  0.19851926  0.79400481  0.40703860  1
  Ta  Ta105  1  0.69467697  0.50364727  0.69326993  1
  Ta  Ta106  1  0.49643716  0.49338481  0.89251285  1
  Ta  Ta107  1  0.19189492  0.80274442  0.60166148  1
  Ta  Ta108  1  0.68917797  0.30245744  0.70243015  1
  Ta  Ta109  1  0.30641438  0.30431596  0.90443306  1
  Ta  Ta110  1  0.19403646  -0.00257826  0.00689139  1
  Ta  Ta111  1  0.19874967  0.21029249  0.20742572  1
  Ta  Ta112  1  0.00050731  -0.00407523  0.79464860  1
  Ta  Ta113  1  0.49824858  0.10743884  0.10150210  1
  Ta  Ta114  1  0.59406707  0.59881358  0.59412374  1
  Ta  Ta115  1  0.50466864  0.50455482  0.29363793  1
  Ta  Ta116  1  0.70274060  0.51434416  0.49170617  1
  Ta  Ta117  1  0.10093250  0.10720962  0.69660145  1
  Ta  Ta118  1  0.69411694  0.10595659  0.10535032  1
  Ta  Ta119  1  0.79681525  0.19840048  0.19722256  1
  Ta  Ta120  1  0.69766411  0.30583329  0.89524278  1
  Ta  Ta121  1  0.69031421  0.28240515  0.30032459  1
  Ta  Ta122  1  0.00287422  0.39812533  0.59112165  1
  Ta  Ta123  1  0.49692394  0.89888325  0.50455638  1
  Ta  Ta124  1  0.89577449  0.31579203  0.91420306  1
  Ta  Ta125  1  0.60055328  0.79669112  0.79143684  1
  Ta  Ta126  1  0.09643413  0.68842929  0.08882222  1
  Ta  Ta127  1  0.30015128  0.90267997  0.50342702  1
  Ta  Ta128  1  0.09197773  0.11436549  0.30079764  1
  Ta  Ta129  1  0.39807397  0.00599406  0.40436848  1
  Ta  Ta130  1  0.60105739  0.00044575  0.59830261  1
  Ta  Ta131  1  0.20667254  0.39445919  0.59364546  1
  Ta  Ta132  1  0.29776178  0.10928793  0.10422769  1
  Ta  Ta133  1  0.10148899  0.69345494  0.69993503  1
  Ta  Ta134  1  0.19785299  0.39966277  0.19666020  1
  Ta  Ta135  1  0.00518868  0.39005765  0.39964522  1
  Ta  Ta136  1  0.19712365  0.78374119  0.20086261  1
  Ta  Ta137  1  0.50315609  0.49472864  0.70102190  1
  Ta  Ta138  1  0.70507042  0.90141922  0.30079093  1
  Ta  Ta139  1  0.10213657  0.29544792  0.49628002  1
  Ta  Ta140  1  0.69625561  0.10820162  0.49396772  1
  Ta  Ta141  1  0.59190055  0.60310179  0.79333231  1
  Ta  Ta142  1  0.69278135  0.50341017  0.29960902  1
  Ta  Ta143  1  0.19222835  -0.00403881  0.60425619  1
  Ta  Ta144  1  0.19891472  0.59696746  0.80161295  1
  Ta  Ta145  1  0.79840683  0.79587662  0.20292399  1
  Ta  Ta146  1  0.50684054  0.69088942  0.30224620  1
  Ta  Ta147  1  0.79762089  0.80604865  0.79157341  1
  Ta  Ta148  1  0.89765859  0.10488185  0.48790784  1
  Ta  Ta149  1  0.09555013  0.49886834  0.69484968  1
  Ti  Ti150  1  0.59744727  0.38921318  0.19680572  1
  Ti  Ti151  1  0.49693883  0.69103391  0.89978321  1
  Ti  Ti152  1  0.89623446  0.10386262  0.11207425  1
  Ti  Ti153  1  0.90467963  0.50678711  0.68248370  1
  Ti  Ti154  1  0.20746576  0.20853186  0.79396945  1
  Ti  Ti155  1  0.59471199  0.20707146  0.80221139  1
  Ti  Ti156  1  0.40290605  0.39672508  0.20211060  1
  Ti  Ti157  1  0.79487372  0.79139710  -0.00237185  1
  Ti  Ti158  1  0.39480321  0.01726922  0.21321990  1
  Ti  Ti159  1  0.50636580  0.10973157  0.68936395  1
  Ti  Ti160  1  0.59979274  0.80271549  0.59081404  1
  Ti  Ti161  1  0.00788493  0.79656503  0.39945222  1
  Ti  Ti162  1  0.69181810  0.69255795  0.49352450  1
  Ti  Ti163  1  0.40998776  0.39421498  -0.00256633  1
  Ti  Ti164  1  0.50436842  0.10219538  0.50583424  1
  Ti  Ti165  1  0.20986113  0.58958148  0.00471010  1
  Ti  Ti166  1  0.40230647  0.58600924  0.59484661  1
  Ti  Ti167  1  0.50306633  0.10377392  0.91009464  1
  Ti  Ti168  1  0.51699208  0.28139621  0.50041172  1
  Ti  Ti169  1  0.60161762  0.79790435  0.20587099  1
  Ti  Ti170  1  0.20289838  0.39388270  0.40351529  1
  Ti  Ti171  1  0.20129243  0.20818215  0.39358548  1
  Ti  Ti172  1  0.70817793  0.10077079  0.30406691  1
  Ti  Ti173  1  0.10348025  0.48868236  0.08645657  1
  Ti  Ti174  1  0.69425512  0.90118480  0.49232256  1
  Ti  Ti175  1  0.79257237  0.58987866  0.19605307  1
  Ti  Ti176  1  -0.00153627  0.58964120  -0.00760503  1
  Ti  Ti177  1  0.69440487  0.11136607  0.69370308  1
  Ti  Ti178  1  0.10369522  0.90350248  0.49251082  1
  Ti  Ti179  1  0.40220504  0.00369977  0.59989171  1
  Ti  Ti180  1  0.29635345  0.30576149  0.29896413  1
  Ti  Ti181  1  0.09385812  0.69333355  0.50249999  1
  Ti  Ti182  1  0.01137994  0.59074847  0.19781677  1
  Ti  Ti183  1  0.79450991  0.21384878  0.01132756  1
  Ti  Ti184  1  0.79028655  0.39996146  0.00875098  1
  Ti  Ti185  1  0.09879125  0.49369093  0.30567698  1
  Ti  Ti186  1  0.90712870  0.70704248  0.90637827  1
  Ti  Ti187  1  0.10291845  0.49845238  0.90732478  1
  Ti  Ti188  1  0.69781497  0.70040102  0.88998923  1
  Ti  Ti189  1  0.10007533  0.88888878  0.90222250  1
  Ti  Ti190  1  0.20412210  0.20919192  0.60402682  1
  Ti  Ti191  1  -0.00380851  0.20865389  0.59191624  1
  Ti  Ti192  1  0.30963610  0.49508050  0.90922469  1
  Ti  Ti193  1  0.38914005  0.59885422  0.19747475  1
  Ti  Ti194  1  0.50741151  0.50540129  0.49495326  1
  Ti  Ti195  1  -0.00342747  0.40969321  0.80839135  1
  Ti  Ti196  1  0.09889960  0.69014937  0.30730985  1
  Ti  Ti197  1  0.19802943  0.79125521  0.79174357  1
  Ti  Ti198  1  0.29815459  0.69779447  0.30303259  1
  Ti  Ti199  1  0.50246905  0.89852044  0.68988424  1
  Mo  Mo200  1  0.00451988  0.40288871  0.00137187  1
  Mo  Mo201  1  0.69725752  0.29690329  0.10414956  1
  Mo  Mo202  1  0.01263655  0.59366139  0.39417015  1
  Mo  Mo203  1  0.50018071  0.30781426  0.89612595  1
  Mo  Mo204  1  0.40300026  0.81576143  0.60049689  1
  Mo  Mo205  1  0.11371443  0.30177424  0.10356643  1
  Mo  Mo206  1  0.78951016  0.00302277  0.39941451  1
  Mo  Mo207  1  0.89959766  0.48893276  0.90919251  1
  Mo  Mo208  1  0.30714354  0.49485702  0.09424714  1
  Mo  Mo209  1  0.50842091  0.70371894  0.49887057  1
  Mo  Mo210  1  0.60261605  0.20223111  0.20077841  1
  Mo  Mo211  1  0.28729094  0.29877880  0.49590856  1
  Mo  Mo212  1  0.59677845  0.79592681  0.40656324  1
  Mo  Mo213  1  0.89771090  0.90384064  0.70160874  1
  Mo  Mo214  1  0.40453052  0.39844968  0.80403017  1
  Mo  Mo215  1  0.78986485  0.59863635  0.59329702  1
  Mo  Mo216  1  0.60168134  0.19808389  0.40278451  1
  Mo  Mo217  1  0.00536355  0.00611504  0.40218273  1
  Mo  Mo218  1  0.91009930  0.29695307  0.49600308  1
  Mo  Mo219  1  0.60065592  0.40231037  0.79558386  1
  Mo  Mo220  1  0.30190056  0.29701311  0.70073024  1
  Mo  Mo221  1  0.59555430  0.01392665  0.00896081  1
  Mo  Mo222  1  0.29507381  0.68655659  0.10077979  1
  Mo  Mo223  1  0.30255548  0.49177532  0.50217409  1
  Mo  Mo224  1  0.59851674  0.59071333  0.20156864  1
  Mo  Mo225  1  0.00901887  0.59508525  0.59923701  1
  Mo  Mo226  1  0.10433091  0.89290853  0.10302351  1
  Mo  Mo227  1  0.10309081  0.89707615  0.70219464  1
  Mo  Mo228  1  0.69527542  0.28946665  0.49506252  1
  Mo  Mo229  1  0.20599569  0.20463549  0.00521955  1
  Mo  Mo230  1  0.59905248  0.19749113  0.60422793  1
  Mo  Mo231  1  -0.00026814  0.19928835  0.20241291  1
  Mo  Mo232  1  0.79222834  0.59773388  0.39534810  1
  Mo  Mo233  1  0.29666022  0.10714655  0.29616308  1
  Mo  Mo234  1  0.20721014  0.41030569  0.00232896  1
  Mo  Mo235  1  0.40346020  0.20562619  0.00180689  1
  Mo  Mo236  1  0.59382006  0.59833260  0.40116686  1
  Mo  Mo237  1  0.10645430  0.30164117  0.30508210  1
  Mo  Mo238  1  0.39948879  0.59121111  -0.00505140  1
  Mo  Mo239  1  0.69389521  0.89415716  0.69550761  1
  Mo  Mo240  1  0.69451180  0.49623390  0.10763259  1
  Mo  Mo241  1  0.00736581  0.79207631  -0.00173699  1
  Mo  Mo242  1  0.29258842  0.70025448  0.70411938  1
  Mo  Mo243  1  0.50310538  0.30846928  0.29753875  1
  Mo  Mo244  1  0.00184481  0.20177183  0.40359850  1
  Mo  Mo245  1  0.20364843  0.01850375  0.20304963  1
  Mo  Mo246  1  0.79680691  0.19560411  0.39874609  1
  Mo  Mo247  1  0.79427866  0.00401192  0.20197922  1
  Mo  Mo248  1  0.49744574  0.30434895  0.10538237  1
  Mo  Mo249  1  0.88646287  0.29836375  0.10255908  1
