# generated using pymatgen
data_HfZrTaTiMo
_symmetry_space_group_name_H-M   'P 1'
_cell_length_a   16.89305270
_cell_length_b   16.88302960
_cell_length_c   16.88577987
_cell_angle_alpha   90.01241124
_cell_angle_beta   89.95892997
_cell_angle_gamma   89.97434339
_symmetry_Int_Tables_number   1
_chemical_formula_structural   HfZrTaTiMo
_chemical_formula_sum   'Hf50 Zr50 Ta50 Ti50 Mo50'
_cell_volume   4815.92236231
_cell_formula_units_Z   50
loop_
 _symmetry_equiv_pos_site_id
 _symmetry_equiv_pos_as_xyz
  1  'x, y, z'
loop_
 _atom_site_type_symbol
 _atom_site_label
 _atom_site_symmetry_multiplicity
 _atom_site_fract_x
 _atom_site_fract_y
 _atom_site_fract_z
 _atom_site_occupancy
  Hf  Hf0  1  0.10198185  0.49705872  0.50478736  1
  Hf  Hf1  1  0.60753971  0.19482365  0.40722452  1
  Hf  Hf2  1  0.19648785  0.81074525  0.19292388  1
  Hf  Hf3  1  0.20331246  0.60676326  0.58857500  1
  Hf  Hf4  1  0.39565129  0.19267007  0.80310837  1
  Hf  Hf5  1  0.81630710  0.79835935  0.61586646  1
  Hf  Hf6  1  0.28930292  0.30669728  0.70301636  1
  Hf  Hf7  1  0.80282261  0.59935538  0.19641187  1
  Hf  Hf8  1  0.69835036  0.10385838  0.10398957  1
  Hf  Hf9  1  0.20683088  0.40197942  0.39687867  1
  Hf  Hf10  1  -0.00897668  0.40195427  0.60090200  1
  Hf  Hf11  1  0.39015896  0.20389091  -0.00416092  1
  Hf  Hf12  1  0.90008655  0.69790725  0.90312649  1
  Hf  Hf13  1  0.70688522  0.10617121  0.70656632  1
  Hf  Hf14  1  0.30348893  0.90465239  0.49922310  1
  Hf  Hf15  1  -0.00070584  0.58355909  0.00723640  1
  Hf  Hf16  1  0.38413394  0.19807492  0.40056320  1
  Hf  Hf17  1  0.59720539  0.79837552  0.80037592  1
  Hf  Hf18  1  0.10518630  0.09586553  0.70985075  1
  Hf  Hf19  1  0.60468002  0.00483157  0.60222833  1
  Hf  Hf20  1  0.89759139  0.70141273  0.09007945  1
  Hf  Hf21  1  0.30631644  0.90181802  0.30286667  1
  Hf  Hf22  1  0.80708655  0.80728293  0.19841528  1
  Hf  Hf23  1  0.49864301  0.49309069  0.69367127  1
  Hf  Hf24  1  0.60233290  0.39100399  0.40132131  1
  Hf  Hf25  1  0.20587385  0.80613852  -0.00164172  1
  Hf  Hf26  1  0.39665067  0.80306610  0.80105003  1
  Hf  Hf27  1  0.39755296  0.39876987  0.39508066  1
  Hf  Hf28  1  0.59447953  0.40002094  -0.00011824  1
  Hf  Hf29  1  0.90009191  0.90239244  0.90364102  1
  Hf  Hf30  1  0.59750107  0.60260337  0.79616261  1
  Hf  Hf31  1  0.19603742  0.01105074  0.39587653  1
  Hf  Hf32  1  0.00274326  0.19215159  0.40158225  1
  Hf  Hf33  1  -0.00101618  0.19559617  0.60173591  1
  Hf  Hf34  1  0.10163359  0.91101268  0.89540005  1
  Hf  Hf35  1  0.88780719  0.29530173  0.90309036  1
  Hf  Hf36  1  0.69896195  0.50982295  0.08871275  1
  Hf  Hf37  1  -0.00311009  0.59378001  0.19753192  1
  Hf  Hf38  1  0.00583763  0.20053914  0.80858281  1
  Hf  Hf39  1  0.59132209  0.19666600  -0.00671850  1
  Hf  Hf40  1  0.60255747  0.20120587  0.60007455  1
  Hf  Hf41  1  0.49410907  0.90735401  0.70116400  1
  Hf  Hf42  1  0.20929763  0.80531420  0.80238537  1
  Hf  Hf43  1  0.10891938  0.29172947  0.29396926  1
  Hf  Hf44  1  0.59454418  0.61426311  0.59842434  1
  Hf  Hf45  1  0.00755213  0.38960249  0.00661728  1
  Hf  Hf46  1  0.59730916  0.79672219  0.40587413  1
  Hf  Hf47  1  0.09736638  0.90143716  0.50216891  1
  Hf  Hf48  1  0.00667436  0.19461121  0.18948498  1
  Hf  Hf49  1  0.68811208  0.90612624  0.10431251  1
  Zr  Zr50  1  0.81523840  0.59423783  0.60047770  1
  Zr  Zr51  1  0.19544247  0.79355079  0.40614397  1
  Zr  Zr52  1  0.50010025  0.90518778  0.29496855  1
  Zr  Zr53  1  0.49857892  0.09625259  0.29582753  1
  Zr  Zr54  1  -0.00366358  0.39553937  0.19348578  1
  Zr  Zr55  1  0.70918308  0.29150737  0.28971479  1
  Zr  Zr56  1  0.88069869  0.49724484  0.91097807  1
  Zr  Zr57  1  0.10016534  0.70118666  0.09475229  1
  Zr  Zr58  1  0.59788506  0.40515389  0.19550074  1
  Zr  Zr59  1  0.49695820  0.50577713  0.90543726  1
  Zr  Zr60  1  0.39187308  0.18843378  0.60593040  1
  Zr  Zr61  1  0.00427701  -0.00069923  0.19006014  1
  Zr  Zr62  1  0.50512671  0.70000465  0.29630739  1
  Zr  Zr63  1  -0.00118673  0.39996041  0.80417274  1
  Zr  Zr64  1  0.71696037  0.69803966  0.48607790  1
  Zr  Zr65  1  0.20385815  0.60032684  0.19637414  1
  Zr  Zr66  1  0.89312755  0.70296183  0.30994071  1
  Zr  Zr67  1  0.59614047  0.79505379  0.60446672  1
  Zr  Zr68  1  0.28714458  0.08940135  0.89748394  1
  Zr  Zr69  1  -0.00748163  0.80005431  0.79091059  1
  Zr  Zr70  1  0.48901184  0.90500549  0.49339223  1
  Zr  Zr71  1  0.70465507  0.68886381  0.91137900  1
  Zr  Zr72  1  0.39837354  0.60355154  0.59525096  1
  Zr  Zr73  1  0.10461540  0.29952744  0.50494939  1
  Zr  Zr74  1  0.71027124  0.10242355  0.90155279  1
  Zr  Zr75  1  0.39787020  0.40070645  0.19608856  1
  Zr  Zr76  1  0.00055083  0.59641744  0.40960454  1
  Zr  Zr77  1  0.10476965  0.49635328  0.29586130  1
  Zr  Zr78  1  0.48704965  0.08893213  0.49656914  1
  Zr  Zr79  1  0.70238841  0.50250458  0.49716910  1
  Zr  Zr80  1  0.69688355  0.89586758  0.29860093  1
  Zr  Zr81  1  0.49523683  0.10313886  0.11180468  1
  Zr  Zr82  1  0.71019273  0.90003165  0.50349262  1
  Zr  Zr83  1  0.31013215  0.70282411  0.29899264  1
  Zr  Zr84  1  0.69789423  0.51273685  0.30529495  1
  Zr  Zr85  1  0.81331077  -0.00092611  0.19987260  1
  Zr  Zr86  1  0.50361926  0.28631913  0.29317039  1
  Zr  Zr87  1  0.30470988  0.68702088  0.90579404  1
  Zr  Zr88  1  0.10531552  0.90179233  0.69454742  1
  Zr  Zr89  1  0.90322415  0.90153289  0.49362566  1
  Zr  Zr90  1  0.38754822  0.40153377  0.80857481  1
  Zr  Zr91  1  0.49591192  0.30597439  0.69593319  1
  Zr  Zr92  1  0.50023956  0.50084782  0.49442278  1
  Zr  Zr93  1  0.11215368  0.50203390  0.89549952  1
  Zr  Zr94  1  0.10168744  0.69066151  0.70252308  1
  Zr  Zr95  1  0.70106554  0.90485183  0.90407881  1
  Zr  Zr96  1  0.29782654  0.31030450  0.51327972  1
  Zr  Zr97  1  0.19100142  0.00020881  0.01129351  1
  Zr  Zr98  1  0.70240352  0.29867539  0.89622885  1
  Zr  Zr99  1  0.58796121  0.80184728  -0.00008573  1
  Ta  Ta100  1  0.80284694  0.80115857  0.79702669  1
  Ta  Ta101  1  0.50259363  0.51334822  0.30115582  1
  Ta  Ta102  1  0.70772698  0.69804237  0.70473537  1
  Ta  Ta103  1  0.80091855  0.39568643  0.60166778  1
  Ta  Ta104  1  0.30651152  0.50669588  0.29919739  1
  Ta  Ta105  1  0.40065311  0.79447885  0.60335265  1
  Ta  Ta106  1  0.00112127  0.01230657  0.00312329  1
  Ta  Ta107  1  0.48991353  0.90935789  0.90029031  1
  Ta  Ta108  1  0.30043535  0.70069491  0.69833574  1
  Ta  Ta109  1  0.20401542  0.60270426  0.40327976  1
  Ta  Ta110  1  -0.00415617  0.00590025  0.80214781  1
  Ta  Ta111  1  0.80690636  0.39651429  0.40364692  1
  Ta  Ta112  1  0.29369950  0.10360500  0.10476891  1
  Ta  Ta113  1  0.40525387  0.79968981  0.18557038  1
  Ta  Ta114  1  0.89708143  0.10370313  0.90091394  1
  Ta  Ta115  1  0.20072634  0.18869237  0.60203291  1
  Ta  Ta116  1  0.59305307  0.19890259  0.79855464  1
  Ta  Ta117  1  -0.00295631  0.80982682  0.19990139  1
  Ta  Ta118  1  0.49165405  0.69378995  0.90755822  1
  Ta  Ta119  1  0.89756531  0.29636876  0.50062012  1
  Ta  Ta120  1  0.10717467  0.30649902  0.70065823  1
  Ta  Ta121  1  0.00707069  0.19719709  0.00193126  1
  Ta  Ta122  1  0.80181454  0.20067517  0.59871999  1
  Ta  Ta123  1  0.49839259  0.90873645  0.10287601  1
  Ta  Ta124  1  0.79060687  0.40066185  0.78801916  1
  Ta  Ta125  1  0.09526752  0.70443749  0.30111338  1
  Ta  Ta126  1  0.70373655  0.29439719  0.09665238  1
  Ta  Ta127  1  0.39521801  0.39404243  0.00482059  1
  Ta  Ta128  1  0.89291304  0.29489167  0.70327075  1
  Ta  Ta129  1  0.69073905  0.70076913  0.10512005  1
  Ta  Ta130  1  0.50092345  0.29437183  0.10079293  1
  Ta  Ta131  1  0.89731890  0.10420470  0.70529657  1
  Ta  Ta132  1  0.09209594  0.90419837  0.30394671  1
  Ta  Ta133  1  0.89482473  0.49554217  0.30493014  1
  Ta  Ta134  1  0.80649435  0.19367604  0.40216219  1
  Ta  Ta135  1  0.10585287  0.49717524  0.69985754  1
  Ta  Ta136  1  0.61338548  0.00652217  0.39976978  1
  Ta  Ta137  1  -0.00681647  0.39448260  0.39932989  1
  Ta  Ta138  1  0.88676708  0.29625817  0.09377936  1
  Ta  Ta139  1  0.40660669  0.59694727  0.19111365  1
  Ta  Ta140  1  0.31053211  0.69822587  0.09485725  1
  Ta  Ta141  1  0.21141272  0.38975874  0.00072720  1
  Ta  Ta142  1  0.58699384  0.00669764  -0.00385726  1
  Ta  Ta143  1  0.49715177  0.30181661  0.89699633  1
  Ta  Ta144  1  0.80649209  0.00524998  0.39617311  1
  Ta  Ta145  1  -0.00759261  0.00364803  0.60330549  1
  Ta  Ta146  1  0.80657613  -0.00415163  0.79554517  1
  Ta  Ta147  1  0.59545115  0.00612921  0.80617247  1
  Ta  Ta148  1  -0.00123100  0.78871852  0.59845077  1
  Ta  Ta149  1  0.90823793  0.09644783  0.30465611  1
  Ti  Ti150  1  0.20026432  0.19944756  0.80433452  1
  Ti  Ti151  1  0.39064560  0.00229029  0.19775748  1
  Ti  Ti152  1  0.69923004  0.50124481  0.69758688  1
  Ti  Ti153  1  0.29915388  0.50133207  0.90553416  1
  Ti  Ti154  1  0.30645566  0.90618954  0.09897847  1
  Ti  Ti155  1  0.09778603  0.09299297  0.50332103  1
  Ti  Ti156  1  0.37877037  0.21134006  0.19943830  1
  Ti  Ti157  1  0.70155883  0.09943464  0.29294847  1
  Ti  Ti158  1  0.89902144  0.29591293  0.29853995  1
  Ti  Ti159  1  0.49586536  0.09361545  0.70763690  1
  Ti  Ti160  1  0.81165832  0.19169807  0.19839620  1
  Ti  Ti161  1  0.60558862  0.39738316  0.79617242  1
  Ti  Ti162  1  0.31430181  0.70430854  0.49019146  1
  Ti  Ti163  1  0.19295398  0.20377488  0.00874903  1
  Ti  Ti164  1  0.80970168  0.00319013  0.60494842  1
  Ti  Ti165  1  0.38309138  0.00348302  0.61512949  1
  Ti  Ti166  1  -0.00343669  0.60220805  0.59998075  1
  Ti  Ti167  1  0.11447084  0.48926325  0.10145065  1
  Ti  Ti168  1  0.00100097  0.80077426  0.39849841  1
  Ti  Ti169  1  0.69658758  0.70086201  0.29684417  1
  Ti  Ti170  1  0.00694261  0.81642213  0.00907649  1
  Ti  Ti171  1  -0.00237158  0.59743429  0.80050257  1
  Ti  Ti172  1  0.49301001  0.30424043  0.50854900  1
  Ti  Ti173  1  0.81182110  0.00395962  0.00945449  1
  Ti  Ti174  1  0.61261406  0.39195868  0.60238657  1
  Ti  Ti175  1  0.21423390  0.38386807  0.19168432  1
  Ti  Ti176  1  0.70043560  0.50115680  0.90223464  1
  Ti  Ti177  1  0.80072653  0.59854034  0.79593921  1
  Ti  Ti178  1  0.20679222  0.00579370  0.60389825  1
  Ti  Ti179  1  0.20216945  0.19449797  0.40156554  1
  Ti  Ti180  1  0.50422923  0.69052881  0.09546158  1
  Ti  Ti181  1  0.20898290  0.59683595  0.79621130  1
  Ti  Ti182  1  0.90197378  0.49860729  0.70567848  1
  Ti  Ti183  1  0.39878435  0.80643255  0.00026112  1
  Ti  Ti184  1  0.89953279  0.70247275  0.49315081  1
  Ti  Ti185  1  0.29355350  0.49496307  0.69048890  1
  Ti  Ti186  1  0.30401991  0.50172538  0.09578228  1
  Ti  Ti187  1  0.79777556  0.80547650  0.00461127  1
  Ti  Ti188  1  0.70313630  0.90250937  0.70457606  1
  Ti  Ti189  1  0.71339327  0.09707518  0.50250381  1
  Ti  Ti190  1  0.11469311  0.30194325  0.89714052  1
  Ti  Ti191  1  0.39961523  0.60186125  0.79022446  1
  Ti  Ti192  1  0.20421819  0.79418232  0.59817147  1
  Ti  Ti193  1  0.20216569  0.59646366  0.00402575  1
  Ti  Ti194  1  0.71003377  0.29722003  0.50175911  1
  Ti  Ti195  1  0.19059460  0.00570975  0.19977148  1
  Ti  Ti196  1  0.80344744  0.40296437  0.19558709  1
  Ti  Ti197  1  0.29200838  0.10430044  0.29184735  1
  Ti  Ti198  1  0.39807990  0.00383327  -0.00271302  1
  Ti  Ti199  1  0.09926952  0.69640508  0.90144245  1
  Mo  Mo200  1  0.30068080  0.29517387  0.09790515  1
  Mo  Mo201  1  0.10399667  0.10576830  0.09890477  1
  Mo  Mo202  1  0.10848205  0.29872079  0.09633243  1
  Mo  Mo203  1  0.40041057  0.59037706  0.00981179  1
  Mo  Mo204  1  0.20014804  0.40422233  0.80295122  1
  Mo  Mo205  1  0.39526180  -0.00342191  0.80051756  1
  Mo  Mo206  1  0.29321705  0.29781098  0.29666142  1
  Mo  Mo207  1  0.49391993  0.70039254  0.70891543  1
  Mo  Mo208  1  0.39884407  0.59957852  0.39505233  1
  Mo  Mo209  1  0.30806686  0.90498778  0.90402412  1
  Mo  Mo210  1  0.59881425  0.60660951  0.39744399  1
  Mo  Mo211  1  0.38524446  0.00640813  0.38963290  1
  Mo  Mo212  1  0.90213831  0.48957940  0.49841833  1
  Mo  Mo213  1  0.80246534  0.19735095  0.00332320  1
  Mo  Mo214  1  0.09777083  0.90226430  0.10286775  1
  Mo  Mo215  1  0.59427245  0.79778589  0.19314578  1
  Mo  Mo216  1  0.09225982  0.70232269  0.50139148  1
  Mo  Mo217  1  0.90108125  0.68693194  0.70885266  1
  Mo  Mo218  1  0.80457412  0.59520839  0.39783573  1
  Mo  Mo219  1  0.90278196  0.89882711  0.08911549  1
  Mo  Mo220  1  0.48910118  0.70273446  0.49087723  1
  Mo  Mo221  1  0.20327697  -0.00433546  0.79682471  1
  Mo  Mo222  1  0.20139640  0.19418665  0.19704652  1
  Mo  Mo223  1  0.29968933  0.89694419  0.69288849  1
  Mo  Mo224  1  0.79758942  0.60090210  0.00348306  1
  Mo  Mo225  1  0.89078287  0.49004715  0.10464492  1
  Mo  Mo226  1  0.19596005  0.40994938  0.60426047  1
  Mo  Mo227  1  0.49562633  0.09801720  0.89590630  1
  Mo  Mo228  1  0.09676735  0.10522979  0.90166475  1
  Mo  Mo229  1  0.59533860  0.60125858  -0.00014771  1
  Mo  Mo230  1  0.29305201  0.29654318  0.90208480  1
  Mo  Mo231  1  0.80430762  0.80608470  0.39306269  1
  Mo  Mo232  1  0.90840841  0.90290317  0.30674947  1
  Mo  Mo233  1  0.49940455  0.50168950  0.10093976  1
  Mo  Mo234  1  0.89704767  0.09985876  0.50283856  1
  Mo  Mo235  1  0.69960701  0.30127544  0.69659717  1
  Mo  Mo236  1  0.90135395  0.90936748  0.69935850  1
  Mo  Mo237  1  0.10236887  0.09903071  0.29877157  1
  Mo  Mo238  1  0.29138587  0.09319924  0.70560139  1
  Mo  Mo239  1  0.00217799  0.00333192  0.40108429  1
  Mo  Mo240  1  0.90030203  0.10519742  0.09306397  1
  Mo  Mo241  1  0.61139824  0.20031575  0.19570668  1
  Mo  Mo242  1  0.29929065  0.50708621  0.49132637  1
  Mo  Mo243  1  0.39134995  0.40790921  0.59776686  1
  Mo  Mo244  1  0.79283477  0.39783532  0.00349134  1
  Mo  Mo245  1  0.59893292  0.60656251  0.19577501  1
  Mo  Mo246  1  0.60028671  0.00297117  0.20009731  1
  Mo  Mo247  1  0.29127129  0.09707146  0.50476119  1
  Mo  Mo248  1  0.80229199  0.19978914  0.79602416  1
  Mo  Mo249  1  0.40263339  0.80010456  0.40430473  1
