# generated using pymatgen
data_HfZrTaTiMo
_symmetry_space_group_name_H-M   'P 1'
_cell_length_a   16.89087232
_cell_length_b   16.88610273
_cell_length_c   16.88345216
_cell_angle_alpha   89.97109964
_cell_angle_beta   90.00830597
_cell_angle_gamma   89.95898603
_symmetry_Int_Tables_number   1
_chemical_formula_structural   HfZrTaTiMo
_chemical_formula_sum   'Hf50 Zr50 Ta50 Ti50 Mo50'
_cell_volume   4815.51330081
_cell_formula_units_Z   50
loop_
 _symmetry_equiv_pos_site_id
 _symmetry_equiv_pos_as_xyz
  1  'x, y, z'
loop_
 _atom_site_type_symbol
 _atom_site_label
 _atom_site_symmetry_multiplicity
 _atom_site_fract_x
 _atom_site_fract_y
 _atom_site_fract_z
 _atom_site_occupancy
  Hf  Hf0  1  0.10522162  0.69307212  0.50443211  1
  Hf  Hf1  1  0.89655892  0.89262536  0.51291174  1
  Hf  Hf2  1  0.18790737  0.79883679  0.00800745  1
  Hf  Hf3  1  0.80277355  0.79774027  0.39751466  1
  Hf  Hf4  1  0.10914244  0.09064029  0.50171331  1
  Hf  Hf5  1  0.30385862  0.29743917  0.09948749  1
  Hf  Hf6  1  0.60680316  0.78963520  0.21107395  1
  Hf  Hf7  1  0.79825808  0.80253079  0.20257215  1
  Hf  Hf8  1  0.09780331  0.09040852  0.09060399  1
  Hf  Hf9  1  0.00377180  -0.01462065  0.39359670  1
  Hf  Hf10  1  0.10363251  0.50457697  0.90141627  1
  Hf  Hf11  1  0.59888499  0.00601859  0.60252184  1
  Hf  Hf12  1  0.29467719  0.70022046  0.68877619  1
  Hf  Hf13  1  0.00811102  0.41395297  0.61251401  1
  Hf  Hf14  1  0.59286317  0.00315383  -0.00654409  1
  Hf  Hf15  1  0.01005663  0.80269004  0.39956620  1
  Hf  Hf16  1  0.29305476  0.49539704  0.29632607  1
  Hf  Hf17  1  0.30733723  0.90270971  0.49704244  1
  Hf  Hf18  1  0.39422614  0.40229340  0.40570799  1
  Hf  Hf19  1  0.90403564  0.69949028  0.30052980  1
  Hf  Hf20  1  0.39680432  -0.00252671  0.20283398  1
  Hf  Hf21  1  0.49563489  0.10463069  0.10532740  1
  Hf  Hf22  1  0.00451068  0.20796682  0.39987375  1
  Hf  Hf23  1  0.69691997  0.69113148  0.89455535  1
  Hf  Hf24  1  0.49445167  0.50391274  0.69399521  1
  Hf  Hf25  1  0.69580993  0.10649660  0.89002313  1
  Hf  Hf26  1  0.00236298  0.59241733  0.40010990  1
  Hf  Hf27  1  0.70377362  0.89681077  0.89032411  1
  Hf  Hf28  1  0.48571982  0.89864121  0.69069964  1
  Hf  Hf29  1  0.69516668  0.90292012  0.09728635  1
  Hf  Hf30  1  0.29744976  0.49690026  0.89734164  1
  Hf  Hf31  1  0.81446461  0.19852646  0.80696938  1
  Hf  Hf32  1  0.49543897  0.29685133  0.89262604  1
  Hf  Hf33  1  0.29085323  0.89369983  0.89974259  1
  Hf  Hf34  1  0.29684797  0.90003066  0.09911473  1
  Hf  Hf35  1  0.50776321  0.69170991  0.10245857  1
  Hf  Hf36  1  0.80514787  -0.00363764  0.39538088  1
  Hf  Hf37  1  0.40350675  0.59556618  -0.00163896  1
  Hf  Hf38  1  0.60180785  0.60533756  0.59510043  1
  Hf  Hf39  1  0.81226174  0.40459128  0.39739843  1
  Hf  Hf40  1  0.40296483  0.00598841  0.80421332  1
  Hf  Hf41  1  0.70214272  0.10220560  0.10218165  1
  Hf  Hf42  1  0.01097604  -0.01429434  0.60454429  1
  Hf  Hf43  1  0.10733761  0.09393811  0.29758706  1
  Hf  Hf44  1  0.38946233  0.00895916  -0.00455568  1
  Hf  Hf45  1  0.20322008  0.00362987  0.80784618  1
  Hf  Hf46  1  -0.00065949  0.59170150  0.19627777  1
  Hf  Hf47  1  0.80460005  0.39979032  0.79831401  1
  Hf  Hf48  1  0.80163534  0.40065838  0.60567929  1
  Hf  Hf49  1  0.29158769  0.69884268  0.89602742  1
  Zr  Zr50  1  0.90342474  0.09869847  0.29311129  1
  Zr  Zr51  1  0.69972517  0.51317197  0.71028163  1
  Zr  Zr52  1  0.80424826  0.20781945  0.40238925  1
  Zr  Zr53  1  0.49770486  0.89172482  0.10133845  1
  Zr  Zr54  1  0.19671929  0.80633356  0.58818273  1
  Zr  Zr55  1  0.20954014  0.20590074  0.40118183  1
  Zr  Zr56  1  0.58644527  0.40728995  -0.00074515  1
  Zr  Zr57  1  0.21132363  0.20170600  0.59418143  1
  Zr  Zr58  1  0.68377962  0.51021196  0.10324353  1
  Zr  Zr59  1  0.59722001  0.80240531  0.59655856  1
  Zr  Zr60  1  0.68871162  0.50529466  0.30560913  1
  Zr  Zr61  1  0.69052729  0.30889474  0.30408711  1
  Zr  Zr62  1  0.59401950  0.20171608  -0.00237869  1
  Zr  Zr63  1  0.79605120  0.19633865  0.60996408  1
  Zr  Zr64  1  0.80696593  0.41396829  0.19992457  1
  Zr  Zr65  1  0.91247290  0.30500527  0.50802747  1
  Zr  Zr66  1  -0.00186789  0.59422863  0.78558834  1
  Zr  Zr67  1  0.90375787  0.09577286  0.50857152  1
  Zr  Zr68  1  0.80212716  0.60031129  0.01157620  1
  Zr  Zr69  1  0.11417034  0.31193666  0.30296353  1
  Zr  Zr70  1  0.10038916  0.29091811  0.08348615  1
  Zr  Zr71  1  -0.00520225  0.40471537  0.20407635  1
  Zr  Zr72  1  0.79875307  0.80387711  0.00136662  1
  Zr  Zr73  1  0.80179196  0.20735624  0.20188603  1
  Zr  Zr74  1  0.59483097  0.80044943  0.79282007  1
  Zr  Zr75  1  0.59316001  0.20207893  0.41107816  1
  Zr  Zr76  1  0.00234165  0.39741437  0.80489931  1
  Zr  Zr77  1  0.89650732  0.30035311  0.09087186  1
  Zr  Zr78  1  0.19852332  0.40375656  0.78805059  1
  Zr  Zr79  1  0.19804780  0.79413059  0.20302065  1
  Zr  Zr80  1  0.60138864  0.39920882  0.60207223  1
  Zr  Zr81  1  0.10277155  0.10293586  0.70565232  1
  Zr  Zr82  1  0.59743146  0.00426677  0.79057127  1
  Zr  Zr83  1  0.90785520  0.70663447  0.09959713  1
  Zr  Zr84  1  0.21150543  0.60436041  0.40166507  1
  Zr  Zr85  1  0.39335755  0.20095545  0.41012742  1
  Zr  Zr86  1  0.69476378  0.09625120  0.30401781  1
  Zr  Zr87  1  0.69224996  0.50686204  0.89761771  1
  Zr  Zr88  1  0.59362469  0.60520347  0.40066892  1
  Zr  Zr89  1  0.10292601  0.89294337  0.71479399  1
  Zr  Zr90  1  0.39877621  0.40273829  0.00123649  1
  Zr  Zr91  1  0.19546614  0.60549272  0.01314734  1
  Zr  Zr92  1  0.00360347  0.20443174  0.20072907  1
  Zr  Zr93  1  0.39901441  0.79304393  0.79852440  1
  Zr  Zr94  1  0.70319493  0.90160074  0.50580299  1
  Zr  Zr95  1  0.81701880  0.60399943  0.60024402  1
  Zr  Zr96  1  0.49393637  0.09556237  0.30871886  1
  Zr  Zr97  1  0.90006527  0.70739386  0.88845871  1
  Zr  Zr98  1  0.09277787  0.09932593  0.90297189  1
  Zr  Zr99  1  0.71620798  0.70802473  0.70655567  1
  Ta  Ta100  1  0.40044139  0.79144996  -0.00068072  1
  Ta  Ta101  1  0.49664168  0.89275972  0.90453278  1
  Ta  Ta102  1  0.79340915  0.60828648  0.20577294  1
  Ta  Ta103  1  0.30377802  0.89793945  0.30541382  1
  Ta  Ta104  1  0.20936815  0.19126461  0.19526128  1
  Ta  Ta105  1  0.69350014  0.90325433  0.30433358  1
  Ta  Ta106  1  0.59446329  0.20630167  0.20291039  1
  Ta  Ta107  1  -0.00537156  0.40584668  -0.00436168  1
  Ta  Ta108  1  0.70988920  0.70219769  0.49925940  1
  Ta  Ta109  1  0.69137402  0.29095211  0.71280533  1
  Ta  Ta110  1  0.59811216  0.79774919  0.40192947  1
  Ta  Ta111  1  0.39781873  0.60146064  0.40038122  1
  Ta  Ta112  1  0.69824227  0.09877448  0.50377154  1
  Ta  Ta113  1  0.80469480  -0.00709300  0.19631673  1
  Ta  Ta114  1  0.30193676  0.09821486  0.69618531  1
  Ta  Ta115  1  0.49698724  0.89648138  0.31053619  1
  Ta  Ta116  1  0.39520201  0.19369370  -0.00539821  1
  Ta  Ta117  1  0.90561208  0.09498221  0.08916179  1
  Ta  Ta118  1  0.91285765  0.29441862  0.70403558  1
  Ta  Ta119  1  0.00162315  -0.01267359  0.19730663  1
  Ta  Ta120  1  0.10963964  0.31433096  0.50528875  1
  Ta  Ta121  1  0.39581605  0.19624304  0.79919192  1
  Ta  Ta122  1  0.69222358  0.30578669  0.09844880  1
  Ta  Ta123  1  0.30143728  0.29700226  0.70005711  1
  Ta  Ta124  1  0.29875186  0.90671916  0.69243481  1
  Ta  Ta125  1  0.90637957  0.50267824  0.50154334  1
  Ta  Ta126  1  0.79924499  0.20168339  -0.00682032  1
  Ta  Ta127  1  0.39779221  0.40009956  0.79208958  1
  Ta  Ta128  1  0.89524888  0.88948054  0.70746491  1
  Ta  Ta129  1  0.29511105  0.29525938  0.89381825  1
  Ta  Ta130  1  -0.00357517  0.78933339  0.60255171  1
  Ta  Ta131  1  0.10230922  0.70143051  0.70070461  1
  Ta  Ta132  1  0.21525953  0.18482335  -0.00428155  1
  Ta  Ta133  1  0.59776961  -0.00266776  0.20524659  1
  Ta  Ta134  1  0.69749877  0.30253379  0.89868592  1
  Ta  Ta135  1  0.39470019  0.59527087  0.79567265  1
  Ta  Ta136  1  0.49733691  0.30309320  0.50933817  1
  Ta  Ta137  1  0.00967049  0.80916615  0.20057841  1
  Ta  Ta138  1  0.89633457  0.50571285  0.90001313  1
  Ta  Ta139  1  0.29570237  0.08758594  0.30411051  1
  Ta  Ta140  1  0.59116267  0.40042104  0.79900645  1
  Ta  Ta141  1  0.80622203  0.00569365  -0.00763673  1
  Ta  Ta142  1  0.10482037  0.29369426  0.69955876  1
  Ta  Ta143  1  0.00314373  0.60106901  0.00106691  1
  Ta  Ta144  1  0.39869562  0.59886767  0.20964656  1
  Ta  Ta145  1  0.09823958  0.70889974  0.88879483  1
  Ta  Ta146  1  0.39107072  0.40135211  0.60043033  1
  Ta  Ta147  1  0.49331059  0.29789802  0.10882116  1
  Ta  Ta148  1  0.58491846  0.40195445  0.20636107  1
  Ta  Ta149  1  0.19959589  0.59907465  0.78882127  1
  Ti  Ti150  1  0.69455419  0.30384725  0.50253696  1
  Ti  Ti151  1  0.19790467  0.39449117  -0.00113297  1
  Ti  Ti152  1  0.80264608  0.00242888  0.79507504  1
  Ti  Ti153  1  0.49737748  0.29573405  0.69800811  1
  Ti  Ti154  1  0.39796385  0.79325818  0.20800789  1
  Ti  Ti155  1  0.00205558  0.59976510  0.60127996  1
  Ti  Ti156  1  0.39286264  0.19688513  0.20587012  1
  Ti  Ti157  1  0.00772510  0.20018619  0.60180437  1
  Ti  Ti158  1  0.49996719  0.49570852  0.49736852  1
  Ti  Ti159  1  0.10028332  0.49603076  0.09696158  1
  Ti  Ti160  1  0.39825324  0.79490394  0.58902463  1
  Ti  Ti161  1  0.49495403  0.70172787  0.49964787  1
  Ti  Ti162  1  -0.02051427  0.20415601  -0.02684897  1
  Ti  Ti163  1  0.00874758  0.80774429  0.00041643  1
  Ti  Ti164  1  0.60052159  0.19556879  0.60302546  1
  Ti  Ti165  1  0.40353441  0.40417789  0.20388992  1
  Ti  Ti166  1  0.30138636  0.08522662  0.49799870  1
  Ti  Ti167  1  0.91198155  0.09837261  0.70638494  1
  Ti  Ti168  1  0.80463109  0.60132728  0.40125345  1
  Ti  Ti169  1  0.29767979  0.49910026  0.10500759  1
  Ti  Ti170  1  0.59968989  0.79170839  -0.00093140  1
  Ti  Ti171  1  0.49725532  0.69575130  0.30051281  1
  Ti  Ti172  1  0.79583219  0.00326374  0.61660451  1
  Ti  Ti173  1  0.11100436  0.49704208  0.30108303  1
  Ti  Ti174  1  0.49809315  0.11205214  0.69991425  1
  Ti  Ti175  1  0.90497519  0.89932539  0.89639137  1
  Ti  Ti176  1  0.49335628  0.69338344  0.69488502  1
  Ti  Ti177  1  0.40918905  0.00921387  0.59037395  1
  Ti  Ti178  1  0.39961959  0.19957891  0.59609968  1
  Ti  Ti179  1  0.79986387  0.40174785  -0.00137189  1
  Ti  Ti180  1  0.00249323  0.40694313  0.39726141  1
  Ti  Ti181  1  0.49580399  0.30456885  0.30427951  1
  Ti  Ti182  1  0.29776571  0.30550655  0.29509893  1
  Ti  Ti183  1  0.40024535  0.79202771  0.39998787  1
  Ti  Ti184  1  0.50349482  0.69195300  0.89909426  1
  Ti  Ti185  1  0.10552051  0.29007123  0.89477749  1
  Ti  Ti186  1  -0.00439579  -0.00468433  0.80899579  1
  Ti  Ti187  1  0.58727786  -0.00454040  0.41301383  1
  Ti  Ti188  1  0.19830737  0.39764595  0.18826071  1
  Ti  Ti189  1  0.20387092  0.79726648  0.39529700  1
  Ti  Ti190  1  0.70146959  0.49919099  0.49622745  1
  Ti  Ti191  1  0.49964854  0.50710177  0.11181323  1
  Ti  Ti192  1  0.19998071  0.60527137  0.19765093  1
  Ti  Ti193  1  0.38753482  0.59491417  0.58566095  1
  Ti  Ti194  1  0.19776906  -0.00655659  0.19665931  1
  Ti  Ti195  1  0.30763617  0.69833502  0.10548799  1
  Ti  Ti196  1  0.90535095  0.90502837  0.09429797  1
  Ti  Ti197  1  0.11444587  0.49724544  0.50406881  1
  Ti  Ti198  1  0.19601415  -0.01724320  0.40025967  1
  Ti  Ti199  1  0.10136831  0.69570246  0.29679707  1
  Mo  Mo200  1  0.90278229  0.49927786  0.69891637  1
  Mo  Mo201  1  0.49911713  0.10377601  0.50989446  1
  Mo  Mo202  1  0.29992131  0.50245484  0.50223550  1
  Mo  Mo203  1  0.90760815  0.70469241  0.69707899  1
  Mo  Mo204  1  0.90539813  0.69651329  0.49991716  1
  Mo  Mo205  1  0.00055784  0.80081899  0.79913124  1
  Mo  Mo206  1  0.69370870  0.69930109  0.10358972  1
  Mo  Mo207  1  0.30775364  0.70258630  0.49643902  1
  Mo  Mo208  1  0.10360144  0.89459495  0.49588730  1
  Mo  Mo209  1  0.19520329  -0.00315197  0.00192137  1
  Mo  Mo210  1  -0.00507673  -0.01237026  -0.00160084  1
  Mo  Mo211  1  0.49410486  0.10349458  0.89598409  1
  Mo  Mo212  1  0.59422703  0.60068075  0.20682972  1
  Mo  Mo213  1  0.20541931  0.40471097  0.40925619  1
  Mo  Mo214  1  0.20410856  0.40287869  0.60022024  1
  Mo  Mo215  1  0.09256902  0.69945201  0.10232721  1
  Mo  Mo216  1  0.49472641  0.89814591  0.49462821  1
  Mo  Mo217  1  0.30851821  0.70225114  0.29864362  1
  Mo  Mo218  1  0.58748929  0.40103666  0.40739636  1
  Mo  Mo219  1  0.09357035  0.90016285  0.90552556  1
  Mo  Mo220  1  0.71573568  0.90590785  0.70096564  1
  Mo  Mo221  1  0.30173750  0.50266915  0.69305213  1
  Mo  Mo222  1  0.29700871  0.10238526  0.89380376  1
  Mo  Mo223  1  0.30201005  0.31020488  0.50988774  1
  Mo  Mo224  1  0.39862392  -0.00310264  0.40215098  1
  Mo  Mo225  1  0.91072246  0.31061475  0.30452970  1
  Mo  Mo226  1  0.11111167  0.89910331  0.29756407  1
  Mo  Mo227  1  0.20835720  -0.00052859  0.60192180  1
  Mo  Mo228  1  0.80421001  0.80558589  0.79945786  1
  Mo  Mo229  1  0.70156793  0.10438509  0.70002389  1
  Mo  Mo230  1  0.89807109  0.09015555  0.89826275  1
  Mo  Mo231  1  0.29671948  0.09812420  0.10716174  1
  Mo  Mo232  1  0.20458216  0.20152404  0.80024779  1
  Mo  Mo233  1  0.70279107  0.70078265  0.30690223  1
  Mo  Mo234  1  0.89391017  0.31047607  0.90082901  1
  Mo  Mo235  1  0.80718750  0.79733266  0.60157736  1
  Mo  Mo236  1  0.89688276  0.50832782  0.30778120  1
  Mo  Mo237  1  0.90180662  0.50258504  0.08947397  1
  Mo  Mo238  1  0.49441438  0.50297444  0.88567744  1
  Mo  Mo239  1  0.59013212  0.60459423  -0.00256754  1
  Mo  Mo240  1  0.89929648  0.89689248  0.28936672  1
  Mo  Mo241  1  0.19804422  0.79681776  0.79756135  1
  Mo  Mo242  1  0.20280965  0.59516106  0.59993610  1
  Mo  Mo243  1  0.09871729  0.90375360  0.09945733  1
  Mo  Mo244  1  0.00057935  0.20305892  0.79935740  1
  Mo  Mo245  1  0.57866152  0.60267308  0.79856970  1
  Mo  Mo246  1  0.10899447  0.50859572  0.69035980  1
  Mo  Mo247  1  0.49025029  0.49789569  0.30000935  1
  Mo  Mo248  1  0.81424664  0.59792195  0.79884957  1
  Mo  Mo249  1  0.59101371  0.20439142  0.79320126  1
