# generated using pymatgen
data_HfZrTaTiMo
_symmetry_space_group_name_H-M   'P 1'
_cell_length_a   16.88559203
_cell_length_b   16.88436492
_cell_length_c   16.88506652
_cell_angle_alpha   90.01134571
_cell_angle_beta   90.01354410
_cell_angle_gamma   89.98546123
_symmetry_Int_Tables_number   1
_chemical_formula_structural   HfZrTaTiMo
_chemical_formula_sum   'Hf50 Zr50 Ta50 Ti50 Mo50'
_cell_volume   4813.97425309
_cell_formula_units_Z   50
loop_
 _symmetry_equiv_pos_site_id
 _symmetry_equiv_pos_as_xyz
  1  'x, y, z'
loop_
 _atom_site_type_symbol
 _atom_site_label
 _atom_site_symmetry_multiplicity
 _atom_site_fract_x
 _atom_site_fract_y
 _atom_site_fract_z
 _atom_site_occupancy
  Hf  Hf0  1  0.79909289  0.21011125  0.60075203  1
  Hf  Hf1  1  0.79123549  0.00184104  0.39337834  1
  Hf  Hf2  1  0.39831936  0.79855024  0.00107273  1
  Hf  Hf3  1  0.59678556  0.39677497  0.19892254  1
  Hf  Hf4  1  0.10803175  0.90053567  0.89797132  1
  Hf  Hf5  1  0.29487551  0.89457169  0.70262487  1
  Hf  Hf6  1  0.59651428  0.39138045  0.78450456  1
  Hf  Hf7  1  0.39660472  0.00791298  0.80139842  1
  Hf  Hf8  1  0.68631095  0.50627803  0.90031701  1
  Hf  Hf9  1  0.19989992  0.39230813  0.19237983  1
  Hf  Hf10  1  0.19839013  0.59867486  0.59171749  1
  Hf  Hf11  1  0.90246744  0.71114493  0.09990676  1
  Hf  Hf12  1  0.70160423  0.09356774  0.70184557  1
  Hf  Hf13  1  0.90776022  0.49478241  0.70639052  1
  Hf  Hf14  1  0.21110244  0.19837147  0.39738027  1
  Hf  Hf15  1  0.90351667  0.50133263  0.29727561  1
  Hf  Hf16  1  0.10384299  0.89520876  0.49634296  1
  Hf  Hf17  1  0.50201675  0.30119752  0.49514948  1
  Hf  Hf18  1  0.29898997  0.09851447  0.10113578  1
  Hf  Hf19  1  0.80241297  0.39062842  0.40062271  1
  Hf  Hf20  1  0.20497836  0.61634707  0.40538871  1
  Hf  Hf21  1  0.10773824  0.29673851  0.70630485  1
  Hf  Hf22  1  0.89777333  0.09472321  0.50312039  1
  Hf  Hf23  1  0.50153369  0.90525258  0.91013701  1
  Hf  Hf24  1  0.49679689  0.09723487  0.09478706  1
  Hf  Hf25  1  0.60000198  0.21281916  0.61399483  1
  Hf  Hf26  1  0.39628278  0.39655975  0.00586645  1
  Hf  Hf27  1  0.68887081  0.70161871  0.29680760  1
  Hf  Hf28  1  0.19669549  0.80078539  0.20036136  1
  Hf  Hf29  1  0.00057359  0.39277586  0.40212491  1
  Hf  Hf30  1  0.30207595  0.70070219  0.10487045  1
  Hf  Hf31  1  0.50203883  0.49662069  0.30554947  1
  Hf  Hf32  1  0.40156489  0.60551540  0.40363692  1
  Hf  Hf33  1  0.80211362  0.59381757  0.00014779  1
  Hf  Hf34  1  0.30513654  0.50446009  0.10712354  1
  Hf  Hf35  1  0.89846809  0.49915676  0.50258831  1
  Hf  Hf36  1  0.50111120  0.30146188  0.90362288  1
  Hf  Hf37  1  0.39729203  0.39527919  0.79531921  1
  Hf  Hf38  1  0.01465598  0.60377292  0.60132143  1
  Hf  Hf39  1  0.51503968  0.69415307  0.89946359  1
  Hf  Hf40  1  0.90741735  0.70883829  0.90755750  1
  Hf  Hf41  1  0.10193176  0.10106345  0.29354499  1
  Hf  Hf42  1  0.80549338  0.19224911  -0.01166784  1
  Hf  Hf43  1  0.40412648  0.59668757  -0.00186197  1
  Hf  Hf44  1  0.09940878  0.28907598  0.29267266  1
  Hf  Hf45  1  0.20693470  0.00859724  0.59509321  1
  Hf  Hf46  1  0.29950608  0.69666719  0.70154019  1
  Hf  Hf47  1  0.20452695  0.00187964  0.40103867  1
  Hf  Hf48  1  0.00199098  0.39633208  0.59726346  1
  Hf  Hf49  1  0.69547230  0.50395394  0.69955831  1
  Zr  Zr50  1  0.00154622  0.80211740  0.79813780  1
  Zr  Zr51  1  0.79763157  0.59972888  0.60189483  1
  Zr  Zr52  1  0.79673067  0.20258190  0.39518101  1
  Zr  Zr53  1  0.49768734  0.90489315  0.70072016  1
  Zr  Zr54  1  0.10380065  0.10115177  0.10876891  1
  Zr  Zr55  1  0.30298839  0.49826235  0.29920724  1
  Zr  Zr56  1  0.11424710  0.89916317  0.70048202  1
  Zr  Zr57  1  0.30562008  0.48891256  0.49840810  1
  Zr  Zr58  1  0.19648626  0.39591622  0.00334595  1
  Zr  Zr59  1  0.00437875  0.00938435  0.80584101  1
  Zr  Zr60  1  0.90243116  0.90017889  0.50801039  1
  Zr  Zr61  1  0.11245422  0.29437371  0.50318152  1
  Zr  Zr62  1  0.29819797  0.90958421  0.09845072  1
  Zr  Zr63  1  0.49477898  0.10658038  0.50469235  1
  Zr  Zr64  1  0.58079433  0.79809388  0.19883254  1
  Zr  Zr65  1  0.30878153  0.29469689  0.50493045  1
  Zr  Zr66  1  0.89215810  0.90080586  0.69387023  1
  Zr  Zr67  1  0.89273887  0.09280640  0.70188479  1
  Zr  Zr68  1  0.59668455  0.00015738  0.40054270  1
  Zr  Zr69  1  0.40060265  0.79514723  0.80508585  1
  Zr  Zr70  1  -0.00256163  0.19965228  0.60074619  1
  Zr  Zr71  1  0.29950455  0.09720073  0.28400114  1
  Zr  Zr72  1  -0.00271121  -0.01223431  0.19651544  1
  Zr  Zr73  1  0.70037952  0.30471004  0.90248150  1
  Zr  Zr74  1  0.90304717  0.10286447  0.29105847  1
  Zr  Zr75  1  0.48939280  0.89255934  0.30774439  1
  Zr  Zr76  1  0.69371219  0.70338472  0.70435446  1
  Zr  Zr77  1  0.69044098  0.70337119  0.09244481  1
  Zr  Zr78  1  0.69598669  0.29030693  0.10151879  1
  Zr  Zr79  1  0.00074605  0.80314964  0.38993568  1
  Zr  Zr80  1  0.00302295  0.59901242  0.80415627  1
  Zr  Zr81  1  0.38902849  0.20250119  -0.01081930  1
  Zr  Zr82  1  0.80415545  0.40457332  0.00476620  1
  Zr  Zr83  1  0.89772010  0.71170920  0.51194744  1
  Zr  Zr84  1  0.31058566  0.89432374  0.49361718  1
  Zr  Zr85  1  0.29059647  0.50115466  0.89141792  1
  Zr  Zr86  1  0.79896990  0.60584293  0.39995339  1
  Zr  Zr87  1  0.80071497  0.81516035  0.00148703  1
  Zr  Zr88  1  0.80543091  0.60058755  0.80861034  1
  Zr  Zr89  1  0.79703841  0.59555680  0.19362943  1
  Zr  Zr90  1  0.00861371  0.40016470  0.00078356  1
  Zr  Zr91  1  0.19611190  0.21061736  -0.00361357  1
  Zr  Zr92  1  0.69436490  0.49784621  0.30431962  1
  Zr  Zr93  1  0.00302911  0.39841475  0.19471498  1
  Zr  Zr94  1  0.79021151  0.80510931  0.40332690  1
  Zr  Zr95  1  0.69621319  0.09699833  0.09763963  1
  Zr  Zr96  1  0.60109561  0.19595282  0.80299378  1
  Zr  Zr97  1  0.01002943  0.60533484  0.40447679  1
  Zr  Zr98  1  0.19545142  0.60469882  0.20387500  1
  Zr  Zr99  1  0.59995155  0.81650128  0.59443943  1
  Ta  Ta100  1  0.40815848  -0.00478174  0.20052767  1
  Ta  Ta101  1  0.10444561  0.70096414  0.90351617  1
  Ta  Ta102  1  0.69137194  0.10701768  0.50034233  1
  Ta  Ta103  1  0.40990518  0.40112950  0.60806925  1
  Ta  Ta104  1  0.40382007  0.38545795  0.20199597  1
  Ta  Ta105  1  0.90346112  0.28830068  0.10249580  1
  Ta  Ta106  1  0.19070361  0.59823421  0.00159542  1
  Ta  Ta107  1  0.30221334  0.89496520  0.29729644  1
  Ta  Ta108  1  0.50549401  0.69401367  0.69817617  1
  Ta  Ta109  1  0.69164088  0.90290270  0.10048010  1
  Ta  Ta110  1  0.29646007  0.50001303  0.70056220  1
  Ta  Ta111  1  0.09329697  0.70602675  0.09225115  1
  Ta  Ta112  1  0.59603705  0.40084908  0.60020171  1
  Ta  Ta113  1  0.69535863  0.89621371  0.29121889  1
  Ta  Ta114  1  -0.00887878  0.20414804  0.40080305  1
  Ta  Ta115  1  0.69011209  0.69956538  0.50630526  1
  Ta  Ta116  1  0.89405646  0.71152867  0.69964637  1
  Ta  Ta117  1  0.00210115  0.00187645  0.39858043  1
  Ta  Ta118  1  0.40241829  0.59633478  0.79657852  1
  Ta  Ta119  1  0.11094394  0.49203875  0.70846789  1
  Ta  Ta120  1  0.79435303  0.80899998  0.80760008  1
  Ta  Ta121  1  0.20076800  0.79630940  -0.00126389  1
  Ta  Ta122  1  0.90871205  0.30117972  0.89553265  1
  Ta  Ta123  1  0.00529599  0.60519907  0.19822088  1
  Ta  Ta124  1  0.00299998  0.19606027  -0.00590897  1
  Ta  Ta125  1  0.68865196  0.49666622  0.50022632  1
  Ta  Ta126  1  -0.00080787  0.80364754  0.19635229  1
  Ta  Ta127  1  0.29318508  0.90535981  0.90043625  1
  Ta  Ta128  1  0.79452833  -0.00267356  0.19644178  1
  Ta  Ta129  1  0.60282535  0.00352620  0.80715603  1
  Ta  Ta130  1  0.69223264  0.70497703  0.90304057  1
  Ta  Ta131  1  0.80098112  0.39239022  0.19940180  1
  Ta  Ta132  1  0.50331883  0.50081679  0.89636012  1
  Ta  Ta133  1  0.11369873  0.10532106  0.70490113  1
  Ta  Ta134  1  0.39628683  0.20085156  0.79783453  1
  Ta  Ta135  1  0.49660835  0.10097578  0.69941768  1
  Ta  Ta136  1  0.50333793  0.69791055  0.50636330  1
  Ta  Ta137  1  0.10209728  0.50015638  0.30313987  1
  Ta  Ta138  1  0.59714060  0.00223446  0.20492227  1
  Ta  Ta139  1  -0.00442431  0.00661746  -0.00255370  1
  Ta  Ta140  1  0.89918602  0.10140254  0.09967461  1
  Ta  Ta141  1  0.77691952  -0.00986043  0.58669856  1
  Ta  Ta142  1  0.59043363  0.41154679  0.01492158  1
  Ta  Ta143  1  0.40619358  0.20253448  0.37851202  1
  Ta  Ta144  1  0.79615554  0.39311683  0.60274045  1
  Ta  Ta145  1  0.40414493  0.59597143  0.59852610  1
  Ta  Ta146  1  0.49941552  0.28759305  0.10257828  1
  Ta  Ta147  1  0.00430131  0.59183166  0.00185378  1
  Ta  Ta148  1  0.69155171  0.30318721  0.49724104  1
  Ta  Ta149  1  0.80500468  0.39962149  0.80277461  1
  Ti  Ti150  1  0.10088748  0.70702759  0.30013407  1
  Ti  Ti151  1  0.09780349  0.89815513  0.09083030  1
  Ti  Ti152  1  0.09914903  0.30267559  0.88638336  1
  Ti  Ti153  1  0.59204709  0.60085897  0.40807739  1
  Ti  Ti154  1  0.20144590  0.40354402  0.59989130  1
  Ti  Ti155  1  0.59701429  0.19615130  0.38803747  1
  Ti  Ti156  1  0.90622984  0.90295841  0.90575057  1
  Ti  Ti157  1  0.40188261  -0.00076294  0.59752493  1
  Ti  Ti158  1  0.50105130  0.69818678  0.09403373  1
  Ti  Ti159  1  0.69161048  0.29882592  0.30183101  1
  Ti  Ti160  1  0.30189122  0.10791103  0.69477356  1
  Ti  Ti161  1  0.40403386  0.79455367  0.59457494  1
  Ti  Ti162  1  0.58974073  0.19179001  0.21466309  1
  Ti  Ti163  1  0.28983523  0.69613889  0.89519258  1
  Ti  Ti164  1  0.20356153  0.78469700  0.58268544  1
  Ti  Ti165  1  0.79605487  -0.00020889  0.81870437  1
  Ti  Ti166  1  0.01691983  0.79036605  0.60466570  1
  Ti  Ti167  1  0.60270725  0.19223594  -0.00818976  1
  Ti  Ti168  1  0.90549422  0.49984060  0.10284500  1
  Ti  Ti169  1  0.40572017  0.39063756  0.39224910  1
  Ti  Ti170  1  0.49921792  0.09336218  0.90571591  1
  Ti  Ti171  1  0.59197316  0.79972873  0.40555544  1
  Ti  Ti172  1  0.09968211  0.10458368  0.49963960  1
  Ti  Ti173  1  0.70202245  0.90425386  0.70659372  1
  Ti  Ti174  1  0.80366516  0.00239160  -0.00101318  1
  Ti  Ti175  1  0.60308437  0.80854067  0.80227176  1
  Ti  Ti176  1  0.50280699  0.50873486  0.69895378  1
  Ti  Ti177  1  0.19894121  0.39933846  0.39601185  1
  Ti  Ti178  1  0.89517207  0.70725851  0.28976720  1
  Ti  Ti179  1  0.90373992  0.30133433  0.71214215  1
  Ti  Ti180  1  0.01125787  0.00337665  0.60088544  1
  Ti  Ti181  1  0.79961360  0.20080412  0.80319553  1
  Ti  Ti182  1  0.19083606  0.00699020  -0.00561978  1
  Ti  Ti183  1  0.68897526  0.90514102  0.91168264  1
  Ti  Ti184  1  -0.00040964  0.19283190  0.80778182  1
  Ti  Ti185  1  0.39806479  0.78347218  0.39892724  1
  Ti  Ti186  1  0.59159874  0.59172202  0.18737998  1
  Ti  Ti187  1  0.50105423  0.90626050  0.09284126  1
  Ti  Ti188  1  0.20841060  0.19717108  0.80628118  1
  Ti  Ti189  1  0.10272367  0.49720606  0.88922119  1
  Ti  Ti190  1  0.31251372  0.11131850  0.50664052  1
  Ti  Ti191  1  0.29262533  0.09286592  0.89983932  1
  Ti  Ti192  1  0.79690329  0.20107262  0.20578291  1
  Ti  Ti193  1  0.59633982  -0.00129762  0.59532888  1
  Ti  Ti194  1  0.10797437  0.90278576  0.30051813  1
  Ti  Ti195  1  0.11685425  0.69987591  0.71416110  1
  Ti  Ti196  1  0.41234225  0.61536033  0.20982683  1
  Ti  Ti197  1  0.89066389  0.89587634  0.29150796  1
  Ti  Ti198  1  0.29559156  0.29651341  0.69654260  1
  Ti  Ti199  1  0.40194850  0.00814584  0.39825599  1
  Mo  Mo200  1  0.00637808  0.80986350  0.00366035  1
  Mo  Mo201  1  0.09505298  0.28719728  0.10124955  1
  Mo  Mo202  1  0.10583092  0.49535936  0.49849824  1
  Mo  Mo203  1  0.39753376  0.00112482  -0.00307921  1
  Mo  Mo204  1  0.49397194  0.50167829  0.10771901  1
  Mo  Mo205  1  -0.00505462  0.20014723  0.19480767  1
  Mo  Mo206  1  0.69468394  0.49791902  0.10194329  1
  Mo  Mo207  1  0.30606982  0.29425133  0.10932627  1
  Mo  Mo208  1  0.70287024  0.09151132  0.89825569  1
  Mo  Mo209  1  0.31000881  0.70260912  0.50610952  1
  Mo  Mo210  1  0.20693252  0.21208349  0.19536084  1
  Mo  Mo211  1  0.30267647  0.30151263  0.29972888  1
  Mo  Mo212  1  0.59351193  0.59532690  0.59587261  1
  Mo  Mo213  1  0.90021748  0.10160376  0.90212739  1
  Mo  Mo214  1  0.10377115  0.70830019  0.49602497  1
  Mo  Mo215  1  0.39988878  0.20372975  0.61341880  1
  Mo  Mo216  1  0.89633123  0.90882534  0.09820302  1
  Mo  Mo217  1  0.00266609  0.39524665  0.80163836  1
  Mo  Mo218  1  0.39969255  0.79800496  0.19848394  1
  Mo  Mo219  1  0.69044493  0.90155899  0.49082780  1
  Mo  Mo220  1  0.20468292  0.79325304  0.81007849  1
  Mo  Mo221  1  0.50259869  0.69407807  0.30700461  1
  Mo  Mo222  1  0.90867544  0.49279137  0.90303300  1
  Mo  Mo223  1  0.50201363  0.49705114  0.50301985  1
  Mo  Mo224  1  0.29558002  0.30021896  0.88441772  1
  Mo  Mo225  1  0.20119507  0.39444368  0.79573199  1
  Mo  Mo226  1  0.89472755  0.30008609  0.49910111  1
  Mo  Mo227  1  0.30765971  0.71170683  0.29871450  1
  Mo  Mo228  1  0.60173313  0.00051654  0.00142724  1
  Mo  Mo229  1  0.60090562  0.39625617  0.40253276  1
  Mo  Mo230  1  0.49715865  0.09796306  0.29506394  1
  Mo  Mo231  1  0.59448732  0.59924280  0.79752172  1
  Mo  Mo232  1  0.59697083  0.59492067  0.00448619  1
  Mo  Mo233  1  0.09891445  0.51282082  0.10607615  1
  Mo  Mo234  1  0.19863672  -0.01467960  0.20131793  1
  Mo  Mo235  1  0.79973057  0.80973825  0.20070743  1
  Mo  Mo236  1  0.20746784  0.01048256  0.79846510  1
  Mo  Mo237  1  0.59943686  0.80357426  0.00257991  1
  Mo  Mo238  1  0.49059384  0.29634028  0.69905098  1
  Mo  Mo239  1  0.20066095  0.59817838  0.80066380  1
  Mo  Mo240  1  0.40373830  0.20120237  0.19704083  1
  Mo  Mo241  1  0.49142458  0.89663127  0.49791106  1
  Mo  Mo242  1  0.69452466  0.09884290  0.29398605  1
  Mo  Mo243  1  0.10145095  0.10336938  0.89729221  1
  Mo  Mo244  1  0.50260207  0.29704532  0.29860654  1
  Mo  Mo245  1  0.71233996  0.30490532  0.70125153  1
  Mo  Mo246  1  0.20760404  0.19363439  0.60363328  1
  Mo  Mo247  1  0.20659735  0.80025139  0.39157214  1
  Mo  Mo248  1  0.89829205  0.29792658  0.29172743  1
  Mo  Mo249  1  0.78629572  0.80609267  0.60992134  1
