# generated using pymatgen
data_HfZrTaTiMo
_symmetry_space_group_name_H-M   'P 1'
_cell_length_a   16.88420563
_cell_length_b   16.88392343
_cell_length_c   16.88167480
_cell_angle_alpha   90.00410527
_cell_angle_beta   90.01604757
_cell_angle_gamma   89.94955666
_symmetry_Int_Tables_number   1
_chemical_formula_structural   HfZrTaTiMo
_chemical_formula_sum   'Hf50 Zr50 Ta50 Ti50 Mo50'
_cell_volume   4812.48457370
_cell_formula_units_Z   50
loop_
 _symmetry_equiv_pos_site_id
 _symmetry_equiv_pos_as_xyz
  1  'x, y, z'
loop_
 _atom_site_type_symbol
 _atom_site_label
 _atom_site_symmetry_multiplicity
 _atom_site_fract_x
 _atom_site_fract_y
 _atom_site_fract_z
 _atom_site_occupancy
  Hf  Hf0  1  -0.00160072  -0.00936765  0.80743530  1
  Hf  Hf1  1  -0.00730274  0.79022243  0.39524905  1
  Hf  Hf2  1  0.40076564  0.40932245  0.20508596  1
  Hf  Hf3  1  0.10267438  0.09396240  0.29939481  1
  Hf  Hf4  1  0.79742990  0.78228793  0.59134469  1
  Hf  Hf5  1  0.50247841  0.70125303  0.30106615  1
  Hf  Hf6  1  0.21513430  0.20554109  0.40270835  1
  Hf  Hf7  1  0.41253934  0.40847609  0.80015756  1
  Hf  Hf8  1  0.89755813  0.49880413  0.50192971  1
  Hf  Hf9  1  0.40764694  0.59827247  0.59820544  1
  Hf  Hf10  1  0.30725236  0.29902753  0.90161998  1
  Hf  Hf11  1  0.59436408  0.80982586  0.40416841  1
  Hf  Hf12  1  -0.00445551  0.80091450  0.80083216  1
  Hf  Hf13  1  0.29851714  0.09756024  0.10034480  1
  Hf  Hf14  1  -0.00196248  0.79624095  0.59186385  1
  Hf  Hf15  1  0.30253607  0.09096021  0.69437099  1
  Hf  Hf16  1  -0.00614802  0.19492928  0.20299126  1
  Hf  Hf17  1  0.19656590  0.40535810  -0.00070309  1
  Hf  Hf18  1  0.69871266  0.51167164  0.51042716  1
  Hf  Hf19  1  0.19558436  -0.01176525  0.00193560  1
  Hf  Hf20  1  0.69307037  0.10152887  0.90772906  1
  Hf  Hf21  1  -0.00963680  0.19455205  0.39723420  1
  Hf  Hf22  1  0.10007942  0.31085580  0.30708140  1
  Hf  Hf23  1  0.59366789  0.40681545  0.19853764  1
  Hf  Hf24  1  0.79691269  0.00173463  0.80052392  1
  Hf  Hf25  1  0.30469200  0.30957805  0.09903213  1
  Hf  Hf26  1  0.20515007  0.20521067  0.20457150  1
  Hf  Hf27  1  0.78467849  0.21473513  0.80449429  1
  Hf  Hf28  1  0.69255930  0.69882983  0.29843479  1
  Hf  Hf29  1  0.80893961  0.80260588  0.19894038  1
  Hf  Hf30  1  0.81394429  0.61357680  0.40259579  1
  Hf  Hf31  1  0.40387961  0.79888039  0.00033559  1
  Hf  Hf32  1  0.59737596  -0.00121730  0.58887921  1
  Hf  Hf33  1  0.09642434  0.90261593  0.29814731  1
  Hf  Hf34  1  0.20375677  0.79992560  0.19443768  1
  Hf  Hf35  1  0.40897936  0.80503041  0.19509713  1
  Hf  Hf36  1  0.69376978  0.29771916  0.29694879  1
  Hf  Hf37  1  0.68834782  0.11227957  0.69070532  1
  Hf  Hf38  1  0.20419742  0.39250078  0.59988682  1
  Hf  Hf39  1  0.10233114  0.50092935  0.49675468  1
  Hf  Hf40  1  0.40103054  0.59547425  0.40169139  1
  Hf  Hf41  1  0.90340390  0.30665413  0.90147112  1
  Hf  Hf42  1  0.40171525  -0.00607246  0.19155777  1
  Hf  Hf43  1  0.80088531  0.60563625  0.80774771  1
  Hf  Hf44  1  0.09749722  0.30410010  0.49632036  1
  Hf  Hf45  1  0.69503683  0.09785422  0.10617865  1
  Hf  Hf46  1  0.49404634  0.89359299  0.69289058  1
  Hf  Hf47  1  0.30387781  0.89255823  0.30773797  1
  Hf  Hf48  1  0.50526415  0.29746218  0.89906155  1
  Hf  Hf49  1  0.19499686  0.19816075  0.00070066  1
  Zr  Zr50  1  0.41228133  -0.00776770  0.00134659  1
  Zr  Zr51  1  0.69712570  0.51157554  0.30808961  1
  Zr  Zr52  1  0.80072141  0.19688425  0.39674303  1
  Zr  Zr53  1  0.40027461  0.79348396  0.79715050  1
  Zr  Zr54  1  0.08418896  0.29692403  0.89609123  1
  Zr  Zr55  1  0.69968100  0.89921673  0.29449202  1
  Zr  Zr56  1  0.89038923  0.90106787  0.68942494  1
  Zr  Zr57  1  0.00367878  0.60523655  0.21276812  1
  Zr  Zr58  1  0.59444834  0.41030697  -0.00411868  1
  Zr  Zr59  1  0.20065431  0.40631628  0.80271411  1
  Zr  Zr60  1  0.90444092  0.10786170  0.90027816  1
  Zr  Zr61  1  0.58907000  -0.00200370  0.80232807  1
  Zr  Zr62  1  0.69399360  0.70039839  0.10289166  1
  Zr  Zr63  1  0.49349334  0.29987666  0.49682045  1
  Zr  Zr64  1  0.30200276  0.29324385  0.70578893  1
  Zr  Zr65  1  0.30380930  0.89969827  0.68645016  1
  Zr  Zr66  1  0.10241131  0.70397488  0.09568489  1
  Zr  Zr67  1  0.40704505  0.40574816  0.60327187  1
  Zr  Zr68  1  0.08931548  0.31048387  0.10251265  1
  Zr  Zr69  1  0.51312859  0.28253083  0.69893205  1
  Zr  Zr70  1  0.58505663  -0.01310189  0.19509829  1
  Zr  Zr71  1  0.49454052  0.10756588  0.50553941  1
  Zr  Zr72  1  0.80144369  0.40682566  0.20296199  1
  Zr  Zr73  1  0.59227398  0.40784055  0.40740313  1
  Zr  Zr74  1  -0.00459603  0.60554510  -0.01204804  1
  Zr  Zr75  1  -0.00611083  0.81947349  -0.00851746  1
  Zr  Zr76  1  0.69785396  0.89623282  0.69586817  1
  Zr  Zr77  1  0.88835560  0.09796974  0.51344562  1
  Zr  Zr78  1  0.40868068  -0.00555514  0.39642352  1
  Zr  Zr79  1  0.39602193  0.59916192  0.79946006  1
  Zr  Zr80  1  0.10321735  0.09865660  0.50390881  1
  Zr  Zr81  1  0.09684340  0.10289468  0.69658608  1
  Zr  Zr82  1  0.29902881  0.48975074  0.48950538  1
  Zr  Zr83  1  0.09627432  0.50610569  0.69883017  1
  Zr  Zr84  1  0.69919606  0.29635788  0.50693728  1
  Zr  Zr85  1  0.10289823  0.69117457  0.69360624  1
  Zr  Zr86  1  0.50307210  0.10907012  0.29496406  1
  Zr  Zr87  1  0.10465640  0.90572035  0.50033662  1
  Zr  Zr88  1  0.81863425  -0.00718018  0.01083895  1
  Zr  Zr89  1  0.80307359  0.79932808  -0.00571385  1
  Zr  Zr90  1  -0.00564595  0.39851460  0.60380796  1
  Zr  Zr91  1  0.70141569  0.50926277  0.09851611  1
  Zr  Zr92  1  0.19929741  0.79844930  0.79987688  1
  Zr  Zr93  1  0.19389203  -0.00653361  0.80126436  1
  Zr  Zr94  1  0.80831589  0.19521034  0.19960167  1
  Zr  Zr95  1  0.20166185  0.59757601  -0.00488594  1
  Zr  Zr96  1  0.51028775  0.69339780  0.89216863  1
  Zr  Zr97  1  0.40679452  0.19200256  0.00373822  1
  Zr  Zr98  1  0.19585025  0.78752549  0.39891147  1
  Zr  Zr99  1  0.90557185  0.49743073  0.09335091  1
  Ta  Ta100  1  0.70533851  0.50392755  0.70205350  1
  Ta  Ta101  1  0.39965061  0.20522224  0.20253943  1
  Ta  Ta102  1  -0.01134722  0.00076888  0.19317209  1
  Ta  Ta103  1  -0.01194939  0.00110553  0.39745793  1
  Ta  Ta104  1  0.79662784  0.00171014  0.39781155  1
  Ta  Ta105  1  0.20348653  0.59984791  0.80719442  1
  Ta  Ta106  1  0.19864696  0.19360759  0.80463017  1
  Ta  Ta107  1  0.20144706  -0.00781528  0.19479966  1
  Ta  Ta108  1  0.40159602  0.18516565  0.80286198  1
  Ta  Ta109  1  0.20562624  0.41110568  0.20801446  1
  Ta  Ta110  1  0.69755787  0.89948770  0.90189176  1
  Ta  Ta111  1  0.09303213  0.29353775  0.70716904  1
  Ta  Ta112  1  0.52195050  0.51094061  0.70481257  1
  Ta  Ta113  1  0.90506901  0.31518268  0.30474989  1
  Ta  Ta114  1  0.81450862  0.60487085  0.20615986  1
  Ta  Ta115  1  0.79860139  0.39714573  0.61301183  1
  Ta  Ta116  1  0.10406488  0.70573846  0.89876403  1
  Ta  Ta117  1  0.20124856  0.60092542  0.39101369  1
  Ta  Ta118  1  0.70843550  0.90244691  0.50112789  1
  Ta  Ta119  1  0.79772409  0.20631776  0.00524069  1
  Ta  Ta120  1  0.80136736  0.60437030  -0.00932480  1
  Ta  Ta121  1  0.69766798  0.09532342  0.29580834  1
  Ta  Ta122  1  0.10110684  0.49953404  0.10439732  1
  Ta  Ta123  1  0.60433705  0.19262126  0.40121929  1
  Ta  Ta124  1  0.29791582  0.09335573  0.89809572  1
  Ta  Ta125  1  0.59883053  0.80448964  -0.00342203  1
  Ta  Ta126  1  0.59971718  0.79461618  0.59462148  1
  Ta  Ta127  1  0.80313893  0.79903564  0.40106891  1
  Ta  Ta128  1  0.30608756  0.69610170  0.29621212  1
  Ta  Ta129  1  0.79221038  0.39878662  -0.00855984  1
  Ta  Ta130  1  0.30662628  0.89377972  0.50498139  1
  Ta  Ta131  1  0.61424534  0.39515435  0.79980742  1
  Ta  Ta132  1  0.90217619  0.30286879  0.71287335  1
  Ta  Ta133  1  0.50176069  0.30041596  0.10390543  1
  Ta  Ta134  1  0.30232921  0.50481814  0.10085300  1
  Ta  Ta135  1  0.89668183  0.69131057  0.69826481  1
  Ta  Ta136  1  0.79879605  0.79393429  0.80534931  1
  Ta  Ta137  1  0.40901703  0.59413681  0.00197773  1
  Ta  Ta138  1  0.89274526  0.90317128  0.49806040  1
  Ta  Ta139  1  0.60351785  0.40244422  0.60765185  1
  Ta  Ta140  1  0.90150459  0.70148255  0.09869410  1
  Ta  Ta141  1  0.00257888  0.60421012  0.39657175  1
  Ta  Ta142  1  0.60234455  -0.00055011  0.40214832  1
  Ta  Ta143  1  0.49770092  0.29964757  0.30181150  1
  Ta  Ta144  1  0.30078848  0.89666053  0.90276428  1
  Ta  Ta145  1  0.69729707  0.30029469  0.09922813  1
  Ta  Ta146  1  0.89911836  0.30715860  0.09656932  1
  Ta  Ta147  1  0.09393047  0.09890022  0.90517822  1
  Ta  Ta148  1  0.30461098  0.69408512  0.09989730  1
  Ta  Ta149  1  -0.00553514  -0.00178451  0.60055713  1
  Ti  Ti150  1  0.49605731  0.10093286  0.69441915  1
  Ti  Ti151  1  0.69058124  0.69340154  0.49763658  1
  Ti  Ti152  1  0.59989576  0.59852507  -0.00745481  1
  Ti  Ti153  1  0.30143285  0.09542899  0.29655052  1
  Ti  Ti154  1  0.49813231  0.50371760  0.30905544  1
  Ti  Ti155  1  0.50513353  0.69676944  0.09840245  1
  Ti  Ti156  1  0.38910928  0.20274419  0.59521314  1
  Ti  Ti157  1  0.09476772  0.09251389  0.09997104  1
  Ti  Ti158  1  0.39016656  0.20715160  0.39507505  1
  Ti  Ti159  1  0.58703597  0.59368616  0.19596812  1
  Ti  Ti160  1  0.30660202  0.70385292  0.49995303  1
  Ti  Ti161  1  0.10489877  0.68762848  0.50283281  1
  Ti  Ti162  1  0.50532741  0.10251552  0.90048913  1
  Ti  Ti163  1  0.08833662  0.49693877  0.89688946  1
  Ti  Ti164  1  0.51237286  0.69730590  0.69576941  1
  Ti  Ti165  1  0.31249393  0.49729683  0.90833824  1
  Ti  Ti166  1  0.40398066  -0.00243622  0.80677120  1
  Ti  Ti167  1  0.69414833  0.68876457  0.69791417  1
  Ti  Ti168  1  0.10274559  0.90117786  0.68857071  1
  Ti  Ti169  1  0.09422995  0.90020791  0.10062731  1
  Ti  Ti170  1  0.10391970  0.49684339  0.30736247  1
  Ti  Ti171  1  0.20612846  0.00013293  0.40044659  1
  Ti  Ti172  1  0.69820558  0.50291103  0.89233351  1
  Ti  Ti173  1  0.20067513  0.79496323  0.59417967  1
  Ti  Ti174  1  0.50393958  0.69730846  0.50022830  1
  Ti  Ti175  1  -0.00772577  0.20360933  0.60393637  1
  Ti  Ti176  1  0.90131923  0.49097630  0.89304335  1
  Ti  Ti177  1  0.89674797  0.90590054  0.29905638  1
  Ti  Ti178  1  0.89591333  0.10563884  0.70047941  1
  Ti  Ti179  1  -0.01190633  0.60476173  0.59356697  1
  Ti  Ti180  1  0.29723191  0.70248259  0.90905212  1
  Ti  Ti181  1  0.79839125  0.20937667  0.60776506  1
  Ti  Ti182  1  0.69882599  0.89850560  0.10126171  1
  Ti  Ti183  1  -0.00887527  0.19264792  0.01414153  1
  Ti  Ti184  1  0.20320005  0.59808052  0.20618295  1
  Ti  Ti185  1  0.80136659  0.40404000  0.39975742  1
  Ti  Ti186  1  0.60146509  0.20370177  0.00576357  1
  Ti  Ti187  1  0.40247837  0.59729205  0.19666515  1
  Ti  Ti188  1  -0.00250522  0.60384645  0.80279796  1
  Ti  Ti189  1  0.59116412  -0.00802747  0.00302307  1
  Ti  Ti190  1  0.89791506  0.30553315  0.49905276  1
  Ti  Ti191  1  0.30127128  0.08686680  0.50785060  1
  Ti  Ti192  1  0.48598701  0.89027735  0.50530750  1
  Ti  Ti193  1  0.20513536  0.20280040  0.59727919  1
  Ti  Ti194  1  -0.00145357  0.41078650  0.20760373  1
  Ti  Ti195  1  0.29276188  0.50943571  0.69558274  1
  Ti  Ti196  1  -0.00190625  0.79860035  0.20346048  1
  Ti  Ti197  1  0.60802246  0.79625332  0.80256829  1
  Ti  Ti198  1  0.89490642  0.50049787  0.70619849  1
  Ti  Ti199  1  0.29501880  0.69490908  0.68692383  1
  Mo  Mo200  1  0.59471753  0.19712583  0.80717520  1
  Mo  Mo201  1  0.89945259  0.10158051  0.10002898  1
  Mo  Mo202  1  0.40534783  0.78696924  0.59548863  1
  Mo  Mo203  1  0.21105612  0.60306640  0.59144201  1
  Mo  Mo204  1  -0.00231448  0.19610473  0.79434265  1
  Mo  Mo205  1  0.60179588  0.20023876  0.59429153  1
  Mo  Mo206  1  0.50680993  0.50008292  0.89564065  1
  Mo  Mo207  1  0.69816594  0.30124490  0.90625360  1
  Mo  Mo208  1  0.00639395  0.00354673  0.00555442  1
  Mo  Mo209  1  0.90374744  0.69833297  0.50231473  1
  Mo  Mo210  1  0.69864718  0.70224602  0.90160768  1
  Mo  Mo211  1  0.90575265  0.89763517  0.11184648  1
  Mo  Mo212  1  0.90586486  0.49987586  0.30824503  1
  Mo  Mo213  1  0.80186800  -0.00265706  0.20273327  1
  Mo  Mo214  1  -0.00460517  0.40737929  0.79897825  1
  Mo  Mo215  1  0.89319045  0.90235519  0.88865846  1
  Mo  Mo216  1  0.80000499  0.59764890  0.60733589  1
  Mo  Mo217  1  0.20083924  -0.00290543  0.59248357  1
  Mo  Mo218  1  0.10247477  0.89953717  0.90358897  1
  Mo  Mo219  1  0.69725101  0.09666945  0.49580404  1
  Mo  Mo220  1  0.59180209  0.60498580  0.40868213  1
  Mo  Mo221  1  -0.00480790  0.40704264  0.39914753  1
  Mo  Mo222  1  0.40061638  -0.00200637  0.59506623  1
  Mo  Mo223  1  0.30495832  0.30987427  0.30208655  1
  Mo  Mo224  1  0.10515106  0.69750139  0.29896972  1
  Mo  Mo225  1  0.49631686  0.50773321  0.09780372  1
  Mo  Mo226  1  0.89509217  0.08773133  0.29861326  1
  Mo  Mo227  1  0.59654787  0.20572633  0.19729612  1
  Mo  Mo228  1  0.40333743  0.41027689  0.00364902  1
  Mo  Mo229  1  0.29802152  0.50807499  0.29413970  1
  Mo  Mo230  1  0.90183511  0.70027966  0.89473677  1
  Mo  Mo231  1  0.39924344  0.79156358  0.40445249  1
  Mo  Mo232  1  0.50729664  0.88745305  0.09419110  1
  Mo  Mo233  1  0.29760728  0.89368539  0.09741784  1
  Mo  Mo234  1  0.90187556  0.70517305  0.29831268  1
  Mo  Mo235  1  0.50427183  0.50343754  0.50740508  1
  Mo  Mo236  1  0.79921977  0.40732877  0.80183559  1
  Mo  Mo237  1  0.79567132  0.00426699  0.59827349  1
  Mo  Mo238  1  0.59846205  0.79565037  0.19119754  1
  Mo  Mo239  1  0.60209026  0.60529408  0.60282479  1
  Mo  Mo240  1  0.20201834  0.40171695  0.39345508  1
  Mo  Mo241  1  -0.00266749  0.40827524  -0.00014746  1
  Mo  Mo242  1  0.20650144  0.80069597  0.00089269  1
  Mo  Mo243  1  0.50496696  0.11131064  0.09915995  1
  Mo  Mo244  1  0.30209528  0.29716386  0.49657365  1
  Mo  Mo245  1  0.50503699  0.89540613  0.89584191  1
  Mo  Mo246  1  0.50025035  0.89514105  0.30770828  1
  Mo  Mo247  1  0.39775121  0.39850371  0.39063837  1
  Mo  Mo248  1  0.70292467  0.30577219  0.70146098  1
  Mo  Mo249  1  0.60988154  0.59883919  0.79930143  1
