# generated using pymatgen
data_HfZrTaTiMo
_symmetry_space_group_name_H-M   'P 1'
_cell_length_a   16.88602652
_cell_length_b   16.89589894
_cell_length_c   16.88570440
_cell_angle_alpha   89.96883743
_cell_angle_beta   89.94959023
_cell_angle_gamma   90.01973832
_symmetry_Int_Tables_number   1
_chemical_formula_structural   HfZrTaTiMo
_chemical_formula_sum   'Hf50 Zr50 Ta50 Ti50 Mo50'
_cell_volume   4817.56623350
_cell_formula_units_Z   50
loop_
 _symmetry_equiv_pos_site_id
 _symmetry_equiv_pos_as_xyz
  1  'x, y, z'
loop_
 _atom_site_type_symbol
 _atom_site_label
 _atom_site_symmetry_multiplicity
 _atom_site_fract_x
 _atom_site_fract_y
 _atom_site_fract_z
 _atom_site_occupancy
  Hf  Hf0  1  0.30731123  0.09763024  0.50165860  1
  Hf  Hf1  1  -0.01351294  0.19448523  0.79676758  1
  Hf  Hf2  1  -0.00596751  -0.00695604  0.79705928  1
  Hf  Hf3  1  0.10793951  0.90777321  0.10255564  1
  Hf  Hf4  1  0.49577178  0.50111696  0.30000195  1
  Hf  Hf5  1  0.40567363  0.39517674  0.79439160  1
  Hf  Hf6  1  0.69564597  0.50980991  0.90344776  1
  Hf  Hf7  1  0.20738760  0.79921389  -0.00924860  1
  Hf  Hf8  1  0.79086573  0.39993829  0.80508771  1
  Hf  Hf9  1  0.00394101  0.80879300  0.40413593  1
  Hf  Hf10  1  0.09883879  0.70323227  0.69997206  1
  Hf  Hf11  1  0.50231167  0.09869487  0.49871230  1
  Hf  Hf12  1  0.20754613  0.20685944  0.39282229  1
  Hf  Hf13  1  0.79788968  0.19783166  0.60774706  1
  Hf  Hf14  1  0.10128478  0.69253072  0.89917034  1
  Hf  Hf15  1  0.60628871  0.21309383  0.38959918  1
  Hf  Hf16  1  0.09951348  0.50187025  0.48836368  1
  Hf  Hf17  1  0.19613491  -0.01992809  0.79993375  1
  Hf  Hf18  1  0.89879117  0.29988654  0.49370930  1
  Hf  Hf19  1  0.40449557  0.20112971  0.20675117  1
  Hf  Hf20  1  0.60293416  0.59575982  0.20177001  1
  Hf  Hf21  1  0.69549624  0.30477759  0.10560842  1
  Hf  Hf22  1  0.21429074  0.60678675  0.39973859  1
  Hf  Hf23  1  0.31369393  0.89696505  0.09499829  1
  Hf  Hf24  1  0.30008923  0.29068328  0.90084978  1
  Hf  Hf25  1  -0.00201134  0.60493606  0.59980781  1
  Hf  Hf26  1  0.39749240  0.21091742  0.39422106  1
  Hf  Hf27  1  0.21113128  0.59636632  0.00891322  1
  Hf  Hf28  1  0.19607260  -0.01225783  0.60660169  1
  Hf  Hf29  1  0.49120950  0.70127750  0.69306324  1
  Hf  Hf30  1  0.09685551  0.30411843  0.49914250  1
  Hf  Hf31  1  0.20996447  0.60289655  0.59544600  1
  Hf  Hf32  1  0.69598810  0.09838996  0.49598772  1
  Hf  Hf33  1  0.69600848  0.10366018  0.09749145  1
  Hf  Hf34  1  0.50925782  0.09872972  0.30190854  1
  Hf  Hf35  1  0.90078559  0.91376457  0.29761194  1
  Hf  Hf36  1  0.09983051  0.69455916  0.30394794  1
  Hf  Hf37  1  0.10281270  0.91043332  0.29294422  1
  Hf  Hf38  1  0.19873644  0.19808237  0.01081399  1
  Hf  Hf39  1  0.89933561  0.69759871  0.49523270  1
  Hf  Hf40  1  0.58961103  -0.00308040  0.00641722  1
  Hf  Hf41  1  0.09691379  0.11023662  0.28535580  1
  Hf  Hf42  1  0.10290204  0.69636963  0.10331640  1
  Hf  Hf43  1  0.21398799  0.40301832  0.59308655  1
  Hf  Hf44  1  -0.00991894  0.19180271  0.60334085  1
  Hf  Hf45  1  0.09785667  0.09880169  0.50287846  1
  Hf  Hf46  1  0.59383234  0.19681488  0.61357030  1
  Hf  Hf47  1  0.50431654  0.50051203  0.69157587  1
  Hf  Hf48  1  -0.00307608  0.80356191  0.80533228  1
  Hf  Hf49  1  0.59360191  0.39896068  0.80535003  1
  Zr  Zr50  1  0.49654926  0.49939587  0.10358833  1
  Zr  Zr51  1  0.89860416  0.49376327  0.90042151  1
  Zr  Zr52  1  0.09313200  0.49686011  0.70154164  1
  Zr  Zr53  1  0.89327560  0.10279448  0.29964733  1
  Zr  Zr54  1  0.79408176  0.80852592  0.40903005  1
  Zr  Zr55  1  0.00501838  0.39019737  0.00525385  1
  Zr  Zr56  1  0.40770200  0.00123634  0.60756564  1
  Zr  Zr57  1  0.59457208  0.79967174  0.80431673  1
  Zr  Zr58  1  0.48374464  0.10596165  0.91469885  1
  Zr  Zr59  1  0.70157719  0.90205657  0.70499131  1
  Zr  Zr60  1  0.10228264  0.29033896  0.12532671  1
  Zr  Zr61  1  0.30404471  0.49855135  0.30060702  1
  Zr  Zr62  1  0.87678144  0.09307887  0.89860460  1
  Zr  Zr63  1  0.60222437  -0.00731491  0.19897319  1
  Zr  Zr64  1  0.69353885  0.69904236  0.09337083  1
  Zr  Zr65  1  0.50304722  0.30302781  0.10473201  1
  Zr  Zr66  1  0.80285044  0.59891173  0.00163884  1
  Zr  Zr67  1  0.80863561  0.80561396  -0.01092494  1
  Zr  Zr68  1  0.40728604  0.79832079  0.38923154  1
  Zr  Zr69  1  0.49409071  0.89557368  0.90562105  1
  Zr  Zr70  1  0.21940965  0.79076090  0.20677128  1
  Zr  Zr71  1  0.59905244  0.79768486  0.58612717  1
  Zr  Zr72  1  0.89489989  0.30717629  0.70622296  1
  Zr  Zr73  1  0.80028359  0.80754266  0.19569868  1
  Zr  Zr74  1  0.78986384  0.39737578  0.39053843  1
  Zr  Zr75  1  0.41682282  -0.00727238  0.19546042  1
  Zr  Zr76  1  0.20906326  0.60249784  0.79432234  1
  Zr  Zr77  1  0.90187368  0.69303256  0.10407011  1
  Zr  Zr78  1  0.20585324  0.39256800  0.78740014  1
  Zr  Zr79  1  0.50437953  0.30750280  0.50851688  1
  Zr  Zr80  1  0.32523714  0.10242197  0.08283281  1
  Zr  Zr81  1  -0.00382055  0.80831861  0.19620899  1
  Zr  Zr82  1  0.39490299  -0.00598738  0.80183685  1
  Zr  Zr83  1  0.60054036  0.40351427  0.39274023  1
  Zr  Zr84  1  0.20528178  0.21161267  0.60216810  1
  Zr  Zr85  1  -0.00437437  0.18011902  0.01841326  1
  Zr  Zr86  1  0.10330053  0.10130402  0.89317602  1
  Zr  Zr87  1  0.20595266  0.00223546  0.39426460  1
  Zr  Zr88  1  0.20340362  -0.00324910  -0.00953489  1
  Zr  Zr89  1  0.90161593  0.68919245  0.30593037  1
  Zr  Zr90  1  0.70400632  0.69706311  0.70377754  1
  Zr  Zr91  1  0.89880766  0.48459145  0.10691903  1
  Zr  Zr92  1  0.09862296  0.29660641  0.89534069  1
  Zr  Zr93  1  0.80674096  0.00633269  0.60404988  1
  Zr  Zr94  1  0.79469678  0.40535379  0.59945629  1
  Zr  Zr95  1  0.30404253  0.49622768  0.90036094  1
  Zr  Zr96  1  0.70021216  0.70346720  0.29975012  1
  Zr  Zr97  1  0.29334883  0.10587892  0.70745175  1
  Zr  Zr98  1  0.90025314  0.50496311  0.49200080  1
  Zr  Zr99  1  -0.00159312  0.80653601  -0.00602195  1
  Ta  Ta100  1  0.00381434  0.39617143  0.38927942  1
  Ta  Ta101  1  0.69022719  0.50419060  0.50253777  1
  Ta  Ta102  1  0.40477244  0.60321287  -0.00110547  1
  Ta  Ta103  1  0.20855467  0.59764495  0.19914508  1
  Ta  Ta104  1  0.80367737  0.80015870  0.59717312  1
  Ta  Ta105  1  0.00104074  0.20526068  0.39219498  1
  Ta  Ta106  1  0.39274096  0.79170801  0.80058819  1
  Ta  Ta107  1  0.59053840  0.60161629  0.80599719  1
  Ta  Ta108  1  0.30697591  0.71236190  0.50298454  1
  Ta  Ta109  1  0.50241720  0.69862458  0.09871223  1
  Ta  Ta110  1  0.10619774  0.49491302  0.29686896  1
  Ta  Ta111  1  -0.00087237  0.80718631  0.60209727  1
  Ta  Ta112  1  0.88988392  0.29481749  0.90785322  1
  Ta  Ta113  1  0.30372528  0.30789027  0.10336790  1
  Ta  Ta114  1  0.09553330  0.09543168  0.69862968  1
  Ta  Ta115  1  -0.00978117  -0.00648955  -0.00143463  1
  Ta  Ta116  1  0.69796843  0.89683485  0.09186279  1
  Ta  Ta117  1  0.79338932  0.58263100  0.20308533  1
  Ta  Ta118  1  0.59524800  0.79889560  0.39868823  1
  Ta  Ta119  1  0.79271031  0.20086701  0.20376427  1
  Ta  Ta120  1  0.69550671  0.50627944  0.69968028  1
  Ta  Ta121  1  0.40676695  0.20577719  0.79152664  1
  Ta  Ta122  1  0.69165501  0.30163536  0.70467836  1
  Ta  Ta123  1  0.20338424  0.80274602  0.79609206  1
  Ta  Ta124  1  -0.00588315  0.01845399  0.17731175  1
  Ta  Ta125  1  0.10153923  0.49754160  0.90299598  1
  Ta  Ta126  1  0.59362847  0.00728792  0.79977068  1
  Ta  Ta127  1  0.59971425  0.40715466  -0.00204226  1
  Ta  Ta128  1  0.39631024  0.40063426  0.59827322  1
  Ta  Ta129  1  0.89383256  0.89711200  0.70292058  1
  Ta  Ta130  1  0.59928421  -0.01545415  0.39961995  1
  Ta  Ta131  1  0.30532285  0.89543109  0.50046723  1
  Ta  Ta132  1  0.00455414  0.58840023  0.20139426  1
  Ta  Ta133  1  -0.00936674  0.60158706  0.80549387  1
  Ta  Ta134  1  0.40107868  0.78790550  -0.00126049  1
  Ta  Ta135  1  0.89260703  0.29496966  0.10761984  1
  Ta  Ta136  1  0.89048548  0.51045810  0.70333288  1
  Ta  Ta137  1  0.70343181  0.10360106  0.71822719  1
  Ta  Ta138  1  0.70096683  0.69860531  0.89589551  1
  Ta  Ta139  1  0.20173000  0.39949084  0.00851228  1
  Ta  Ta140  1  0.10593174  0.49432384  0.10696255  1
  Ta  Ta141  1  0.00315693  0.59403438  0.00075316  1
  Ta  Ta142  1  0.59517060  0.60931483  0.40328649  1
  Ta  Ta143  1  0.19923835  0.79989689  0.60019403  1
  Ta  Ta144  1  0.89862105  0.30095004  0.29200102  1
  Ta  Ta145  1  0.39854991  0.60076650  0.58836242  1
  Ta  Ta146  1  0.89230979  0.70293775  0.70475608  1
  Ta  Ta147  1  0.90225547  0.49710434  0.30060897  1
  Ta  Ta148  1  0.00164025  0.00513852  0.40362985  1
  Ta  Ta149  1  0.59702672  0.60474515  0.59041182  1
  Ti  Ti150  1  0.70129833  0.90247534  0.29835003  1
  Ti  Ti151  1  0.49815651  0.50135846  0.49960584  1
  Ti  Ti152  1  0.31203701  0.50691514  0.69734776  1
  Ti  Ti153  1  0.69519963  0.09891320  0.89952990  1
  Ti  Ti154  1  0.30838755  0.88374638  0.69196920  1
  Ti  Ti155  1  0.58985381  0.80404695  0.20556900  1
  Ti  Ti156  1  0.39925332  0.38928678  0.21207638  1
  Ti  Ti157  1  0.79617674  -0.00140301  0.40357014  1
  Ti  Ti158  1  0.78417287  0.59362270  0.39684727  1
  Ti  Ti159  1  0.00466938  0.39528493  0.20885349  1
  Ti  Ti160  1  0.39322705  0.61663211  0.20097603  1
  Ti  Ti161  1  0.59476926  0.20194973  0.00238009  1
  Ti  Ti162  1  0.20809531  0.39294274  0.39625691  1
  Ti  Ti163  1  0.49809543  0.29849306  0.90708812  1
  Ti  Ti164  1  0.59681331  0.79381194  -0.00433657  1
  Ti  Ti165  1  0.30177054  0.10631620  0.89684438  1
  Ti  Ti166  1  0.21509210  0.01594545  0.19717807  1
  Ti  Ti167  1  0.79266027  0.20635987  0.39551896  1
  Ti  Ti168  1  0.59744691  0.00387365  0.60868485  1
  Ti  Ti169  1  0.30455411  0.69683430  0.89685937  1
  Ti  Ti170  1  0.59182996  0.20000299  0.80169975  1
  Ti  Ti171  1  0.40183333  0.21099076  0.60952109  1
  Ti  Ti172  1  0.10165532  0.70344440  0.49690236  1
  Ti  Ti173  1  0.49487449  0.90014411  0.50123103  1
  Ti  Ti174  1  0.69737754  0.29095786  0.90087129  1
  Ti  Ti175  1  0.40302207  0.40330158  -0.00249638  1
  Ti  Ti176  1  0.90575916  0.90971872  0.50585354  1
  Ti  Ti177  1  0.10027745  0.90226416  0.50227633  1
  Ti  Ti178  1  0.30628195  0.90418415  0.29792116  1
  Ti  Ti179  1  0.09655773  0.29543004  0.70150479  1
  Ti  Ti180  1  -0.00435022  0.40342851  0.60028439  1
  Ti  Ti181  1  0.22151722  0.19965716  0.20817645  1
  Ti  Ti182  1  0.69493153  0.30449070  0.51064284  1
  Ti  Ti183  1  0.70070173  0.09750799  0.29917857  1
  Ti  Ti184  1  0.80123091  0.00090230  0.18509173  1
  Ti  Ti185  1  0.49874813  0.89583540  0.69887773  1
  Ti  Ti186  1  0.89986298  0.09959535  0.49211800  1
  Ti  Ti187  1  0.20581291  0.80320658  0.40014158  1
  Ti  Ti188  1  0.69838942  0.90612871  0.50476223  1
  Ti  Ti189  1  0.40906159  0.79336360  0.20192406  1
  Ti  Ti190  1  0.40534965  0.61022185  0.40396690  1
  Ti  Ti191  1  0.30576945  0.49324127  0.10767817  1
  Ti  Ti192  1  0.79279300  0.60537124  0.59464995  1
  Ti  Ti193  1  -0.00305331  0.40124928  0.80143424  1
  Ti  Ti194  1  0.39331021  0.39439613  0.40628104  1
  Ti  Ti195  1  0.40623899  0.60212965  0.80465350  1
  Ti  Ti196  1  0.70401483  0.90640694  0.89693612  1
  Ti  Ti197  1  0.79431926  0.20105003  0.00257374  1
  Ti  Ti198  1  0.40423321  -0.00418667  0.39315149  1
  Ti  Ti199  1  0.79043933  0.39656586  0.00250902  1
  Mo  Mo200  1  0.50136678  0.30958131  0.29840203  1
  Mo  Mo201  1  0.11525833  0.09581904  0.10869625  1
  Mo  Mo202  1  0.29907579  0.30685321  0.29689796  1
  Mo  Mo203  1  0.39855101  0.80129395  0.59799767  1
  Mo  Mo204  1  0.78738450  -0.00374292  -0.00217351  1
  Mo  Mo205  1  0.89813223  0.69362247  0.89249405  1
  Mo  Mo206  1  0.50004797  0.50324035  0.90456878  1
  Mo  Mo207  1  0.79114258  -0.00426566  0.80288544  1
  Mo  Mo208  1  0.31099652  0.69542950  0.10059806  1
  Mo  Mo209  1  0.40308531  -0.01582501  0.00050196  1
  Mo  Mo210  1  0.50134260  0.69781782  0.29623810  1
  Mo  Mo211  1  0.89388818  0.09330329  0.70455118  1
  Mo  Mo212  1  0.30573640  0.30521501  0.49978387  1
  Mo  Mo213  1  0.60547192  0.40535825  0.20151963  1
  Mo  Mo214  1  0.50177170  0.30165425  0.70225037  1
  Mo  Mo215  1  0.20685832  0.40180374  0.20062125  1
  Mo  Mo216  1  0.01132101  0.59369054  0.39380041  1
  Mo  Mo217  1  0.70015703  0.50120847  0.30091926  1
  Mo  Mo218  1  0.30790620  0.29961172  0.69823668  1
  Mo  Mo219  1  0.19842374  0.19837393  0.79464901  1
  Mo  Mo220  1  0.40023527  0.21867318  -0.00200926  1
  Mo  Mo221  1  0.60059279  0.40784466  0.60242864  1
  Mo  Mo222  1  0.80293901  0.80030732  0.80221279  1
  Mo  Mo223  1  0.31030383  0.50228684  0.49499664  1
  Mo  Mo224  1  0.60182974  0.20061297  0.20379027  1
  Mo  Mo225  1  0.70119408  0.69557357  0.49908646  1
  Mo  Mo226  1  0.50591391  0.87505225  0.09882742  1
  Mo  Mo227  1  0.10063229  0.30204073  0.30193023  1
  Mo  Mo228  1  0.30530495  0.69910886  0.30251810  1
  Mo  Mo229  1  0.78686358  0.20445131  0.80652451  1
  Mo  Mo230  1  0.79894763  0.39767415  0.20118884  1
  Mo  Mo231  1  0.30419694  0.70189843  0.69640291  1
  Mo  Mo232  1  0.88014644  0.10245196  0.09687412  1
  Mo  Mo233  1  0.79665077  0.60175699  0.79903041  1
  Mo  Mo234  1  0.49851375  0.69446222  0.90191833  1
  Mo  Mo235  1  0.69530022  0.49217046  0.10024762  1
  Mo  Mo236  1  -0.00272862  -0.00338984  0.59861763  1
  Mo  Mo237  1  0.50437532  0.10350074  0.70803220  1
  Mo  Mo238  1  0.89185093  0.90383422  0.89518085  1
  Mo  Mo239  1  -0.01499072  0.19995626  0.20297486  1
  Mo  Mo240  1  0.30790118  0.09606725  0.29944063  1
  Mo  Mo241  1  0.30276118  0.88636956  0.89798472  1
  Mo  Mo242  1  0.50941615  0.11688463  0.10102972  1
  Mo  Mo243  1  0.70033155  0.30153952  0.28654498  1
  Mo  Mo244  1  0.09630640  0.89600137  0.89926390  1
  Mo  Mo245  1  0.09285340  0.89474441  0.69444612  1
  Mo  Mo246  1  0.59378808  0.60218012  -0.00267942  1
  Mo  Mo247  1  0.49860008  0.69742315  0.49596372  1
  Mo  Mo248  1  0.89238654  0.91413664  0.09421862  1
  Mo  Mo249  1  0.50606285  0.89457396  0.30087550  1
