# generated using pymatgen
data_HfZrTaTiMo
_symmetry_space_group_name_H-M   'P 1'
_cell_length_a   16.87965382
_cell_length_b   16.88506782
_cell_length_c   16.88924571
_cell_angle_alpha   90.02958151
_cell_angle_beta   89.98618696
_cell_angle_gamma   89.99330160
_symmetry_Int_Tables_number   1
_chemical_formula_structural   HfZrTaTiMo
_chemical_formula_sum   'Hf50 Zr50 Ta50 Ti50 Mo50'
_cell_volume   4813.67234194
_cell_formula_units_Z   50
loop_
 _symmetry_equiv_pos_site_id
 _symmetry_equiv_pos_as_xyz
  1  'x, y, z'
loop_
 _atom_site_type_symbol
 _atom_site_label
 _atom_site_symmetry_multiplicity
 _atom_site_fract_x
 _atom_site_fract_y
 _atom_site_fract_z
 _atom_site_occupancy
  Hf  Hf0  1  0.61196715  0.58515487  0.39380843  1
  Hf  Hf1  1  0.49452116  0.29408272  0.89990091  1
  Hf  Hf2  1  0.69055029  0.70545476  0.90057323  1
  Hf  Hf3  1  0.49714927  0.10201440  0.90850547  1
  Hf  Hf4  1  0.09514487  0.49285889  0.29504101  1
  Hf  Hf5  1  0.30792763  0.29848085  0.49907259  1
  Hf  Hf6  1  0.89520208  0.48745025  0.28925978  1
  Hf  Hf7  1  0.69254023  0.89655607  0.50004907  1
  Hf  Hf8  1  0.51312515  0.50696405  0.69338941  1
  Hf  Hf9  1  -0.00026332  0.39712586  0.79963400  1
  Hf  Hf10  1  -0.00031367  0.39531578  0.60810715  1
  Hf  Hf11  1  0.39720013  0.01160624  0.60343521  1
  Hf  Hf12  1  0.49789258  0.88359860  0.69747521  1
  Hf  Hf13  1  0.79557336  0.19370238  0.19600023  1
  Hf  Hf14  1  0.50071868  0.30908398  0.49598947  1
  Hf  Hf15  1  0.10846731  0.30147146  0.50598009  1
  Hf  Hf16  1  0.51001678  0.49512314  0.50141432  1
  Hf  Hf17  1  0.09666890  0.69714342  0.70110374  1
  Hf  Hf18  1  0.90536870  0.10649614  0.70658365  1
  Hf  Hf19  1  0.29956094  0.90249628  0.50562805  1
  Hf  Hf20  1  0.20112428  0.80609079  0.00718279  1
  Hf  Hf21  1  0.90776445  0.70035168  0.89734580  1
  Hf  Hf22  1  0.58865149  0.00341983  0.20313366  1
  Hf  Hf23  1  -0.00675918  0.59391869  0.18828015  1
  Hf  Hf24  1  0.79475287  0.81173883  0.79981484  1
  Hf  Hf25  1  0.89694131  0.29785235  0.09897231  1
  Hf  Hf26  1  0.50130756  0.70227813  0.90036008  1
  Hf  Hf27  1  0.20147994  0.00133968  0.40142860  1
  Hf  Hf28  1  0.58897157  0.80258598  0.19442759  1
  Hf  Hf29  1  0.20292099  0.60790212  0.59610097  1
  Hf  Hf30  1  0.69918091  0.70114828  0.50455297  1
  Hf  Hf31  1  0.70225133  0.49490191  0.69853269  1
  Hf  Hf32  1  0.79622440  0.00161477  0.80676331  1
  Hf  Hf33  1  0.39618127  0.39261642  0.01287899  1
  Hf  Hf34  1  0.49584034  0.50737562  0.91488111  1
  Hf  Hf35  1  0.59536342  0.19974399  0.59717162  1
  Hf  Hf36  1  0.30556322  0.09928412  0.10843315  1
  Hf  Hf37  1  0.39391041  0.41010268  0.60386319  1
  Hf  Hf38  1  0.29954800  0.69737105  0.29631960  1
  Hf  Hf39  1  0.09225870  0.09641013  0.89381663  1
  Hf  Hf40  1  0.40134818  0.00621233  0.78802400  1
  Hf  Hf41  1  0.60511193  0.40029219  0.01020575  1
  Hf  Hf42  1  0.29993796  0.29737570  0.70179042  1
  Hf  Hf43  1  0.59734549  0.19875484  0.39762084  1
  Hf  Hf44  1  0.91169446  0.91100980  0.90344819  1
  Hf  Hf45  1  0.70114278  0.29685430  0.90020005  1
  Hf  Hf46  1  0.80122715  0.80396456  0.19551416  1
  Hf  Hf47  1  0.78964824  0.40244963  0.41182504  1
  Hf  Hf48  1  0.40573682  0.39948829  0.20065019  1
  Hf  Hf49  1  0.10029888  0.90423261  0.89598507  1
  Zr  Zr50  1  0.00214795  0.80684800  0.79136350  1
  Zr  Zr51  1  0.50877444  0.89599378  0.89755757  1
  Zr  Zr52  1  0.50576820  0.89860626  0.50860214  1
  Zr  Zr53  1  0.21777505  0.38857681  0.18982482  1
  Zr  Zr54  1  0.69796377  0.30800951  0.29890736  1
  Zr  Zr55  1  0.50138597  0.30317801  0.69929759  1
  Zr  Zr56  1  0.69626206  0.69451241  0.28914139  1
  Zr  Zr57  1  0.19339299  0.20008993  0.00251127  1
  Zr  Zr58  1  0.30510105  0.09961655  0.29398795  1
  Zr  Zr59  1  0.60022515  0.19393538  0.79843627  1
  Zr  Zr60  1  0.50997998  0.69875330  0.51192257  1
  Zr  Zr61  1  0.60139628  0.00168946  0.79828705  1
  Zr  Zr62  1  -0.00765857  0.39473703  0.40586473  1
  Zr  Zr63  1  0.79642643  0.80759037  -0.00138273  1
  Zr  Zr64  1  -0.00979149  0.40503338  -0.00562717  1
  Zr  Zr65  1  -0.00060894  0.80576193  0.19714009  1
  Zr  Zr66  1  0.69600342  0.09109279  0.50444843  1
  Zr  Zr67  1  0.40034299  0.60079082  0.40334390  1
  Zr  Zr68  1  0.20352496  0.20094633  0.39380779  1
  Zr  Zr69  1  0.09386139  0.30003317  0.09304403  1
  Zr  Zr70  1  0.40131473  0.80236904  0.00819960  1
  Zr  Zr71  1  0.79890032  0.58979714  -0.00140825  1
  Zr  Zr72  1  0.20223056  -0.00213377  0.00706080  1
  Zr  Zr73  1  0.08567807  0.29697224  0.28682282  1
  Zr  Zr74  1  0.29400423  0.49688868  0.49643888  1
  Zr  Zr75  1  0.39911405  0.79833884  0.39779185  1
  Zr  Zr76  1  0.90188017  0.68900376  0.70035300  1
  Zr  Zr77  1  0.10485384  0.50187998  0.89732269  1
  Zr  Zr78  1  0.68847169  0.89898064  0.68705222  1
  Zr  Zr79  1  -0.00179906  0.59522874  -0.00089722  1
  Zr  Zr80  1  0.09757597  0.09715205  0.69560127  1
  Zr  Zr81  1  0.29150579  0.49911571  0.90544029  1
  Zr  Zr82  1  0.81365069  0.00048326  0.59862335  1
  Zr  Zr83  1  0.30472368  0.89075378  0.88343413  1
  Zr  Zr84  1  0.89771159  0.28635821  0.89846197  1
  Zr  Zr85  1  0.20733894  0.39634815  0.38511726  1
  Zr  Zr86  1  0.80301334  0.59329340  0.39786993  1
  Zr  Zr87  1  0.19363571  0.59948799  0.19650838  1
  Zr  Zr88  1  0.30633711  0.10589217  0.89695253  1
  Zr  Zr89  1  0.39648671  0.60438546  0.79739319  1
  Zr  Zr90  1  0.80317098  0.20161752  0.40564499  1
  Zr  Zr91  1  0.80861205  0.79603344  0.39568317  1
  Zr  Zr92  1  0.30938630  0.51614834  0.09514190  1
  Zr  Zr93  1  0.69089028  0.69626983  0.70121988  1
  Zr  Zr94  1  0.69578842  0.90355516  0.30327626  1
  Zr  Zr95  1  0.09434660  0.70202716  0.30359480  1
  Zr  Zr96  1  0.39941846  0.40476121  0.80281671  1
  Zr  Zr97  1  0.81235179  0.00109023  0.19561057  1
  Zr  Zr98  1  0.91504855  0.89643100  0.49306551  1
  Zr  Zr99  1  0.80947709  0.00686188  0.39614230  1
  Ta  Ta100  1  0.09600204  0.70888710  0.09290594  1
  Ta  Ta101  1  0.29519089  0.29850725  0.90212113  1
  Ta  Ta102  1  0.81010635  0.79702732  0.60094867  1
  Ta  Ta103  1  0.19185092  -0.00438508  0.20127799  1
  Ta  Ta104  1  0.60140091  0.40730033  0.19595923  1
  Ta  Ta105  1  0.80012899  0.59481640  0.59774562  1
  Ta  Ta106  1  0.79495187  0.19080288  0.00393064  1
  Ta  Ta107  1  0.20027236  0.79951059  0.40446119  1
  Ta  Ta108  1  0.30318720  0.70142877  0.10451396  1
  Ta  Ta109  1  0.20005622  0.80760795  0.20006347  1
  Ta  Ta110  1  0.69935956  0.10023269  0.69279623  1
  Ta  Ta111  1  0.09555541  0.70011808  0.49913715  1
  Ta  Ta112  1  -0.00151255  0.59511460  0.40256764  1
  Ta  Ta113  1  0.69326007  0.69773457  0.09973989  1
  Ta  Ta114  1  0.60259530  0.20007972  0.01158594  1
  Ta  Ta115  1  0.69330332  0.09560560  0.09964382  1
  Ta  Ta116  1  0.20243008  0.19696012  0.60428980  1
  Ta  Ta117  1  0.40387203  0.00887828  0.40042579  1
  Ta  Ta118  1  0.09848854  0.50206497  0.50536115  1
  Ta  Ta119  1  0.89949497  0.30031537  0.28873643  1
  Ta  Ta120  1  0.79357249  0.40436061  0.00047585  1
  Ta  Ta121  1  0.19710991  0.80372659  0.60000494  1
  Ta  Ta122  1  0.29498214  0.71060387  0.70620696  1
  Ta  Ta123  1  0.59651589  0.20156791  0.20099933  1
  Ta  Ta124  1  0.09855735  0.90079230  0.30763821  1
  Ta  Ta125  1  0.49613855  0.10015781  0.10478145  1
  Ta  Ta126  1  0.49709344  0.68415729  0.10064484  1
  Ta  Ta127  1  0.39258248  0.60580795  0.60417336  1
  Ta  Ta128  1  0.09940196  0.10027254  0.50267183  1
  Ta  Ta129  1  0.90992057  0.69504552  0.50368483  1
  Ta  Ta130  1  0.00442621  0.00103974  0.19767050  1
  Ta  Ta131  1  -0.00449233  0.18503599  0.18774410  1
  Ta  Ta132  1  0.09969718  0.50385951  0.69926904  1
  Ta  Ta133  1  0.09656599  0.09944717  0.29804859  1
  Ta  Ta134  1  0.70596081  0.30267479  0.69969285  1
  Ta  Ta135  1  0.20957122  0.00111002  0.78207410  1
  Ta  Ta136  1  0.19772906  0.60890120  0.80186647  1
  Ta  Ta137  1  0.28395922  0.50197076  0.70367457  1
  Ta  Ta138  1  0.40249082  0.79942246  0.19994045  1
  Ta  Ta139  1  0.90370995  0.50236864  0.51146549  1
  Ta  Ta140  1  0.69143687  0.90983299  0.09262800  1
  Ta  Ta141  1  0.88829561  0.29753031  0.70308262  1
  Ta  Ta142  1  0.19707981  0.20202408  0.79748517  1
  Ta  Ta143  1  0.89804853  0.70269572  0.09524537  1
  Ta  Ta144  1  0.00527988  0.00717202  0.01691472  1
  Ta  Ta145  1  0.58304463  0.00967259  0.39938537  1
  Ta  Ta146  1  0.90167384  0.50181488  0.70244868  1
  Ta  Ta147  1  0.10114649  0.70749604  0.89923068  1
  Ta  Ta148  1  0.00488925  0.80097202  0.59799342  1
  Ta  Ta149  1  0.40538616  -0.00591234  0.01052855  1
  Ti  Ti150  1  0.38953374  0.78995101  0.60169864  1
  Ti  Ti151  1  0.50401954  0.49888522  0.29708117  1
  Ti  Ti152  1  0.69355178  0.09335125  0.91277633  1
  Ti  Ti153  1  0.90747144  0.90693855  0.69925174  1
  Ti  Ti154  1  0.10812685  0.90404660  0.69635085  1
  Ti  Ti155  1  0.60724007  0.59011359  0.00837079  1
  Ti  Ti156  1  0.19817994  0.61214172  -0.00040867  1
  Ti  Ti157  1  0.50067753  0.30966125  0.30734113  1
  Ti  Ti158  1  0.20057763  0.20157012  0.19947209  1
  Ti  Ti159  1  0.89827322  0.29609274  0.50686596  1
  Ti  Ti160  1  0.78942481  0.40352203  0.18382438  1
  Ti  Ti161  1  0.79193494  0.18945458  0.80329934  1
  Ti  Ti162  1  0.80204861  0.40613965  0.80932926  1
  Ti  Ti163  1  0.60433148  0.59248581  0.80842199  1
  Ti  Ti164  1  0.29936874  0.10636691  0.50553301  1
  Ti  Ti165  1  0.50530210  0.70131956  0.70202599  1
  Ti  Ti166  1  0.59751893  0.80632000  0.00793030  1
  Ti  Ti167  1  0.80158818  0.00431325  0.00102983  1
  Ti  Ti168  1  0.69710659  0.09700274  0.29957832  1
  Ti  Ti169  1  0.79841196  0.39732591  0.59736804  1
  Ti  Ti170  1  0.29832748  0.70488705  0.89841829  1
  Ti  Ti171  1  0.90975856  0.09965231  0.90226454  1
  Ti  Ti172  1  0.91336565  0.10691723  0.50597797  1
  Ti  Ti173  1  0.60437167  0.40407107  0.80796578  1
  Ti  Ti174  1  0.79481585  0.59361307  0.19002297  1
  Ti  Ti175  1  0.00668338  -0.00395276  0.59826897  1
  Ti  Ti176  1  0.90644272  0.89962468  0.09163170  1
  Ti  Ti177  1  -0.00098234  0.20092350  0.39938427  1
  Ti  Ti178  1  0.10135789  0.89986904  0.49864650  1
  Ti  Ti179  1  0.40773515  0.19486043  0.39910814  1
  Ti  Ti180  1  0.30689212  0.90413892  0.11468052  1
  Ti  Ti181  1  0.18910508  0.38882813  0.79884698  1
  Ti  Ti182  1  0.49978242  0.68808187  0.29133909  1
  Ti  Ti183  1  0.30118028  0.90123799  0.29871504  1
  Ti  Ti184  1  0.79960251  0.58970942  0.80801963  1
  Ti  Ti185  1  0.39836515  0.20322864  0.01050765  1
  Ti  Ti186  1  0.90373056  0.69603045  0.29810025  1
  Ti  Ti187  1  0.00562297  0.00766179  0.39883258  1
  Ti  Ti188  1  0.59267431  0.79826716  0.39110072  1
  Ti  Ti189  1  0.01152326  0.21367247  0.79783487  1
  Ti  Ti190  1  0.19736535  0.60226935  0.40239485  1
  Ti  Ti191  1  0.90815554  0.10483649  0.29978053  1
  Ti  Ti192  1  0.40604596  0.20731081  0.20686650  1
  Ti  Ti193  1  0.48838958  0.90531890  0.29895738  1
  Ti  Ti194  1  0.79697158  0.20465853  0.59862201  1
  Ti  Ti195  1  0.30768560  0.50384580  0.29833706  1
  Ti  Ti196  1  0.50401768  0.29458468  0.10557831  1
  Ti  Ti197  1  0.91305573  0.90046596  0.30572540  1
  Ti  Ti198  1  0.10550405  0.49049478  0.09419537  1
  Ti  Ti199  1  0.00384493  0.20846212  0.60533331  1
  Mo  Mo200  1  0.19630237  0.40169208  0.60951423  1
  Mo  Mo201  1  0.00247695  0.80332929  0.00231910  1
  Mo  Mo202  1  -0.01042096  0.40074225  0.19034977  1
  Mo  Mo203  1  0.49142481  0.10666104  0.49748861  1
  Mo  Mo204  1  0.59747241  0.00527921  0.00667455  1
  Mo  Mo205  1  0.20280093  0.39140170  -0.00351893  1
  Mo  Mo206  1  0.30574819  0.28747511  0.10214497  1
  Mo  Mo207  1  0.00136765  0.59624427  0.59793394  1
  Mo  Mo208  1  0.89044702  0.49655126  0.09905891  1
  Mo  Mo209  1  0.89557442  0.09686751  0.09329249  1
  Mo  Mo210  1  0.61471774  0.39585678  0.59525911  1
  Mo  Mo211  1  0.19902576  0.00114584  0.59571894  1
  Mo  Mo212  1  0.60470173  0.59619767  0.60159003  1
  Mo  Mo213  1  0.00124016  0.00003281  0.79263992  1
  Mo  Mo214  1  0.40445879  0.40029346  0.38871698  1
  Mo  Mo215  1  0.89291046  0.49865595  0.89151821  1
  Mo  Mo216  1  0.10349177  0.29906413  0.69913035  1
  Mo  Mo217  1  0.39730670  0.19833553  0.59992795  1
  Mo  Mo218  1  0.50332420  0.50664267  0.10565982  1
  Mo  Mo219  1  0.69863548  0.30420410  0.50774541  1
  Mo  Mo220  1  0.59819852  0.59459117  0.19645564  1
  Mo  Mo221  1  0.60179632  0.40068679  0.39336969  1
  Mo  Mo222  1  0.69787741  0.50265330  0.10255702  1
  Mo  Mo223  1  0.49627995  0.10637137  0.29890502  1
  Mo  Mo224  1  0.10353763  0.29517252  0.89645424  1
  Mo  Mo225  1  -0.00652049  0.18871880  -0.00093461  1
  Mo  Mo226  1  0.40545735  0.60175653  0.20361688  1
  Mo  Mo227  1  0.00351168  0.59465330  0.79882134  1
  Mo  Mo228  1  0.69915977  0.90404275  0.91242233  1
  Mo  Mo229  1  0.39353177  0.19887800  0.79879575  1
  Mo  Mo230  1  0.19945367  0.80199708  0.79637031  1
  Mo  Mo231  1  0.31848243  0.29493531  0.29986016  1
  Mo  Mo232  1  0.49726258  0.10689161  0.69343954  1
  Mo  Mo233  1  0.70239845  0.49684200  0.51037661  1
  Mo  Mo234  1  0.10252100  0.09946076  0.10823968  1
  Mo  Mo235  1  0.60396618  0.79163184  0.60242709  1
  Mo  Mo236  1  0.70075192  0.49580077  0.28941894  1
  Mo  Mo237  1  0.29252587  0.70442664  0.50376284  1
  Mo  Mo238  1  0.58629552  0.01121141  0.59978821  1
  Mo  Mo239  1  0.00637656  0.79380267  0.40114077  1
  Mo  Mo240  1  0.39692646  0.60976662  -0.00045486  1
  Mo  Mo241  1  0.10030534  0.90139233  0.10587421  1
  Mo  Mo242  1  0.29867627  0.10869282  0.69612458  1
  Mo  Mo243  1  0.49835219  0.90235705  0.10328432  1
  Mo  Mo244  1  0.69506207  0.49644495  0.89674937  1
  Mo  Mo245  1  0.69860111  0.29521591  0.10046330  1
  Mo  Mo246  1  0.59928835  0.79601459  0.80317125  1
  Mo  Mo247  1  0.39943132  -0.00742053  0.20390546  1
  Mo  Mo248  1  0.29639363  0.89454971  0.69330141  1
  Mo  Mo249  1  0.39986618  0.79494047  0.79336147  1
