# generated using pymatgen
data_HfZrTaTiMo
_symmetry_space_group_name_H-M   'P 1'
_cell_length_a   16.88757928
_cell_length_b   16.88891569
_cell_length_c   16.88869450
_cell_angle_alpha   90.02085798
_cell_angle_beta   89.96116214
_cell_angle_gamma   90.01767058
_symmetry_Int_Tables_number   1
_chemical_formula_structural   HfZrTaTiMo
_chemical_formula_sum   'Hf50 Zr50 Ta50 Ti50 Mo50'
_cell_volume   4816.87192744
_cell_formula_units_Z   50
loop_
 _symmetry_equiv_pos_site_id
 _symmetry_equiv_pos_as_xyz
  1  'x, y, z'
loop_
 _atom_site_type_symbol
 _atom_site_label
 _atom_site_symmetry_multiplicity
 _atom_site_fract_x
 _atom_site_fract_y
 _atom_site_fract_z
 _atom_site_occupancy
  Hf  Hf0  1  0.19018166  0.59785211  0.00402160  1
  Hf  Hf1  1  0.19835128  0.19145008  0.58488083  1
  Hf  Hf2  1  0.19574653  0.00537928  0.79224555  1
  Hf  Hf3  1  0.40363566  0.80597072  0.59751887  1
  Hf  Hf4  1  0.71038674  0.10889196  0.70100410  1
  Hf  Hf5  1  0.59204360  0.00188686  0.60535820  1
  Hf  Hf6  1  0.30108726  0.50300094  0.10204450  1
  Hf  Hf7  1  0.60210872  0.20131148  0.59426112  1
  Hf  Hf8  1  0.60687456  0.20802495  0.40231646  1
  Hf  Hf9  1  0.50370301  0.50683455  0.49324466  1
  Hf  Hf10  1  0.09582057  0.90984762  0.89865010  1
  Hf  Hf11  1  0.90396591  0.30455923  0.10300631  1
  Hf  Hf12  1  0.47375422  0.51199198  0.89187653  1
  Hf  Hf13  1  0.59574032  0.80817464  0.59958872  1
  Hf  Hf14  1  0.00704891  0.59872279  0.41466139  1
  Hf  Hf15  1  0.70901867  0.30026441  0.89647187  1
  Hf  Hf16  1  0.49685911  0.30651001  0.70449509  1
  Hf  Hf17  1  0.79944615  0.39128728  0.59367247  1
  Hf  Hf18  1  0.40066689  0.19206512  0.59480290  1
  Hf  Hf19  1  -0.01577039  -0.00549592  0.21404469  1
  Hf  Hf20  1  0.60799933  0.60330251  0.60533450  1
  Hf  Hf21  1  0.40532931  0.00937708  0.00832907  1
  Hf  Hf22  1  0.39808730  -0.00581088  0.20311622  1
  Hf  Hf23  1  0.90338540  0.69895967  0.30744168  1
  Hf  Hf24  1  0.19282987  0.60007096  0.60002872  1
  Hf  Hf25  1  0.09741400  0.09580989  0.30627786  1
  Hf  Hf26  1  0.90199426  0.09749291  0.09816369  1
  Hf  Hf27  1  0.00223862  0.80503326  0.59581851  1
  Hf  Hf28  1  0.30199634  0.89833506  0.90105610  1
  Hf  Hf29  1  0.90521671  0.11172323  0.89636450  1
  Hf  Hf30  1  0.69573217  0.70588614  0.10300738  1
  Hf  Hf31  1  0.09503744  0.30388294  0.68102768  1
  Hf  Hf32  1  0.69945487  0.50072616  0.49552010  1
  Hf  Hf33  1  -0.01386801  0.79064748  -0.01201114  1
  Hf  Hf34  1  0.79957029  0.59801710  0.20503994  1
  Hf  Hf35  1  0.19633111  0.01082755  0.00216987  1
  Hf  Hf36  1  0.18588906  0.39404283  0.19863048  1
  Hf  Hf37  1  0.49595887  0.70181653  0.90362660  1
  Hf  Hf38  1  0.19567239  0.60776983  0.79551199  1
  Hf  Hf39  1  0.79202226  0.81108364  0.21376632  1
  Hf  Hf40  1  0.00130456  0.80155920  0.80076510  1
  Hf  Hf41  1  0.89975950  0.28585171  0.70858025  1
  Hf  Hf42  1  0.60039639  0.39684759  0.20037192  1
  Hf  Hf43  1  0.59730803  0.59234871  -0.00473660  1
  Hf  Hf44  1  0.80342103  0.00295715  0.80311083  1
  Hf  Hf45  1  0.09716903  0.49593582  0.89623603  1
  Hf  Hf46  1  0.40159511  0.18998118  0.78904141  1
  Hf  Hf47  1  -0.00101853  0.60503393  0.80362273  1
  Hf  Hf48  1  0.50845555  0.09654226  0.29849543  1
  Hf  Hf49  1  0.69521275  0.50092482  0.30950856  1
  Zr  Zr50  1  0.60176213  0.19808047  0.00206158  1
  Zr  Zr51  1  0.49402643  0.50433913  0.70069225  1
  Zr  Zr52  1  0.20022326  0.19141555  0.40007983  1
  Zr  Zr53  1  0.29831763  0.69541971  0.49528124  1
  Zr  Zr54  1  0.88736266  0.69979331  0.09547490  1
  Zr  Zr55  1  0.29576278  0.10714369  0.89435287  1
  Zr  Zr56  1  0.90382880  0.49281666  0.30435709  1
  Zr  Zr57  1  0.39321194  0.18386887  0.19451487  1
  Zr  Zr58  1  0.49800160  0.30068510  0.10190539  1
  Zr  Zr59  1  0.70567413  0.29597813  0.71160843  1
  Zr  Zr60  1  0.70216470  0.49773615  0.09852500  1
  Zr  Zr61  1  0.41018869  0.00217117  0.78708506  1
  Zr  Zr62  1  0.60440160  0.39687788  0.59590619  1
  Zr  Zr63  1  0.70627654  0.10198658  0.30213835  1
  Zr  Zr64  1  0.29715734  0.30374191  0.88423217  1
  Zr  Zr65  1  0.40620024  0.60204280  0.38786397  1
  Zr  Zr66  1  0.19048581  0.38514710  0.39991901  1
  Zr  Zr67  1  0.70873201  0.70241311  0.91099193  1
  Zr  Zr68  1  0.18677902  0.78937656  -0.00670403  1
  Zr  Zr69  1  0.61074311  0.80227758  0.39277660  1
  Zr  Zr70  1  0.59026524  0.60147113  0.20717259  1
  Zr  Zr71  1  0.08762258  0.69466129  0.10792604  1
  Zr  Zr72  1  0.39551595  0.80476235  0.39417847  1
  Zr  Zr73  1  0.60375809  -0.00042277  0.00092953  1
  Zr  Zr74  1  0.39807288  0.80231790  0.78964644  1
  Zr  Zr75  1  0.30666249  0.88559841  0.09359751  1
  Zr  Zr76  1  0.19678622  0.20129386  0.00877355  1
  Zr  Zr77  1  -0.01054778  0.80772059  0.20781637  1
  Zr  Zr78  1  0.08424517  0.90595874  0.09492349  1
  Zr  Zr79  1  0.20398148  0.79625823  0.21148539  1
  Zr  Zr80  1  0.31033166  0.69375576  0.91263254  1
  Zr  Zr81  1  0.18859060  0.39292175  0.00009283  1
  Zr  Zr82  1  0.30563475  0.30042297  0.29579839  1
  Zr  Zr83  1  0.29397405  0.50086826  0.30350403  1
  Zr  Zr84  1  0.39565540  0.19240184  0.40152440  1
  Zr  Zr85  1  0.01212805  0.20617938  -0.00497994  1
  Zr  Zr86  1  0.60845369  0.41967087  0.81160720  1
  Zr  Zr87  1  0.29918605  0.49175392  0.69664524  1
  Zr  Zr88  1  0.81231090  0.80498408  0.81476936  1
  Zr  Zr89  1  0.70671638  0.70310551  0.70466466  1
  Zr  Zr90  1  0.09513190  0.46898842  0.51699233  1
  Zr  Zr91  1  0.00228905  0.59661009  0.60426626  1
  Zr  Zr92  1  0.49718582  0.30206880  0.89621460  1
  Zr  Zr93  1  0.00537132  0.20732289  0.20718049  1
  Zr  Zr94  1  0.89979622  0.49069128  0.70189523  1
  Zr  Zr95  1  0.70595473  0.91009714  0.49876936  1
  Zr  Zr96  1  0.70870251  0.90251845  0.70156409  1
  Zr  Zr97  1  0.39638695  0.40314499  0.00001621  1
  Zr  Zr98  1  0.20848433  0.00146045  0.20553094  1
  Zr  Zr99  1  0.59675443  0.00303700  0.80664102  1
  Ta  Ta100  1  0.80425338  0.39839747  0.00103456  1
  Ta  Ta101  1  0.89884354  0.49228269  0.89954617  1
  Ta  Ta102  1  0.90561054  0.91866560  0.91075381  1
  Ta  Ta103  1  0.40800733  0.39995697  0.39959766  1
  Ta  Ta104  1  0.50534437  0.89764414  0.29461593  1
  Ta  Ta105  1  0.19918975  0.79670042  0.79261920  1
  Ta  Ta106  1  0.29996983  0.49484833  0.49957959  1
  Ta  Ta107  1  0.09692416  0.69550652  0.30727398  1
  Ta  Ta108  1  0.19739468  0.80022474  0.59624643  1
  Ta  Ta109  1  0.00196667  0.00745680  0.79367422  1
  Ta  Ta110  1  0.20514987  -0.00310996  0.40378082  1
  Ta  Ta111  1  0.00373203  0.80594728  0.40729860  1
  Ta  Ta112  1  0.19448308  0.80233259  0.40250155  1
  Ta  Ta113  1  0.80524259  0.19900801  0.58228353  1
  Ta  Ta114  1  0.60740441  0.60491677  0.80341146  1
  Ta  Ta115  1  0.81455187  0.00904631  0.59524287  1
  Ta  Ta116  1  0.19689275  0.20031913  0.19958071  1
  Ta  Ta117  1  0.09806293  0.70768838  0.69600979  1
  Ta  Ta118  1  0.70651987  0.10213322  0.10739132  1
  Ta  Ta119  1  0.80239498  0.39784993  0.19842492  1
  Ta  Ta120  1  0.80396448  0.60244299  0.59655978  1
  Ta  Ta121  1  0.19488963  0.59991282  0.20612777  1
  Ta  Ta122  1  0.29160672  0.90332303  0.69022804  1
  Ta  Ta123  1  0.00037310  0.39180284  0.80255982  1
  Ta  Ta124  1  0.80390536  0.80161270  0.40228279  1
  Ta  Ta125  1  0.09072422  0.49646590  0.30212219  1
  Ta  Ta126  1  0.40509933  -0.00421626  0.59345475  1
  Ta  Ta127  1  0.79563403  0.00348829  0.00242849  1
  Ta  Ta128  1  0.80160211  0.39194310  0.40287568  1
  Ta  Ta129  1  0.70759725  0.09983474  0.49360657  1
  Ta  Ta130  1  0.79995809  0.60515347  0.40605080  1
  Ta  Ta131  1  0.50404425  0.70091259  0.70107291  1
  Ta  Ta132  1  0.80766628  0.80312778  0.59562110  1
  Ta  Ta133  1  0.30139609  0.30033342  0.10367737  1
  Ta  Ta134  1  0.49467040  0.89642835  0.90886688  1
  Ta  Ta135  1  0.80217834  -0.00590796  0.20316749  1
  Ta  Ta136  1  0.39631168  -0.00434278  0.39833214  1
  Ta  Ta137  1  -0.00212680  0.00226122  0.40960320  1
  Ta  Ta138  1  0.60941185  -0.01174132  0.19902599  1
  Ta  Ta139  1  0.59996937  0.80886476  0.00297292  1
  Ta  Ta140  1  0.79974817  0.20570247  0.00454429  1
  Ta  Ta141  1  0.90042456  0.70259330  0.50233907  1
  Ta  Ta142  1  -0.00070683  0.39560111  -0.00260274  1
  Ta  Ta143  1  0.70991614  0.30039620  0.29922417  1
  Ta  Ta144  1  0.89733214  0.70153630  0.69807048  1
  Ta  Ta145  1  0.39867694  0.60940374  0.20493650  1
  Ta  Ta146  1  0.39908752  0.39623945  0.59278834  1
  Ta  Ta147  1  0.50376190  0.09276732  0.49285851  1
  Ta  Ta148  1  0.59864699  0.80813132  0.80658339  1
  Ta  Ta149  1  0.50735376  0.69827808  0.49877540  1
  Ti  Ti150  1  0.19218584  0.40115247  0.78745905  1
  Ti  Ti151  1  0.70655524  0.10821290  0.90029448  1
  Ti  Ti152  1  0.49761823  0.30092316  0.49686145  1
  Ti  Ti153  1  0.80261641  0.59695468  0.80660616  1
  Ti  Ti154  1  0.29703970  0.50063254  0.89412824  1
  Ti  Ti155  1  0.10373987  0.28529691  0.87503572  1
  Ti  Ti156  1  0.61001309  0.20605573  0.19749299  1
  Ti  Ti157  1  0.51320088  0.09787972  0.10643222  1
  Ti  Ti158  1  0.19222882  0.60118049  0.40221543  1
  Ti  Ti159  1  0.38622382  0.61427905  0.78050026  1
  Ti  Ti160  1  0.59704666  0.39327995  0.39654826  1
  Ti  Ti161  1  0.29490228  0.90466144  0.50334203  1
  Ti  Ti162  1  0.50013519  0.29809467  0.29770901  1
  Ti  Ti163  1  0.59874738  -0.00552775  0.39914926  1
  Ti  Ti164  1  0.90102906  0.49343928  0.49893721  1
  Ti  Ti165  1  0.90287689  0.90522666  0.50247517  1
  Ti  Ti166  1  0.29359646  0.29859969  0.69455943  1
  Ti  Ti167  1  0.29446333  0.09221370  0.68603859  1
  Ti  Ti168  1  0.90637131  0.90706718  0.69651586  1
  Ti  Ti169  1  0.58907243  0.18592670  0.80278371  1
  Ti  Ti170  1  -0.00763975  0.59609973  -0.00392769  1
  Ti  Ti171  1  0.40086006  0.79678875  0.20618030  1
  Ti  Ti172  1  0.90984104  0.30042133  0.49469544  1
  Ti  Ti173  1  0.30051527  0.30604488  0.50142118  1
  Ti  Ti174  1  0.00312084  0.20011722  0.40615004  1
  Ti  Ti175  1  0.80589209  0.58784084  -0.00314945  1
  Ti  Ti176  1  0.89464213  0.10895838  0.31090148  1
  Ti  Ti177  1  0.09307031  0.09649530  0.10772282  1
  Ti  Ti178  1  0.71198646  0.50058735  0.70614314  1
  Ti  Ti179  1  0.80095185  0.20461738  0.20002588  1
  Ti  Ti180  1  0.60410377  0.40321630  -0.00065229  1
  Ti  Ti181  1  0.09554765  0.10046531  0.69108145  1
  Ti  Ti182  1  0.70230930  0.89819146  0.09928675  1
  Ti  Ti183  1  0.90326651  0.30266720  0.30526558  1
  Ti  Ti184  1  0.80918014  -0.00126809  0.39715119  1
  Ti  Ti185  1  -0.00217445  0.18813779  0.58555788  1
  Ti  Ti186  1  0.09830205  0.90050731  0.30969904  1
  Ti  Ti187  1  0.39990527  0.19326086  0.00241122  1
  Ti  Ti188  1  0.70364562  0.70113536  0.49844011  1
  Ti  Ti189  1  0.10282002  0.91167052  0.50610376  1
  Ti  Ti190  1  0.40706225  0.40969933  0.20856265  1
  Ti  Ti191  1  0.10133451  0.90638366  0.69163195  1
  Ti  Ti192  1  0.30608510  0.69641261  0.10176045  1
  Ti  Ti193  1  0.39822273  0.60559482  0.59941255  1
  Ti  Ti194  1  0.49304131  0.50493005  0.10058394  1
  Ti  Ti195  1  0.90431961  0.10452444  0.69719621  1
  Ti  Ti196  1  -0.00414888  0.59321369  0.20118768  1
  Ti  Ti197  1  0.50954240  0.70700567  0.29992852  1
  Ti  Ti198  1  0.49596745  0.71069676  0.09926862  1
  Ti  Ti199  1  0.08223790  0.49479448  0.10576865  1
  Mo  Mo200  1  0.79775697  0.81902637  0.00368901  1
  Mo  Mo201  1  0.80823987  0.20441656  0.39890588  1
  Mo  Mo202  1  0.08671587  0.28779160  0.49897486  1
  Mo  Mo203  1  0.29328885  0.10604674  0.10048856  1
  Mo  Mo204  1  0.70286785  0.90793979  0.30199245  1
  Mo  Mo205  1  0.89661229  0.68679149  0.89911085  1
  Mo  Mo206  1  0.30403651  0.08410916  0.50052115  1
  Mo  Mo207  1  0.90234609  0.30259771  0.90074880  1
  Mo  Mo208  1  0.50188090  0.10147549  0.68868019  1
  Mo  Mo209  1  0.50063639  0.49575248  0.30017983  1
  Mo  Mo210  1  0.50478525  0.89180769  0.10689229  1
  Mo  Mo211  1  -0.00052110  0.00124757  0.60210625  1
  Mo  Mo212  1  0.21208770  0.39043821  0.59641873  1
  Mo  Mo213  1  0.09854460  0.10566556  0.88044638  1
  Mo  Mo214  1  0.09645877  0.30317750  0.10817976  1
  Mo  Mo215  1  0.19866819  0.19615911  0.77643870  1
  Mo  Mo216  1  0.71294517  0.50085066  0.90193753  1
  Mo  Mo217  1  0.89791029  0.90156219  0.32026204  1
  Mo  Mo218  1  0.19715430  -0.00342460  0.59686391  1
  Mo  Mo219  1  0.60491935  0.61213635  0.40166312  1
  Mo  Mo220  1  0.09050586  0.29903078  0.30463079  1
  Mo  Mo221  1  0.59803894  0.80492695  0.19751260  1
  Mo  Mo222  1  0.00746097  0.19605980  0.79158086  1
  Mo  Mo223  1  0.88984309  0.90464553  0.09055958  1
  Mo  Mo224  1  0.80686663  0.19655438  0.80710781  1
  Mo  Mo225  1  0.90453289  0.49715976  0.09481281  1
  Mo  Mo226  1  0.80761540  0.39982201  0.80759423  1
  Mo  Mo227  1  0.49942226  0.90513585  0.49138507  1
  Mo  Mo228  1  0.29548409  0.09175554  0.30210637  1
  Mo  Mo229  1  -0.00262327  0.40235821  0.20029071  1
  Mo  Mo230  1  0.49852036  0.89703809  0.70465113  1
  Mo  Mo231  1  0.40961731  0.79937447  0.00871233  1
  Mo  Mo232  1  0.09429389  0.09043789  0.49908951  1
  Mo  Mo233  1  0.70589529  0.29698625  0.48942439  1
  Mo  Mo234  1  0.70833458  0.29802000  0.10353172  1
  Mo  Mo235  1  0.29441087  0.70580267  0.68968356  1
  Mo  Mo236  1  0.09950578  0.71091107  0.49913124  1
  Mo  Mo237  1  0.40176697  0.60334913  0.01949557  1
  Mo  Mo238  1  0.70140437  0.90084589  0.90856110  1
  Mo  Mo239  1  0.00003961  0.01034471  -0.00270328  1
  Mo  Mo240  1  -0.01539101  0.38942186  0.59996614  1
  Mo  Mo241  1  0.38742890  0.39697364  0.79334347  1
  Mo  Mo242  1  0.09557886  0.69655312  0.89444818  1
  Mo  Mo243  1  0.09794403  0.49050674  0.70412461  1
  Mo  Mo244  1  0.49906457  0.10150232  0.90471078  1
  Mo  Mo245  1  0.30204519  0.89508938  0.30600486  1
  Mo  Mo246  1  0.90081052  0.10087009  0.49493259  1
  Mo  Mo247  1  -0.00526973  0.39099867  0.39963827  1
  Mo  Mo248  1  0.70187408  0.69885024  0.30774115  1
  Mo  Mo249  1  0.28984950  0.69774173  0.29729382  1
