# generated using pymatgen
data_HfZrTaTiMo
_symmetry_space_group_name_H-M   'P 1'
_cell_length_a   16.89782515
_cell_length_b   16.88908178
_cell_length_c   16.88880715
_cell_angle_alpha   90.02195234
_cell_angle_beta   89.98801350
_cell_angle_gamma   89.96071461
_symmetry_Int_Tables_number   1
_chemical_formula_structural   HfZrTaTiMo
_chemical_formula_sum   'Hf50 Zr50 Ta50 Ti50 Mo50'
_cell_volume   4819.87398367
_cell_formula_units_Z   50
loop_
 _symmetry_equiv_pos_site_id
 _symmetry_equiv_pos_as_xyz
  1  'x, y, z'
loop_
 _atom_site_type_symbol
 _atom_site_label
 _atom_site_symmetry_multiplicity
 _atom_site_fract_x
 _atom_site_fract_y
 _atom_site_fract_z
 _atom_site_occupancy
  Hf  Hf0  1  0.59505074  0.39579302  0.59701034  1
  Hf  Hf1  1  0.39463091  0.60428685  0.59867389  1
  Hf  Hf2  1  0.39945850  0.79824937  0.40160319  1
  Hf  Hf3  1  0.40342596  0.00568249  -0.00126734  1
  Hf  Hf4  1  0.01055808  0.79227956  0.19895905  1
  Hf  Hf5  1  0.19712768  0.80592685  0.80614934  1
  Hf  Hf6  1  0.69679973  0.49945982  0.70394316  1
  Hf  Hf7  1  0.18618528  -0.00779532  0.38539550  1
  Hf  Hf8  1  0.48937489  0.51125734  0.09600989  1
  Hf  Hf9  1  0.69883648  0.29040771  0.70189950  1
  Hf  Hf10  1  0.49446899  0.10381921  0.49849997  1
  Hf  Hf11  1  0.50842205  0.89219231  0.70046249  1
  Hf  Hf12  1  0.01150820  0.00682548  0.21678119  1
  Hf  Hf13  1  0.80370666  0.00681492  0.20902314  1
  Hf  Hf14  1  0.30595251  0.69351885  0.10372663  1
  Hf  Hf15  1  0.69973753  0.90304094  0.70342694  1
  Hf  Hf16  1  0.79749847  0.39776575  0.58986167  1
  Hf  Hf17  1  0.89800255  0.69529847  0.30284623  1
  Hf  Hf18  1  0.69785752  0.29600471  0.29204606  1
  Hf  Hf19  1  0.91114740  0.50445803  0.69746923  1
  Hf  Hf20  1  0.00952510  0.20188592  0.60466188  1
  Hf  Hf21  1  0.79391038  0.60638860  0.81144836  1
  Hf  Hf22  1  0.68884042  0.28479018  0.89849135  1
  Hf  Hf23  1  0.89796563  0.90312557  0.09667985  1
  Hf  Hf24  1  0.19751451  0.40507970  0.19571933  1
  Hf  Hf25  1  0.59971439  0.60666403  0.19828054  1
  Hf  Hf26  1  0.39195683  0.40223455  0.19741202  1
  Hf  Hf27  1  0.89951022  0.10221527  0.51058889  1
  Hf  Hf28  1  0.49294232  0.50396892  0.90139377  1
  Hf  Hf29  1  0.91872449  0.69341862  0.51040767  1
  Hf  Hf30  1  0.10423781  0.29458465  0.29742763  1
  Hf  Hf31  1  0.79956870  0.20027025  0.39973476  1
  Hf  Hf32  1  0.00518901  0.19625102  0.79955949  1
  Hf  Hf33  1  0.90392259  0.10786775  0.10155424  1
  Hf  Hf34  1  0.79422954  0.40268625  -0.00295352  1
  Hf  Hf35  1  0.38982050  0.80310568  0.79776975  1
  Hf  Hf36  1  0.29453856  0.29198228  0.10455498  1
  Hf  Hf37  1  0.39043420  0.81215513  -0.01119681  1
  Hf  Hf38  1  0.10107964  0.69327084  0.69789824  1
  Hf  Hf39  1  0.70475197  0.70599795  0.09806559  1
  Hf  Hf40  1  0.20141695  0.40188341  -0.00341531  1
  Hf  Hf41  1  0.00605134  -0.00195066  -0.00371552  1
  Hf  Hf42  1  0.90233855  0.89145080  0.30289557  1
  Hf  Hf43  1  0.50268790  0.90862756  0.10834285  1
  Hf  Hf44  1  0.28827900  0.10489361  0.29660491  1
  Hf  Hf45  1  0.20570220  -0.00637025  -0.01133253  1
  Hf  Hf46  1  0.90057908  0.29513082  0.28848573  1
  Hf  Hf47  1  0.01206299  0.80135271  -0.00770106  1
  Hf  Hf48  1  0.01418096  0.59988399  0.19861832  1
  Hf  Hf49  1  0.50967710  0.10634464  0.89227804  1
  Zr  Zr50  1  0.60147248  0.40584904  -0.00185061  1
  Zr  Zr51  1  0.39026398  0.59816958  0.79654768  1
  Zr  Zr52  1  0.89703793  0.29874858  0.69630472  1
  Zr  Zr53  1  0.59640886  0.60350556  0.59919989  1
  Zr  Zr54  1  0.49274981  0.70809306  0.10002294  1
  Zr  Zr55  1  0.50049288  0.90269191  0.29437947  1
  Zr  Zr56  1  0.70321664  0.50140477  0.29380293  1
  Zr  Zr57  1  0.19832794  0.40340645  0.80256623  1
  Zr  Zr58  1  0.30241011  0.10748223  0.69773147  1
  Zr  Zr59  1  0.58599235  0.20437029  0.60692353  1
  Zr  Zr60  1  0.30364048  0.10506156  0.88208984  1
  Zr  Zr61  1  0.40328045  0.19577280  0.00462668  1
  Zr  Zr62  1  0.00800686  0.57621791  0.40799723  1
  Zr  Zr63  1  0.48968162  0.50437308  0.29937601  1
  Zr  Zr64  1  0.69536775  0.10296904  0.50669011  1
  Zr  Zr65  1  0.89881827  0.90722458  0.70652592  1
  Zr  Zr66  1  0.90119308  0.29446133  0.10332624  1
  Zr  Zr67  1  0.90481643  0.28438089  0.91198639  1
  Zr  Zr68  1  0.19266222  0.19786878  -0.00405267  1
  Zr  Zr69  1  0.40232219  -0.00549567  0.59684402  1
  Zr  Zr70  1  0.80170862  -0.00266681  0.40370236  1
  Zr  Zr71  1  0.30149494  0.89887597  0.29437545  1
  Zr  Zr72  1  0.49865679  0.70374916  0.89742791  1
  Zr  Zr73  1  0.89267402  0.69641524  0.09571024  1
  Zr  Zr74  1  0.89366792  0.09189832  0.70145247  1
  Zr  Zr75  1  0.11058826  0.68738000  0.50872996  1
  Zr  Zr76  1  0.89626647  0.49539805  0.29050808  1
  Zr  Zr77  1  0.80646614  0.80570987  0.59158878  1
  Zr  Zr78  1  0.91197768  0.51053185  0.90860007  1
  Zr  Zr79  1  -0.00125142  -0.00265834  0.40282776  1
  Zr  Zr80  1  0.10462957  0.10582523  0.49547829  1
  Zr  Zr81  1  0.29828179  0.10692465  0.49435427  1
  Zr  Zr82  1  0.59329035  0.61001835  0.40236459  1
  Zr  Zr83  1  0.30170175  0.29134148  0.88529145  1
  Zr  Zr84  1  0.19226121  -0.00281604  0.60447091  1
  Zr  Zr85  1  0.80236286  0.59363806  0.41432194  1
  Zr  Zr86  1  0.48590851  0.49888742  0.49628120  1
  Zr  Zr87  1  0.69972847  0.90767345  0.10140274  1
  Zr  Zr88  1  0.40481148  0.19338192  0.19653557  1
  Zr  Zr89  1  0.00971465  0.39742569  0.80584455  1
  Zr  Zr90  1  0.60109896  0.39026916  0.40387420  1
  Zr  Zr91  1  0.90097383  0.50474825  0.09711652  1
  Zr  Zr92  1  0.30785006  0.90125787  0.11217505  1
  Zr  Zr93  1  0.70485758  0.71030093  0.30765448  1
  Zr  Zr94  1  0.90649098  0.70010494  0.70465155  1
  Zr  Zr95  1  0.69025205  0.71597663  0.70533624  1
  Zr  Zr96  1  0.79695636  0.40305070  0.81023278  1
  Zr  Zr97  1  0.11378344  0.90252146  0.10700693  1
  Zr  Zr98  1  0.11608471  0.68935089  0.31560460  1
  Zr  Zr99  1  0.79757843  0.59883771  0.59710096  1
  Ta  Ta100  1  0.42201098  0.21052266  0.77783431  1
  Ta  Ta101  1  0.29275055  0.49661523  0.69321691  1
  Ta  Ta102  1  0.50268924  0.30389414  0.09714144  1
  Ta  Ta103  1  0.60606645  -0.00150189  0.80476639  1
  Ta  Ta104  1  0.00687131  0.80186684  0.40824016  1
  Ta  Ta105  1  0.00984058  0.81331201  0.60417621  1
  Ta  Ta106  1  0.01564442  0.39086305  0.00040965  1
  Ta  Ta107  1  0.29354262  0.69697760  0.49390824  1
  Ta  Ta108  1  0.38586024  0.39736836  0.39924906  1
  Ta  Ta109  1  0.70083163  0.09626965  0.70379803  1
  Ta  Ta110  1  0.69729076  0.29398733  0.10274869  1
  Ta  Ta111  1  0.29574056  0.50685809  0.30388991  1
  Ta  Ta112  1  0.69071820  0.10066878  0.29736420  1
  Ta  Ta113  1  0.60633903  0.80675074  -0.01046146  1
  Ta  Ta114  1  0.10165577  0.50326875  0.09382892  1
  Ta  Ta115  1  0.80132843  0.80793887  0.81769344  1
  Ta  Ta116  1  0.19235561  -0.00293220  0.79673720  1
  Ta  Ta117  1  0.30081841  0.30214915  0.69332194  1
  Ta  Ta118  1  0.89715791  0.08990400  0.90256817  1
  Ta  Ta119  1  0.29323342  0.29736692  0.30459462  1
  Ta  Ta120  1  0.69320967  0.90097885  0.30569253  1
  Ta  Ta121  1  0.39396712  0.79739195  0.59894634  1
  Ta  Ta122  1  0.00126453  0.39519079  0.40247960  1
  Ta  Ta123  1  0.59179724  0.40004859  0.79897665  1
  Ta  Ta124  1  0.00537966  0.80639969  0.80814693  1
  Ta  Ta125  1  -0.00181903  0.19766561  0.39417259  1
  Ta  Ta126  1  0.20364567  0.59800042  -0.00221019  1
  Ta  Ta127  1  0.50179232  0.70668921  0.70057307  1
  Ta  Ta128  1  0.20360966  0.80255147  0.60271499  1
  Ta  Ta129  1  0.38990761  0.40326994  -0.00427311  1
  Ta  Ta130  1  0.39942695  0.40180638  0.79563592  1
  Ta  Ta131  1  0.90438489  0.29609786  0.50079344  1
  Ta  Ta132  1  0.49495367  0.29945101  0.30006577  1
  Ta  Ta133  1  0.09829685  0.10032665  0.89500311  1
  Ta  Ta134  1  0.60184132  0.60096398  0.80606910  1
  Ta  Ta135  1  0.50001182  0.29970469  0.89726615  1
  Ta  Ta136  1  0.30488696  0.68994277  0.30266425  1
  Ta  Ta137  1  0.60660803  0.60589049  -0.00630092  1
  Ta  Ta138  1  0.29650454  0.89486271  0.49470959  1
  Ta  Ta139  1  0.68310095  0.89430940  0.49474943  1
  Ta  Ta140  1  0.79803915  0.18919983  0.80406893  1
  Ta  Ta141  1  0.39999665  0.00093929  0.39680368  1
  Ta  Ta142  1  0.69953253  0.10070342  0.10307291  1
  Ta  Ta143  1  0.70247442  0.50766627  0.10118020  1
  Ta  Ta144  1  0.59406949  0.19849284  0.19693781  1
  Ta  Ta145  1  0.80399029  0.39537643  0.40654257  1
  Ta  Ta146  1  0.20141831  0.78968794  0.20607849  1
  Ta  Ta147  1  0.19766868  0.20888893  0.60207740  1
  Ta  Ta148  1  0.48166620  0.29702953  0.49848980  1
  Ta  Ta149  1  0.79883111  0.80411923  0.20323876  1
  Ti  Ti150  1  0.70274503  0.09425071  0.90067410  1
  Ti  Ti151  1  0.50247701  0.89563577  0.49748841  1
  Ti  Ti152  1  0.59473811  0.00155744  0.39911960  1
  Ti  Ti153  1  0.59668123  0.20486937  0.40025889  1
  Ti  Ti154  1  0.19769004  0.79528064  -0.00605096  1
  Ti  Ti155  1  0.00889344  -0.00804815  0.80452310  1
  Ti  Ti156  1  0.59676752  0.19450224  0.00856924  1
  Ti  Ti157  1  0.78835913  0.60196731  -0.00993269  1
  Ti  Ti158  1  0.28969717  0.09002834  0.11168141  1
  Ti  Ti159  1  0.10323690  0.30112150  0.49449142  1
  Ti  Ti160  1  0.29548848  0.29957394  0.49920718  1
  Ti  Ti161  1  0.79591018  -0.00790756  0.59040274  1
  Ti  Ti162  1  0.00994182  0.40425525  0.19789443  1
  Ti  Ti163  1  0.29148748  0.50503132  0.49875948  1
  Ti  Ti164  1  0.80759525  0.80509109  0.41084944  1
  Ti  Ti165  1  0.10471489  0.10448423  0.10830359  1
  Ti  Ti166  1  0.90347441  0.70312176  0.90309202  1
  Ti  Ti167  1  0.60209387  0.80028757  0.20407431  1
  Ti  Ti168  1  0.59832592  -0.00156692  0.59952206  1
  Ti  Ti169  1  0.59585310  0.39994556  0.19506708  1
  Ti  Ti170  1  0.68875603  0.71556502  0.49958838  1
  Ti  Ti171  1  0.50460152  0.09176472  0.70229673  1
  Ti  Ti172  1  0.01040805  0.60451831  0.80644547  1
  Ti  Ti173  1  0.20094205  0.59344673  0.19506050  1
  Ti  Ti174  1  0.79375301  0.39971145  0.19224250  1
  Ti  Ti175  1  0.10795010  0.30332274  0.70123297  1
  Ti  Ti176  1  0.00935974  0.40610413  0.59199355  1
  Ti  Ti177  1  0.10120385  0.50719516  0.90323354  1
  Ti  Ti178  1  0.19461871  0.40375172  0.59705604  1
  Ti  Ti179  1  0.50135638  0.09777751  0.29713049  1
  Ti  Ti180  1  0.79910818  0.81106410  -0.00969287  1
  Ti  Ti181  1  0.39344743  0.39791698  0.60037485  1
  Ti  Ti182  1  0.39757154  0.20293284  0.39506254  1
  Ti  Ti183  1  0.50709550  0.90177893  0.89422262  1
  Ti  Ti184  1  0.49571438  0.50134148  0.69996182  1
  Ti  Ti185  1  0.40043566  -0.00590263  0.80053521  1
  Ti  Ti186  1  0.60430040  0.00112488  -0.00321520  1
  Ti  Ti187  1  0.00950766  -0.00582077  0.60450158  1
  Ti  Ti188  1  0.48871972  0.70114416  0.29609663  1
  Ti  Ti189  1  0.19384037  0.40777530  0.39965443  1
  Ti  Ti190  1  0.29674560  0.69273048  0.90286509  1
  Ti  Ti191  1  0.49820723  0.70851853  0.50301152  1
  Ti  Ti192  1  0.29822809  0.90247873  0.69734215  1
  Ti  Ti193  1  0.19852723  0.59538177  0.80274369  1
  Ti  Ti194  1  0.10742850  0.89159082  0.49872062  1
  Ti  Ti195  1  0.29008569  0.69564552  0.69364778  1
  Ti  Ti196  1  0.79304327  0.19125115  0.00127175  1
  Ti  Ti197  1  0.01962792  0.61561374  0.00069968  1
  Ti  Ti198  1  0.69383566  0.49687346  0.49722002  1
  Ti  Ti199  1  0.09320344  0.28831816  0.10308792  1
  Mo  Mo200  1  0.79338849  0.00050528  0.81223606  1
  Mo  Mo201  1  0.20550864  0.58780181  0.40409163  1
  Mo  Mo202  1  0.19592517  0.19866590  0.19868139  1
  Mo  Mo203  1  0.09844886  0.89908234  0.70094868  1
  Mo  Mo204  1  0.80032145  0.20047694  0.60171989  1
  Mo  Mo205  1  0.49635078  0.31616637  0.69656654  1
  Mo  Mo206  1  0.10302317  0.88124045  0.30355388  1
  Mo  Mo207  1  0.20293330  0.79804842  0.40338567  1
  Mo  Mo208  1  0.09988411  0.11478906  0.29579795  1
  Mo  Mo209  1  0.70184884  0.90758988  0.90295502  1
  Mo  Mo210  1  0.10285211  0.90173579  0.89781861  1
  Mo  Mo211  1  0.29675232  0.50332197  0.09667607  1
  Mo  Mo212  1  0.29951668  0.50262911  0.89698794  1
  Mo  Mo213  1  0.10058994  0.09636925  0.70412001  1
  Mo  Mo214  1  0.01182256  0.58228440  0.60528228  1
  Mo  Mo215  1  0.39409822  0.20898909  0.59859879  1
  Mo  Mo216  1  0.18659993  0.19800834  0.78683705  1
  Mo  Mo217  1  0.79793030  0.60632447  0.19137738  1
  Mo  Mo218  1  0.60255978  0.80329890  0.80716362  1
  Mo  Mo219  1  0.20506420  0.59375897  0.60220429  1
  Mo  Mo220  1  0.51449233  0.09818234  0.09741755  1
  Mo  Mo221  1  0.91122878  0.90044526  0.50381478  1
  Mo  Mo222  1  0.90052549  0.90350690  0.90074375  1
  Mo  Mo223  1  0.39483596  0.59763339  0.20437808  1
  Mo  Mo224  1  0.79930047  0.00611594  -0.00093033  1
  Mo  Mo225  1  0.19539611  0.00238856  0.20074101  1
  Mo  Mo226  1  0.39440667  0.60288725  0.40407183  1
  Mo  Mo227  1  0.59078605  0.80254168  0.40009547  1
  Mo  Mo228  1  0.00621446  0.19253017  0.00045709  1
  Mo  Mo229  1  0.11551594  0.69680636  0.09540912  1
  Mo  Mo230  1  0.79014932  0.19646165  0.19985130  1
  Mo  Mo231  1  0.10430602  0.50267624  0.69678648  1
  Mo  Mo232  1  0.70010521  0.70821048  0.90402859  1
  Mo  Mo233  1  0.10722529  0.48700750  0.50336331  1
  Mo  Mo234  1  0.70554421  0.29639075  0.49733071  1
  Mo  Mo235  1  0.10555737  0.69615899  0.89710372  1
  Mo  Mo236  1  0.10032805  0.29112996  0.90273373  1
  Mo  Mo237  1  0.60302889  0.00826770  0.20585628  1
  Mo  Mo238  1  0.40607629  0.01495071  0.20185354  1
  Mo  Mo239  1  0.00378089  0.19519535  0.20156904  1
  Mo  Mo240  1  0.10588894  0.49027143  0.29519086  1
  Mo  Mo241  1  0.90866667  0.48588755  0.50347671  1
  Mo  Mo242  1  0.89943025  0.10809517  0.29946216  1
  Mo  Mo243  1  0.58977160  0.80276493  0.59370670  1
  Mo  Mo244  1  0.60062683  0.19397242  0.79857334  1
  Mo  Mo245  1  0.69084512  0.50557990  0.90114427  1
  Mo  Mo246  1  0.30195525  0.90723692  0.89220123  1
  Mo  Mo247  1  0.38938149  0.59475420  -0.00363014  1
  Mo  Mo248  1  0.19886346  0.21291966  0.40444357  1
  Mo  Mo249  1  0.39921873  0.78936907  0.20583587  1
