# generated using pymatgen
data_HfZrTaTiMo
_symmetry_space_group_name_H-M   'P 1'
_cell_length_a   16.88328884
_cell_length_b   16.87964294
_cell_length_c   16.89560108
_cell_angle_alpha   89.99088943
_cell_angle_beta   90.01039890
_cell_angle_gamma   89.99078631
_symmetry_Int_Tables_number   1
_chemical_formula_structural   HfZrTaTiMo
_chemical_formula_sum   'Hf50 Zr50 Ta50 Ti50 Mo50'
_cell_volume   4814.97387263
_cell_formula_units_Z   50
loop_
 _symmetry_equiv_pos_site_id
 _symmetry_equiv_pos_as_xyz
  1  'x, y, z'
loop_
 _atom_site_type_symbol
 _atom_site_label
 _atom_site_symmetry_multiplicity
 _atom_site_fract_x
 _atom_site_fract_y
 _atom_site_fract_z
 _atom_site_occupancy
  Hf  Hf0  1  0.59869694  0.20303553  0.38960846  1
  Hf  Hf1  1  -0.00715051  0.60575626  0.39013482  1
  Hf  Hf2  1  0.20262458  0.40245919  0.20319038  1
  Hf  Hf3  1  0.10013575  0.29752683  0.69897034  1
  Hf  Hf4  1  0.20224562  0.19691834  0.59708672  1
  Hf  Hf5  1  0.20741660  0.00126294  0.20304475  1
  Hf  Hf6  1  0.89700580  0.89484634  0.70231551  1
  Hf  Hf7  1  0.70812720  0.29560925  0.90664522  1
  Hf  Hf8  1  0.29890706  0.90242810  0.90334469  1
  Hf  Hf9  1  0.00144985  0.40138921  0.81123506  1
  Hf  Hf10  1  0.59878425  0.60466799  0.00156852  1
  Hf  Hf11  1  0.20407581  0.39996314  0.80483889  1
  Hf  Hf12  1  0.69420311  0.70040247  0.29388697  1
  Hf  Hf13  1  0.09447943  0.70086780  0.29757321  1
  Hf  Hf14  1  0.39860309  0.40263070  0.38959446  1
  Hf  Hf15  1  0.89579270  0.28947136  0.70518667  1
  Hf  Hf16  1  0.30358918  0.29904846  0.49444659  1
  Hf  Hf17  1  0.10163919  0.69779878  0.50102294  1
  Hf  Hf18  1  0.50133668  0.30186264  0.49258895  1
  Hf  Hf19  1  0.59629576  0.40033409  0.79983886  1
  Hf  Hf20  1  0.90460450  0.49810194  0.28768200  1
  Hf  Hf21  1  0.00228643  0.20594102  0.00288587  1
  Hf  Hf22  1  0.90424128  0.29948120  0.48533772  1
  Hf  Hf23  1  -0.01546592  0.01403217  0.59652857  1
  Hf  Hf24  1  -0.00355554  0.40184394  0.60035922  1
  Hf  Hf25  1  0.60278460  0.19712419  0.20127885  1
  Hf  Hf26  1  0.39929491  0.79375308  0.79894446  1
  Hf  Hf27  1  0.10101495  0.90560754  0.90215501  1
  Hf  Hf28  1  0.29461402  0.50886596  0.49477558  1
  Hf  Hf29  1  -0.00198956  0.19901375  0.80764049  1
  Hf  Hf30  1  0.70541791  0.50755993  0.70111047  1
  Hf  Hf31  1  0.30193027  0.89418497  0.50068093  1
  Hf  Hf32  1  0.19718420  0.20040241  0.39032909  1
  Hf  Hf33  1  0.39799949  0.59158156  0.19422156  1
  Hf  Hf34  1  0.30285102  0.69513655  0.31088879  1
  Hf  Hf35  1  0.70113863  0.29879614  0.70005590  1
  Hf  Hf36  1  0.40304458  0.80397015  0.60742172  1
  Hf  Hf37  1  0.69332193  0.09881216  0.49179695  1
  Hf  Hf38  1  0.89531808  0.70766049  0.49214790  1
  Hf  Hf39  1  0.10000792  0.10019146  0.10151820  1
  Hf  Hf40  1  0.89971855  0.49816738  0.10062045  1
  Hf  Hf41  1  0.20296119  0.39942625  0.59752053  1
  Hf  Hf42  1  0.60387470  -0.00330732  0.60929231  1
  Hf  Hf43  1  0.11049300  0.09357935  0.90576980  1
  Hf  Hf44  1  0.59963766  0.60574617  0.80972199  1
  Hf  Hf45  1  0.10293384  0.50715876  0.49453349  1
  Hf  Hf46  1  -0.01206688  0.60319809  0.80926782  1
  Hf  Hf47  1  -0.00280019  0.00357953  0.39815477  1
  Hf  Hf48  1  0.90161882  0.89847930  0.29348914  1
  Hf  Hf49  1  0.10227737  0.50855332  0.69833208  1
  Zr  Zr50  1  0.90197178  0.09906860  0.28135652  1
  Zr  Zr51  1  0.69555859  0.70003166  0.49583802  1
  Zr  Zr52  1  0.88796157  0.10675123  0.90528509  1
  Zr  Zr53  1  0.80066945  -0.00000608  0.59955466  1
  Zr  Zr54  1  0.20079452  0.79386362  0.00885451  1
  Zr  Zr55  1  0.79750697  0.19868861  0.38549601  1
  Zr  Zr56  1  0.89557885  0.90734799  0.10473937  1
  Zr  Zr57  1  0.09390176  0.89465577  0.50360852  1
  Zr  Zr58  1  0.19790364  0.40256821  0.00910831  1
  Zr  Zr59  1  0.89700180  0.30337080  0.10186915  1
  Zr  Zr60  1  0.30551753  0.88410022  0.30773833  1
  Zr  Zr61  1  0.89720282  0.50170334  0.48970280  1
  Zr  Zr62  1  0.40021064  0.19277728  0.00767420  1
  Zr  Zr63  1  -0.00170399  0.61089764  0.00893714  1
  Zr  Zr64  1  0.40109086  -0.00651687  0.79394240  1
  Zr  Zr65  1  0.10025800  0.09653178  0.70269709  1
  Zr  Zr66  1  0.09570717  0.90020699  0.69884839  1
  Zr  Zr67  1  0.50318113  0.70758384  0.49029142  1
  Zr  Zr68  1  0.80768884  0.40588890  0.80495502  1
  Zr  Zr69  1  0.50532964  0.10077925  0.70385480  1
  Zr  Zr70  1  0.41059050  -0.00596900  0.39440792  1
  Zr  Zr71  1  0.29470969  0.09896833  0.90352565  1
  Zr  Zr72  1  0.19882327  0.00343001  0.39603570  1
  Zr  Zr73  1  0.09696119  0.70003091  0.69409869  1
  Zr  Zr74  1  0.60192606  0.79854543  0.80842113  1
  Zr  Zr75  1  0.40253743  0.60202020  0.60603984  1
  Zr  Zr76  1  0.10252550  0.70338988  0.90135515  1
  Zr  Zr77  1  0.70192976  0.30375616  0.09262089  1
  Zr  Zr78  1  0.59753783  0.59544652  0.59940454  1
  Zr  Zr79  1  0.78689316  -0.00701704  -0.00048325  1
  Zr  Zr80  1  0.70603311  0.11183724  0.71403431  1
  Zr  Zr81  1  0.40221386  0.79860317  0.00811068  1
  Zr  Zr82  1  0.29298951  0.69883317  0.49655899  1
  Zr  Zr83  1  0.60311447  -0.00480175  0.01158140  1
  Zr  Zr84  1  0.80018751  0.40335497  0.59464343  1
  Zr  Zr85  1  0.39602974  -0.00263831  0.19623967  1
  Zr  Zr86  1  0.51176311  0.30026043  0.91685873  1
  Zr  Zr87  1  0.60476332  0.58715223  0.19268806  1
  Zr  Zr88  1  0.20241597  0.59799251  0.19341858  1
  Zr  Zr89  1  0.40426956  0.20619446  0.80028528  1
  Zr  Zr90  1  0.69330955  0.89538600  0.49771418  1
  Zr  Zr91  1  0.81230058  0.18835088  0.58903172  1
  Zr  Zr92  1  0.79179803  -0.00877566  0.80596473  1
  Zr  Zr93  1  0.40335053  0.39897763  0.19786538  1
  Zr  Zr94  1  0.40034608  0.39939718  0.80278699  1
  Zr  Zr95  1  0.20378350  0.79644502  0.19021828  1
  Zr  Zr96  1  0.39463689  0.40349837  0.01022403  1
  Zr  Zr97  1  0.79718262  0.79705663  0.82108373  1
  Zr  Zr98  1  0.30930619  0.09828000  0.49933507  1
  Zr  Zr99  1  0.21083189  0.60570929  0.80192889  1
  Ta  Ta100  1  0.89641247  0.10166292  0.10313262  1
  Ta  Ta101  1  0.40956638  0.20415575  0.60110012  1
  Ta  Ta102  1  0.21001436  0.80223852  0.79309485  1
  Ta  Ta103  1  0.40691006  0.40049316  0.60257476  1
  Ta  Ta104  1  0.79639273  0.80337814  0.38786249  1
  Ta  Ta105  1  0.59669232  0.20633677  0.59784326  1
  Ta  Ta106  1  0.49964470  0.50270083  0.90587971  1
  Ta  Ta107  1  0.09573711  0.10578089  0.28827534  1
  Ta  Ta108  1  0.79846869  0.60992470  -0.00139212  1
  Ta  Ta109  1  0.89012916  0.69752342  0.70342675  1
  Ta  Ta110  1  0.70228629  0.70586476  0.09897394  1
  Ta  Ta111  1  0.79403088  0.80062027  0.60346333  1
  Ta  Ta112  1  0.40232199  0.60052147  0.00556262  1
  Ta  Ta113  1  0.09476230  0.10673799  0.49552107  1
  Ta  Ta114  1  0.59689507  0.81185544  0.38126745  1
  Ta  Ta115  1  0.40318816  -0.00322445  0.00996088  1
  Ta  Ta116  1  0.20702042  0.60089705  0.01215482  1
  Ta  Ta117  1  0.19810170  0.40026843  0.38766991  1
  Ta  Ta118  1  0.30267876  0.50362616  0.69758920  1
  Ta  Ta119  1  -0.00818600  0.79992036  0.80934080  1
  Ta  Ta120  1  0.50467286  0.09819037  0.49695603  1
  Ta  Ta121  1  0.50496481  0.49990700  0.29972886  1
  Ta  Ta122  1  0.89584888  0.89461353  0.49228020  1
  Ta  Ta123  1  0.50296590  0.09768816  0.10605588  1
  Ta  Ta124  1  0.50750439  0.09306144  0.90454306  1
  Ta  Ta125  1  0.40559749  0.60592147  0.80676924  1
  Ta  Ta126  1  0.50010313  0.09837151  0.29372753  1
  Ta  Ta127  1  0.09575867  0.29849453  0.49281758  1
  Ta  Ta128  1  0.49949052  0.70396572  0.29522151  1
  Ta  Ta129  1  0.29130473  0.28326497  0.10701550  1
  Ta  Ta130  1  0.59528158  0.40038997  0.59850329  1
  Ta  Ta131  1  0.70566936  0.69935368  0.70161245  1
  Ta  Ta132  1  0.79622465  -0.00058156  0.39176518  1
  Ta  Ta133  1  0.30236353  0.29111545  0.29206882  1
  Ta  Ta134  1  0.79501729  0.40109154  0.38684513  1
  Ta  Ta135  1  0.50137122  0.90121420  0.90542641  1
  Ta  Ta136  1  0.10136024  0.50338067  0.90868006  1
  Ta  Ta137  1  -0.00879387  0.78750450  0.19122920  1
  Ta  Ta138  1  0.60380226  0.79921177  -0.00046547  1
  Ta  Ta139  1  0.50557650  0.70383685  0.10701225  1
  Ta  Ta140  1  0.79555558  0.80022097  0.19849435  1
  Ta  Ta141  1  0.08845747  0.89765188  0.29189632  1
  Ta  Ta142  1  0.70475505  0.50089503  0.90759136  1
  Ta  Ta143  1  0.30493764  0.30041228  0.69660759  1
  Ta  Ta144  1  0.78536790  0.41104170  0.20000666  1
  Ta  Ta145  1  0.69763636  0.30614474  0.49521480  1
  Ta  Ta146  1  -0.01284415  0.80035262  0.00032102  1
  Ta  Ta147  1  0.09141232  0.90138716  0.10232649  1
  Ta  Ta148  1  0.90605322  0.30552392  0.28424806  1
  Ta  Ta149  1  0.69679593  0.49746958  0.48982676  1
  Ti  Ti150  1  0.40247405  0.79824543  0.19860781  1
  Ti  Ti151  1  0.50885854  0.70290657  0.69847906  1
  Ti  Ti152  1  0.59747285  0.20327923  0.80519740  1
  Ti  Ti153  1  0.18739484  0.80200887  0.39757457  1
  Ti  Ti154  1  0.80201713  0.60462326  0.19589720  1
  Ti  Ti155  1  0.30370350  0.69810528  0.90627389  1
  Ti  Ti156  1  -0.01045941  0.60250740  0.59935597  1
  Ti  Ti157  1  0.50178343  0.29463725  0.10539341  1
  Ti  Ti158  1  0.30528151  0.10186638  0.69651404  1
  Ti  Ti159  1  0.10075680  0.29251687  0.11602422  1
  Ti  Ti160  1  -0.00718813  -0.00156421  -0.00071749  1
  Ti  Ti161  1  0.59999501  0.59427939  0.39267531  1
  Ti  Ti162  1  0.60325541  -0.00311978  0.37975702  1
  Ti  Ti163  1  0.49688792  0.49973244  0.70511775  1
  Ti  Ti164  1  0.09685226  0.50358317  0.29427652  1
  Ti  Ti165  1  0.77387202  0.00042917  0.19966428  1
  Ti  Ti166  1  -0.01122476  0.79722017  0.60112895  1
  Ti  Ti167  1  0.00851599  0.39528219  0.38638146  1
  Ti  Ti168  1  0.50464810  0.49716143  0.49340889  1
  Ti  Ti169  1  0.59890718  0.40341382  0.19912841  1
  Ti  Ti170  1  0.30225911  0.50543762  0.90420114  1
  Ti  Ti171  1  0.78969631  0.19794734  0.19606809  1
  Ti  Ti172  1  0.40611386  0.19796885  0.38734961  1
  Ti  Ti173  1  0.80052008  0.60385067  0.59439019  1
  Ti  Ti174  1  0.20452589  0.20100447  0.79958439  1
  Ti  Ti175  1  0.11133507  0.29625334  0.90759439  1
  Ti  Ti176  1  0.29359925  0.29253167  0.90920093  1
  Ti  Ti177  1  0.60032057  0.41614539  0.01482207  1
  Ti  Ti178  1  0.88811870  0.30202885  0.91354640  1
  Ti  Ti179  1  0.60913799  0.18519733  0.00569500  1
  Ti  Ti180  1  0.50975246  0.89653522  0.70285148  1
  Ti  Ti181  1  0.89570330  0.50199749  0.91144689  1
  Ti  Ti182  1  0.79528990  0.59790653  0.38580615  1
  Ti  Ti183  1  -0.00518146  0.19320747  0.59495421  1
  Ti  Ti184  1  0.20946668  -0.00782965  0.78547754  1
  Ti  Ti185  1  0.89473919  0.50948705  0.70200744  1
  Ti  Ti186  1  0.61023247  -0.00796921  0.81069311  1
  Ti  Ti187  1  0.08932823  0.50224583  0.10679219  1
  Ti  Ti188  1  0.21479199  -0.00343583  0.02028621  1
  Ti  Ti189  1  0.40688452  0.59357878  0.39326301  1
  Ti  Ti190  1  0.00542137  0.39826192  0.00038382  1
  Ti  Ti191  1  -0.01161562  -0.00008806  0.80488917  1
  Ti  Ti192  1  0.50659717  0.89895898  0.49921202  1
  Ti  Ti193  1  0.00215856  0.20100452  0.38909967  1
  Ti  Ti194  1  0.69942982  0.30682566  0.29509708  1
  Ti  Ti195  1  0.20213484  0.00090408  0.59984024  1
  Ti  Ti196  1  0.50929306  0.89485036  0.11139052  1
  Ti  Ti197  1  0.60232301  0.40225554  0.39007641  1
  Ti  Ti198  1  0.40603501  -0.00271592  0.60256296  1
  Ti  Ti199  1  0.20993939  0.79815975  0.61312229  1
  Mo  Mo200  1  0.40401023  0.19684275  0.20252909  1
  Mo  Mo201  1  0.69671703  0.88944222  0.70215170  1
  Mo  Mo202  1  0.50284485  0.30259694  0.29610889  1
  Mo  Mo203  1  0.09740494  0.30058379  0.29869271  1
  Mo  Mo204  1  0.90674665  0.90025712  0.90651675  1
  Mo  Mo205  1  0.89002959  0.70224069  0.10255787  1
  Mo  Mo206  1  0.69506565  0.09358940  0.29514675  1
  Mo  Mo207  1  0.59806114  -0.00247693  0.20242351  1
  Mo  Mo208  1  0.70222323  0.69712558  0.90718100  1
  Mo  Mo209  1  0.70203595  0.10233818  0.10403735  1
  Mo  Mo210  1  0.60188020  0.80308092  0.61230999  1
  Mo  Mo211  1  0.69229408  0.89444183  0.90902834  1
  Mo  Mo212  1  0.20140840  0.19720240  0.20205920  1
  Mo  Mo213  1  0.29948720  0.49937500  0.09673470  1
  Mo  Mo214  1  0.70077556  0.90082866  0.29429558  1
  Mo  Mo215  1  0.41495626  0.79861265  0.40062580  1
  Mo  Mo216  1  0.68931298  0.10430008  0.90313154  1
  Mo  Mo217  1  0.89551372  0.70221780  0.90586200  1
  Mo  Mo218  1  -0.00074689  0.60158833  0.19755308  1
  Mo  Mo219  1  0.50298543  0.50088387  0.09944158  1
  Mo  Mo220  1  0.79884476  0.20298974  0.81064809  1
  Mo  Mo221  1  0.90315386  0.09966555  0.71562940  1
  Mo  Mo222  1  0.69691071  0.89028332  0.10554446  1
  Mo  Mo223  1  0.90234929  0.09968150  0.47869925  1
  Mo  Mo224  1  0.50386409  0.89799733  0.29028160  1
  Mo  Mo225  1  0.79761879  0.79784074  0.00734832  1
  Mo  Mo226  1  0.20389155  0.60063725  0.60139559  1
  Mo  Mo227  1  0.70478314  0.50487262  0.09767202  1
  Mo  Mo228  1  0.19756416  0.20172659  0.00547499  1
  Mo  Mo229  1  0.29923133  0.90090421  0.69501187  1
  Mo  Mo230  1  0.30135999  0.09975068  0.10234763  1
  Mo  Mo231  1  0.89078712  0.70017865  0.29446704  1
  Mo  Mo232  1  0.29976377  0.49878405  0.30418807  1
  Mo  Mo233  1  0.19195848  0.59458281  0.39296888  1
  Mo  Mo234  1  0.79971964  0.41336115  0.00276759  1
  Mo  Mo235  1  0.50280430  0.30265440  0.69248382  1
  Mo  Mo236  1  0.49643404  0.69911203  0.90857206  1
  Mo  Mo237  1  0.30413055  0.69870457  0.70205564  1
  Mo  Mo238  1  0.01075286  0.39944490  0.19814647  1
  Mo  Mo239  1  0.70033836  0.50098925  0.30038910  1
  Mo  Mo240  1  0.30273719  0.89875601  0.10185533  1
  Mo  Mo241  1  0.30589440  0.11263648  0.29370732  1
  Mo  Mo242  1  0.08919143  0.70215403  0.10183919  1
  Mo  Mo243  1  0.00825686  -0.00088403  0.19524555  1
  Mo  Mo244  1  0.00114919  0.20274001  0.19673245  1
  Mo  Mo245  1  0.79925432  0.60199662  0.80830747  1
  Mo  Mo246  1  0.31246490  0.69660527  0.10167884  1
  Mo  Mo247  1  -0.00720214  0.80262112  0.39224561  1
  Mo  Mo248  1  0.79797584  0.19256242  0.00752162  1
  Mo  Mo249  1  0.60023520  0.80065233  0.19598236  1
