# generated using pymatgen
data_HfZrTaTiMo
_symmetry_space_group_name_H-M   'P 1'
_cell_length_a   16.88816375
_cell_length_b   16.88432391
_cell_length_c   16.88660837
_cell_angle_alpha   90.03034099
_cell_angle_beta   89.98865832
_cell_angle_gamma   90.00419024
_symmetry_Int_Tables_number   1
_chemical_formula_structural   HfZrTaTiMo
_chemical_formula_sum   'Hf50 Zr50 Ta50 Ti50 Mo50'
_cell_volume   4815.13499408
_cell_formula_units_Z   50
loop_
 _symmetry_equiv_pos_site_id
 _symmetry_equiv_pos_as_xyz
  1  'x, y, z'
loop_
 _atom_site_type_symbol
 _atom_site_label
 _atom_site_symmetry_multiplicity
 _atom_site_fract_x
 _atom_site_fract_y
 _atom_site_fract_z
 _atom_site_occupancy
  Hf  Hf0  1  0.40557312  0.80662515  0.60743674  1
  Hf  Hf1  1  0.40259600  0.59406809  0.60073637  1
  Hf  Hf2  1  0.60819848  0.60113046  0.00293858  1
  Hf  Hf3  1  0.50633155  0.90675321  0.30027974  1
  Hf  Hf4  1  0.40659529  0.40001440  0.79334166  1
  Hf  Hf5  1  -0.00108463  0.81213202  0.40803524  1
  Hf  Hf6  1  0.29975942  0.49623514  0.10290769  1
  Hf  Hf7  1  0.40979932  0.59719817  0.20162833  1
  Hf  Hf8  1  0.09611057  0.68713360  0.70435560  1
  Hf  Hf9  1  0.30552183  0.11059283  0.90582573  1
  Hf  Hf10  1  -0.00965626  0.39542011  0.59857729  1
  Hf  Hf11  1  0.29720702  0.30048440  0.89656211  1
  Hf  Hf12  1  0.10379391  0.09193136  0.49945321  1
  Hf  Hf13  1  0.10112478  0.29530954  0.30218375  1
  Hf  Hf14  1  -0.00091792  0.58774054  0.19796771  1
  Hf  Hf15  1  0.89414230  0.29823409  0.30334064  1
  Hf  Hf16  1  0.40383175  0.20004458  0.59272198  1
  Hf  Hf17  1  0.60162035  0.20739292  0.00007433  1
  Hf  Hf18  1  0.79254827  0.21244893  -0.00340118  1
  Hf  Hf19  1  0.61325106  0.39989408  0.00908463  1
  Hf  Hf20  1  0.79800075  0.59854425  0.60012212  1
  Hf  Hf21  1  0.29431680  0.70358253  0.10162775  1
  Hf  Hf22  1  0.10642818  0.10345761  0.09756591  1
  Hf  Hf23  1  0.79202174  0.39749993  0.18780258  1
  Hf  Hf24  1  0.89792008  0.69515556  0.09938448  1
  Hf  Hf25  1  0.40135699  0.60350415  -0.00032713  1
  Hf  Hf26  1  0.50722127  0.70457066  0.90170098  1
  Hf  Hf27  1  0.70467696  0.49187957  0.70384506  1
  Hf  Hf28  1  0.30244851  0.91824407  0.29735821  1
  Hf  Hf29  1  0.60331324  0.59203393  0.19708949  1
  Hf  Hf30  1  0.69795384  0.10059858  0.89135561  1
  Hf  Hf31  1  0.18455340  0.39617479  0.00222847  1
  Hf  Hf32  1  0.60445681  0.58698402  0.40429662  1
  Hf  Hf33  1  0.09335282  0.68842931  0.50077262  1
  Hf  Hf34  1  0.50733051  0.89442872  0.90099166  1
  Hf  Hf35  1  0.10633231  0.90421101  0.09574200  1
  Hf  Hf36  1  0.20167815  0.79151282  0.59938042  1
  Hf  Hf37  1  0.49781204  0.29971833  0.90150709  1
  Hf  Hf38  1  0.29490598  0.90630232  0.70459877  1
  Hf  Hf39  1  0.09880811  0.10187907  0.68893632  1
  Hf  Hf40  1  -0.00310460  0.80894149  -0.00424694  1
  Hf  Hf41  1  0.69632676  0.10573062  0.69374294  1
  Hf  Hf42  1  0.80331842  0.80625233  0.40837006  1
  Hf  Hf43  1  0.70185547  0.69954189  0.30411480  1
  Hf  Hf44  1  0.41289340  0.00095354  0.60233809  1
  Hf  Hf45  1  0.79720566  -0.00171094  0.79288977  1
  Hf  Hf46  1  0.49537096  0.10575378  0.30019249  1
  Hf  Hf47  1  0.80021252  0.79275086  0.60589104  1
  Hf  Hf48  1  0.39632895  -0.00118019  0.00558766  1
  Hf  Hf49  1  0.70667902  0.10365468  0.10558240  1
  Zr  Zr50  1  0.59697501  0.00675204  -0.00107068  1
  Zr  Zr51  1  0.40673923  -0.00114076  0.79914846  1
  Zr  Zr52  1  0.31041674  0.68919069  0.49023885  1
  Zr  Zr53  1  0.90110806  0.68772643  0.89733657  1
  Zr  Zr54  1  0.79507193  -0.00649980  0.59199950  1
  Zr  Zr55  1  0.19268897  0.58607773  0.20132485  1
  Zr  Zr56  1  0.40534215  0.81660914  0.40768847  1
  Zr  Zr57  1  0.10065225  0.90508383  0.68923992  1
  Zr  Zr58  1  0.89368097  0.69007230  0.30419578  1
  Zr  Zr59  1  0.60239447  0.79650453  0.19860715  1
  Zr  Zr60  1  0.19383788  0.80726678  0.40114483  1
  Zr  Zr61  1  0.41001473  0.01475799  0.41654819  1
  Zr  Zr62  1  0.39734325  0.80583381  0.19606667  1
  Zr  Zr63  1  0.00035513  0.40138008  0.18946488  1
  Zr  Zr64  1  0.29632808  0.10648417  0.69822885  1
  Zr  Zr65  1  0.08678660  0.49884529  0.89511130  1
  Zr  Zr66  1  0.69680371  0.90289257  0.09841975  1
  Zr  Zr67  1  0.60687551  0.59833672  0.60198135  1
  Zr  Zr68  1  0.90008040  0.49578993  0.49505238  1
  Zr  Zr69  1  -0.00622308  -0.00061853  0.20538132  1
  Zr  Zr70  1  0.11118434  0.30861927  0.69679973  1
  Zr  Zr71  1  0.80523018  0.19883090  0.59393234  1
  Zr  Zr72  1  -0.01116978  0.19613625  0.19922707  1
  Zr  Zr73  1  0.28866061  0.50209250  0.89241258  1
  Zr  Zr74  1  0.30389294  0.69265821  0.30522562  1
  Zr  Zr75  1  0.29177529  0.48694371  0.69871856  1
  Zr  Zr76  1  0.29849262  0.10911393  0.29663962  1
  Zr  Zr77  1  0.09780295  0.70230468  0.09853104  1
  Zr  Zr78  1  0.40027898  0.40149575  0.00235392  1
  Zr  Zr79  1  -0.00835786  0.79925509  0.79564408  1
  Zr  Zr80  1  0.00250630  0.00225219  0.80647763  1
  Zr  Zr81  1  0.50292879  0.30123713  0.49593513  1
  Zr  Zr82  1  0.79598737  0.39261317  0.40931542  1
  Zr  Zr83  1  0.20227207  0.39110070  0.20154690  1
  Zr  Zr84  1  0.10118761  0.69268473  0.30569471  1
  Zr  Zr85  1  0.00017995  0.20213713  0.80046330  1
  Zr  Zr86  1  0.10653878  0.10051641  0.30206638  1
  Zr  Zr87  1  -0.01293322  0.39710780  0.79428476  1
  Zr  Zr88  1  0.09804592  0.68797751  0.89809750  1
  Zr  Zr89  1  0.79363590  0.79515810  -0.00478248  1
  Zr  Zr90  1  -0.00301699  0.80881919  0.20755555  1
  Zr  Zr91  1  0.80129531  0.00317619  0.40924142  1
  Zr  Zr92  1  0.70412403  0.10590693  0.30229463  1
  Zr  Zr93  1  0.51013317  0.70663815  0.49795538  1
  Zr  Zr94  1  0.89612973  0.09823371  0.09256736  1
  Zr  Zr95  1  0.59895136  0.20769585  0.19568594  1
  Zr  Zr96  1  0.20450073  0.59281635  0.59615743  1
  Zr  Zr97  1  0.39535996  0.60930178  0.79502356  1
  Zr  Zr98  1  0.21145077  0.78711730  0.80221710  1
  Zr  Zr99  1  0.27986174  0.91976934  0.50565395  1
  Ta  Ta100  1  0.79676724  0.40191860  -0.00168646  1
  Ta  Ta101  1  0.80354983  0.00041658  0.20803363  1
  Ta  Ta102  1  0.20472407  0.39703700  0.40515078  1
  Ta  Ta103  1  0.80317119  0.80996946  0.20415726  1
  Ta  Ta104  1  0.09411023  0.48858082  0.31630189  1
  Ta  Ta105  1  0.89657791  0.49459199  0.30328150  1
  Ta  Ta106  1  0.79986323  0.60468914  0.79226937  1
  Ta  Ta107  1  0.29826822  0.90093783  0.90133537  1
  Ta  Ta108  1  0.50227345  0.69751758  0.30970541  1
  Ta  Ta109  1  0.49867337  0.11010356  0.89449175  1
  Ta  Ta110  1  0.30579744  0.49560613  0.30807689  1
  Ta  Ta111  1  0.29975555  0.10841086  0.10064136  1
  Ta  Ta112  1  0.19691343  0.59915013  -0.00089408  1
  Ta  Ta113  1  0.19262830  0.20249214  0.80625188  1
  Ta  Ta114  1  0.89042768  0.90366139  0.89648481  1
  Ta  Ta115  1  0.69586345  0.29761184  0.30139974  1
  Ta  Ta116  1  0.69770158  0.90346716  0.30383879  1
  Ta  Ta117  1  0.60570217  0.21211694  0.79721961  1
  Ta  Ta118  1  0.61032586  0.79333247  0.79719291  1
  Ta  Ta119  1  0.89606722  0.30618799  0.90040621  1
  Ta  Ta120  1  0.50811601  0.70550088  0.70070034  1
  Ta  Ta121  1  0.20283465  0.20980725  0.58998893  1
  Ta  Ta122  1  0.60208557  0.00248771  0.41212522  1
  Ta  Ta123  1  0.60560031  0.39668752  0.80102094  1
  Ta  Ta124  1  0.89874954  0.89967186  0.69770026  1
  Ta  Ta125  1  0.50944071  0.10915856  0.70183479  1
  Ta  Ta126  1  0.80147473  0.38858103  0.60618999  1
  Ta  Ta127  1  0.20776897  0.21047166  0.40503739  1
  Ta  Ta128  1  0.69863669  0.89371113  0.89489106  1
  Ta  Ta129  1  0.49826542  0.90158057  0.09971332  1
  Ta  Ta130  1  0.19585543  0.00950482  0.81010117  1
  Ta  Ta131  1  0.49707180  0.30469511  0.10626853  1
  Ta  Ta132  1  0.69473204  0.29165446  0.50192845  1
  Ta  Ta133  1  0.60705993  0.60149690  0.79909176  1
  Ta  Ta134  1  0.00125694  0.20495190  -0.01025314  1
  Ta  Ta135  1  0.39619908  0.21041772  0.20184823  1
  Ta  Ta136  1  0.70156633  0.49262021  0.29820768  1
  Ta  Ta137  1  -0.01077604  0.59387952  0.60791153  1
  Ta  Ta138  1  0.50664673  0.30195583  0.69265325  1
  Ta  Ta139  1  0.89490931  0.10351107  0.89743931  1
  Ta  Ta140  1  0.59755938  -0.00022004  0.59808045  1
  Ta  Ta141  1  -0.00799987  0.19682967  0.40536317  1
  Ta  Ta142  1  0.49660321  0.48870350  0.50160738  1
  Ta  Ta143  1  0.51085418  0.50078779  0.89520463  1
  Ta  Ta144  1  0.70594957  0.50010209  0.89556467  1
  Ta  Ta145  1  0.49880487  0.30326432  0.30381012  1
  Ta  Ta146  1  0.79989771  0.21293045  0.79287453  1
  Ta  Ta147  1  0.39453070  0.80321364  -0.00126395  1
  Ta  Ta148  1  0.90430588  0.09752617  0.69521331  1
  Ta  Ta149  1  0.10037987  0.49983362  0.70428607  1
  Ti  Ti150  1  0.50691509  0.49477095  0.69785233  1
  Ti  Ti151  1  0.20738665  0.80062143  -0.00476452  1
  Ti  Ti152  1  0.79804519  -0.00056279  -0.00576303  1
  Ti  Ti153  1  0.60638000  0.39976228  0.40018726  1
  Ti  Ti154  1  0.89815316  0.91086405  0.30990451  1
  Ti  Ti155  1  -0.00358663  0.59204370  0.40064943  1
  Ti  Ti156  1  0.90249510  0.69527303  0.49966301  1
  Ti  Ti157  1  0.20337167  0.00164550  -0.00524269  1
  Ti  Ti158  1  0.19039769  0.20437460  -0.00616060  1
  Ti  Ti159  1  0.29403298  0.10576822  0.49890753  1
  Ti  Ti160  1  0.29881350  0.30292277  0.69739302  1
  Ti  Ti161  1  0.30106221  0.28972785  0.09653775  1
  Ti  Ti162  1  0.50386836  0.70952348  0.09566544  1
  Ti  Ti163  1  0.79737156  0.58911795  0.19449104  1
  Ti  Ti164  1  0.68358399  0.88755780  0.50109120  1
  Ti  Ti165  1  0.69365250  0.70696813  0.49921179  1
  Ti  Ti166  1  0.80381006  0.19376877  0.40805928  1
  Ti  Ti167  1  0.89843707  0.29902890  0.09357715  1
  Ti  Ti168  1  0.20016544  0.80999058  0.20487104  1
  Ti  Ti169  1  0.48911159  0.10605396  0.10119137  1
  Ti  Ti170  1  0.50393331  0.48995358  0.10470556  1
  Ti  Ti171  1  0.90240736  0.49833592  0.08443992  1
  Ti  Ti172  1  0.10672781  0.90126211  0.89935316  1
  Ti  Ti173  1  -0.00580730  0.79964020  0.59633138  1
  Ti  Ti174  1  0.50080062  0.49080635  0.30367153  1
  Ti  Ti175  1  0.40332617  0.20541757  0.79198815  1
  Ti  Ti176  1  0.30862773  0.30467420  0.49785851  1
  Ti  Ti177  1  0.89568377  0.90594298  0.09503554  1
  Ti  Ti178  1  0.59859701  0.19352674  0.40740674  1
  Ti  Ti179  1  -0.00591015  0.20830116  0.59582865  1
  Ti  Ti180  1  0.79115085  0.59150098  0.40778741  1
  Ti  Ti181  1  0.20915474  0.00059751  0.19006048  1
  Ti  Ti182  1  0.20536911  0.58115311  0.40692560  1
  Ti  Ti183  1  0.91497269  0.08945684  0.50322044  1
  Ti  Ti184  1  0.39986387  0.79816962  0.79877938  1
  Ti  Ti185  1  0.09396753  0.49349848  0.49931900  1
  Ti  Ti186  1  0.39593771  0.39906779  0.40099865  1
  Ti  Ti187  1  0.09293797  0.30119282  0.49270378  1
  Ti  Ti188  1  0.00175300  0.00421207  -0.00955244  1
  Ti  Ti189  1  0.20449312  0.39897508  0.58377197  1
  Ti  Ti190  1  0.10689396  0.91883540  0.31093989  1
  Ti  Ti191  1  0.59699234  -0.00407727  0.79166301  1
  Ti  Ti192  1  0.09342775  0.29345291  0.09739593  1
  Ti  Ti193  1  0.39953238  0.39452541  0.20655443  1
  Ti  Ti194  1  0.60794097  0.39673760  0.59949376  1
  Ti  Ti195  1  0.69544053  0.89238866  0.69963758  1
  Ti  Ti196  1  0.89550274  0.49920450  0.89882706  1
  Ti  Ti197  1  0.59825477  0.00517516  0.19906271  1
  Ti  Ti198  1  0.70463279  0.70179924  0.10174309  1
  Ti  Ti199  1  0.79336983  0.59399629  -0.00168823  1
  Mo  Mo200  1  0.69853744  0.30196391  0.69680219  1
  Mo  Mo201  1  0.00204398  0.39291664  0.40173060  1
  Mo  Mo202  1  0.30581993  0.30300926  0.30503307  1
  Mo  Mo203  1  0.30184452  0.70473046  0.90616385  1
  Mo  Mo204  1  0.89489129  0.49905634  0.70010536  1
  Mo  Mo205  1  0.69603851  0.48492650  0.50221378  1
  Mo  Mo206  1  0.09085112  0.90856128  0.50182859  1
  Mo  Mo207  1  0.19830589  0.59489040  0.80016497  1
  Mo  Mo208  1  0.30730339  0.48745354  0.49571315  1
  Mo  Mo209  1  -0.01088315  0.39381555  -0.00090352  1
  Mo  Mo210  1  0.20563398  0.20530760  0.19217631  1
  Mo  Mo211  1  0.29507431  0.90451743  0.09554663  1
  Mo  Mo212  1  0.60076534  0.19999326  0.60081741  1
  Mo  Mo213  1  0.60520541  0.80426601  0.39701423  1
  Mo  Mo214  1  0.09474474  0.49857922  0.08938167  1
  Mo  Mo215  1  0.30872590  0.69980072  0.70136553  1
  Mo  Mo216  1  -0.00281617  0.58852947  0.00592258  1
  Mo  Mo217  1  0.89953440  0.69981388  0.69650519  1
  Mo  Mo218  1  0.79824262  0.20547948  0.20055975  1
  Mo  Mo219  1  -0.00099390  0.00004453  0.40368347  1
  Mo  Mo220  1  0.90023797  0.29161047  0.50040848  1
  Mo  Mo221  1  0.19863376  0.01243512  0.60516070  1
  Mo  Mo222  1  0.89567402  0.10191203  0.31076194  1
  Mo  Mo223  1  0.90612701  0.89805089  0.50863301  1
  Mo  Mo224  1  0.89505698  0.29625059  0.69975468  1
  Mo  Mo225  1  -0.01362281  0.59175136  0.78858174  1
  Mo  Mo226  1  0.39632095  0.20937066  0.39939635  1
  Mo  Mo227  1  0.59778817  0.40115729  0.20814511  1
  Mo  Mo228  1  0.79621748  0.80076080  0.79652651  1
  Mo  Mo229  1  0.70261623  0.69480563  0.89565442  1
  Mo  Mo230  1  0.19880271  0.01013213  0.39985266  1
  Mo  Mo231  1  0.51157306  0.89769998  0.70538614  1
  Mo  Mo232  1  0.70225959  0.69999035  0.70525098  1
  Mo  Mo233  1  0.69115650  0.10641189  0.50061035  1
  Mo  Mo234  1  0.19585684  0.39332554  0.80154201  1
  Mo  Mo235  1  -0.00412943  -0.00684647  0.59807920  1
  Mo  Mo236  1  0.69882889  0.30298942  0.10403947  1
  Mo  Mo237  1  0.09531543  0.29843148  0.90071171  1
  Mo  Mo238  1  0.40500735  0.20026914  0.00849939  1
  Mo  Mo239  1  0.10256633  0.10138468  0.90728357  1
  Mo  Mo240  1  0.40311217  0.00969610  0.18884291  1
  Mo  Mo241  1  0.40545738  0.39645238  0.60127695  1
  Mo  Mo242  1  0.79795384  0.40077686  0.80354241  1
  Mo  Mo243  1  0.59828813  0.79560284  -0.00108478  1
  Mo  Mo244  1  0.51404811  0.90188674  0.50605218  1
  Mo  Mo245  1  0.41315286  0.58246981  0.39653618  1
  Mo  Mo246  1  0.70343877  0.30764723  0.89331488  1
  Mo  Mo247  1  0.70748510  0.50423223  0.09884376  1
  Mo  Mo248  1  0.50793200  0.10634694  0.50475864  1
  Mo  Mo249  1  0.60446900  0.80404186  0.60789467  1
