# generated using pymatgen
data_HfZrTaTiMo
_symmetry_space_group_name_H-M   'P 1'
_cell_length_a   16.89687928
_cell_length_b   16.89102897
_cell_length_c   16.88886786
_cell_angle_alpha   90.04211393
_cell_angle_beta   89.99333482
_cell_angle_gamma   89.96750462
_symmetry_Int_Tables_number   1
_chemical_formula_structural   HfZrTaTiMo
_chemical_formula_sum   'Hf50 Zr50 Ta50 Ti50 Mo50'
_cell_volume   4820.17666293
_cell_formula_units_Z   50
loop_
 _symmetry_equiv_pos_site_id
 _symmetry_equiv_pos_as_xyz
  1  'x, y, z'
loop_
 _atom_site_type_symbol
 _atom_site_label
 _atom_site_symmetry_multiplicity
 _atom_site_fract_x
 _atom_site_fract_y
 _atom_site_fract_z
 _atom_site_occupancy
  Hf  Hf0  1  0.89591951  0.90219426  0.49884225  1
  Hf  Hf1  1  0.59494700  0.38877332  0.60119893  1
  Hf  Hf2  1  0.89422764  0.69926635  0.70082874  1
  Hf  Hf3  1  0.10612308  0.69889401  0.50395833  1
  Hf  Hf4  1  0.09565917  0.70519415  0.10449358  1
  Hf  Hf5  1  0.09837268  0.50324155  0.09636407  1
  Hf  Hf6  1  0.90815002  0.30375323  0.70234166  1
  Hf  Hf7  1  0.50159170  0.10078516  0.69895544  1
  Hf  Hf8  1  0.49162297  0.49471932  0.50152020  1
  Hf  Hf9  1  0.49695075  0.89223516  0.30382294  1
  Hf  Hf10  1  0.80702037  0.20590778  -0.00516701  1
  Hf  Hf11  1  0.39815839  0.78777607  0.18546679  1
  Hf  Hf12  1  0.38802565  0.18865161  0.20207025  1
  Hf  Hf13  1  0.61322673  0.19863569  0.79027950  1
  Hf  Hf14  1  0.10638708  0.30029073  0.10378204  1
  Hf  Hf15  1  0.59639065  0.20300594  -0.00193905  1
  Hf  Hf16  1  0.00644572  0.80456650  0.59833657  1
  Hf  Hf17  1  0.59911949  -0.00406534  0.60678482  1
  Hf  Hf18  1  0.29985555  0.48703219  0.49244008  1
  Hf  Hf19  1  0.11549549  0.89659402  0.89660546  1
  Hf  Hf20  1  0.39798163  0.19708913  0.40865544  1
  Hf  Hf21  1  0.59139355  0.80599855  0.80166477  1
  Hf  Hf22  1  0.01828818  0.18262276  0.20057557  1
  Hf  Hf23  1  0.69265894  0.70268170  0.50126097  1
  Hf  Hf24  1  0.79542809  0.59312726  0.80198834  1
  Hf  Hf25  1  0.69768886  0.49972891  0.50817368  1
  Hf  Hf26  1  0.90234463  0.08973432  0.29863779  1
  Hf  Hf27  1  0.78943752  0.80173651  0.60504922  1
  Hf  Hf28  1  0.59517637  -0.00440419  -0.01137921  1
  Hf  Hf29  1  0.20532995  0.60490703  0.00107796  1
  Hf  Hf30  1  0.30527936  0.49832627  0.90094134  1
  Hf  Hf31  1  0.89260059  0.50918146  0.09787682  1
  Hf  Hf32  1  0.50163594  0.49675730  0.70543800  1
  Hf  Hf33  1  0.80610590  0.40330240  0.80529358  1
  Hf  Hf34  1  0.69513892  0.09696850  0.30152224  1
  Hf  Hf35  1  0.79709863  0.39575423  0.19382573  1
  Hf  Hf36  1  0.59340341  0.39951765  0.39644126  1
  Hf  Hf37  1  0.39446549  0.00102055  0.40061922  1
  Hf  Hf38  1  0.40084180  0.59992929  0.80165427  1
  Hf  Hf39  1  0.49492335  0.50355197  0.08777350  1
  Hf  Hf40  1  0.90360152  0.49630982  0.30339874  1
  Hf  Hf41  1  0.88746330  0.90892356  0.70064180  1
  Hf  Hf42  1  0.10625502  0.30405778  0.89270841  1
  Hf  Hf43  1  -0.00331794  0.60250372  -0.00900964  1
  Hf  Hf44  1  0.30306410  0.30672023  0.10870535  1
  Hf  Hf45  1  0.20445829  0.19440114  0.39663156  1
  Hf  Hf46  1  0.59346739  -0.00480536  0.19445545  1
  Hf  Hf47  1  -0.00410787  0.80128505  -0.00314678  1
  Hf  Hf48  1  -0.00546654  0.59324137  0.80499597  1
  Hf  Hf49  1  0.01616193  -0.00313468  0.59612919  1
  Zr  Zr50  1  0.70250544  0.09401751  0.09491719  1
  Zr  Zr51  1  0.09617216  0.90226577  0.10556499  1
  Zr  Zr52  1  0.69301384  0.31001483  0.89970553  1
  Zr  Zr53  1  0.50139836  0.10359851  0.88958540  1
  Zr  Zr54  1  0.20583486  0.40140333  0.00158272  1
  Zr  Zr55  1  0.49355027  0.30376559  0.29850713  1
  Zr  Zr56  1  0.38995261  0.60400585  0.60451499  1
  Zr  Zr57  1  0.20120662  0.79903967  0.40234608  1
  Zr  Zr58  1  0.20591211  0.00766364  -0.00034813  1
  Zr  Zr59  1  0.10929294  0.69612233  0.70654803  1
  Zr  Zr60  1  0.28735129  0.89803554  0.52752614  1
  Zr  Zr61  1  0.20056294  -0.00442738  0.39959726  1
  Zr  Zr62  1  0.79715328  0.80158931  0.19639291  1
  Zr  Zr63  1  0.11487070  0.11366619  0.89403124  1
  Zr  Zr64  1  0.58788118  0.19641277  0.41862564  1
  Zr  Zr65  1  0.69298223  0.89675617  0.30921220  1
  Zr  Zr66  1  0.11300134  0.10737118  0.70472662  1
  Zr  Zr67  1  0.79380968  0.19659651  0.40078368  1
  Zr  Zr68  1  0.09855519  0.30867878  0.30779707  1
  Zr  Zr69  1  0.59811703  0.79400257  0.18643446  1
  Zr  Zr70  1  0.39192161  0.00704517  -0.01036783  1
  Zr  Zr71  1  0.89875298  0.09467568  0.50367315  1
  Zr  Zr72  1  0.12915914  0.89767909  0.69650886  1
  Zr  Zr73  1  -0.00239915  0.19997978  -0.00093585  1
  Zr  Zr74  1  0.69410021  0.90054577  0.49540879  1
  Zr  Zr75  1  0.00252152  0.58842879  0.59738847  1
  Zr  Zr76  1  0.00001508  0.79921427  0.80276831  1
  Zr  Zr77  1  0.59083985  0.60105759  0.19390591  1
  Zr  Zr78  1  0.89834947  0.09860129  0.69889528  1
  Zr  Zr79  1  0.40892607  0.21014836  0.59753055  1
  Zr  Zr80  1  0.89844936  0.08666948  0.10230056  1
  Zr  Zr81  1  0.19621934  0.02659949  0.19955662  1
  Zr  Zr82  1  0.80390947  0.59882772  0.40750894  1
  Zr  Zr83  1  0.49120654  0.89499929  0.08547472  1
  Zr  Zr84  1  0.88562381  0.90574698  0.90343047  1
  Zr  Zr85  1  0.90603434  0.30463916  0.49034421  1
  Zr  Zr86  1  0.90257537  0.70429106  0.29786257  1
  Zr  Zr87  1  0.29799807  0.31313982  0.30615977  1
  Zr  Zr88  1  0.39606730  0.60394500  0.39533529  1
  Zr  Zr89  1  0.00260684  0.00387421  0.80663835  1
  Zr  Zr90  1  0.10182865  0.29779846  0.71389999  1
  Zr  Zr91  1  0.00921538  0.40388380  0.58746930  1
  Zr  Zr92  1  0.19917221  0.39591835  0.59592583  1
  Zr  Zr93  1  0.90538637  0.29850829  0.30068195  1
  Zr  Zr94  1  0.59792085  0.20423781  0.19683472  1
  Zr  Zr95  1  0.20031667  0.59705763  0.39447619  1
  Zr  Zr96  1  0.78999127  0.20269096  0.60707965  1
  Zr  Zr97  1  0.38978981  0.79582001  0.40782723  1
  Zr  Zr98  1  0.59103891  0.59854228  0.39777005  1
  Zr  Zr99  1  0.70220043  0.49971441  0.29450853  1
  Ta  Ta100  1  0.22873437  0.00502755  0.80533111  1
  Ta  Ta101  1  0.59691785  0.40290915  0.19429704  1
  Ta  Ta102  1  0.20435961  0.58910566  0.60549687  1
  Ta  Ta103  1  0.10257528  0.49431949  0.89364977  1
  Ta  Ta104  1  0.49884618  0.70175342  0.70303491  1
  Ta  Ta105  1  0.00215326  0.00605250  -0.00029298  1
  Ta  Ta106  1  0.80199306  0.19768924  0.80410551  1
  Ta  Ta107  1  0.11189572  0.09740241  0.50451176  1
  Ta  Ta108  1  0.70742250  0.89691077  0.08246441  1
  Ta  Ta109  1  0.69774843  0.30132277  0.50189902  1
  Ta  Ta110  1  0.59291854  0.80374114  0.60959123  1
  Ta  Ta111  1  0.31028526  0.50853663  0.10426503  1
  Ta  Ta112  1  0.39194928  0.00212151  0.19564398  1
  Ta  Ta113  1  0.90158552  0.69992547  0.50237517  1
  Ta  Ta114  1  0.70304378  0.69566545  0.08444620  1
  Ta  Ta115  1  0.00160288  0.60066713  0.20289713  1
  Ta  Ta116  1  0.49749759  0.70119345  0.29718105  1
  Ta  Ta117  1  0.19818849  0.41652776  0.20606191  1
  Ta  Ta118  1  0.71016625  0.08921770  0.89595498  1
  Ta  Ta119  1  0.01422775  0.20491604  0.58929793  1
  Ta  Ta120  1  0.20308306  0.60205386  0.20012379  1
  Ta  Ta121  1  0.88275155  0.70107724  0.90438805  1
  Ta  Ta122  1  0.29693808  0.89614633  0.09626679  1
  Ta  Ta123  1  0.01119023  -0.00558329  0.39988024  1
  Ta  Ta124  1  0.20828191  0.20815421  0.59390107  1
  Ta  Ta125  1  0.30923651  0.88474855  0.89771278  1
  Ta  Ta126  1  0.30283582  0.70323054  0.89907247  1
  Ta  Ta127  1  0.49337947  0.10175336  0.09671035  1
  Ta  Ta128  1  0.69170239  0.70595896  0.30561653  1
  Ta  Ta129  1  0.30129564  0.09609204  0.51236534  1
  Ta  Ta130  1  0.80228780  0.40599439  0.59941521  1
  Ta  Ta131  1  0.39927408  0.39609479  0.79916722  1
  Ta  Ta132  1  0.90751962  0.90166475  0.29709433  1
  Ta  Ta133  1  0.69093858  0.50146330  0.90610572  1
  Ta  Ta134  1  0.09679135  0.70496874  0.29433790  1
  Ta  Ta135  1  0.69869747  0.30098094  0.30118781  1
  Ta  Ta136  1  0.09513996  0.89591799  0.29106908  1
  Ta  Ta137  1  0.00328994  0.40725930  0.19722645  1
  Ta  Ta138  1  -0.00970659  0.40072735  -0.00773354  1
  Ta  Ta139  1  0.69068326  0.69450110  0.70277529  1
  Ta  Ta140  1  0.69965096  0.70161300  0.90251108  1
  Ta  Ta141  1  0.29660156  0.89832503  0.28444191  1
  Ta  Ta142  1  0.69582583  0.50210975  0.08744963  1
  Ta  Ta143  1  0.89425006  0.70058403  0.09634046  1
  Ta  Ta144  1  0.70170872  0.89820515  0.89990379  1
  Ta  Ta145  1  0.39849715  0.20552625  -0.00186637  1
  Ta  Ta146  1  0.79686003  0.20421063  0.19715539  1
  Ta  Ta147  1  0.00433387  0.80316308  0.40280228  1
  Ta  Ta148  1  0.00467021  0.59686699  0.40289540  1
  Ta  Ta149  1  0.80357389  0.40237065  -0.00249413  1
  Ti  Ti150  1  0.40220319  0.39464969  -0.00559944  1
  Ti  Ti151  1  0.50580050  0.49228905  0.90099714  1
  Ti  Ti152  1  0.59688104  0.60316780  0.80618701  1
  Ti  Ti153  1  0.79854776  0.40142255  0.40497550  1
  Ti  Ti154  1  0.69540145  0.30733040  0.09660962  1
  Ti  Ti155  1  0.30030708  0.69850738  0.28696558  1
  Ti  Ti156  1  0.79804321  -0.00023086  0.40167755  1
  Ti  Ti157  1  0.39771018  0.20728235  0.80363686  1
  Ti  Ti158  1  0.30605719  0.49948226  0.29813804  1
  Ti  Ti159  1  0.90382160  0.49407551  0.69942002  1
  Ti  Ti160  1  0.40841645  -0.01161866  0.79943643  1
  Ti  Ti161  1  0.79396751  0.60584570  0.19877442  1
  Ti  Ti162  1  0.30786935  0.10162292  0.69990742  1
  Ti  Ti163  1  0.89949531  0.90005593  0.10130379  1
  Ti  Ti164  1  0.69538357  0.09861523  0.51214613  1
  Ti  Ti165  1  0.40577078  -0.00390437  0.60496751  1
  Ti  Ti166  1  0.40671646  0.41239337  0.20352279  1
  Ti  Ti167  1  0.48865859  0.70675221  0.90457601  1
  Ti  Ti168  1  0.70130851  0.30819414  0.70103651  1
  Ti  Ti169  1  0.29634646  0.29740130  0.89649266  1
  Ti  Ti170  1  0.29840351  0.30417739  0.70584107  1
  Ti  Ti171  1  0.90557956  0.30107085  0.10411653  1
  Ti  Ti172  1  0.39603461  0.39200270  0.60281616  1
  Ti  Ti173  1  0.60436870  -0.00979483  0.79359598  1
  Ti  Ti174  1  0.69165308  0.49808616  0.70425779  1
  Ti  Ti175  1  0.50423723  0.30941524  0.89503836  1
  Ti  Ti176  1  0.58572352  0.00624860  0.41071519  1
  Ti  Ti177  1  0.59195236  0.60749033  -0.00715369  1
  Ti  Ti178  1  0.01162207  0.18764086  0.40443302  1
  Ti  Ti179  1  -0.01726301  0.20029480  0.81501651  1
  Ti  Ti180  1  0.78727096  0.80110220  0.79704069  1
  Ti  Ti181  1  0.49732119  0.89379307  0.50293462  1
  Ti  Ti182  1  0.21296283  0.19454553  0.01142248  1
  Ti  Ti183  1  0.79578399  -0.00769474  0.20040487  1
  Ti  Ti184  1  0.49689582  0.09520558  0.29774513  1
  Ti  Ti185  1  0.30618986  0.89240863  0.70758818  1
  Ti  Ti186  1  0.20426850  0.79659070  0.19584472  1
  Ti  Ti187  1  0.80347825  0.79794553  0.40020261  1
  Ti  Ti188  1  0.59525814  0.60316740  0.60540744  1
  Ti  Ti189  1  0.40243105  0.79706729  0.60829942  1
  Ti  Ti190  1  0.80135438  0.59389722  0.60413437  1
  Ti  Ti191  1  0.29765873  0.70873954  0.70768339  1
  Ti  Ti192  1  0.10672277  0.48871892  0.71497869  1
  Ti  Ti193  1  0.50348844  0.30063538  0.70830218  1
  Ti  Ti194  1  0.20899765  0.59320144  0.79654375  1
  Ti  Ti195  1  0.50016117  0.70514273  0.50371290  1
  Ti  Ti196  1  0.11149875  0.69989199  0.89278534  1
  Ti  Ti197  1  0.20765528  0.79441016  0.00328376  1
  Ti  Ti198  1  0.49754003  0.30524421  0.09738104  1
  Ti  Ti199  1  0.59453419  0.79752153  -0.00765537  1
  Mo  Mo200  1  0.49208208  0.89874275  0.69832205  1
  Mo  Mo201  1  0.89744138  0.50268224  0.49922557  1
  Mo  Mo202  1  0.10200642  0.10379180  0.09115365  1
  Mo  Mo203  1  0.79846342  0.79830315  0.00016804  1
  Mo  Mo204  1  -0.00571421  0.79806231  0.20028699  1
  Mo  Mo205  1  0.49760219  0.30449046  0.50340253  1
  Mo  Mo206  1  0.49054083  0.50274099  0.29113654  1
  Mo  Mo207  1  0.20926757  0.78319417  0.60679385  1
  Mo  Mo208  1  0.89400891  0.10086931  0.90026174  1
  Mo  Mo209  1  -0.00086407  0.40612535  0.80601111  1
  Mo  Mo210  1  0.59702611  0.40289991  0.00109864  1
  Mo  Mo211  1  0.30072489  0.49080201  0.70408995  1
  Mo  Mo212  1  0.09831018  0.50699696  0.29517158  1
  Mo  Mo213  1  0.20072540  0.20464602  0.19972815  1
  Mo  Mo214  1  0.69591579  0.89670604  0.70652305  1
  Mo  Mo215  1  0.70254040  0.09090129  0.70394309  1
  Mo  Mo216  1  0.40252348  0.79690468  0.79771624  1
  Mo  Mo217  1  0.22522380  0.20343643  0.79412194  1
  Mo  Mo218  1  0.00115072  -0.00645933  0.20064579  1
  Mo  Mo219  1  0.21100682  0.79742846  0.80342338  1
  Mo  Mo220  1  0.49813738  0.89838279  0.89245542  1
  Mo  Mo221  1  0.49726663  0.69428823  0.08290892  1
  Mo  Mo222  1  0.20908886  0.40236584  0.79900584  1
  Mo  Mo223  1  0.30900437  0.11513799  0.89426492  1
  Mo  Mo224  1  0.49637168  0.08965593  0.50773277  1
  Mo  Mo225  1  0.90051492  0.30391023  0.89853809  1
  Mo  Mo226  1  0.79431966  0.59900555  -0.00426450  1
  Mo  Mo227  1  0.10465377  0.29484198  0.49169950  1
  Mo  Mo228  1  0.21074943  0.01485834  0.61128229  1
  Mo  Mo229  1  0.10229163  0.89987615  0.49918105  1
  Mo  Mo230  1  0.60279649  0.20200558  0.60470505  1
  Mo  Mo231  1  0.39604444  0.60131849  0.19715605  1
  Mo  Mo232  1  0.09795986  0.09623457  0.31005994  1
  Mo  Mo233  1  0.30288646  0.10705281  0.09625623  1
  Mo  Mo234  1  0.58649167  0.79334020  0.40827343  1
  Mo  Mo235  1  0.00812958  0.41594795  0.39814239  1
  Mo  Mo236  1  0.19803196  0.40362404  0.39798884  1
  Mo  Mo237  1  0.30109361  0.30062172  0.49982063  1
  Mo  Mo238  1  0.80078103  -0.00353556  -0.00139560  1
  Mo  Mo239  1  0.59665824  0.40299756  0.79790130  1
  Mo  Mo240  1  0.29681641  0.69909716  0.09472832  1
  Mo  Mo241  1  0.10568132  0.49778936  0.48682101  1
  Mo  Mo242  1  0.89651373  0.50096598  0.90373710  1
  Mo  Mo243  1  0.40046855  0.40071711  0.39873279  1
  Mo  Mo244  1  0.40250005  0.60491861  -0.00371362  1
  Mo  Mo245  1  0.79006970  0.00248591  0.79775217  1
  Mo  Mo246  1  0.78670623  0.00143846  0.60316713  1
  Mo  Mo247  1  0.30171975  0.09424761  0.30312193  1
  Mo  Mo248  1  0.39627934  0.79470439  -0.00436492  1
  Mo  Mo249  1  0.29645552  0.69641087  0.51766077  1
