# generated using pymatgen
data_HfZrTaTiMo
_symmetry_space_group_name_H-M   'P 1'
_cell_length_a   16.88237559
_cell_length_b   16.88683548
_cell_length_c   16.88394664
_cell_angle_alpha   89.96271971
_cell_angle_beta   90.06852322
_cell_angle_gamma   90.01705351
_symmetry_Int_Tables_number   1
_chemical_formula_structural   HfZrTaTiMo
_chemical_formula_sum   'Hf50 Zr50 Ta50 Ti50 Mo50'
_cell_volume   4813.43796962
_cell_formula_units_Z   50
loop_
 _symmetry_equiv_pos_site_id
 _symmetry_equiv_pos_as_xyz
  1  'x, y, z'
loop_
 _atom_site_type_symbol
 _atom_site_label
 _atom_site_symmetry_multiplicity
 _atom_site_fract_x
 _atom_site_fract_y
 _atom_site_fract_z
 _atom_site_occupancy
  Hf  Hf0  1  0.60453963  0.19513405  0.80186467  1
  Hf  Hf1  1  0.70235480  0.68952571  0.30816902  1
  Hf  Hf2  1  0.59739213  0.41392425  0.58445477  1
  Hf  Hf3  1  0.90249840  0.88795282  0.50462640  1
  Hf  Hf4  1  0.80457469  0.19502668  0.40654876  1
  Hf  Hf5  1  0.40523888  -0.00080891  0.40644417  1
  Hf  Hf6  1  0.50733710  0.49784254  0.71337835  1
  Hf  Hf7  1  0.69482257  0.90399140  0.70420645  1
  Hf  Hf8  1  0.60463472  0.19099775  0.20453320  1
  Hf  Hf9  1  0.30121216  0.30781810  0.30031846  1
  Hf  Hf10  1  0.59178658  0.40096709  0.19302219  1
  Hf  Hf11  1  0.01132092  0.60353522  0.60775669  1
  Hf  Hf12  1  0.59932765  0.79659964  0.00903908  1
  Hf  Hf13  1  0.89656084  0.69723530  0.30125050  1
  Hf  Hf14  1  0.89691312  0.10424663  0.09324658  1
  Hf  Hf15  1  0.59911762  0.60810877  0.59244866  1
  Hf  Hf16  1  0.20205262  0.39546822  0.80027402  1
  Hf  Hf17  1  0.80213757  0.40160059  0.40311689  1
  Hf  Hf18  1  0.19723501  0.79882515  0.60193198  1
  Hf  Hf19  1  0.29912207  0.70432538  0.49615275  1
  Hf  Hf20  1  0.58848902  0.60013940  0.19916478  1
  Hf  Hf21  1  0.80856607  0.79549623  0.80652848  1
  Hf  Hf22  1  0.68478761  0.09585012  0.50622945  1
  Hf  Hf23  1  0.78711859  0.00015096  0.39360587  1
  Hf  Hf24  1  0.20816152  0.60392707  0.00497343  1
  Hf  Hf25  1  0.00660867  0.80689732  0.20489115  1
  Hf  Hf26  1  0.38834408  0.58877729  0.19631142  1
  Hf  Hf27  1  0.90489086  0.29611705  0.90569620  1
  Hf  Hf28  1  0.11186388  0.70077919  0.11677836  1
  Hf  Hf29  1  0.59541069  0.79795344  0.40118340  1
  Hf  Hf30  1  0.39408674  -0.00056652  -0.00409709  1
  Hf  Hf31  1  0.50488518  0.30107817  0.69528909  1
  Hf  Hf32  1  0.80869925  0.60749799  0.80068388  1
  Hf  Hf33  1  0.48377826  0.49551101  0.31082859  1
  Hf  Hf34  1  0.90109056  0.30187621  0.70597848  1
  Hf  Hf35  1  0.59171453  0.18678404  0.39937983  1
  Hf  Hf36  1  0.30504643  0.50431099  0.90429527  1
  Hf  Hf37  1  0.80690429  0.00694631  0.59772717  1
  Hf  Hf38  1  0.00092229  0.00652770  0.59800671  1
  Hf  Hf39  1  0.00374725  0.59915285  0.39449636  1
  Hf  Hf40  1  0.29330698  0.70676096  0.28932609  1
  Hf  Hf41  1  0.80171164  0.19782879  0.60254727  1
  Hf  Hf42  1  0.49420402  0.69535565  0.90211863  1
  Hf  Hf43  1  0.10340597  0.49412509  0.49528937  1
  Hf  Hf44  1  0.39901007  0.80391567  0.39024652  1
  Hf  Hf45  1  0.00704946  0.20508113  0.19821136  1
  Hf  Hf46  1  0.20209915  0.60011310  0.38877243  1
  Hf  Hf47  1  0.19208041  0.60444349  0.79269856  1
  Hf  Hf48  1  0.69398490  0.90718777  0.89897643  1
  Hf  Hf49  1  0.49045800  0.29908063  0.30645590  1
  Zr  Zr50  1  0.39037632  -0.00912838  0.19453716  1
  Zr  Zr51  1  0.50855178  0.09126227  0.09243592  1
  Zr  Zr52  1  0.30255538  0.28384195  0.91251800  1
  Zr  Zr53  1  0.69417832  0.89895781  0.50190568  1
  Zr  Zr54  1  0.40624194  0.18709152  0.80540059  1
  Zr  Zr55  1  0.69423829  0.30746891  0.70365266  1
  Zr  Zr56  1  0.89386273  0.89818736  0.29898288  1
  Zr  Zr57  1  -0.00095966  0.19643355  0.59609137  1
  Zr  Zr58  1  0.69121359  0.29702787  0.50460179  1
  Zr  Zr59  1  0.70337804  0.29686554  0.29588086  1
  Zr  Zr60  1  0.40324027  0.60145148  0.59956718  1
  Zr  Zr61  1  0.09938099  0.49708299  0.09857466  1
  Zr  Zr62  1  0.58577715  0.79809063  0.59819037  1
  Zr  Zr63  1  0.00051924  0.00266575  0.39668536  1
  Zr  Zr64  1  0.50528348  0.30117652  0.90498240  1
  Zr  Zr65  1  0.01244901  0.79991461  0.39408160  1
  Zr  Zr66  1  0.70495464  0.09345184  0.90935487  1
  Zr  Zr67  1  0.31124523  0.49811278  0.70283504  1
  Zr  Zr68  1  0.10981611  0.09690319  0.49454271  1
  Zr  Zr69  1  0.21287554  0.39394191  0.59132356  1
  Zr  Zr70  1  0.01132164  0.00450580  0.80843350  1
  Zr  Zr71  1  0.69932312  0.50545461  0.70645220  1
  Zr  Zr72  1  0.39426659  0.19376526  0.19203168  1
  Zr  Zr73  1  0.29686378  0.10072541  0.31095983  1
  Zr  Zr74  1  0.09771102  0.89796155  0.70261256  1
  Zr  Zr75  1  0.10113203  0.90715092  0.09485459  1
  Zr  Zr76  1  0.09883316  0.49314094  0.90677474  1
  Zr  Zr77  1  0.30959992  0.29045583  0.70226930  1
  Zr  Zr78  1  0.00361902  0.60916878  0.79720258  1
  Zr  Zr79  1  0.80331259  0.60563535  -0.00333649  1
  Zr  Zr80  1  -0.00065253  0.80670992  0.00055814  1
  Zr  Zr81  1  0.90304799  0.89698263  0.70252376  1
  Zr  Zr82  1  0.29924553  0.90605510  0.70005384  1
  Zr  Zr83  1  0.80195232  0.59524295  0.19179044  1
  Zr  Zr84  1  0.49579905  0.29221541  0.09192849  1
  Zr  Zr85  1  0.68340830  0.69327681  0.89353712  1
  Zr  Zr86  1  0.19838954  0.59809282  0.60565826  1
  Zr  Zr87  1  0.69723091  0.49711063  0.09275905  1
  Zr  Zr88  1  0.59930069  0.79521299  0.20317987  1
  Zr  Zr89  1  0.20116559  0.00242472  0.19695861  1
  Zr  Zr90  1  0.89519367  0.10648731  0.28989840  1
  Zr  Zr91  1  0.89945712  0.49490895  0.69555116  1
  Zr  Zr92  1  0.20438867  0.80293274  -0.00315393  1
  Zr  Zr93  1  0.69846661  0.49861125  0.30602975  1
  Zr  Zr94  1  0.39442545  0.80750540  0.00197742  1
  Zr  Zr95  1  0.19926195  0.21184883  0.40082296  1
  Zr  Zr96  1  0.80069099  0.79726624  0.00415154  1
  Zr  Zr97  1  0.19539219  0.20884779  0.18639533  1
  Zr  Zr98  1  0.90940230  0.49334988  0.90604399  1
  Zr  Zr99  1  -0.00190471  0.39843764  0.39561560  1
  Ta  Ta100  1  0.49528994  0.29156385  0.50089302  1
  Ta  Ta101  1  0.60958356  -0.00218034  0.21042481  1
  Ta  Ta102  1  0.00321642  0.59784824  0.20278450  1
  Ta  Ta103  1  0.40221393  -0.00262388  0.59675784  1
  Ta  Ta104  1  0.19690117  0.80039029  0.80453253  1
  Ta  Ta105  1  0.39799272  0.40977815  0.00842463  1
  Ta  Ta106  1  0.29236930  0.90307674  0.49343907  1
  Ta  Ta107  1  0.70599517  0.29242663  0.09434491  1
  Ta  Ta108  1  0.69721947  0.90615174  0.09985825  1
  Ta  Ta109  1  0.89868939  0.10317417  0.71182563  1
  Ta  Ta110  1  0.10859988  0.49590456  0.28991236  1
  Ta  Ta111  1  0.10131535  0.29428074  0.90357946  1
  Ta  Ta112  1  0.69371205  0.70227250  0.70205097  1
  Ta  Ta113  1  0.89774220  0.29923564  0.29267764  1
  Ta  Ta114  1  -0.00273939  0.39798753  0.19596455  1
  Ta  Ta115  1  0.79507762  -0.00314541  0.19869898  1
  Ta  Ta116  1  0.90196547  0.10282860  0.90643390  1
  Ta  Ta117  1  0.79582499  0.39948047  0.81066303  1
  Ta  Ta118  1  0.70721045  0.09936035  0.10045238  1
  Ta  Ta119  1  0.10126559  0.70449205  0.49659218  1
  Ta  Ta120  1  0.58224516  -0.00592849  0.59877634  1
  Ta  Ta121  1  -0.00125244  -0.00090974  0.19465304  1
  Ta  Ta122  1  0.29582520  0.90867119  0.89012353  1
  Ta  Ta123  1  0.70187416  0.30175325  0.90822532  1
  Ta  Ta124  1  0.29727111  0.09678179  0.70045276  1
  Ta  Ta125  1  0.89841356  0.50691873  0.50402629  1
  Ta  Ta126  1  0.79886764  0.19911659  0.80494727  1
  Ta  Ta127  1  0.30466796  0.70763991  0.70552482  1
  Ta  Ta128  1  0.90681974  0.90866932  0.90512534  1
  Ta  Ta129  1  0.10374031  0.29364967  0.70173263  1
  Ta  Ta130  1  0.90413451  0.70457020  0.10728745  1
  Ta  Ta131  1  0.80170049  0.39745409  0.00198923  1
  Ta  Ta132  1  0.50114605  0.90126303  0.29752374  1
  Ta  Ta133  1  -0.00081472  0.20489638  0.39873325  1
  Ta  Ta134  1  0.79261080  0.80295850  0.19670381  1
  Ta  Ta135  1  0.40583878  0.39930704  0.81268790  1
  Ta  Ta136  1  0.50115996  0.09561871  0.69715590  1
  Ta  Ta137  1  0.90024435  0.69868063  0.50211734  1
  Ta  Ta138  1  0.30140569  0.09885322  0.50358606  1
  Ta  Ta139  1  0.69448689  0.09462623  0.70137459  1
  Ta  Ta140  1  0.79164120  0.79361664  0.40363388  1
  Ta  Ta141  1  0.20485964  0.38820039  0.00994838  1
  Ta  Ta142  1  0.80710221  0.39740078  0.19206249  1
  Ta  Ta143  1  0.50384112  0.50661331  0.90548468  1
  Ta  Ta144  1  0.20494355  0.20002284  0.59976483  1
  Ta  Ta145  1  0.40014571  0.80545995  0.80069617  1
  Ta  Ta146  1  0.00015664  0.61344609  0.00427531  1
  Ta  Ta147  1  0.48519366  0.69863476  0.10357462  1
  Ta  Ta148  1  0.10275451  0.30296666  0.50099909  1
  Ta  Ta149  1  0.50422205  0.90647203  0.89708223  1
  Ti  Ti150  1  0.09563187  0.70858012  0.89771130  1
  Ti  Ti151  1  0.39190825  0.40304530  0.18681633  1
  Ti  Ti152  1  0.10783224  0.89948478  0.49313745  1
  Ti  Ti153  1  0.30509465  0.50445048  0.48645835  1
  Ti  Ti154  1  0.09765415  0.09832450  0.08785850  1
  Ti  Ti155  1  0.29295624  0.11102310  0.07692683  1
  Ti  Ti156  1  0.11244086  0.10561400  0.70650892  1
  Ti  Ti157  1  0.79218335  0.78987952  0.59880013  1
  Ti  Ti158  1  0.60503771  0.19397393  -0.00057173  1
  Ti  Ti159  1  0.40638847  -0.00242295  0.79561490  1
  Ti  Ti160  1  0.40077610  0.60269357  0.80178020  1
  Ti  Ti161  1  0.28819538  0.09875230  0.89170594  1
  Ti  Ti162  1  0.49686127  0.70018416  0.70705393  1
  Ti  Ti163  1  0.90472776  0.30508511  0.50274914  1
  Ti  Ti164  1  0.90817918  0.49776748  0.09444383  1
  Ti  Ti165  1  0.30420533  0.70042962  0.89569691  1
  Ti  Ti166  1  0.10663445  0.10534025  0.90428927  1
  Ti  Ti167  1  0.89936810  0.49837595  0.29758089  1
  Ti  Ti168  1  0.00886781  0.20346344  0.00425679  1
  Ti  Ti169  1  0.00475733  0.19740389  0.80192229  1
  Ti  Ti170  1  0.59702145  0.40385937  0.00207901  1
  Ti  Ti171  1  0.59635250  0.40015571  0.40491091  1
  Ti  Ti172  1  0.00588864  0.39991139  0.60269362  1
  Ti  Ti173  1  0.48771982  0.50361062  0.49066656  1
  Ti  Ti174  1  0.51036474  0.08782553  0.90195185  1
  Ti  Ti175  1  0.58787464  0.80487973  0.79466779  1
  Ti  Ti176  1  0.40306333  0.19049609  0.59345940  1
  Ti  Ti177  1  0.40474955  0.80932848  0.59938146  1
  Ti  Ti178  1  0.71054872  0.51857891  0.49229884  1
  Ti  Ti179  1  0.58873089  0.60448356  0.40241441  1
  Ti  Ti180  1  0.89733552  0.29573463  0.09745910  1
  Ti  Ti181  1  0.80434839  0.00383581  0.80228718  1
  Ti  Ti182  1  0.80720640  -0.00844273  0.00681371  1
  Ti  Ti183  1  0.49739022  0.09220237  0.30161381  1
  Ti  Ti184  1  0.10224826  0.09585721  0.30026228  1
  Ti  Ti185  1  0.50103556  0.90000554  0.10369701  1
  Ti  Ti186  1  0.68883836  0.49908372  0.89685033  1
  Ti  Ti187  1  0.38736723  0.39271820  0.41342835  1
  Ti  Ti188  1  0.40145909  0.39830068  0.59265072  1
  Ti  Ti189  1  0.00834359  0.39865417  0.79601263  1
  Ti  Ti190  1  0.30067967  0.70829870  0.10918238  1
  Ti  Ti191  1  0.10254869  0.31277436  0.29858075  1
  Ti  Ti192  1  0.91547929  0.71756432  0.69238231  1
  Ti  Ti193  1  0.20716415  0.40216559  0.19196180  1
  Ti  Ti194  1  0.20190686  0.00310896  0.59910896  1
  Ti  Ti195  1  0.48610443  0.69676158  0.48913009  1
  Ti  Ti196  1  0.19849278  -0.00127300  -0.00892484  1
  Ti  Ti197  1  0.79756278  0.40397364  0.59593843  1
  Ti  Ti198  1  0.80041297  0.61162952  0.60079875  1
  Ti  Ti199  1  0.59367532  0.60176230  0.01209210  1
  Mo  Mo200  1  0.20108452  0.00570348  0.80297236  1
  Mo  Mo201  1  0.60150704  0.40356490  0.81750874  1
  Mo  Mo202  1  0.20479489  0.40326702  0.39593852  1
  Mo  Mo203  1  0.60004255  -0.00676174  0.00705475  1
  Mo  Mo204  1  0.81118709  0.59814399  0.40699877  1
  Mo  Mo205  1  0.19411860  0.19634656  0.79820247  1
  Mo  Mo206  1  0.89522795  0.90521762  0.10196241  1
  Mo  Mo207  1  0.69782758  0.70265282  0.10441870  1
  Mo  Mo208  1  0.30039054  0.30027113  0.09800682  1
  Mo  Mo209  1  0.29629232  0.48806974  0.29877205  1
  Mo  Mo210  1  0.59460368  0.60369361  0.79766662  1
  Mo  Mo211  1  0.29684640  0.90155877  0.09451055  1
  Mo  Mo212  1  0.00298018  0.80280970  0.80994347  1
  Mo  Mo213  1  0.59152662  -0.00472723  0.39590221  1
  Mo  Mo214  1  0.40091960  0.19703971  0.40835823  1
  Mo  Mo215  1  0.00057504  0.38680944  0.00863624  1
  Mo  Mo216  1  0.09859993  0.47839552  0.69690767  1
  Mo  Mo217  1  0.49142923  0.69550694  0.29969040  1
  Mo  Mo218  1  0.20060206  0.59356964  0.19906558  1
  Mo  Mo219  1  0.20317837  -0.00604877  0.39904104  1
  Mo  Mo220  1  0.91218566  0.70714252  0.90366726  1
  Mo  Mo221  1  0.29634906  0.49696166  0.09970644  1
  Mo  Mo222  1  0.09772822  0.30394108  0.09713961  1
  Mo  Mo223  1  0.39878827  0.18443523  -0.00603119  1
  Mo  Mo224  1  0.30765711  0.29087472  0.50147724  1
  Mo  Mo225  1  0.10424399  0.69805524  0.29766220  1
  Mo  Mo226  1  0.19299345  0.19562784  -0.00356403  1
  Mo  Mo227  1  0.29834406  0.89760170  0.29946708  1
  Mo  Mo228  1  0.39753233  0.60312576  0.00427720  1
  Mo  Mo229  1  0.00593298  0.79658725  0.59076714  1
  Mo  Mo230  1  0.10297334  0.71520768  0.69985616  1
  Mo  Mo231  1  0.10454967  0.90679560  0.89937382  1
  Mo  Mo232  1  0.40106633  0.80288805  0.19742550  1
  Mo  Mo233  1  0.49109260  0.89849968  0.50005545  1
  Mo  Mo234  1  0.11199797  0.90396900  0.29947048  1
  Mo  Mo235  1  0.39695888  0.60191501  0.39417369  1
  Mo  Mo236  1  0.49497897  0.09833723  0.50597033  1
  Mo  Mo237  1  0.59274517  0.19067265  0.60277686  1
  Mo  Mo238  1  0.70664577  0.69493997  0.50339795  1
  Mo  Mo239  1  0.59361241  0.00114075  0.79633975  1
  Mo  Mo240  1  0.49410821  0.90144259  0.70441666  1
  Mo  Mo241  1  0.69621530  0.89580338  0.29916133  1
  Mo  Mo242  1  0.69832937  0.09523951  0.29872851  1
  Mo  Mo243  1  0.49452457  0.50337629  0.09273151  1
  Mo  Mo244  1  0.90148873  0.10538420  0.49892422  1
  Mo  Mo245  1  0.79933023  0.20173700  0.19406790  1
  Mo  Mo246  1  0.20687875  0.81337511  0.20353903  1
  Mo  Mo247  1  0.19982041  0.80529514  0.39658298  1
  Mo  Mo248  1  -0.00080836  0.00929018  -0.00102512  1
  Mo  Mo249  1  0.80026900  0.20253524  -0.00131842  1
