# generated using pymatgen
data_HfZrTaTiMo
_symmetry_space_group_name_H-M   'P 1'
_cell_length_a   16.88226970
_cell_length_b   16.87267801
_cell_length_c   16.86648947
_cell_angle_alpha   90.06643200
_cell_angle_beta   90.02285607
_cell_angle_gamma   90.03395587
_symmetry_Int_Tables_number   1
_chemical_formula_structural   HfZrTaTiMo
_chemical_formula_sum   'Hf50 Zr50 Ta50 Ti50 Mo50'
_cell_volume   4804.39990130
_cell_formula_units_Z   50
loop_
 _symmetry_equiv_pos_site_id
 _symmetry_equiv_pos_as_xyz
  1  'x, y, z'
loop_
 _atom_site_type_symbol
 _atom_site_label
 _atom_site_symmetry_multiplicity
 _atom_site_fract_x
 _atom_site_fract_y
 _atom_site_fract_z
 _atom_site_occupancy
  Hf  Hf0  1  0.69817120  0.90306394  0.49517584  1
  Hf  Hf1  1  0.11011315  0.90849535  0.70615565  1
  Hf  Hf2  1  0.69379174  0.69531189  0.31860321  1
  Hf  Hf3  1  0.90149414  0.30114641  0.09305805  1
  Hf  Hf4  1  0.00228021  0.40248095  0.39613083  1
  Hf  Hf5  1  0.50712756  0.89748406  0.09162845  1
  Hf  Hf6  1  0.00852948  0.20556026  0.19466872  1
  Hf  Hf7  1  0.29098978  0.30024307  0.31200523  1
  Hf  Hf8  1  0.09858706  0.69734278  0.49755111  1
  Hf  Hf9  1  0.58990003  0.60990459  0.20073989  1
  Hf  Hf10  1  0.40212783  0.20000885  0.19975860  1
  Hf  Hf11  1  0.50530855  0.30872273  0.09898147  1
  Hf  Hf12  1  0.59260614  0.00223260  0.80046391  1
  Hf  Hf13  1  0.29824193  0.30989881  0.09370525  1
  Hf  Hf14  1  0.00177086  0.20333701  0.39860478  1
  Hf  Hf15  1  -0.00477155  0.79266680  0.60767603  1
  Hf  Hf16  1  0.79571656  0.20645306  0.59886151  1
  Hf  Hf17  1  0.40189507  0.79664093  0.59930459  1
  Hf  Hf18  1  0.60377478  0.79590622  0.19908095  1
  Hf  Hf19  1  0.59334023  -0.00313252  0.60259652  1
  Hf  Hf20  1  0.69608626  0.31136274  0.70169844  1
  Hf  Hf21  1  0.40469648  0.40625713  0.40200292  1
  Hf  Hf22  1  0.79721506  0.40438631  -0.00408148  1
  Hf  Hf23  1  0.90267559  0.49893603  0.09890306  1
  Hf  Hf24  1  0.89991379  0.09349036  0.09424654  1
  Hf  Hf25  1  0.20767189  0.60189878  0.60837258  1
  Hf  Hf26  1  0.41044408  -0.00169067  0.60819579  1
  Hf  Hf27  1  0.90049753  0.50461348  0.89569943  1
  Hf  Hf28  1  -0.00407374  0.59339778  0.40180670  1
  Hf  Hf29  1  0.19692363  0.60255820  0.80416545  1
  Hf  Hf30  1  0.11229655  0.10037529  0.50245608  1
  Hf  Hf31  1  0.60020749  0.20391655  0.39766309  1
  Hf  Hf32  1  0.29423053  0.90021909  0.89973844  1
  Hf  Hf33  1  0.70268554  0.08858254  0.49434463  1
  Hf  Hf34  1  0.59337466  0.80004801  0.59600109  1
  Hf  Hf35  1  0.69169259  0.70301332  0.70120037  1
  Hf  Hf36  1  0.89010601  0.09236723  0.49798979  1
  Hf  Hf37  1  0.68368862  0.89655223  0.90677186  1
  Hf  Hf38  1  0.39580978  0.79478980  0.79922267  1
  Hf  Hf39  1  0.60260111  0.60673405  0.00491727  1
  Hf  Hf40  1  0.69261081  0.08276738  0.28860059  1
  Hf  Hf41  1  0.69633418  0.49869118  0.11059555  1
  Hf  Hf42  1  0.40515152  -0.00724928  0.20087416  1
  Hf  Hf43  1  0.29694192  0.29644707  0.50512924  1
  Hf  Hf44  1  -0.00563776  0.40514738  0.60027140  1
  Hf  Hf45  1  0.40418650  0.19868388  0.00233866  1
  Hf  Hf46  1  0.59291352  0.41046792  0.39850596  1
  Hf  Hf47  1  0.00459042  0.00599696  0.60759148  1
  Hf  Hf48  1  0.90088507  0.90129989  0.09652278  1
  Hf  Hf49  1  0.29280056  0.09008404  0.70074465  1
  Zr  Zr50  1  0.50840026  0.09795280  0.91045900  1
  Zr  Zr51  1  0.80208802  0.79293272  0.60296070  1
  Zr  Zr52  1  0.10609477  0.08875995  0.88945986  1
  Zr  Zr53  1  0.29769546  0.50532666  0.29403049  1
  Zr  Zr54  1  0.69230743  0.30321783  0.09697377  1
  Zr  Zr55  1  0.20260712  0.40666682  0.79810285  1
  Zr  Zr56  1  0.70545637  0.09847422  0.70177129  1
  Zr  Zr57  1  0.01155472  0.20112335  0.78891211  1
  Zr  Zr58  1  0.19022659  0.39187265  0.20017698  1
  Zr  Zr59  1  -0.00362425  0.59740038  0.20444792  1
  Zr  Zr60  1  0.19845542  0.19908931  -0.00141090  1
  Zr  Zr61  1  0.49598014  0.49945965  0.89292511  1
  Zr  Zr62  1  0.89470058  0.09880726  0.70401593  1
  Zr  Zr63  1  0.49957420  0.10168547  0.49589370  1
  Zr  Zr64  1  0.10555030  0.49766976  0.09866530  1
  Zr  Zr65  1  0.00499177  0.60381078  -0.00547409  1
  Zr  Zr66  1  0.29667405  0.70561387  0.91465577  1
  Zr  Zr67  1  0.19878389  -0.01437989  0.20223877  1
  Zr  Zr68  1  0.20578557  0.79716636  0.39825534  1
  Zr  Zr69  1  0.69661910  0.30080867  0.89127352  1
  Zr  Zr70  1  0.18818883  0.19967506  0.19223830  1
  Zr  Zr71  1  0.30105833  0.10299088  0.31047378  1
  Zr  Zr72  1  0.60032609  0.60178446  0.80198356  1
  Zr  Zr73  1  0.50314241  0.30704285  0.89567394  1
  Zr  Zr74  1  0.00654300  -0.00269836  0.19995089  1
  Zr  Zr75  1  0.79125069  0.79508148  0.01261178  1
  Zr  Zr76  1  0.69180106  0.31355301  0.28860572  1
  Zr  Zr77  1  0.20642809  0.79050649  0.60894271  1
  Zr  Zr78  1  0.90111708  0.09820367  0.89934690  1
  Zr  Zr79  1  0.00158819  -0.00502223  0.39480703  1
  Zr  Zr80  1  0.30303079  0.09206873  0.09894634  1
  Zr  Zr81  1  0.89639583  0.29377664  0.89314699  1
  Zr  Zr82  1  0.90417263  0.70768070  0.90171125  1
  Zr  Zr83  1  0.30522152  0.69608938  0.29050164  1
  Zr  Zr84  1  0.11391528  0.70001620  0.09891410  1
  Zr  Zr85  1  0.00087552  0.40601506  0.79406685  1
  Zr  Zr86  1  0.40511086  0.19623951  0.79029844  1
  Zr  Zr87  1  0.90238353  0.89996404  0.50128744  1
  Zr  Zr88  1  0.79878521  0.81038248  0.21353145  1
  Zr  Zr89  1  0.79372923  0.20216104  0.39242885  1
  Zr  Zr90  1  0.80515682  0.61545155  0.20035587  1
  Zr  Zr91  1  0.19464568  -0.00637440  0.00438991  1
  Zr  Zr92  1  0.89149218  0.30662616  0.49732055  1
  Zr  Zr93  1  0.80911368  0.61030207  0.59812910  1
  Zr  Zr94  1  0.20070935  -0.00887489  0.39342768  1
  Zr  Zr95  1  0.80442764  0.78804294  0.40999193  1
  Zr  Zr96  1  0.29886478  0.49849709  0.50144655  1
  Zr  Zr97  1  0.69761708  0.51257207  0.49797971  1
  Zr  Zr98  1  0.79348102  0.19477910  0.19067809  1
  Zr  Zr99  1  0.30108844  0.90508460  0.50598946  1
  Ta  Ta100  1  0.39992435  0.40400224  0.19875663  1
  Ta  Ta101  1  0.79630926  -0.00706550  0.81083789  1
  Ta  Ta102  1  0.40111829  0.39862930  0.60443117  1
  Ta  Ta103  1  0.10845121  0.50127529  0.30355589  1
  Ta  Ta104  1  0.49950231  0.49829103  0.69811332  1
  Ta  Ta105  1  0.89550081  0.90169772  0.70969488  1
  Ta  Ta106  1  0.79992739  0.80077421  0.80351734  1
  Ta  Ta107  1  0.39389094  0.60229542  0.79889508  1
  Ta  Ta108  1  0.89935926  0.30134053  0.29398018  1
  Ta  Ta109  1  0.09199798  0.88825141  0.08922219  1
  Ta  Ta110  1  0.79430224  0.60520575  0.00039370  1
  Ta  Ta111  1  0.10482846  0.69463018  0.29744234  1
  Ta  Ta112  1  0.01411975  0.19650212  0.00387975  1
  Ta  Ta113  1  0.50196609  0.30507573  0.50647800  1
  Ta  Ta114  1  0.50318029  0.09446913  0.30022516  1
  Ta  Ta115  1  0.30532391  0.30464583  0.89490077  1
  Ta  Ta116  1  0.10110398  0.89614561  0.50575448  1
  Ta  Ta117  1  0.39945235  0.59944982  0.00230538  1
  Ta  Ta118  1  0.89687341  0.09646674  0.29166766  1
  Ta  Ta119  1  0.70172064  0.50710381  0.30198805  1
  Ta  Ta120  1  0.10952808  0.30555160  0.69008147  1
  Ta  Ta121  1  0.79013202  0.00088511  -0.00271700  1
  Ta  Ta122  1  0.59818805  0.41256574  -0.00274921  1
  Ta  Ta123  1  0.70142523  0.50166258  0.89211256  1
  Ta  Ta124  1  0.59733456  0.20351211  0.60147388  1
  Ta  Ta125  1  0.10357755  0.10739536  0.30341592  1
  Ta  Ta126  1  0.60091914  0.19600851  0.79449195  1
  Ta  Ta127  1  0.11163484  0.30418561  0.50133099  1
  Ta  Ta128  1  0.80201922  -0.02016396  0.37118666  1
  Ta  Ta129  1  0.80219530  0.60515697  0.79509407  1
  Ta  Ta130  1  0.41025506  0.60299408  0.39711005  1
  Ta  Ta131  1  0.78625695  0.18981327  -0.00628312  1
  Ta  Ta132  1  0.10019448  0.50320705  0.69406850  1
  Ta  Ta133  1  0.00382559  0.20457229  0.59943160  1
  Ta  Ta134  1  0.10727401  0.30245521  0.89629195  1
  Ta  Ta135  1  0.50032685  0.70965544  0.90449822  1
  Ta  Ta136  1  0.30043809  0.90568726  0.70835039  1
  Ta  Ta137  1  0.40846798  -0.00861428  0.40098173  1
  Ta  Ta138  1  0.80190074  0.41318656  0.60677484  1
  Ta  Ta139  1  0.69398160  0.31621005  0.50548611  1
  Ta  Ta140  1  0.70098449  0.89779605  0.70651409  1
  Ta  Ta141  1  0.50655742  0.31128668  0.69939926  1
  Ta  Ta142  1  0.59002937  0.18998815  0.19293406  1
  Ta  Ta143  1  0.40249511  -0.00591880  -0.00110736  1
  Ta  Ta144  1  0.30188397  0.10284227  0.50366000  1
  Ta  Ta145  1  -0.00552704  0.79017672  0.19681582  1
  Ta  Ta146  1  0.30561117  0.09163382  0.89172828  1
  Ta  Ta147  1  0.49953247  0.30336256  0.29528370  1
  Ta  Ta148  1  0.39599553  0.40903197  -0.00002292  1
  Ta  Ta149  1  0.49916283  0.69486387  0.70271345  1
  Ti  Ti150  1  0.00189075  0.60225884  0.79504994  1
  Ti  Ti151  1  0.80167830  0.40953935  0.39344539  1
  Ti  Ti152  1  0.20116131  0.59149562  -0.00618139  1
  Ti  Ti153  1  0.80771394  0.40598703  0.20541857  1
  Ti  Ti154  1  0.30292920  0.69740894  0.10297439  1
  Ti  Ti155  1  0.00402166  0.39538526  0.20619284  1
  Ti  Ti156  1  0.30789512  0.49671089  0.70092125  1
  Ti  Ti157  1  0.50136651  0.89183588  0.71387730  1
  Ti  Ti158  1  0.69458517  0.91314200  0.10792441  1
  Ti  Ti159  1  0.49369331  0.50168489  0.10247343  1
  Ti  Ti160  1  0.40744178  0.20117030  0.60571798  1
  Ti  Ti161  1  0.68993905  0.50314156  0.69521391  1
  Ti  Ti162  1  0.49783517  0.89289418  0.90485899  1
  Ti  Ti163  1  0.40548001  0.20200967  0.40123541  1
  Ti  Ti164  1  0.90836274  0.70483671  0.31147876  1
  Ti  Ti165  1  0.19999858  0.80208012  0.19968240  1
  Ti  Ti166  1  0.20188490  0.59850888  0.40067822  1
  Ti  Ti167  1  0.68243527  0.09167419  0.08993190  1
  Ti  Ti168  1  0.80193955  0.41568311  0.78863648  1
  Ti  Ti169  1  0.20336415  0.20214798  0.79611123  1
  Ti  Ti170  1  0.90744831  0.90074891  0.90814021  1
  Ti  Ti171  1  0.69407274  0.70689021  0.89907428  1
  Ti  Ti172  1  0.30092068  0.50973164  0.10378497  1
  Ti  Ti173  1  0.39926011  0.60429259  0.60501801  1
  Ti  Ti174  1  0.19815096  0.19833696  0.60847685  1
  Ti  Ti175  1  0.41233005  0.79333351  0.20619544  1
  Ti  Ti176  1  0.48943609  0.70625980  0.09246255  1
  Ti  Ti177  1  0.00117956  -0.00712055  0.80277752  1
  Ti  Ti178  1  0.08847220  0.87957384  0.30200818  1
  Ti  Ti179  1  0.50181371  0.50442853  0.51607693  1
  Ti  Ti180  1  0.00970313  0.39847097  -0.01008185  1
  Ti  Ti181  1  0.49885344  0.69561359  0.50041041  1
  Ti  Ti182  1  0.89325627  0.29914046  0.70305772  1
  Ti  Ti183  1  -0.00567608  0.60031906  0.60595024  1
  Ti  Ti184  1  0.49716889  0.50412653  0.28882368  1
  Ti  Ti185  1  0.19868654  0.79711223  0.80059532  1
  Ti  Ti186  1  0.50969200  0.90005128  0.30461614  1
  Ti  Ti187  1  0.30908722  0.69694480  0.49214285  1
  Ti  Ti188  1  0.00165631  0.80428375  0.80283100  1
  Ti  Ti189  1  0.10170186  0.71768212  0.90812909  1
  Ti  Ti190  1  0.30544671  0.49851182  0.89795393  1
  Ti  Ti191  1  0.58862845  0.79985422  0.40480314  1
  Ti  Ti192  1  0.11043057  0.49424620  0.50486496  1
  Ti  Ti193  1  0.30692809  0.87961381  0.09501525  1
  Ti  Ti194  1  0.19941726  0.40623406  -0.01022935  1
  Ti  Ti195  1  0.31405901  0.88828414  0.30247563  1
  Ti  Ti196  1  0.89210180  0.50512114  0.49689186  1
  Ti  Ti197  1  0.09672838  0.69885471  0.70611028  1
  Ti  Ti198  1  0.58651107  0.60096815  0.40298675  1
  Ti  Ti199  1  0.30240136  0.30525988  0.69917658  1
  Mo  Mo200  1  0.68577925  0.89519260  0.30346335  1
  Mo  Mo201  1  0.10550921  0.10657007  0.69649570  1
  Mo  Mo202  1  0.50143504  0.10865887  0.69871790  1
  Mo  Mo203  1  0.39908251  0.79846728  0.00283445  1
  Mo  Mo204  1  0.59004513  0.41359421  0.20175707  1
  Mo  Mo205  1  0.59746412  0.40558025  0.59859778  1
  Mo  Mo206  1  0.60148109  0.40593070  0.79593761  1
  Mo  Mo207  1  0.20220231  0.80170807  0.00773794  1
  Mo  Mo208  1  0.40977968  0.79748386  0.39916989  1
  Mo  Mo209  1  0.00139244  0.80026880  0.00023789  1
  Mo  Mo210  1  0.49871607  0.89681534  0.49239692  1
  Mo  Mo211  1  0.39635837  0.40254947  0.79382123  1
  Mo  Mo212  1  0.60345346  0.19853918  0.00288455  1
  Mo  Mo213  1  0.59515260  0.79989412  0.80066582  1
  Mo  Mo214  1  0.50411668  0.09272679  0.10205955  1
  Mo  Mo215  1  0.67816949  0.69649469  0.49890656  1
  Mo  Mo216  1  0.40249047  0.60039365  0.19037394  1
  Mo  Mo217  1  0.89683619  0.49215808  0.29948354  1
  Mo  Mo218  1  0.69751228  0.69683576  0.09906418  1
  Mo  Mo219  1  0.79530612  -0.00171635  0.19335213  1
  Mo  Mo220  1  0.79381312  0.19752117  0.80060575  1
  Mo  Mo221  1  0.69890606  0.09787139  0.90051581  1
  Mo  Mo222  1  0.90639391  0.70270420  0.71376117  1
  Mo  Mo223  1  0.10157091  0.49975507  0.89440501  1
  Mo  Mo224  1  0.19897629  0.20013712  0.40881300  1
  Mo  Mo225  1  0.79816748  -0.00862539  0.61412477  1
  Mo  Mo226  1  0.59814684  0.79626988  0.00288485  1
  Mo  Mo227  1  0.09466739  0.30979554  0.08055313  1
  Mo  Mo228  1  0.59790262  -0.00877359  0.39555338  1
  Mo  Mo229  1  -0.00164469  -0.00464611  -0.00541958  1
  Mo  Mo230  1  0.09447450  0.08568037  0.09894009  1
  Mo  Mo231  1  0.00556643  0.79282543  0.39826418  1
  Mo  Mo232  1  0.40189650  -0.00666015  0.80445362  1
  Mo  Mo233  1  0.91682982  0.69428242  0.49631284  1
  Mo  Mo234  1  0.20385635  0.40192705  0.60463861  1
  Mo  Mo235  1  0.59550257  -0.00336558  0.19752991  1
  Mo  Mo236  1  0.30382429  0.69811139  0.70585815  1
  Mo  Mo237  1  0.20157561  -0.00331248  0.80096343  1
  Mo  Mo238  1  0.49717474  0.70274959  0.30520893  1
  Mo  Mo239  1  0.90218361  0.51002800  0.69984435  1
  Mo  Mo240  1  0.80768047  0.59686660  0.39752392  1
  Mo  Mo241  1  0.59017383  0.60291157  0.59949447  1
  Mo  Mo242  1  0.59794248  -0.00226255  0.00079154  1
  Mo  Mo243  1  0.09544123  0.89012004  0.89730905  1
  Mo  Mo244  1  0.89807988  0.70095637  0.09928451  1
  Mo  Mo245  1  0.20313800  0.00100862  0.60078901  1
  Mo  Mo246  1  0.19411668  0.40239886  0.40542459  1
  Mo  Mo247  1  0.20228757  0.59946629  0.20032570  1
  Mo  Mo248  1  0.09585286  0.30098824  0.31249239  1
  Mo  Mo249  1  0.91018615  0.89519678  0.29547558  1
