# generated using pymatgen
data_HfZrTaTiMo
_symmetry_space_group_name_H-M   'P 1'
_cell_length_a   16.89126976
_cell_length_b   16.89033660
_cell_length_c   16.88290994
_cell_angle_alpha   90.04221631
_cell_angle_beta   89.95464421
_cell_angle_gamma   89.97345602
_symmetry_Int_Tables_number   1
_chemical_formula_structural   HfZrTaTiMo
_chemical_formula_sum   'Hf50 Zr50 Ta50 Ti50 Mo50'
_cell_volume   4816.67790090
_cell_formula_units_Z   50
loop_
 _symmetry_equiv_pos_site_id
 _symmetry_equiv_pos_as_xyz
  1  'x, y, z'
loop_
 _atom_site_type_symbol
 _atom_site_label
 _atom_site_symmetry_multiplicity
 _atom_site_fract_x
 _atom_site_fract_y
 _atom_site_fract_z
 _atom_site_occupancy
  Hf  Hf0  1  0.40979561  0.60258805  0.59577334  1
  Hf  Hf1  1  0.31078437  0.29351154  0.29647771  1
  Hf  Hf2  1  0.19469925  0.39671450  0.19576061  1
  Hf  Hf3  1  0.90659264  0.69846073  0.09781196  1
  Hf  Hf4  1  0.29876039  0.30082551  0.48556514  1
  Hf  Hf5  1  0.20182712  0.59081911  -0.00285331  1
  Hf  Hf6  1  -0.00402724  0.19537836  0.39367840  1
  Hf  Hf7  1  -0.00737345  0.20131052  0.19281677  1
  Hf  Hf8  1  0.00719020  0.39808374  0.79096804  1
  Hf  Hf9  1  0.29124702  0.70353256  0.69784582  1
  Hf  Hf10  1  0.60672804  0.01224956  0.60282167  1
  Hf  Hf11  1  0.09812792  0.09136489  0.49763766  1
  Hf  Hf12  1  0.79673157  0.80917890  0.20044972  1
  Hf  Hf13  1  0.70663714  0.09867105  0.89787024  1
  Hf  Hf14  1  0.89941267  0.70281417  0.30313773  1
  Hf  Hf15  1  0.00110494  0.80267834  0.60042640  1
  Hf  Hf16  1  0.10040182  0.29557981  0.49125483  1
  Hf  Hf17  1  0.00605627  0.60060102  0.40050321  1
  Hf  Hf18  1  0.20420988  -0.00402257  0.20125094  1
  Hf  Hf19  1  0.10813536  0.09583635  0.69781410  1
  Hf  Hf20  1  0.61367236  0.38207360  0.59649789  1
  Hf  Hf21  1  0.80686263  0.19275031  0.00918833  1
  Hf  Hf22  1  0.69166463  0.29907334  0.29495869  1
  Hf  Hf23  1  0.39729818  0.59659354  0.80355693  1
  Hf  Hf24  1  0.78229167  0.20593829  0.60725899  1
  Hf  Hf25  1  0.69852027  0.49890990  0.90203996  1
  Hf  Hf26  1  0.09124136  0.69916806  0.90556838  1
  Hf  Hf27  1  0.78733955  0.00076517  0.40355728  1
  Hf  Hf28  1  0.69850080  0.69626536  0.89435535  1
  Hf  Hf29  1  0.59811375  0.79920594  0.00524115  1
  Hf  Hf30  1  0.78881710  0.81085905  0.40910496  1
  Hf  Hf31  1  0.50565851  0.91412169  0.49408739  1
  Hf  Hf32  1  0.49754816  0.90834304  0.69968220  1
  Hf  Hf33  1  0.40905609  0.39550178  0.59466473  1
  Hf  Hf34  1  0.39657575  0.00814807  0.39249976  1
  Hf  Hf35  1  0.30141913  0.29352884  0.70481125  1
  Hf  Hf36  1  0.80149364  0.59639804  0.20344423  1
  Hf  Hf37  1  0.30008100  0.50051467  0.69354915  1
  Hf  Hf38  1  0.18228590  0.59966802  0.59154114  1
  Hf  Hf39  1  0.18317227  0.39696372  0.61007261  1
  Hf  Hf40  1  0.19224965  0.58700297  0.80364082  1
  Hf  Hf41  1  0.79801962  0.18996039  0.19298969  1
  Hf  Hf42  1  0.30539807  0.48769979  0.30004503  1
  Hf  Hf43  1  0.39781906  0.39929494  0.81227586  1
  Hf  Hf44  1  0.89592609  0.30317223  0.90344605  1
  Hf  Hf45  1  0.41094823  0.59531644  0.39805256  1
  Hf  Hf46  1  0.20088297  0.80447462  0.01064527  1
  Hf  Hf47  1  -0.00750121  0.00462505  0.80558004  1
  Hf  Hf48  1  0.19192164  0.59929418  0.20120345  1
  Hf  Hf49  1  0.79941624  0.39937059  0.60028958  1
  Zr  Zr50  1  0.20406530  -0.00257756  0.00518623  1
  Zr  Zr51  1  0.18671896  0.59800289  0.39366397  1
  Zr  Zr52  1  0.00443204  0.39842247  0.19641672  1
  Zr  Zr53  1  0.69532985  0.31197940  0.09551328  1
  Zr  Zr54  1  0.89371708  0.30274411  0.29956788  1
  Zr  Zr55  1  0.40682938  0.19669615  0.59332487  1
  Zr  Zr56  1  0.20569155  0.19374026  0.60245163  1
  Zr  Zr57  1  -0.00000062  0.19752531  0.80182552  1
  Zr  Zr58  1  0.48884164  0.09940151  0.09615153  1
  Zr  Zr59  1  -0.00982352  -0.00812141  0.61757107  1
  Zr  Zr60  1  0.69151973  0.50221395  0.09413597  1
  Zr  Zr61  1  0.51090105  0.69551267  0.90016872  1
  Zr  Zr62  1  0.51418911  0.49936905  0.91114029  1
  Zr  Zr63  1  -0.00956635  -0.00653446  0.19462538  1
  Zr  Zr64  1  -0.00395404  0.19257094  0.00079121  1
  Zr  Zr65  1  0.09854517  0.90210469  0.90413199  1
  Zr  Zr66  1  0.59921187  0.19463228  -0.00056992  1
  Zr  Zr67  1  0.60728006  0.80133779  0.59788287  1
  Zr  Zr68  1  -0.00161743  0.81444510  0.78767142  1
  Zr  Zr69  1  0.40524179  0.60082132  0.00710586  1
  Zr  Zr70  1  0.09369124  0.90759487  0.30952031  1
  Zr  Zr71  1  0.89874322  0.30330092  0.49544586  1
  Zr  Zr72  1  0.20622838  0.01005307  0.80608925  1
  Zr  Zr73  1  0.90239260  0.70280661  0.89733087  1
  Zr  Zr74  1  0.78775120  0.41094685  0.40273258  1
  Zr  Zr75  1  0.09868505  0.09404303  0.10060938  1
  Zr  Zr76  1  0.19046173  0.79392835  0.39859286  1
  Zr  Zr77  1  0.60733440  0.19636884  0.79210269  1
  Zr  Zr78  1  0.29593977  0.90603096  0.50220129  1
  Zr  Zr79  1  0.29659555  0.70903401  0.90188693  1
  Zr  Zr80  1  0.40605437  0.79947939  0.59788017  1
  Zr  Zr81  1  0.30684304  0.70120823  0.29515614  1
  Zr  Zr82  1  0.49432060  0.11756052  0.30058195  1
  Zr  Zr83  1  0.60206542  0.59421324  0.39821066  1
  Zr  Zr84  1  0.20548377  0.19917121  -0.00469286  1
  Zr  Zr85  1  0.29923492  0.70221901  0.50031804  1
  Zr  Zr86  1  0.31271649  0.49107026  0.10284821  1
  Zr  Zr87  1  0.60144442  0.00480849  0.20008279  1
  Zr  Zr88  1  0.40486863  0.79978067  0.79524859  1
  Zr  Zr89  1  0.19958742  0.39934867  0.80823906  1
  Zr  Zr90  1  0.80237786  0.39634527  0.79040832  1
  Zr  Zr91  1  0.51652276  0.50362405  0.70038827  1
  Zr  Zr92  1  0.29439741  0.49012495  0.49267527  1
  Zr  Zr93  1  0.89107206  0.69903991  0.50030003  1
  Zr  Zr94  1  0.89038927  0.69742340  0.70230438  1
  Zr  Zr95  1  0.40429212  0.19542956  0.80584546  1
  Zr  Zr96  1  0.00405567  0.59164778  0.59551902  1
  Zr  Zr97  1  0.69679990  0.69946728  0.30208107  1
  Zr  Zr98  1  0.89794879  0.09999689  0.50339470  1
  Zr  Zr99  1  0.80408370  0.60246509  -0.00042749  1
  Ta  Ta100  1  0.80258488  0.40607030  0.19564376  1
  Ta  Ta101  1  0.59693642  0.80299793  0.19753264  1
  Ta  Ta102  1  0.29637365  0.90938177  0.69835895  1
  Ta  Ta103  1  0.41048992  0.80272841  0.39470411  1
  Ta  Ta104  1  0.00350157  0.58766580  0.80078519  1
  Ta  Ta105  1  0.89589267  0.09212650  0.30198810  1
  Ta  Ta106  1  0.59618567  0.39901142  0.40028768  1
  Ta  Ta107  1  0.90103724  0.50078462  0.69560835  1
  Ta  Ta108  1  0.79526367  0.81348187  0.60051854  1
  Ta  Ta109  1  -0.00250315  0.39587886  0.60445658  1
  Ta  Ta110  1  0.41487282  0.59750812  0.20051639  1
  Ta  Ta111  1  0.79609706  0.80557377  0.00214027  1
  Ta  Ta112  1  0.00519543  0.59801730  0.20396356  1
  Ta  Ta113  1  0.20782918  0.39781776  -0.00542004  1
  Ta  Ta114  1  0.60261806  0.80448385  0.79748092  1
  Ta  Ta115  1  0.61008209  0.39574503  0.79487358  1
  Ta  Ta116  1  0.69763287  0.90494760  0.70608877  1
  Ta  Ta117  1  0.19228608  0.80199000  0.19659879  1
  Ta  Ta118  1  0.31123155  0.29872083  0.10162516  1
  Ta  Ta119  1  0.80047004  0.00197504  0.79894992  1
  Ta  Ta120  1  0.20095283  0.19796406  0.20062048  1
  Ta  Ta121  1  0.31165444  0.90234866  0.90135924  1
  Ta  Ta122  1  0.50810978  0.30450477  0.90370966  1
  Ta  Ta123  1  0.09651744  0.09822276  0.30016627  1
  Ta  Ta124  1  0.59983556  0.00034986  -0.00182253  1
  Ta  Ta125  1  0.79213109  0.00039720  0.60357153  1
  Ta  Ta126  1  0.59838392  0.00311308  0.80378006  1
  Ta  Ta127  1  0.30480082  0.89581106  0.29730894  1
  Ta  Ta128  1  0.50623206  0.29846782  0.70036469  1
  Ta  Ta129  1  0.30932741  0.10485698  0.10542931  1
  Ta  Ta130  1  -0.00103815  0.20879035  0.61203419  1
  Ta  Ta131  1  0.90512701  0.49814980  0.09535671  1
  Ta  Ta132  1  0.79387854  0.00005747  0.20016641  1
  Ta  Ta133  1  0.09925441  0.91059959  0.50297093  1
  Ta  Ta134  1  0.79979457  -0.00056710  0.00445257  1
  Ta  Ta135  1  0.10248147  0.29834989  0.90195783  1
  Ta  Ta136  1  0.09512439  0.69858812  0.09801998  1
  Ta  Ta137  1  0.30326765  0.70332099  0.10688131  1
  Ta  Ta138  1  0.90610836  0.49791279  0.30390921  1
  Ta  Ta139  1  0.50634412  0.70294609  0.29644609  1
  Ta  Ta140  1  0.69615039  0.90233008  0.09777484  1
  Ta  Ta141  1  0.49951298  0.90574402  0.90375190  1
  Ta  Ta142  1  0.49670256  0.90190503  0.10090624  1
  Ta  Ta143  1  0.50907543  0.48734626  0.10603931  1
  Ta  Ta144  1  0.42091584  0.39616507  0.39754666  1
  Ta  Ta145  1  0.70433842  0.30265519  0.90178394  1
  Ta  Ta146  1  0.78954882  0.19625574  0.39899258  1
  Ta  Ta147  1  0.69879193  0.90075579  0.90039136  1
  Ta  Ta148  1  0.00301039  0.80037782  0.20056085  1
  Ta  Ta149  1  0.31921968  0.09542574  0.91403472  1
  Ti  Ti150  1  0.69264399  0.69813677  0.10340854  1
  Ti  Ti151  1  0.20470278  0.19532780  0.81023751  1
  Ti  Ti152  1  0.50048570  0.10224358  0.69841336  1
  Ti  Ti153  1  0.39518174  0.00079633  0.20499456  1
  Ti  Ti154  1  0.68829576  0.90541679  0.30303725  1
  Ti  Ti155  1  0.80054943  0.59058641  0.40410452  1
  Ti  Ti156  1  0.90106327  0.90312228  0.31010289  1
  Ti  Ti157  1  0.10206685  0.30222419  0.30632787  1
  Ti  Ti158  1  0.79504725  0.80786324  0.79742513  1
  Ti  Ti159  1  0.79699913  0.59266228  0.60086328  1
  Ti  Ti160  1  0.40713420  0.79970204  0.19962799  1
  Ti  Ti161  1  0.00549929  0.39994188  -0.00253085  1
  Ti  Ti162  1  0.90600377  0.49941783  0.90455704  1
  Ti  Ti163  1  0.20645750  0.00562668  0.39345153  1
  Ti  Ti164  1  0.88654737  0.10834018  0.70616781  1
  Ti  Ti165  1  0.50380866  0.10566609  0.49272201  1
  Ti  Ti166  1  0.18823897  0.80643100  0.60268786  1
  Ti  Ti167  1  0.69429666  0.50729355  0.50961452  1
  Ti  Ti168  1  0.69865478  0.69355310  0.69979728  1
  Ti  Ti169  1  0.51217415  0.49829729  0.50436812  1
  Ti  Ti170  1  0.90219003  0.90685098  0.49766610  1
  Ti  Ti171  1  0.09345560  0.47638711  0.48282594  1
  Ti  Ti172  1  0.60098662  0.80734395  0.40049814  1
  Ti  Ti173  1  0.30055128  0.10448944  0.49172265  1
  Ti  Ti174  1  0.79993454  0.59006508  0.79450713  1
  Ti  Ti175  1  0.68912386  0.10513017  0.30389288  1
  Ti  Ti176  1  0.69914165  0.69543533  0.50488258  1
  Ti  Ti177  1  0.00230537  0.79932770  0.40462330  1
  Ti  Ti178  1  0.09388451  0.50278639  0.09045900  1
  Ti  Ti179  1  0.40548723  0.21085966  -0.00321304  1
  Ti  Ti180  1  0.68634593  0.49673803  0.28662446  1
  Ti  Ti181  1  0.10309332  0.29848260  0.09264980  1
  Ti  Ti182  1  -0.00131765  0.81067767  0.00779387  1
  Ti  Ti183  1  0.39138872  0.01392980  0.60333900  1
  Ti  Ti184  1  0.51515875  0.69367478  0.70093434  1
  Ti  Ti185  1  0.50236936  0.90274309  0.29971095  1
  Ti  Ti186  1  0.19655989  0.80977209  0.79666863  1
  Ti  Ti187  1  0.51031976  0.70213132  0.49530174  1
  Ti  Ti188  1  0.40385231  0.00675655  0.80280524  1
  Ti  Ti189  1  0.59427829  0.21274585  0.40820364  1
  Ti  Ti190  1  0.59677621  0.20217092  0.18731157  1
  Ti  Ti191  1  0.50012032  0.30235031  0.28678044  1
  Ti  Ti192  1  0.89507212  0.89954388  0.09651276  1
  Ti  Ti193  1  0.31220902  0.89867792  0.10363680  1
  Ti  Ti194  1  -0.00929035  0.00374441  -0.00322306  1
  Ti  Ti195  1  0.40423607  0.80002019  0.00613271  1
  Ti  Ti196  1  0.68861012  0.10747664  0.49574122  1
  Ti  Ti197  1  0.09892909  0.70055526  0.70483738  1
  Ti  Ti198  1  0.89072697  0.90029179  0.90341385  1
  Ti  Ti199  1  0.20299380  0.19028120  0.38700251  1
  Mo  Mo200  1  0.40093859  -0.00938509  0.00362111  1
  Mo  Mo201  1  0.20807578  0.00059123  0.59575709  1
  Mo  Mo202  1  0.70296079  0.09604734  0.70348398  1
  Mo  Mo203  1  -0.00808816  -0.00128631  0.40080184  1
  Mo  Mo204  1  0.49743510  0.70665875  0.10904935  1
  Mo  Mo205  1  0.41036289  0.39659539  0.20096547  1
  Mo  Mo206  1  0.70056143  0.29525213  0.70711451  1
  Mo  Mo207  1  0.60041860  0.60710455  0.01595255  1
  Mo  Mo208  1  0.40354594  0.20281777  0.39820984  1
  Mo  Mo209  1  0.09075218  0.70517336  0.29212173  1
  Mo  Mo210  1  0.87967855  0.89994300  0.70296213  1
  Mo  Mo211  1  0.59830687  0.00813852  0.39922027  1
  Mo  Mo212  1  0.59452885  0.60363787  0.19895536  1
  Mo  Mo213  1  0.49622594  0.30332255  0.09894697  1
  Mo  Mo214  1  0.89581437  0.08338779  0.10378561  1
  Mo  Mo215  1  0.89804864  0.50051672  0.49974492  1
  Mo  Mo216  1  0.39712359  0.20375761  0.19510914  1
  Mo  Mo217  1  0.30393962  0.49221289  0.90741539  1
  Mo  Mo218  1  0.80746810  0.40206400  -0.00124298  1
  Mo  Mo219  1  0.30373140  0.29473250  0.90789572  1
  Mo  Mo220  1  0.50455321  0.49653305  0.29409082  1
  Mo  Mo221  1  0.89581386  0.09195155  0.90246341  1
  Mo  Mo222  1  0.49948074  0.09370918  0.90129748  1
  Mo  Mo223  1  0.09177575  0.89262878  0.10002901  1
  Mo  Mo224  1  0.90034508  0.29760326  0.69824552  1
  Mo  Mo225  1  0.69812438  0.09152010  0.10085310  1
  Mo  Mo226  1  0.09481591  0.49843059  0.70152559  1
  Mo  Mo227  1  0.61251961  0.59978166  0.78728799  1
  Mo  Mo228  1  0.40533876  0.39113775  0.00285892  1
  Mo  Mo229  1  0.59748297  0.39933285  0.20358163  1
  Mo  Mo230  1  0.09330788  0.71746374  0.50143342  1
  Mo  Mo231  1  0.89526087  0.31847870  0.09470958  1
  Mo  Mo232  1  -0.00271993  0.39964067  0.39706099  1
  Mo  Mo233  1  0.59689820  0.19629859  0.59689600  1
  Mo  Mo234  1  0.00340762  0.59125052  0.00070925  1
  Mo  Mo235  1  0.09623093  0.10283653  0.90058715  1
  Mo  Mo236  1  0.19275648  0.39308441  0.38805110  1
  Mo  Mo237  1  0.11817149  0.90278607  0.69680833  1
  Mo  Mo238  1  0.60072562  0.39360032  -0.00465922  1
  Mo  Mo239  1  0.50196359  0.29720890  0.49579128  1
  Mo  Mo240  1  0.69524528  0.29388021  0.48934080  1
  Mo  Mo241  1  0.29453471  0.10040833  0.29612604  1
  Mo  Mo242  1  0.69684618  0.90721036  0.50301984  1
  Mo  Mo243  1  0.70608429  0.50484149  0.69753095  1
  Mo  Mo244  1  0.30726109  0.09606802  0.70766614  1
  Mo  Mo245  1  0.10197989  0.29191764  0.70545444  1
  Mo  Mo246  1  0.80253401  0.19796904  0.80121377  1
  Mo  Mo247  1  0.60854797  0.60649079  0.59557607  1
  Mo  Mo248  1  0.09654372  0.49289325  0.29948002  1
  Mo  Mo249  1  0.09369591  0.49362419  0.90802335  1
