# generated using pymatgen
data_HfZrTaTiMo
_symmetry_space_group_name_H-M   'P 1'
_cell_length_a   16.88976433
_cell_length_b   16.89168027
_cell_length_c   16.88709378
_cell_angle_alpha   89.95571177
_cell_angle_beta   90.02137195
_cell_angle_gamma   89.98846895
_symmetry_Int_Tables_number   1
_chemical_formula_structural   HfZrTaTiMo
_chemical_formula_sum   'Hf50 Zr50 Ta50 Ti50 Mo50'
_cell_volume   4817.82685737
_cell_formula_units_Z   50
loop_
 _symmetry_equiv_pos_site_id
 _symmetry_equiv_pos_as_xyz
  1  'x, y, z'
loop_
 _atom_site_type_symbol
 _atom_site_label
 _atom_site_symmetry_multiplicity
 _atom_site_fract_x
 _atom_site_fract_y
 _atom_site_fract_z
 _atom_site_occupancy
  Hf  Hf0  1  -0.00438952  0.18331230  0.58633109  1
  Hf  Hf1  1  0.79782782  0.78864090  0.39733917  1
  Hf  Hf2  1  0.29558003  0.29868852  0.89273844  1
  Hf  Hf3  1  0.59742804  0.00552170  0.80777375  1
  Hf  Hf4  1  0.80112345  0.19633532  0.39073594  1
  Hf  Hf5  1  0.30010331  0.30631293  0.49792680  1
  Hf  Hf6  1  0.10200730  0.70540285  0.50990826  1
  Hf  Hf7  1  0.21984517  0.80883115  0.40198673  1
  Hf  Hf8  1  0.00505581  0.40025080  0.80373258  1
  Hf  Hf9  1  0.70031227  0.49108545  0.09738811  1
  Hf  Hf10  1  0.10538145  0.29720106  0.69666412  1
  Hf  Hf11  1  0.30768798  0.09238388  0.30049656  1
  Hf  Hf12  1  0.40868617  0.60132624  0.41858073  1
  Hf  Hf13  1  0.80565036  0.61177280  0.80223807  1
  Hf  Hf14  1  0.09252981  0.90808806  0.30117517  1
  Hf  Hf15  1  0.79313056  0.18727240  -0.00227162  1
  Hf  Hf16  1  0.09821848  0.69751035  0.69790806  1
  Hf  Hf17  1  0.89755632  0.29206928  0.89317160  1
  Hf  Hf18  1  0.20815074  0.20262758  0.20058685  1
  Hf  Hf19  1  0.50708297  0.49254145  0.89556024  1
  Hf  Hf20  1  0.70240599  0.90292295  0.29867633  1
  Hf  Hf21  1  0.20288347  0.60047467  0.19047651  1
  Hf  Hf22  1  0.79724548  0.39793337  0.39597122  1
  Hf  Hf23  1  0.31065644  0.48579892  0.30836185  1
  Hf  Hf24  1  0.40299300  0.38798517  0.79199964  1
  Hf  Hf25  1  0.39613491  0.18525077  0.79915029  1
  Hf  Hf26  1  0.30310302  0.50264050  0.89853258  1
  Hf  Hf27  1  0.69240028  0.29997021  0.69746885  1
  Hf  Hf28  1  0.50558636  0.69667153  0.29784432  1
  Hf  Hf29  1  -0.00826995  0.40295333  0.60057791  1
  Hf  Hf30  1  0.70170528  0.90335605  0.49675570  1
  Hf  Hf31  1  0.09414145  0.09513033  0.89684565  1
  Hf  Hf32  1  0.61212133  0.60610471  0.79705972  1
  Hf  Hf33  1  0.10210857  0.49632031  0.30367939  1
  Hf  Hf34  1  -0.00849220  0.60071224  0.40339988  1
  Hf  Hf35  1  0.10661873  0.90357522  0.50752682  1
  Hf  Hf36  1  -0.01373018  0.39600875  0.39957892  1
  Hf  Hf37  1  0.70230456  0.71146764  0.90651504  1
  Hf  Hf38  1  0.49584003  0.50037651  0.29814139  1
  Hf  Hf39  1  0.09081723  0.08854121  0.10805301  1
  Hf  Hf40  1  -0.01449749  0.20557716  0.21034109  1
  Hf  Hf41  1  0.10331847  0.30444639  0.30656038  1
  Hf  Hf42  1  0.59899469  0.39540963  0.40313311  1
  Hf  Hf43  1  0.00037635  0.60853127  0.19421109  1
  Hf  Hf44  1  0.59046421  0.79908113  0.40824004  1
  Hf  Hf45  1  0.49030617  0.72785601  0.10430258  1
  Hf  Hf46  1  0.50644439  0.49300780  0.69967826  1
  Hf  Hf47  1  0.59034243  0.00140253  0.59394987  1
  Hf  Hf48  1  0.10121278  0.09593112  0.30118158  1
  Hf  Hf49  1  0.19848496  0.19493371  -0.00545624  1
  Zr  Zr50  1  0.69673123  0.29760656  0.50736289  1
  Zr  Zr51  1  0.11423784  0.48814809  0.50352033  1
  Zr  Zr52  1  0.30618996  0.10164334  0.49758679  1
  Zr  Zr53  1  0.41943282  0.59306657  0.01152619  1
  Zr  Zr54  1  0.89296140  0.08878780  0.29658794  1
  Zr  Zr55  1  0.70216527  0.90429023  0.70383710  1
  Zr  Zr56  1  0.31742897  0.89414339  0.09222130  1
  Zr  Zr57  1  0.19933703  0.79946335  0.80524732  1
  Zr  Zr58  1  0.10092893  0.09544938  0.69665252  1
  Zr  Zr59  1  0.69203794  0.30484166  0.89885571  1
  Zr  Zr60  1  0.09987494  0.50397661  0.09087991  1
  Zr  Zr61  1  0.40756168  -0.01650726  0.40405197  1
  Zr  Zr62  1  0.69449625  0.50434021  0.29964387  1
  Zr  Zr63  1  0.18980236  0.39613228  -0.01253840  1
  Zr  Zr64  1  0.10731231  0.29990635  0.50349061  1
  Zr  Zr65  1  0.89656585  0.50280842  0.09885290  1
  Zr  Zr66  1  -0.00431094  0.79742877  0.40198245  1
  Zr  Zr67  1  0.79724918  0.61262931  0.20025927  1
  Zr  Zr68  1  0.59139082  0.19400257  0.80252869  1
  Zr  Zr69  1  0.50332095  0.70473410  0.90458344  1
  Zr  Zr70  1  0.19954937  -0.00841264  -0.00226892  1
  Zr  Zr71  1  0.30829979  0.08988009  0.10363124  1
  Zr  Zr72  1  0.69312727  0.49310660  0.69290587  1
  Zr  Zr73  1  0.30716188  0.69657973  0.90572908  1
  Zr  Zr74  1  0.79996534  0.60573513  0.60329726  1
  Zr  Zr75  1  -0.00795614  0.79356221  0.80709720  1
  Zr  Zr76  1  0.69329864  0.71759872  0.10241737  1
  Zr  Zr77  1  0.10099381  0.70232903  0.30241846  1
  Zr  Zr78  1  0.88984790  0.28870023  0.69596999  1
  Zr  Zr79  1  0.09245457  0.29865517  0.10080476  1
  Zr  Zr80  1  0.40379555  0.19852444  -0.00518330  1
  Zr  Zr81  1  0.21055944  0.39382287  0.19780437  1
  Zr  Zr82  1  0.21344452  0.60108122  0.41382251  1
  Zr  Zr83  1  0.49662929  0.30248477  0.30231896  1
  Zr  Zr84  1  0.39867134  0.59750859  0.59689645  1
  Zr  Zr85  1  0.49803005  0.69860706  0.70326425  1
  Zr  Zr86  1  0.70051267  0.10175930  0.49415558  1
  Zr  Zr87  1  -0.00752236  0.19742335  -0.00252310  1
  Zr  Zr88  1  0.40132804  0.21148496  0.19621030  1
  Zr  Zr89  1  0.89268818  0.90112898  0.49809753  1
  Zr  Zr90  1  -0.00345657  0.01493292  0.41997566  1
  Zr  Zr91  1  0.30527649  0.90129654  0.70152648  1
  Zr  Zr92  1  0.80590556  0.41212253  0.79775972  1
  Zr  Zr93  1  0.80531474  0.39711689  -0.00120862  1
  Zr  Zr94  1  0.31344445  0.68861194  0.29391853  1
  Zr  Zr95  1  0.19735066  0.80251138  0.19402969  1
  Zr  Zr96  1  0.39516414  0.82312972  0.22473119  1
  Zr  Zr97  1  0.40925848  0.00694736  -0.02069220  1
  Zr  Zr98  1  0.58701284  0.59573077  0.18097510  1
  Zr  Zr99  1  -0.01002129  -0.00745418  0.79539195  1
  Ta  Ta100  1  0.30554443  0.69861310  0.09391828  1
  Ta  Ta101  1  -0.01226098  0.39931597  0.20182819  1
  Ta  Ta102  1  0.79638320  0.00221228  0.00106950  1
  Ta  Ta103  1  0.89119652  0.10019501  0.70076660  1
  Ta  Ta104  1  -0.00440782  0.20064338  0.40392941  1
  Ta  Ta105  1  -0.00222100  0.39839337  -0.00788569  1
  Ta  Ta106  1  0.20820760  0.00120294  0.59868484  1
  Ta  Ta107  1  0.69318364  0.50449816  0.50091242  1
  Ta  Ta108  1  0.50657625  0.10318592  0.29895296  1
  Ta  Ta109  1  0.70197029  0.90136970  0.90451343  1
  Ta  Ta110  1  0.60025198  0.79814678  0.60087495  1
  Ta  Ta111  1  0.20168697  0.60029988  0.79755305  1
  Ta  Ta112  1  0.89496990  0.90004184  0.90523453  1
  Ta  Ta113  1  0.79184625  0.00429927  0.19344901  1
  Ta  Ta114  1  0.80479239  0.80847959  0.00288965  1
  Ta  Ta115  1  0.30563488  0.69736890  0.70393731  1
  Ta  Ta116  1  0.89468064  0.50363615  0.29760302  1
  Ta  Ta117  1  0.40412852  0.39506700  0.60094927  1
  Ta  Ta118  1  0.30576734  0.50075965  0.09128761  1
  Ta  Ta119  1  0.10465717  0.50372307  0.70042026  1
  Ta  Ta120  1  0.50899765  0.10331680  0.10215262  1
  Ta  Ta121  1  0.09592260  0.89886971  0.90133989  1
  Ta  Ta122  1  0.09766314  0.51198881  0.89548907  1
  Ta  Ta123  1  0.69707037  0.50095422  0.90500874  1
  Ta  Ta124  1  0.50184863  0.30106826  0.90353871  1
  Ta  Ta125  1  0.89499036  0.90157586  0.29085483  1
  Ta  Ta126  1  0.10289714  0.89909377  0.69695438  1
  Ta  Ta127  1  0.60314488  0.80489136  0.79775002  1
  Ta  Ta128  1  0.69462371  0.29233274  0.10614366  1
  Ta  Ta129  1  0.40321067  -0.00060795  0.59711584  1
  Ta  Ta130  1  0.40622483  0.80362029  0.59077934  1
  Ta  Ta131  1  0.69288322  0.28485430  0.29131970  1
  Ta  Ta132  1  0.40443814  0.80242006  0.80103366  1
  Ta  Ta133  1  0.89037696  0.29244923  0.50221849  1
  Ta  Ta134  1  0.70144990  0.10281450  0.69586307  1
  Ta  Ta135  1  0.19200842  0.79652001  0.00289477  1
  Ta  Ta136  1  0.80507437  0.00119659  0.60480948  1
  Ta  Ta137  1  0.89802860  0.90421412  0.10468018  1
  Ta  Ta138  1  0.20297267  -0.01170751  0.20004513  1
  Ta  Ta139  1  0.58637724  0.19418886  0.60065889  1
  Ta  Ta140  1  0.49839064  0.90035678  0.70172806  1
  Ta  Ta141  1  0.60358080  0.00570733  0.19884899  1
  Ta  Ta142  1  0.00044930  0.80073499  0.00256239  1
  Ta  Ta143  1  0.20945382  0.59855431  0.60289120  1
  Ta  Ta144  1  -0.00325664  0.61355122  -0.00426511  1
  Ta  Ta145  1  0.20205988  0.19737168  0.39810907  1
  Ta  Ta146  1  0.79902216  0.00398155  0.80744202  1
  Ta  Ta147  1  0.20839626  0.00196742  0.79989199  1
  Ta  Ta148  1  0.29909452  0.49702717  0.70250887  1
  Ta  Ta149  1  0.79725149  0.79654738  0.60848856  1
  Ti  Ti150  1  0.60007517  0.61094747  0.59551597  1
  Ti  Ti151  1  0.59742880  0.81912648  -0.00026212  1
  Ti  Ti152  1  0.88889734  0.50433361  0.49851517  1
  Ti  Ti153  1  0.89817572  0.70912537  0.28916231  1
  Ti  Ti154  1  0.40436770  0.19780392  0.60648008  1
  Ti  Ti155  1  0.51400755  0.90740818  0.29599086  1
  Ti  Ti156  1  0.80251555  0.40402431  0.59699017  1
  Ti  Ti157  1  0.90621105  0.69883619  0.69962194  1
  Ti  Ti158  1  0.20506282  0.18901780  0.60000757  1
  Ti  Ti159  1  -0.00588987  -0.00033985  0.60303836  1
  Ti  Ti160  1  -0.00180352  0.19486184  0.79877936  1
  Ti  Ti161  1  0.19522382  0.40102308  0.79720806  1
  Ti  Ti162  1  0.90709998  0.51269548  0.90047526  1
  Ti  Ti163  1  0.51174575  0.49482844  0.50703106  1
  Ti  Ti164  1  0.60242600  0.59724978  0.00269880  1
  Ti  Ti165  1  0.79645647  0.60539599  0.39771335  1
  Ti  Ti166  1  0.30414430  0.89742384  0.89766960  1
  Ti  Ti167  1  0.59653500  0.00774776  0.40036515  1
  Ti  Ti168  1  0.60665024  0.01093045  -0.00146486  1
  Ti  Ti169  1  0.89649218  0.71225286  0.09923784  1
  Ti  Ti170  1  0.21604013  0.79981293  0.59859797  1
  Ti  Ti171  1  0.89726302  0.09361843  0.10461302  1
  Ti  Ti172  1  0.80288011  0.38758981  0.20820570  1
  Ti  Ti173  1  0.49219900  0.09078789  0.70063270  1
  Ti  Ti174  1  0.49909826  0.29520158  0.50295997  1
  Ti  Ti175  1  0.69355522  0.10938233  0.10809763  1
  Ti  Ti176  1  -0.00900967  -0.00547493  0.00074978  1
  Ti  Ti177  1  0.69880702  0.90219533  0.10295832  1
  Ti  Ti178  1  0.00151672  0.59528365  0.59630923  1
  Ti  Ti179  1  0.50066514  0.89963502  0.89430478  1
  Ti  Ti180  1  0.59374281  0.39209192  0.19422481  1
  Ti  Ti181  1  0.30660247  0.30925740  0.08370254  1
  Ti  Ti182  1  0.89002823  0.29602872  0.10354603  1
  Ti  Ti183  1  0.00384574  0.80554735  0.18839721  1
  Ti  Ti184  1  0.89947462  0.70062223  0.50879150  1
  Ti  Ti185  1  0.29401828  0.29755032  0.69326837  1
  Ti  Ti186  1  0.20323764  0.19054945  0.79718899  1
  Ti  Ti187  1  0.80372638  0.80166669  0.79796460  1
  Ti  Ti188  1  0.40443363  0.20200992  0.40084664  1
  Ti  Ti189  1  0.59261581  0.39416229  0.00727330  1
  Ti  Ti190  1  0.79330478  0.18471276  0.80654716  1
  Ti  Ti191  1  0.80418943  0.60883413  -0.00291848  1
  Ti  Ti192  1  0.40146076  0.80141142  0.41203926  1
  Ti  Ti193  1  -0.01159828  0.81117899  0.60948177  1
  Ti  Ti194  1  0.91076994  0.51152961  0.70432250  1
  Ti  Ti195  1  0.50309617  0.91254608  0.10372881  1
  Ti  Ti196  1  0.69567962  0.69533229  0.49999506  1
  Ti  Ti197  1  0.68870674  0.70419523  0.29473372  1
  Ti  Ti198  1  0.40578889  0.40036162  0.18176912  1
  Ti  Ti199  1  0.10083408  0.69451898  0.90195315  1
  Mo  Mo200  1  0.69908498  0.09422429  0.90529497  1
  Mo  Mo201  1  0.50497305  0.70387906  0.50278658  1
  Mo  Mo202  1  0.59911257  0.81537119  0.20231947  1
  Mo  Mo203  1  0.40196043  0.39571213  -0.00387992  1
  Mo  Mo204  1  -0.00465948  -0.00385270  0.19399839  1
  Mo  Mo205  1  0.49839026  0.10829917  0.49508389  1
  Mo  Mo206  1  0.29127798  0.91286440  0.30677740  1
  Mo  Mo207  1  0.21206777  0.39321837  0.39720665  1
  Mo  Mo208  1  0.70083987  0.70943240  0.69879218  1
  Mo  Mo209  1  0.20908249  0.40185524  0.61239452  1
  Mo  Mo210  1  0.40229583  -0.00393721  0.79676028  1
  Mo  Mo211  1  0.79579194  0.19205381  0.60202805  1
  Mo  Mo212  1  0.59888327  0.20017415  0.00565667  1
  Mo  Mo213  1  0.50143040  0.48320623  0.09616892  1
  Mo  Mo214  1  0.00209621  0.59985194  0.80190324  1
  Mo  Mo215  1  0.50463823  0.90084238  0.50493656  1
  Mo  Mo216  1  0.30264823  0.09851858  0.69493921  1
  Mo  Mo217  1  0.59764183  0.39624975  0.80358782  1
  Mo  Mo218  1  0.20100676  0.00160379  0.40239884  1
  Mo  Mo219  1  0.89606424  0.09356311  0.89698476  1
  Mo  Mo220  1  0.30377035  0.90101190  0.50540253  1
  Mo  Mo221  1  0.10075733  0.70352076  0.09076435  1
  Mo  Mo222  1  0.41489370  0.00365356  0.20348821  1
  Mo  Mo223  1  0.89756935  0.89982409  0.70090600  1
  Mo  Mo224  1  0.79438345  0.19628541  0.19307989  1
  Mo  Mo225  1  0.60273701  0.60160640  0.41128118  1
  Mo  Mo226  1  0.39585939  0.59751309  0.79553691  1
  Mo  Mo227  1  0.89301989  0.30078223  0.30059762  1
  Mo  Mo228  1  0.59384611  0.19704579  0.40074484  1
  Mo  Mo229  1  0.79729477  -0.00201198  0.39345085  1
  Mo  Mo230  1  0.08986791  0.89807279  0.09580106  1
  Mo  Mo231  1  0.80169421  0.80838362  0.19751725  1
  Mo  Mo232  1  0.59937868  0.19690226  0.20138214  1
  Mo  Mo233  1  0.30733442  0.48935859  0.50852367  1
  Mo  Mo234  1  0.30451285  0.70636126  0.51019395  1
  Mo  Mo235  1  0.89514538  0.70593046  0.90819601  1
  Mo  Mo236  1  0.50659206  0.29784430  0.09544096  1
  Mo  Mo237  1  0.40450146  0.80964636  -0.00869495  1
  Mo  Mo238  1  0.19553866  0.60576690  -0.00354445  1
  Mo  Mo239  1  0.49725618  0.29386947  0.69486617  1
  Mo  Mo240  1  0.29220574  0.09791645  0.88888674  1
  Mo  Mo241  1  0.11473371  0.09882622  0.49806672  1
  Mo  Mo242  1  0.30425649  0.30092454  0.31222663  1
  Mo  Mo243  1  0.09626822  0.29608227  0.88609616  1
  Mo  Mo244  1  0.39649826  0.59014356  0.19158547  1
  Mo  Mo245  1  0.69341721  0.09766685  0.29578869  1
  Mo  Mo246  1  0.59117541  0.38963985  0.59713891  1
  Mo  Mo247  1  0.88797376  0.09999808  0.50482441  1
  Mo  Mo248  1  0.50773670  0.10217093  0.90369337  1
  Mo  Mo249  1  0.40729306  0.40305211  0.41868236  1
