# generated using pymatgen
data_HfZrTaTiMo
_symmetry_space_group_name_H-M   'P 1'
_cell_length_a   16.89329272
_cell_length_b   16.89154972
_cell_length_c   16.88926572
_cell_angle_alpha   90.00887005
_cell_angle_beta   90.02913778
_cell_angle_gamma   90.00244573
_symmetry_Int_Tables_number   1
_chemical_formula_structural   HfZrTaTiMo
_chemical_formula_sum   'Hf50 Zr50 Ta50 Ti50 Mo50'
_cell_volume   4819.41705117
_cell_formula_units_Z   50
loop_
 _symmetry_equiv_pos_site_id
 _symmetry_equiv_pos_as_xyz
  1  'x, y, z'
loop_
 _atom_site_type_symbol
 _atom_site_label
 _atom_site_symmetry_multiplicity
 _atom_site_fract_x
 _atom_site_fract_y
 _atom_site_fract_z
 _atom_site_occupancy
  Hf  Hf0  1  0.39861414  0.19027334  0.40325239  1
  Hf  Hf1  1  0.31108813  0.29294781  0.89233690  1
  Hf  Hf2  1  0.41040966  0.18416864  0.20648716  1
  Hf  Hf3  1  0.79902886  0.59664047  0.40175738  1
  Hf  Hf4  1  0.59735263  0.00136473  0.39662507  1
  Hf  Hf5  1  0.50003771  0.09936136  0.89504326  1
  Hf  Hf6  1  0.79346815  0.40043136  0.79994058  1
  Hf  Hf7  1  0.58298483  0.59833644  0.58766146  1
  Hf  Hf8  1  0.59546052  0.80254361  0.79872473  1
  Hf  Hf9  1  0.49930842  0.89906230  0.90091139  1
  Hf  Hf10  1  0.88047963  0.30144204  0.09348511  1
  Hf  Hf11  1  0.00129560  0.00250847  0.20208916  1
  Hf  Hf12  1  0.19180688  0.20166948  0.80164874  1
  Hf  Hf13  1  0.30557381  0.10383819  0.89646883  1
  Hf  Hf14  1  0.69565323  0.69769337  0.69787286  1
  Hf  Hf15  1  0.10197241  0.49445237  0.30354012  1
  Hf  Hf16  1  0.49781259  0.29747046  0.69457836  1
  Hf  Hf17  1  0.19516856  0.60490184  -0.01081264  1
  Hf  Hf18  1  0.59407886  0.01156411  0.19802216  1
  Hf  Hf19  1  0.20459666  -0.01275508  -0.01714574  1
  Hf  Hf20  1  0.10954345  0.89529331  0.10027109  1
  Hf  Hf21  1  0.80469293  0.00028768  0.80334336  1
  Hf  Hf22  1  0.00226147  0.59753420  0.40401815  1
  Hf  Hf23  1  0.20350394  0.20074035  0.20835291  1
  Hf  Hf24  1  0.90240260  0.69875513  0.50337277  1
  Hf  Hf25  1  0.79935154  0.81084631  0.80247841  1
  Hf  Hf26  1  0.00530394  0.59909241  -0.00294112  1
  Hf  Hf27  1  0.00819307  0.79728503  -0.00995889  1
  Hf  Hf28  1  0.20692578  0.00960391  0.40326181  1
  Hf  Hf29  1  0.59400612  0.20137259  0.19397093  1
  Hf  Hf30  1  0.41187272  0.78650933  0.40028600  1
  Hf  Hf31  1  0.90978095  0.49899162  0.70399117  1
  Hf  Hf32  1  0.59522455  0.59125806  0.01153159  1
  Hf  Hf33  1  0.59197314  0.40644738  0.39717552  1
  Hf  Hf34  1  0.49369474  0.49294346  0.69576672  1
  Hf  Hf35  1  0.90264439  0.48461387  0.51671320  1
  Hf  Hf36  1  0.18693720  0.38993539  -0.01049247  1
  Hf  Hf37  1  0.89248480  0.11237025  0.90486953  1
  Hf  Hf38  1  0.30036750  0.49320626  0.89166123  1
  Hf  Hf39  1  0.29430412  0.70076228  0.50951012  1
  Hf  Hf40  1  0.49769983  0.90074659  0.10124598  1
  Hf  Hf41  1  0.68480034  0.91551769  0.69295334  1
  Hf  Hf42  1  0.89371245  0.49475626  0.28939305  1
  Hf  Hf43  1  0.79187200  0.00798141  0.19679653  1
  Hf  Hf44  1  0.10181691  0.11544637  0.51211449  1
  Hf  Hf45  1  0.10600918  0.89938858  0.50109412  1
  Hf  Hf46  1  0.00009960  0.59867717  0.19659338  1
  Hf  Hf47  1  0.00807780  0.81411841  0.80197623  1
  Hf  Hf48  1  0.90184686  0.69305530  0.89296589  1
  Hf  Hf49  1  0.30353858  0.89792585  0.49956647  1
  Zr  Zr50  1  0.00466958  0.80565615  0.60297039  1
  Zr  Zr51  1  0.00245182  0.00532997  0.61123112  1
  Zr  Zr52  1  0.40055602  0.60764990  0.00373030  1
  Zr  Zr53  1  0.31011311  0.31079357  0.30543308  1
  Zr  Zr54  1  0.79409020  -0.00267618  0.40844920  1
  Zr  Zr55  1  0.79541812  0.59655674  -0.00061324  1
  Zr  Zr56  1  0.80240477  0.39538196  0.40431511  1
  Zr  Zr57  1  0.69272474  0.49417873  0.69516365  1
  Zr  Zr58  1  0.20781508  0.59437016  0.40502384  1
  Zr  Zr59  1  0.30406237  0.49678790  0.10086162  1
  Zr  Zr60  1  0.00443259  0.38851482  0.19059070  1
  Zr  Zr61  1  0.40548171  0.59331528  0.40801554  1
  Zr  Zr62  1  0.69422556  0.10506596  0.69928957  1
  Zr  Zr63  1  0.39582510  0.00414471  0.59543652  1
  Zr  Zr64  1  0.79630130  0.81209345  0.59609720  1
  Zr  Zr65  1  0.90122736  0.69224047  0.70229889  1
  Zr  Zr66  1  0.58868114  0.60339480  0.39417671  1
  Zr  Zr67  1  0.69114505  0.10727186  0.50562098  1
  Zr  Zr68  1  0.69158922  0.69525037  0.89836449  1
  Zr  Zr69  1  0.69839816  0.70050569  0.50271229  1
  Zr  Zr70  1  0.41902577  0.39467489  0.00444614  1
  Zr  Zr71  1  0.50064695  0.50203990  0.89483275  1
  Zr  Zr72  1  0.79720780  0.80522885  -0.00684821  1
  Zr  Zr73  1  -0.00236504  0.20058426  0.19603171  1
  Zr  Zr74  1  0.30888878  0.89688941  0.29909058  1
  Zr  Zr75  1  0.10727716  0.69530890  0.69707510  1
  Zr  Zr76  1  0.10889334  0.09785678  0.09743030  1
  Zr  Zr77  1  0.79761263  0.00214238  0.00223085  1
  Zr  Zr78  1  0.20237242  0.59834325  0.19685747  1
  Zr  Zr79  1  0.89675243  0.30783371  0.90170834  1
  Zr  Zr80  1  0.00281885  0.00002903  0.40233389  1
  Zr  Zr81  1  0.00573986  0.19567342  0.79423060  1
  Zr  Zr82  1  0.89334760  0.10983677  0.30040583  1
  Zr  Zr83  1  0.89680678  0.89366726  0.10201505  1
  Zr  Zr84  1  0.89553611  0.89547028  0.30069999  1
  Zr  Zr85  1  0.50799213  0.09642983  0.69835671  1
  Zr  Zr86  1  0.20405141  -0.00407388  0.21190559  1
  Zr  Zr87  1  0.30006569  0.30859292  0.50747885  1
  Zr  Zr88  1  0.59916564  0.79442027  0.39731736  1
  Zr  Zr89  1  0.68823517  0.29997549  0.50608655  1
  Zr  Zr90  1  0.30389500  0.29237168  0.09676594  1
  Zr  Zr91  1  0.01280804  0.21164992  -0.00005986  1
  Zr  Zr92  1  0.10360569  0.30265326  0.31401806  1
  Zr  Zr93  1  -0.00080618  -0.00160717  -0.01098231  1
  Zr  Zr94  1  0.90656329  0.31167273  0.68786637  1
  Zr  Zr95  1  0.00826006  0.79762893  0.20572737  1
  Zr  Zr96  1  0.29954317  0.69899566  0.70111419  1
  Zr  Zr97  1  0.30576570  0.09100993  0.09977441  1
  Zr  Zr98  1  0.59159614  0.40070708  0.19073505  1
  Zr  Zr99  1  0.39149607  -0.00907684  0.79747433  1
  Ta  Ta100  1  0.69506266  0.89646563  0.29473296  1
  Ta  Ta101  1  0.59549000  0.20735875  0.00270350  1
  Ta  Ta102  1  0.68958736  0.89273808  0.10245405  1
  Ta  Ta103  1  0.09611305  0.49259235  0.09284710  1
  Ta  Ta104  1  0.89405063  0.49174304  0.09407646  1
  Ta  Ta105  1  0.20241470  0.00583941  0.60940041  1
  Ta  Ta106  1  0.19978868  0.39714259  0.19431519  1
  Ta  Ta107  1  0.02115203  0.40039679  0.80552610  1
  Ta  Ta108  1  0.69985957  0.70046265  0.10785705  1
  Ta  Ta109  1  0.20349362  0.79754137  -0.00805815  1
  Ta  Ta110  1  0.10945680  0.30189120  0.68985178  1
  Ta  Ta111  1  0.09894514  0.10765628  0.31046443  1
  Ta  Ta112  1  0.29638324  0.11259128  0.70060273  1
  Ta  Ta113  1  0.59584862  0.79380657  0.20373221  1
  Ta  Ta114  1  0.70101205  0.29898164  0.90702992  1
  Ta  Ta115  1  0.39625995  0.19881801  0.59731888  1
  Ta  Ta116  1  0.89544148  0.69793113  0.29804613  1
  Ta  Ta117  1  0.49347315  0.69931766  0.70276288  1
  Ta  Ta118  1  0.79707524  0.80030903  0.39734036  1
  Ta  Ta119  1  0.59808176  0.20845747  0.80608082  1
  Ta  Ta120  1  0.49689576  0.30259084  0.50299938  1
  Ta  Ta121  1  0.20704679  0.19850801  0.40665158  1
  Ta  Ta122  1  0.79838226  0.59197733  0.60042471  1
  Ta  Ta123  1  0.10428341  0.69909919  0.30348114  1
  Ta  Ta124  1  0.40451426  0.80567600  0.60657364  1
  Ta  Ta125  1  0.69464863  0.49343199  0.50446420  1
  Ta  Ta126  1  0.39030505  0.80219866  -0.00146832  1
  Ta  Ta127  1  0.19917388  0.59077962  0.79920365  1
  Ta  Ta128  1  0.10756286  0.49166262  0.50978541  1
  Ta  Ta129  1  0.49690285  0.90169126  0.29501668  1
  Ta  Ta130  1  0.90544209  0.49395066  0.90156754  1
  Ta  Ta131  1  0.80227450  0.20688547  0.40462148  1
  Ta  Ta132  1  0.80582252  0.20533570  0.59650651  1
  Ta  Ta133  1  0.70199129  0.49940326  0.29247861  1
  Ta  Ta134  1  0.00934734  0.00272021  0.80150100  1
  Ta  Ta135  1  0.39531094  -0.00903811  0.00268604  1
  Ta  Ta136  1  0.80215332  0.00444482  0.59629102  1
  Ta  Ta137  1  0.59763407  0.39125005  0.80715752  1
  Ta  Ta138  1  0.30200004  0.70529250  0.88808838  1
  Ta  Ta139  1  0.69259523  0.29891786  0.69357236  1
  Ta  Ta140  1  0.00416498  0.79609336  0.39872411  1
  Ta  Ta141  1  0.70184154  0.29849131  0.29709667  1
  Ta  Ta142  1  -0.00638697  0.21135341  0.40952468  1
  Ta  Ta143  1  0.69566104  0.11555320  0.30473271  1
  Ta  Ta144  1  0.30233348  0.69806961  0.29542308  1
  Ta  Ta145  1  0.50120967  0.90353253  0.49993755  1
  Ta  Ta146  1  0.30004586  0.30479011  0.69928677  1
  Ta  Ta147  1  0.69550599  0.10762432  0.89969700  1
  Ta  Ta148  1  0.40009799  0.79557779  0.19497311  1
  Ta  Ta149  1  0.89202198  0.69545118  0.10564004  1
  Ti  Ti150  1  0.70994948  0.49769728  0.10939669  1
  Ti  Ti151  1  0.19680680  0.79924193  0.39245233  1
  Ti  Ti152  1  0.59818075  0.39645002  0.00291621  1
  Ti  Ti153  1  0.10111014  0.30501618  0.51182428  1
  Ti  Ti154  1  0.89933202  0.90743215  0.69992593  1
  Ti  Ti155  1  0.19121959  0.00037324  0.79675150  1
  Ti  Ti156  1  0.41696576  0.19740445  0.00523652  1
  Ti  Ti157  1  0.29619183  0.89547618  0.70544710  1
  Ti  Ti158  1  0.01848780  0.59359989  0.80776272  1
  Ti  Ti159  1  0.69843762  0.49293296  0.90330224  1
  Ti  Ti160  1  0.50068673  0.70161324  0.10347971  1
  Ti  Ti161  1  0.59135683  0.80340370  0.59491312  1
  Ti  Ti162  1  0.70519315  0.69331900  0.29169026  1
  Ti  Ti163  1  0.49218406  0.49964553  0.29430452  1
  Ti  Ti164  1  0.59635216  0.59943908  0.19946902  1
  Ti  Ti165  1  0.90140199  0.89939689  0.49903891  1
  Ti  Ti166  1  0.49015501  0.70326944  0.89274074  1
  Ti  Ti167  1  0.79504564  0.59216873  0.79989436  1
  Ti  Ti168  1  0.19348409  0.20024055  -0.00684456  1
  Ti  Ti169  1  0.01048855  0.59350659  0.59903665  1
  Ti  Ti170  1  0.19649419  0.80906495  0.80967704  1
  Ti  Ti171  1  0.50355221  0.90426876  0.69833025  1
  Ti  Ti172  1  0.70696245  0.11567755  0.09543906  1
  Ti  Ti173  1  0.39444465  0.59223746  0.59687934  1
  Ti  Ti174  1  0.89900123  0.10644902  0.69592361  1
  Ti  Ti175  1  0.39606391  0.59829358  0.79462227  1
  Ti  Ti176  1  0.40234493  0.39388807  0.79563838  1
  Ti  Ti177  1  0.79341002  0.79738739  0.20264791  1
  Ti  Ti178  1  0.59853352  0.01167682  0.00701192  1
  Ti  Ti179  1  0.40188636  0.01081035  0.39468142  1
  Ti  Ti180  1  0.10762702  0.69694440  0.50324370  1
  Ti  Ti181  1  0.40852940  0.39611010  0.19551592  1
  Ti  Ti182  1  0.20420829  0.79858460  0.20302650  1
  Ti  Ti183  1  0.29785961  0.70471294  0.10037331  1
  Ti  Ti184  1  0.11346689  0.49151995  0.69600347  1
  Ti  Ti185  1  0.90344236  0.10980516  0.50636693  1
  Ti  Ti186  1  0.40446057  0.60278568  0.19845239  1
  Ti  Ti187  1  0.68623046  0.91043161  0.90422565  1
  Ti  Ti188  1  0.70425196  0.30451567  0.09798183  1
  Ti  Ti189  1  0.30770946  0.49434867  0.29764820  1
  Ti  Ti190  1  0.20849267  0.40594000  0.40719281  1
  Ti  Ti191  1  0.59663223  0.79307455  0.00245390  1
  Ti  Ti192  1  0.50850229  0.10683049  0.50189412  1
  Ti  Ti193  1  0.59592578  0.59781878  0.79909458  1
  Ti  Ti194  1  0.19966094  0.80949070  0.60834773  1
  Ti  Ti195  1  0.50049013  0.29731579  0.30834783  1
  Ti  Ti196  1  0.89056692  0.30077193  0.29458931  1
  Ti  Ti197  1  0.10410109  0.70042846  0.10152816  1
  Ti  Ti198  1  -0.00312826  0.39288528  0.40941655  1
  Ti  Ti199  1  0.79475904  0.20629848  0.79430677  1
  Mo  Mo200  1  0.59071050  0.20191137  0.59996056  1
  Mo  Mo201  1  0.20678523  0.40319110  0.60434003  1
  Mo  Mo202  1  0.78946803  0.20239045  0.00133409  1
  Mo  Mo203  1  0.78997709  0.40665784  -0.00153565  1
  Mo  Mo204  1  0.40514920  0.40416813  0.39975240  1
  Mo  Mo205  1  0.88544373  0.11001524  0.09809025  1
  Mo  Mo206  1  0.50258485  0.50409019  0.10698965  1
  Mo  Mo207  1  0.10808535  0.69829691  0.89159114  1
  Mo  Mo208  1  0.10403111  0.09776251  0.89547246  1
  Mo  Mo209  1  0.10423347  0.89081410  0.30700913  1
  Mo  Mo210  1  0.59693306  -0.00434878  0.58710447  1
  Mo  Mo211  1  0.59177989  0.39878462  0.59812304  1
  Mo  Mo212  1  0.60237787  0.00330150  0.81345820  1
  Mo  Mo213  1  0.39742703  0.40197196  0.59977296  1
  Mo  Mo214  1  0.50454253  0.29751148  0.89813912  1
  Mo  Mo215  1  0.79769159  0.60128435  0.19890055  1
  Mo  Mo216  1  0.69540777  0.90234110  0.49737310  1
  Mo  Mo217  1  0.79057810  0.20373121  0.20142227  1
  Mo  Mo218  1  0.50225190  0.29552518  0.09933676  1
  Mo  Mo219  1  0.30081285  0.49705027  0.70061759  1
  Mo  Mo220  1  0.20384649  0.39899461  0.79474415  1
  Mo  Mo221  1  0.49451647  0.69653212  0.28123136  1
  Mo  Mo222  1  0.29920234  0.10226802  0.50716526  1
  Mo  Mo223  1  0.90561336  0.90621255  0.89193003  1
  Mo  Mo224  1  0.30061134  0.49719708  0.51135046  1
  Mo  Mo225  1  0.50063136  0.09555133  0.08958368  1
  Mo  Mo226  1  0.78941575  0.39900149  0.60417896  1
  Mo  Mo227  1  0.39922703  0.20177383  0.79250158  1
  Mo  Mo228  1  0.30068737  0.89330903  0.89359262  1
  Mo  Mo229  1  0.40252596  0.79898920  0.79694109  1
  Mo  Mo230  1  0.49143160  0.48600011  0.50317040  1
  Mo  Mo231  1  0.30112821  0.09944337  0.30675906  1
  Mo  Mo232  1  0.49151104  0.70963729  0.52005446  1
  Mo  Mo233  1  -0.00083828  0.20530248  0.59830558  1
  Mo  Mo234  1  0.40396332  -0.00629625  0.20007871  1
  Mo  Mo235  1  0.10548787  0.89949545  0.89562675  1
  Mo  Mo236  1  0.10402195  0.10067058  0.69966032  1
  Mo  Mo237  1  0.79143660  0.40076375  0.19864629  1
  Mo  Mo238  1  0.11327351  0.90600972  0.70182283  1
  Mo  Mo239  1  0.10843018  0.30132333  0.09845160  1
  Mo  Mo240  1  0.59433268  0.20542301  0.39433567  1
  Mo  Mo241  1  0.30238242  0.88882854  0.09754180  1
  Mo  Mo242  1  0.10095340  0.49954300  0.89553404  1
  Mo  Mo243  1  0.10189657  0.30045644  0.89234932  1
  Mo  Mo244  1  0.90342593  0.29867585  0.50455865  1
  Mo  Mo245  1  0.01680579  0.40094616  0.60437961  1
  Mo  Mo246  1  0.20183045  0.59117078  0.60364527  1
  Mo  Mo247  1  -0.00206811  0.40442867  -0.00334830  1
  Mo  Mo248  1  0.20196298  0.20300416  0.60299743  1
  Mo  Mo249  1  0.50125327  0.09541074  0.30598124  1
