# generated using pymatgen
data_HfZrTaTiMo
_symmetry_space_group_name_H-M   'P 1'
_cell_length_a   16.88121705
_cell_length_b   16.88693925
_cell_length_c   16.87969641
_cell_angle_alpha   89.99992621
_cell_angle_beta   89.98236852
_cell_angle_gamma   89.95111000
_symmetry_Int_Tables_number   1
_chemical_formula_structural   HfZrTaTiMo
_chemical_formula_sum   'Hf50 Zr50 Ta50 Ti50 Mo50'
_cell_volume   4811.92829851
_cell_formula_units_Z   50
loop_
 _symmetry_equiv_pos_site_id
 _symmetry_equiv_pos_as_xyz
  1  'x, y, z'
loop_
 _atom_site_type_symbol
 _atom_site_label
 _atom_site_symmetry_multiplicity
 _atom_site_fract_x
 _atom_site_fract_y
 _atom_site_fract_z
 _atom_site_occupancy
  Hf  Hf0  1  0.59615794  0.59111254  0.59427368  1
  Hf  Hf1  1  0.60905622  0.79733311  0.39042274  1
  Hf  Hf2  1  0.49187056  0.10294488  0.29721582  1
  Hf  Hf3  1  -0.00413450  0.22779391  0.59359540  1
  Hf  Hf4  1  0.40452720  0.59392170  0.20385486  1
  Hf  Hf5  1  0.89514763  0.88728588  0.69460381  1
  Hf  Hf6  1  0.80182072  0.39488070  0.20447867  1
  Hf  Hf7  1  0.30371105  0.30139892  0.71024061  1
  Hf  Hf8  1  0.60172627  0.60046859  0.40207938  1
  Hf  Hf9  1  0.59534430  0.59769444  0.00658838  1
  Hf  Hf10  1  0.41075119  0.60078615  0.40807412  1
  Hf  Hf11  1  0.60082061  0.79211507  0.79419071  1
  Hf  Hf12  1  0.80189651  0.59102806  0.59366852  1
  Hf  Hf13  1  0.90265961  0.89600160  0.30904054  1
  Hf  Hf14  1  0.09736726  0.10398580  0.49741135  1
  Hf  Hf15  1  -0.00439563  0.60634569  -0.00710238  1
  Hf  Hf16  1  0.39820940  0.00360773  -0.00182815  1
  Hf  Hf17  1  0.49954178  0.49184350  0.89940852  1
  Hf  Hf18  1  0.29671178  0.90267020  0.10826996  1
  Hf  Hf19  1  0.89920757  0.10623141  0.49781762  1
  Hf  Hf20  1  0.70452624  0.90514044  0.09821233  1
  Hf  Hf21  1  0.70101857  0.69833469  0.10585348  1
  Hf  Hf22  1  0.50621386  0.71589811  0.51009231  1
  Hf  Hf23  1  0.10528326  0.30146929  0.29156251  1
  Hf  Hf24  1  0.10157213  0.30712259  0.90866624  1
  Hf  Hf25  1  0.49942424  0.09626537  0.49470537  1
  Hf  Hf26  1  0.30269098  0.30566613  0.90861157  1
  Hf  Hf27  1  0.70638193  0.69005367  0.88942086  1
  Hf  Hf28  1  0.10217464  0.10509744  0.69976630  1
  Hf  Hf29  1  0.29417978  0.89340535  0.70093010  1
  Hf  Hf30  1  0.50936643  0.88625952  0.67735242  1
  Hf  Hf31  1  0.80217155  0.59493366  0.40089993  1
  Hf  Hf32  1  0.40241454  0.20053648  0.60251912  1
  Hf  Hf33  1  0.19991113  0.60206447  0.59362816  1
  Hf  Hf34  1  0.10248232  0.70150638  0.89044430  1
  Hf  Hf35  1  -0.00596766  0.19640035  0.19352809  1
  Hf  Hf36  1  0.88977550  0.49875652  0.90026164  1
  Hf  Hf37  1  0.00065734  -0.00463183  0.59801344  1
  Hf  Hf38  1  0.69005268  0.31050880  0.90109978  1
  Hf  Hf39  1  -0.00029820  0.60294375  0.59759413  1
  Hf  Hf40  1  0.18797441  0.79960242  0.20966902  1
  Hf  Hf41  1  0.59502923  0.20052026  0.00291032  1
  Hf  Hf42  1  0.39825796  0.40375344  0.20416149  1
  Hf  Hf43  1  0.19521872  0.80129242  -0.00026093  1
  Hf  Hf44  1  0.29790141  0.70259880  0.30971610  1
  Hf  Hf45  1  0.19911966  0.79422094  0.58206473  1
  Hf  Hf46  1  0.90618257  0.69935590  0.30119392  1
  Hf  Hf47  1  0.70175855  0.49721610  0.29737174  1
  Hf  Hf48  1  0.50437194  0.90132112  0.89769296  1
  Hf  Hf49  1  0.80164118  0.20078288  0.00097932  1
  Zr  Zr50  1  0.06641839  0.09965402  0.88591583  1
  Zr  Zr51  1  0.00262537  0.59340348  0.39728775  1
  Zr  Zr52  1  0.10189436  0.09518618  0.29656396  1
  Zr  Zr53  1  0.09734070  0.89189879  0.70581021  1
  Zr  Zr54  1  0.10330867  0.30879954  0.09475046  1
  Zr  Zr55  1  0.89528875  0.09007489  0.09389542  1
  Zr  Zr56  1  0.79971401  0.59959094  0.00238222  1
  Zr  Zr57  1  0.49556102  0.10375080  0.10629830  1
  Zr  Zr58  1  0.91778875  0.11148556  0.71458737  1
  Zr  Zr59  1  0.38869353  0.21084196  0.39732236  1
  Zr  Zr60  1  0.29820519  0.89502904  0.89545518  1
  Zr  Zr61  1  0.29900038  0.70068544  0.11151967  1
  Zr  Zr62  1  0.30517281  0.10139768  0.70679300  1
  Zr  Zr63  1  0.10282284  0.30130577  0.70992352  1
  Zr  Zr64  1  0.19822549  0.00367834  0.81261302  1
  Zr  Zr65  1  0.30390675  0.89899462  0.30461322  1
  Zr  Zr66  1  -0.00669145  0.40733583  0.21253269  1
  Zr  Zr67  1  0.90743569  0.90980611  0.90202516  1
  Zr  Zr68  1  0.70576007  0.70072187  0.69267762  1
  Zr  Zr69  1  -0.00398207  0.40664585  0.79411437  1
  Zr  Zr70  1  0.09930615  0.49885229  0.10244052  1
  Zr  Zr71  1  0.60646730  0.20443672  0.60040005  1
  Zr  Zr72  1  0.61367225  0.20845375  0.39221631  1
  Zr  Zr73  1  0.80256090  0.00840998  0.79886447  1
  Zr  Zr74  1  0.70841917  0.90473280  0.29915339  1
  Zr  Zr75  1  0.19761192  -0.01297721  0.40560349  1
  Zr  Zr76  1  0.29752410  0.50504144  0.49055734  1
  Zr  Zr77  1  0.69611713  0.10145181  0.90319882  1
  Zr  Zr78  1  0.49863622  0.30622453  0.49911963  1
  Zr  Zr79  1  0.60817598  0.40202488  0.40674328  1
  Zr  Zr80  1  0.90519149  0.89424737  0.10047580  1
  Zr  Zr81  1  0.40644576  0.79035839  0.78988448  1
  Zr  Zr82  1  0.90641685  0.30249134  0.90728533  1
  Zr  Zr83  1  0.79742233  0.01121814  0.60539141  1
  Zr  Zr84  1  0.70435649  0.89858773  0.89936773  1
  Zr  Zr85  1  0.59841442  0.00404819  0.78288810  1
  Zr  Zr86  1  0.28914779  0.30043634  0.09857462  1
  Zr  Zr87  1  0.40477698  0.59361533  0.00925188  1
  Zr  Zr88  1  0.48558908  0.29798594  0.09704298  1
  Zr  Zr89  1  0.19948549  0.60106122  -0.00056790  1
  Zr  Zr90  1  0.70832118  0.89529373  0.50633327  1
  Zr  Zr91  1  0.40033470  -0.00533178  0.59561092  1
  Zr  Zr92  1  0.60946591  0.00730813  0.39642038  1
  Zr  Zr93  1  0.40258721  0.41111052  0.60006551  1
  Zr  Zr94  1  0.79976598  0.38968354  0.59810341  1
  Zr  Zr95  1  0.20711570  0.20706435  0.58703811  1
  Zr  Zr96  1  0.59452227  0.60095919  0.20557346  1
  Zr  Zr97  1  0.19893842  0.39919634  0.59499303  1
  Zr  Zr98  1  0.81031427  0.79139220  -0.00447613  1
  Zr  Zr99  1  0.40428855  0.79689410  0.00187193  1
  Ta  Ta100  1  0.40097139  0.40305453  0.80073073  1
  Ta  Ta101  1  0.30054490  0.68919204  0.88632210  1
  Ta  Ta102  1  0.90603631  0.48661933  0.49926718  1
  Ta  Ta103  1  0.09931594  0.70079502  0.70122323  1
  Ta  Ta104  1  0.70866822  0.70426106  0.49832097  1
  Ta  Ta105  1  0.70227570  0.09859472  0.10599346  1
  Ta  Ta106  1  0.40173902  0.60605405  0.60554299  1
  Ta  Ta107  1  0.10154652  0.50579230  0.70167244  1
  Ta  Ta108  1  0.08855741  0.70102899  0.10543909  1
  Ta  Ta109  1  0.90876651  0.69756371  0.10906473  1
  Ta  Ta110  1  0.59819409  0.39480709  0.20002078  1
  Ta  Ta111  1  0.90014270  0.49898120  0.09926404  1
  Ta  Ta112  1  0.00579298  -0.00281410  0.20129507  1
  Ta  Ta113  1  0.29243591  0.69479109  0.70513066  1
  Ta  Ta114  1  0.69671515  0.49520695  0.89680957  1
  Ta  Ta115  1  0.20103094  0.39303617  0.40000859  1
  Ta  Ta116  1  0.20182337  -0.00603585  0.59264598  1
  Ta  Ta117  1  0.60938472  0.20652747  0.20196769  1
  Ta  Ta118  1  0.50518855  0.30051924  0.71263617  1
  Ta  Ta119  1  0.20698147  0.19618814  0.81607241  1
  Ta  Ta120  1  0.49612071  0.90184628  0.29973234  1
  Ta  Ta121  1  0.19194818  0.00506919  0.00243435  1
  Ta  Ta122  1  0.59756866  0.79573932  0.00231931  1
  Ta  Ta123  1  0.59398731  0.59760988  0.79371428  1
  Ta  Ta124  1  0.70402373  0.30059273  0.10127882  1
  Ta  Ta125  1  0.90021345  0.88912274  0.49675622  1
  Ta  Ta126  1  0.70188770  0.49070608  0.09874163  1
  Ta  Ta127  1  0.20026475  0.20604201  0.39923397  1
  Ta  Ta128  1  0.60157697  0.80168081  0.20257477  1
  Ta  Ta129  1  0.39901229  -0.00041367  0.20063432  1
  Ta  Ta130  1  0.30208185  0.09216520  0.48867674  1
  Ta  Ta131  1  0.80709267  0.59508239  0.20437838  1
  Ta  Ta132  1  -0.00151782  0.20847411  0.39735405  1
  Ta  Ta133  1  0.30207209  0.50006772  0.89930110  1
  Ta  Ta134  1  0.79728414  0.39746300  0.79662558  1
  Ta  Ta135  1  -0.00589290  0.60133451  0.79533330  1
  Ta  Ta136  1  0.79793217  0.79110997  0.20720870  1
  Ta  Ta137  1  0.29345865  0.48901172  0.09855545  1
  Ta  Ta138  1  0.29638115  0.09600148  0.29407473  1
  Ta  Ta139  1  0.60531496  0.40498347  0.59994091  1
  Ta  Ta140  1  0.29524071  0.09675783  0.10582630  1
  Ta  Ta141  1  0.80125325  0.20975944  0.39947410  1
  Ta  Ta142  1  0.19605719  0.17984347  -0.00484923  1
  Ta  Ta143  1  0.69964891  0.49824403  0.70812734  1
  Ta  Ta144  1  0.49728045  0.10851439  0.88844698  1
  Ta  Ta145  1  0.80302001  0.20991962  0.80038895  1
  Ta  Ta146  1  0.59517476  0.00042009  0.00500570  1
  Ta  Ta147  1  0.49922949  0.69149750  0.89579719  1
  Ta  Ta148  1  -0.00775071  0.79056361  0.80295821  1
  Ta  Ta149  1  0.80192534  0.39407642  0.40217554  1
  Ti  Ti150  1  0.69852953  0.11777643  0.70611983  1
  Ti  Ti151  1  0.09255333  0.89419961  0.89850822  1
  Ti  Ti152  1  0.20331411  0.40760255  0.80374004  1
  Ti  Ti153  1  0.90074926  0.71063080  0.50200182  1
  Ti  Ti154  1  0.29882271  0.51048059  0.71161835  1
  Ti  Ti155  1  0.49659301  0.29814163  0.29444429  1
  Ti  Ti156  1  0.08881334  0.89079263  0.49872306  1
  Ti  Ti157  1  0.09684732  0.90036607  0.10202980  1
  Ti  Ti158  1  0.50192929  0.89681876  0.10841654  1
  Ti  Ti159  1  0.00028090  0.19514833  0.00554020  1
  Ti  Ti160  1  0.01415118  0.78877232  0.40293305  1
  Ti  Ti161  1  0.19601595  0.18865922  0.19280451  1
  Ti  Ti162  1  0.80288791  0.00811725  0.40108343  1
  Ti  Ti163  1  0.89703499  0.29383503  0.29980928  1
  Ti  Ti164  1  0.80770283  -0.00122460  0.20226129  1
  Ti  Ti165  1  0.90107621  0.31057650  0.09284203  1
  Ti  Ti166  1  0.48991782  0.71574659  0.29865746  1
  Ti  Ti167  1  0.50055814  0.49775607  0.70529758  1
  Ti  Ti168  1  0.80276647  0.21141951  0.60201371  1
  Ti  Ti169  1  0.09574860  0.89903550  0.30455204  1
  Ti  Ti170  1  0.00336612  0.79937193  0.20471147  1
  Ti  Ti171  1  0.39298125  0.40046883  0.39757323  1
  Ti  Ti172  1  0.39243747  0.80629267  0.41391318  1
  Ti  Ti173  1  0.89785670  0.10147086  0.29969017  1
  Ti  Ti174  1  0.10616928  0.50132617  0.30265239  1
  Ti  Ti175  1  0.69288923  0.30362187  0.70868050  1
  Ti  Ti176  1  0.29334265  0.29812621  0.28894072  1
  Ti  Ti177  1  0.50013759  0.70941809  0.10866285  1
  Ti  Ti178  1  0.70794823  0.88785772  0.69390722  1
  Ti  Ti179  1  0.19220426  0.60153329  0.20618039  1
  Ti  Ti180  1  0.09505540  0.49166664  0.49972884  1
  Ti  Ti181  1  0.38774246  0.79303786  0.59497942  1
  Ti  Ti182  1  0.39115093  0.19194791  -0.00552336  1
  Ti  Ti183  1  0.70746621  0.10878536  0.50034264  1
  Ti  Ti184  1  0.89375179  0.70060908  0.70292537  1
  Ti  Ti185  1  0.71548665  0.10880971  0.28802040  1
  Ti  Ti186  1  0.18800460  0.61700233  0.40725489  1
  Ti  Ti187  1  0.49618511  0.30054084  0.89494545  1
  Ti  Ti188  1  0.10103886  0.50023218  0.89759614  1
  Ti  Ti189  1  -0.00089677  0.39165334  0.40215726  1
  Ti  Ti190  1  0.59938166  0.00222744  0.20076133  1
  Ti  Ti191  1  0.60580860  0.00811883  0.60163492  1
  Ti  Ti192  1  -0.00269667  0.00122491  0.39989545  1
  Ti  Ti193  1  0.40692753  0.00396963  0.79484875  1
  Ti  Ti194  1  0.89858484  0.49767382  0.69639181  1
  Ti  Ti195  1  0.28969606  0.50427220  0.30268703  1
  Ti  Ti196  1  0.50111095  0.49112396  0.30670960  1
  Ti  Ti197  1  0.59218285  0.40206942  0.01153686  1
  Ti  Ti198  1  0.00807161  -0.00051188  0.00521876  1
  Ti  Ti199  1  0.50447107  0.90258676  0.49335642  1
  Mo  Mo200  1  -0.00206103  0.21941687  0.79993476  1
  Mo  Mo201  1  0.39812157  0.40102344  -0.00217428  1
  Mo  Mo202  1  0.80176588  0.59016472  0.79233680  1
  Mo  Mo203  1  0.90070607  0.69784188  0.88869415  1
  Mo  Mo204  1  0.70510107  0.30038472  0.29522577  1
  Mo  Mo205  1  -0.00131661  0.41244004  0.00248809  1
  Mo  Mo206  1  0.00172909  0.40997235  0.59707058  1
  Mo  Mo207  1  -0.00077497  -0.01840431  0.79501441  1
  Mo  Mo208  1  0.80607232  0.79215803  0.59612301  1
  Mo  Mo209  1  0.30289434  0.89825358  0.50065204  1
  Mo  Mo210  1  0.70645645  0.29960612  0.50258212  1
  Mo  Mo211  1  0.59761300  0.40346507  0.79601581  1
  Mo  Mo212  1  0.19005386  0.79586967  0.40125472  1
  Mo  Mo213  1  0.40425228  0.20633113  0.80497193  1
  Mo  Mo214  1  0.79530077  0.40012127  0.00491364  1
  Mo  Mo215  1  0.19692019  0.79175149  0.79951684  1
  Mo  Mo216  1  0.38607578  0.19916304  0.20452492  1
  Mo  Mo217  1  0.79178555  0.00534613  0.00250544  1
  Mo  Mo218  1  0.89382874  0.30469626  0.70320999  1
  Mo  Mo219  1  0.19634152  0.59396751  0.79511509  1
  Mo  Mo220  1  0.70569439  0.49761647  0.50312538  1
  Mo  Mo221  1  0.09395485  0.70029887  0.49987342  1
  Mo  Mo222  1  0.09939380  0.69773067  0.29937508  1
  Mo  Mo223  1  0.30989409  0.09935998  0.90512062  1
  Mo  Mo224  1  0.89924713  0.49570315  0.30482758  1
  Mo  Mo225  1  0.80219623  0.20151222  0.20057339  1
  Mo  Mo226  1  0.50472437  0.10522902  0.70165612  1
  Mo  Mo227  1  0.89690324  0.10440255  0.90343185  1
  Mo  Mo228  1  0.60034501  0.20577464  0.79991937  1
  Mo  Mo229  1  0.00634183  0.79800768  0.00146241  1
  Mo  Mo230  1  0.40847018  0.80472394  0.20275439  1
  Mo  Mo231  1  0.49583979  0.69367704  0.69655131  1
  Mo  Mo232  1  -0.00087189  0.59827879  0.20145138  1
  Mo  Mo233  1  0.50224326  0.49072032  0.10402690  1
  Mo  Mo234  1  0.20477293  0.41373215  0.21452136  1
  Mo  Mo235  1  0.19637053  -0.00431513  0.19712643  1
  Mo  Mo236  1  0.30342565  0.70094542  0.50033511  1
  Mo  Mo237  1  0.90085385  0.30150207  0.49206239  1
  Mo  Mo238  1  -0.00150960  0.79171912  0.59794193  1
  Mo  Mo239  1  0.09848794  0.09370056  0.09722735  1
  Mo  Mo240  1  0.49775114  0.50107499  0.50225443  1
  Mo  Mo241  1  0.19948803  0.41231907  -0.01036169  1
  Mo  Mo242  1  0.80576737  0.79241969  0.40012834  1
  Mo  Mo243  1  0.40031359  0.59471157  0.79475277  1
  Mo  Mo244  1  0.70675645  0.69793283  0.29823967  1
  Mo  Mo245  1  0.40018337  -0.00314792  0.39673072  1
  Mo  Mo246  1  0.80481881  0.79174196  0.79576924  1
  Mo  Mo247  1  0.29867773  0.30266651  0.49282787  1
  Mo  Mo248  1  0.09803680  0.30601426  0.48575969  1
  Mo  Mo249  1  0.60904634  0.79934792  0.59366305  1
