# generated using pymatgen
data_HfZrTaTiMo
_symmetry_space_group_name_H-M   'P 1'
_cell_length_a   16.88808504
_cell_length_b   16.88951262
_cell_length_c   16.88969211
_cell_angle_alpha   89.98744723
_cell_angle_beta   90.00442635
_cell_angle_gamma   89.95212740
_symmetry_Int_Tables_number   1
_chemical_formula_structural   HfZrTaTiMo
_chemical_formula_sum   'Hf50 Zr50 Ta50 Ti50 Mo50'
_cell_volume   4817.47083054
_cell_formula_units_Z   50
loop_
 _symmetry_equiv_pos_site_id
 _symmetry_equiv_pos_as_xyz
  1  'x, y, z'
loop_
 _atom_site_type_symbol
 _atom_site_label
 _atom_site_symmetry_multiplicity
 _atom_site_fract_x
 _atom_site_fract_y
 _atom_site_fract_z
 _atom_site_occupancy
  Hf  Hf0  1  0.19873006  0.80871007  -0.00497823  1
  Hf  Hf1  1  0.79641444  0.19366774  0.00578587  1
  Hf  Hf2  1  0.41216774  0.00735713  0.00413582  1
  Hf  Hf3  1  0.20066731  0.60170525  0.39525166  1
  Hf  Hf4  1  0.70083814  0.30622710  0.28839817  1
  Hf  Hf5  1  0.59421377  -0.00620990  0.58794739  1
  Hf  Hf6  1  -0.00623937  -0.01077437  0.40490509  1
  Hf  Hf7  1  0.89861166  0.70052577  0.90552396  1
  Hf  Hf8  1  0.89301750  0.70515004  0.09896548  1
  Hf  Hf9  1  0.60447654  0.19209299  0.39203725  1
  Hf  Hf10  1  0.80289384  -0.00438383  -0.00091996  1
  Hf  Hf11  1  0.70529692  0.90934251  0.70758664  1
  Hf  Hf12  1  0.29343894  0.49520229  0.29211787  1
  Hf  Hf13  1  0.40465651  -0.00339386  0.39463964  1
  Hf  Hf14  1  0.61026069  0.61528189  0.39231132  1
  Hf  Hf15  1  0.21095125  0.19943378  0.19345652  1
  Hf  Hf16  1  0.50247207  0.90775970  0.70929753  1
  Hf  Hf17  1  0.71573665  0.49627253  0.29920038  1
  Hf  Hf18  1  0.29772830  0.10301660  0.50279644  1
  Hf  Hf19  1  0.91093503  0.09067421  0.09927732  1
  Hf  Hf20  1  0.70311277  0.29773366  0.71301666  1
  Hf  Hf21  1  0.59827916  0.40542445  -0.00026070  1
  Hf  Hf22  1  0.49682740  0.50388140  0.50382711  1
  Hf  Hf23  1  0.88979318  0.30348593  0.89364024  1
  Hf  Hf24  1  0.61568547  0.39065558  0.41862831  1
  Hf  Hf25  1  0.31972616  0.89693710  0.10470826  1
  Hf  Hf26  1  0.29428161  0.29654221  0.50280501  1
  Hf  Hf27  1  0.09619340  0.70142445  0.90097224  1
  Hf  Hf28  1  -0.00856457  0.19762312  0.60367812  1
  Hf  Hf29  1  0.39954194  0.39955386  0.80684718  1
  Hf  Hf30  1  0.39589620  0.60219313  0.39637841  1
  Hf  Hf31  1  0.89494452  0.30193168  0.70260935  1
  Hf  Hf32  1  0.80857421  0.80339743  0.79623425  1
  Hf  Hf33  1  0.60529250  0.20396162  0.59836199  1
  Hf  Hf34  1  0.60039054  0.80400830  0.39927507  1
  Hf  Hf35  1  -0.00511004  0.40440236  0.00681355  1
  Hf  Hf36  1  0.80385693  0.18811285  0.20175712  1
  Hf  Hf37  1  0.09879749  0.29982106  0.10148935  1
  Hf  Hf38  1  0.09709244  0.69395959  0.09667445  1
  Hf  Hf39  1  0.30689790  0.89517815  0.49927419  1
  Hf  Hf40  1  0.39456883  0.39335442  0.39360832  1
  Hf  Hf41  1  0.51116597  0.28958288  0.09890672  1
  Hf  Hf42  1  0.39874151  0.20054986  0.38019435  1
  Hf  Hf43  1  -0.00453488  0.59525804  0.39022893  1
  Hf  Hf44  1  0.89507130  0.49274347  0.69306814  1
  Hf  Hf45  1  0.88947579  0.31777851  0.29439872  1
  Hf  Hf46  1  0.08050841  0.09676685  0.71775753  1
  Hf  Hf47  1  0.59816370  0.60993287  0.80176924  1
  Hf  Hf48  1  0.09418010  0.49044734  0.50233010  1
  Hf  Hf49  1  0.60744979  0.60770703  0.60762415  1
  Zr  Zr50  1  0.20362324  0.80290258  0.20777378  1
  Zr  Zr51  1  0.09066886  0.89741677  0.70155379  1
  Zr  Zr52  1  0.59113786  0.40832629  0.80301460  1
  Zr  Zr53  1  0.60482492  0.80525125  0.00456976  1
  Zr  Zr54  1  0.09978258  0.50347647  0.69506182  1
  Zr  Zr55  1  0.59892960  0.79051295  0.80229502  1
  Zr  Zr56  1  -0.00518272  0.80089905  0.20086329  1
  Zr  Zr57  1  0.51039075  0.29642968  0.28646969  1
  Zr  Zr58  1  0.30800215  0.09646247  0.89432485  1
  Zr  Zr59  1  -0.00582675  0.60411231  0.79689739  1
  Zr  Zr60  1  0.69267972  0.29375948  0.90054569  1
  Zr  Zr61  1  0.61015321  0.79720123  0.19522671  1
  Zr  Zr62  1  0.19929449  0.80121730  0.39896063  1
  Zr  Zr63  1  0.39866705  0.39724094  -0.00000364  1
  Zr  Zr64  1  0.89794536  0.30878593  0.49579293  1
  Zr  Zr65  1  0.41126227  0.59487141  0.19991245  1
  Zr  Zr66  1  0.40520178  0.79054763  0.80595110  1
  Zr  Zr67  1  0.59612657  0.40036009  0.60437891  1
  Zr  Zr68  1  0.19679640  -0.00681681  0.39474515  1
  Zr  Zr69  1  0.19592783  0.00185855  0.60541469  1
  Zr  Zr70  1  0.69663710  0.09290849  0.70467947  1
  Zr  Zr71  1  0.49193303  0.70196824  0.49700479  1
  Zr  Zr72  1  0.20527309  0.39953327  0.80830904  1
  Zr  Zr73  1  0.09791985  0.50354584  0.90658808  1
  Zr  Zr74  1  0.39889947  0.60614847  0.80443267  1
  Zr  Zr75  1  -0.01140872  0.19523407  0.38748020  1
  Zr  Zr76  1  0.08779870  0.70599309  0.49931263  1
  Zr  Zr77  1  0.49586809  0.10593002  0.50098617  1
  Zr  Zr78  1  0.20507538  -0.00189468  0.20209166  1
  Zr  Zr79  1  0.00310099  0.20174246  -0.00298763  1
  Zr  Zr80  1  0.30265452  0.69982417  0.09874871  1
  Zr  Zr81  1  0.09460354  0.90658538  0.10051963  1
  Zr  Zr82  1  0.09578247  0.30355049  0.50039187  1
  Zr  Zr83  1  0.61124431  0.79610866  0.59954530  1
  Zr  Zr84  1  0.20273762  0.60507048  0.59628822  1
  Zr  Zr85  1  0.20178184  0.20244884  0.38493643  1
  Zr  Zr86  1  0.91046622  0.09571963  0.88590680  1
  Zr  Zr87  1  0.39809853  0.39451868  0.60998691  1
  Zr  Zr88  1  0.51061181  0.49403913  0.30387223  1
  Zr  Zr89  1  0.79518352  0.61260302  0.60126496  1
  Zr  Zr90  1  0.40574117  0.79807518  0.60715241  1
  Zr  Zr91  1  0.60364428  0.00114861  0.01516152  1
  Zr  Zr92  1  0.49232742  0.89434891  0.28255618  1
  Zr  Zr93  1  0.09548953  0.10127137  0.50138518  1
  Zr  Zr94  1  0.00186182  0.39920448  0.80300142  1
  Zr  Zr95  1  0.60146808  0.60169065  0.00810062  1
  Zr  Zr96  1  0.39711406  0.20036482  0.61713627  1
  Zr  Zr97  1  0.59770072  -0.00261628  0.39157190  1
  Zr  Zr98  1  0.30053635  0.90689954  0.71127679  1
  Zr  Zr99  1  0.77823486  0.39671913  0.58676250  1
  Ta  Ta100  1  0.20240014  0.00568395  0.00118061  1
  Ta  Ta101  1  0.80343293  0.80516912  0.59633234  1
  Ta  Ta102  1  0.20175469  0.39347006  0.61001634  1
  Ta  Ta103  1  0.89597567  0.49947161  0.49168201  1
  Ta  Ta104  1  0.89074891  0.89440648  0.30045155  1
  Ta  Ta105  1  0.39672521  0.39309137  0.19095984  1
  Ta  Ta106  1  -0.00255389  0.40987629  0.19796443  1
  Ta  Ta107  1  0.60601647  0.60901487  0.19825425  1
  Ta  Ta108  1  0.79562870  0.59922559  0.00594703  1
  Ta  Ta109  1  0.70818596  0.90159502  0.89987743  1
  Ta  Ta110  1  -0.00739518  -0.00111888  0.21035011  1
  Ta  Ta111  1  0.40310827  0.00180774  0.60465181  1
  Ta  Ta112  1  0.19630627  0.80226513  0.60066945  1
  Ta  Ta113  1  0.18724794  -0.00388875  0.81681634  1
  Ta  Ta114  1  0.88701776  0.50251280  0.90118668  1
  Ta  Ta115  1  0.09724366  0.30647479  0.29080059  1
  Ta  Ta116  1  0.09595032  0.70813498  0.69943180  1
  Ta  Ta117  1  0.69801884  0.09837461  0.89922637  1
  Ta  Ta118  1  0.20066972  0.79718920  0.80241302  1
  Ta  Ta119  1  0.91049932  0.71256630  0.69098115  1
  Ta  Ta120  1  0.79648331  0.19471179  0.39620585  1
  Ta  Ta121  1  0.20628694  0.39646055  0.00174146  1
  Ta  Ta122  1  0.40319786  0.19676478  0.00624011  1
  Ta  Ta123  1  0.19171819  0.19443287  0.80756499  1
  Ta  Ta124  1  0.09114862  0.69769279  0.29650802  1
  Ta  Ta125  1  0.71061095  0.70416332  0.90699788  1
  Ta  Ta126  1  0.79386955  0.40384323  0.00423828  1
  Ta  Ta127  1  0.20762867  0.59376640  -0.00442180  1
  Ta  Ta128  1  0.89137655  0.09464856  0.49844731  1
  Ta  Ta129  1  0.50067982  0.09676605  0.71446194  1
  Ta  Ta130  1  -0.00601799  0.81093036  -0.00579648  1
  Ta  Ta131  1  0.30533163  0.90183604  0.90165707  1
  Ta  Ta132  1  -0.00599825  0.59284122  0.20035214  1
  Ta  Ta133  1  0.70849868  0.90027167  0.29174044  1
  Ta  Ta134  1  0.89767911  0.70337362  0.49341799  1
  Ta  Ta135  1  0.79874047  0.19270136  0.59656831  1
  Ta  Ta136  1  0.09867516  0.09803625  0.10061890  1
  Ta  Ta137  1  0.49533581  0.50701251  0.90612436  1
  Ta  Ta138  1  0.19708413  0.19995052  0.61978244  1
  Ta  Ta139  1  0.70839829  0.09349323  0.49718756  1
  Ta  Ta140  1  0.20663021  0.60805683  0.80368485  1
  Ta  Ta141  1  0.69724354  0.29624218  0.10415010  1
  Ta  Ta142  1  0.49363161  0.70914695  0.09962574  1
  Ta  Ta143  1  0.29898139  0.50483453  0.70035187  1
  Ta  Ta144  1  0.20551257  0.19556383  0.00220525  1
  Ta  Ta145  1  0.29761297  0.49880516  0.09943017  1
  Ta  Ta146  1  0.09291293  0.10033167  0.29045405  1
  Ta  Ta147  1  0.79427452  0.79794321  0.40072919  1
  Ta  Ta148  1  0.89396292  0.70174458  0.30260591  1
  Ta  Ta149  1  0.79691636  0.60749011  0.20139942  1
  Ti  Ti150  1  0.39565526  0.19587318  0.19179017  1
  Ti  Ti151  1  0.20033018  0.39634977  0.39486168  1
  Ti  Ti152  1  0.48810738  0.51447847  0.69624361  1
  Ti  Ti153  1  0.70576645  0.50125767  0.10418863  1
  Ti  Ti154  1  -0.00290315  0.40762238  0.38750038  1
  Ti  Ti155  1  0.79864759  0.60863356  0.79583505  1
  Ti  Ti156  1  0.29986178  0.29041417  0.90294073  1
  Ti  Ti157  1  -0.00254135  0.81131865  0.80710915  1
  Ti  Ti158  1  -0.01068951  -0.00865336  0.59592772  1
  Ti  Ti159  1  0.08952261  0.89363507  0.30542335  1
  Ti  Ti160  1  -0.00625171  0.60105828  0.59682270  1
  Ti  Ti161  1  0.10311518  0.49633374  0.29086651  1
  Ti  Ti162  1  0.49513048  0.89770309  0.90654453  1
  Ti  Ti163  1  0.88983715  0.50020311  0.10499076  1
  Ti  Ti164  1  0.31399039  0.71263451  0.29794586  1
  Ti  Ti165  1  0.50759594  0.28884107  0.71650184  1
  Ti  Ti166  1  0.89270210  0.30525276  0.10501297  1
  Ti  Ti167  1  0.19858753  0.60307574  0.20059649  1
  Ti  Ti168  1  0.10015480  0.29399705  0.89946637  1
  Ti  Ti169  1  0.20465961  0.39251047  0.19337148  1
  Ti  Ti170  1  0.49491447  0.29568586  0.49931150  1
  Ti  Ti171  1  0.10723985  0.50151085  0.10285633  1
  Ti  Ti172  1  0.30443019  0.70335543  0.90920344  1
  Ti  Ti173  1  0.29524461  0.29254094  0.71450724  1
  Ti  Ti174  1  0.41210718  0.19912310  0.81396202  1
  Ti  Ti175  1  0.79765086  -0.00278004  0.19352429  1
  Ti  Ti176  1  0.30256192  0.09613850  0.71292243  1
  Ti  Ti177  1  0.71104626  0.51621228  0.48741566  1
  Ti  Ti178  1  0.70939688  0.90440222  0.49376784  1
  Ti  Ti179  1  0.40003350  0.59795403  0.00095973  1
  Ti  Ti180  1  0.69758685  0.08967110  0.29029522  1
  Ti  Ti181  1  0.89535120  0.89694984  0.10025888  1
  Ti  Ti182  1  0.29750873  0.69879188  0.69577874  1
  Ti  Ti183  1  0.80327085  0.00215066  0.39263870  1
  Ti  Ti184  1  0.89736598  0.08741382  0.70312054  1
  Ti  Ti185  1  -0.00540284  0.20003309  0.20201132  1
  Ti  Ti186  1  0.79996267  0.18815843  0.79764208  1
  Ti  Ti187  1  -0.00614636  0.59393485  0.00715035  1
  Ti  Ti188  1  0.00984358  -0.00731615  -0.01641301  1
  Ti  Ti189  1  0.59255618  0.00308858  0.81992966  1
  Ti  Ti190  1  0.30494532  0.09212788  0.29270015  1
  Ti  Ti191  1  0.59650474  0.41687597  0.18509562  1
  Ti  Ti192  1  0.30413708  0.70442324  0.50003838  1
  Ti  Ti193  1  0.41302589  0.01520570  0.19182691  1
  Ti  Ti194  1  0.70552716  0.50478785  0.89696795  1
  Ti  Ti195  1  0.09372931  0.29885610  0.70335266  1
  Ti  Ti196  1  -0.00877727  0.81550291  0.58586782  1
  Ti  Ti197  1  0.29868329  0.49502159  0.50602977  1
  Ti  Ti198  1  0.70598530  0.49951506  0.71043297  1
  Ti  Ti199  1  0.80879645  -0.00717229  0.59812779  1
  Mo  Mo200  1  0.49745527  0.29535963  0.90373917  1
  Mo  Mo201  1  0.31144738  0.89818242  0.29778735  1
  Mo  Mo202  1  0.89893285  0.50475313  0.29475444  1
  Mo  Mo203  1  0.70534546  0.69848404  0.09995694  1
  Mo  Mo204  1  0.00125345  0.20724257  0.79813406  1
  Mo  Mo205  1  0.09573986  0.89605772  0.50335957  1
  Mo  Mo206  1  0.30136035  0.29896544  0.09567870  1
  Mo  Mo207  1  0.79986737  -0.00264085  0.80277368  1
  Mo  Mo208  1  0.29574546  0.30536659  0.28843628  1
  Mo  Mo209  1  0.60084087  0.19517414  0.00135046  1
  Mo  Mo210  1  0.89541376  0.08856835  0.29939434  1
  Mo  Mo211  1  0.49482589  0.90129588  0.50177685  1
  Mo  Mo212  1  0.88992427  0.90015101  0.49631969  1
  Mo  Mo213  1  0.50818939  0.10815931  0.90490897  1
  Mo  Mo214  1  0.50231539  0.70139875  0.29425194  1
  Mo  Mo215  1  -0.00606652  -0.01375778  0.80396076  1
  Mo  Mo216  1  0.39122223  0.59907118  0.60107683  1
  Mo  Mo217  1  0.70352402  0.28042696  0.49297536  1
  Mo  Mo218  1  0.90211485  0.89969456  0.89769741  1
  Mo  Mo219  1  0.50664874  0.10645638  0.10438392  1
  Mo  Mo220  1  0.40673177  0.00130512  0.80723819  1
  Mo  Mo221  1  0.70317142  0.09745307  0.10150426  1
  Mo  Mo222  1  -0.01015122  0.79833602  0.39762840  1
  Mo  Mo223  1  0.61033222  0.18136860  0.19475524  1
  Mo  Mo224  1  0.80446783  0.60534854  0.39834624  1
  Mo  Mo225  1  0.70757947  0.70353983  0.29714353  1
  Mo  Mo226  1  0.50045483  0.90145695  0.10214798  1
  Mo  Mo227  1  0.39934914  0.79995222  0.39415386  1
  Mo  Mo228  1  0.49674092  0.69839286  0.91855574  1
  Mo  Mo229  1  0.50198465  0.10094048  0.28472795  1
  Mo  Mo230  1  0.90144729  0.90331181  0.69596190  1
  Mo  Mo231  1  0.70719056  0.70674161  0.49750731  1
  Mo  Mo232  1  0.80106407  0.40348867  0.39864985  1
  Mo  Mo233  1  0.71517740  0.89883657  0.10324769  1
  Mo  Mo234  1  0.59555739  0.19391981  0.80520785  1
  Mo  Mo235  1  0.49652879  0.50251157  0.10045655  1
  Mo  Mo236  1  0.79929131  0.40488077  0.18562040  1
  Mo  Mo237  1  0.79351878  0.41305426  0.80698272  1
  Mo  Mo238  1  0.30057621  0.50639712  0.90349463  1
  Mo  Mo239  1  0.10299798  0.09860569  0.90577469  1
  Mo  Mo240  1  0.79969690  0.80197385  0.20056777  1
  Mo  Mo241  1  0.60778948  -0.00182492  0.19568769  1
  Mo  Mo242  1  0.10223494  0.89804400  0.89989510  1
  Mo  Mo243  1  0.71202671  0.70389345  0.70695766  1
  Mo  Mo244  1  0.40580725  0.79183503  0.19923483  1
  Mo  Mo245  1  0.40571922  0.80311000  -0.00188549  1
  Mo  Mo246  1  0.30353686  0.10040260  0.09657082  1
  Mo  Mo247  1  0.00481181  0.40027172  0.59860215  1
  Mo  Mo248  1  0.49976408  0.69165716  0.69265136  1
  Mo  Mo249  1  0.80040222  0.80299847  -0.00035714  1
