# generated using pymatgen
data_HfZrTaTiMo
_symmetry_space_group_name_H-M   'P 1'
_cell_length_a   16.88795814
_cell_length_b   16.89085055
_cell_length_c   16.88350909
_cell_angle_alpha   89.96927171
_cell_angle_beta   90.02085371
_cell_angle_gamma   89.98033946
_symmetry_Int_Tables_number   1
_chemical_formula_structural   HfZrTaTiMo
_chemical_formula_sum   'Hf50 Zr50 Ta50 Ti50 Mo50'
_cell_volume   4816.05305006
_cell_formula_units_Z   50
loop_
 _symmetry_equiv_pos_site_id
 _symmetry_equiv_pos_as_xyz
  1  'x, y, z'
loop_
 _atom_site_type_symbol
 _atom_site_label
 _atom_site_symmetry_multiplicity
 _atom_site_fract_x
 _atom_site_fract_y
 _atom_site_fract_z
 _atom_site_occupancy
  Hf  Hf0  1  0.31634166  0.09710529  0.11149144  1
  Hf  Hf1  1  -0.00337624  0.59622660  0.80485086  1
  Hf  Hf2  1  0.20607189  -0.00126746  0.59727892  1
  Hf  Hf3  1  0.78686189  0.00306056  0.59840290  1
  Hf  Hf4  1  0.40970492  0.19450152  0.00274707  1
  Hf  Hf5  1  0.20725583  0.79247735  0.39672549  1
  Hf  Hf6  1  0.49678362  0.70473897  0.90074798  1
  Hf  Hf7  1  0.30818724  0.50501925  0.10287021  1
  Hf  Hf8  1  0.30697518  0.29655536  0.49755027  1
  Hf  Hf9  1  0.10652733  0.09619562  0.69847197  1
  Hf  Hf10  1  0.19644170  0.19629419  0.20100490  1
  Hf  Hf11  1  0.59975968  0.18969138  0.39269015  1
  Hf  Hf12  1  0.59957154  0.60349323  0.20979392  1
  Hf  Hf13  1  0.09278001  0.89512515  0.30966662  1
  Hf  Hf14  1  0.19911743  0.58764910  0.38884228  1
  Hf  Hf15  1  0.89725468  0.69849505  0.09881813  1
  Hf  Hf16  1  0.00065084  0.21341802  0.79754309  1
  Hf  Hf17  1  -0.00356061  0.59286404  0.19892347  1
  Hf  Hf18  1  -0.00000316  0.39785067  0.80498658  1
  Hf  Hf19  1  0.59859243  0.80233954  0.00599902  1
  Hf  Hf20  1  0.19583647  0.00080011  0.19452186  1
  Hf  Hf21  1  0.78539866  0.20099440  0.00153018  1
  Hf  Hf22  1  0.70362151  0.90915378  0.89501676  1
  Hf  Hf23  1  0.20454339  0.40778002  0.20858221  1
  Hf  Hf24  1  0.09285923  0.09745954  0.30403338  1
  Hf  Hf25  1  0.09862739  0.89235436  0.09400460  1
  Hf  Hf26  1  -0.00588422  0.59814973  0.39632123  1
  Hf  Hf27  1  0.78250913  0.19676701  0.80415174  1
  Hf  Hf28  1  0.78866294  0.00481904  0.39836302  1
  Hf  Hf29  1  0.59813390  0.00060327  0.39747852  1
  Hf  Hf30  1  0.88936367  0.30101643  0.48821192  1
  Hf  Hf31  1  0.69527975  0.30588527  0.49238245  1
  Hf  Hf32  1  -0.00504535  -0.00144681  0.20151031  1
  Hf  Hf33  1  0.31413999  0.30241849  0.10922665  1
  Hf  Hf34  1  0.90404487  0.90115009  0.89620825  1
  Hf  Hf35  1  0.90534765  0.89063649  0.68956384  1
  Hf  Hf36  1  0.20130847  0.79585802  0.20030993  1
  Hf  Hf37  1  0.40337442  0.40940569  0.59949818  1
  Hf  Hf38  1  0.79907666  0.80128147  0.00336973  1
  Hf  Hf39  1  0.78959205  0.40182600  0.60992391  1
  Hf  Hf40  1  0.70119456  0.69464886  0.90188604  1
  Hf  Hf41  1  0.20308541  0.19102856  0.40163645  1
  Hf  Hf42  1  0.50558176  0.50161464  0.90704554  1
  Hf  Hf43  1  0.69585487  0.30215078  0.30100869  1
  Hf  Hf44  1  0.79004896  0.39587805  -0.00290281  1
  Hf  Hf45  1  0.59601742  0.00946578  0.00499038  1
  Hf  Hf46  1  0.50013888  0.90145475  0.89518285  1
  Hf  Hf47  1  0.30849204  0.90666794  0.29515260  1
  Hf  Hf48  1  0.40779135  0.79913458  0.60328433  1
  Hf  Hf49  1  0.60283337  0.59940510  0.79501825  1
  Zr  Zr50  1  0.69765532  0.90727709  0.11302017  1
  Zr  Zr51  1  0.59825351  -0.00402510  0.59399650  1
  Zr  Zr52  1  0.30418138  0.89944036  0.89543676  1
  Zr  Zr53  1  0.30606174  0.29681773  0.69310913  1
  Zr  Zr54  1  0.09754753  0.70821951  0.69890630  1
  Zr  Zr55  1  0.20176719  0.19764309  0.00227804  1
  Zr  Zr56  1  0.79754723  0.39843175  0.19933214  1
  Zr  Zr57  1  0.10731470  0.08910593  0.89155816  1
  Zr  Zr58  1  0.89064795  0.49151105  0.49352460  1
  Zr  Zr59  1  0.00732940  0.00230409  0.00396819  1
  Zr  Zr60  1  0.31746893  0.68780647  0.29790156  1
  Zr  Zr61  1  0.80038077  0.79964871  0.79923325  1
  Zr  Zr62  1  0.79255839  0.20217208  0.60471907  1
  Zr  Zr63  1  0.89298046  0.09202980  0.89650107  1
  Zr  Zr64  1  0.19892014  0.40537607  0.00229551  1
  Zr  Zr65  1  0.89912663  0.10016562  0.49751651  1
  Zr  Zr66  1  0.30441723  0.89684926  0.49956735  1
  Zr  Zr67  1  0.20503257  0.40048129  0.80688764  1
  Zr  Zr68  1  0.09125518  0.70746201  0.50058465  1
  Zr  Zr69  1  0.09191629  0.48631275  0.49343014  1
  Zr  Zr70  1  0.09144745  0.31109652  0.11177665  1
  Zr  Zr71  1  0.21214214  0.79706938  -0.00121986  1
  Zr  Zr72  1  0.20453724  0.20467140  0.80998404  1
  Zr  Zr73  1  0.89664921  0.09182969  0.70481893  1
  Zr  Zr74  1  0.40835866  0.00472086  0.39933645  1
  Zr  Zr75  1  0.18937823  0.59563748  0.19978899  1
  Zr  Zr76  1  0.00108920  0.20501327  0.60102833  1
  Zr  Zr77  1  0.49239290  0.11042616  0.50984870  1
  Zr  Zr78  1  0.89455456  0.09935281  0.10520595  1
  Zr  Zr79  1  0.39808540  0.20203948  0.80956830  1
  Zr  Zr80  1  0.20609545  0.59609676  0.59668350  1
  Zr  Zr81  1  -0.00941382  0.59287621  0.60056799  1
  Zr  Zr82  1  0.60111273  0.59311092  0.60149194  1
  Zr  Zr83  1  0.10549059  0.70108908  0.89859954  1
  Zr  Zr84  1  0.70734913  0.69968533  0.69374193  1
  Zr  Zr85  1  0.70218422  0.88040530  0.49508283  1
  Zr  Zr86  1  0.49668949  0.11253883  0.69794029  1
  Zr  Zr87  1  0.30983682  0.69477883  0.09989070  1
  Zr  Zr88  1  0.89649590  0.70779597  0.30757959  1
  Zr  Zr89  1  -0.00039365  0.40665278  -0.00843239  1
  Zr  Zr90  1  0.40024512  0.40808903  0.38906035  1
  Zr  Zr91  1  0.61159335  0.01226661  0.79132864  1
  Zr  Zr92  1  0.31083821  0.69302437  0.49904686  1
  Zr  Zr93  1  0.51381999  0.30397482  0.90629731  1
  Zr  Zr94  1  0.09433252  0.89223836  0.50542973  1
  Zr  Zr95  1  0.39902640  0.60389913  0.79404083  1
  Zr  Zr96  1  0.09873053  0.30320454  0.49691133  1
  Zr  Zr97  1  0.10643269  0.50090824  0.70278742  1
  Zr  Zr98  1  0.79119264  0.20024296  0.20147373  1
  Zr  Zr99  1  0.00554376  0.20558462  -0.00440184  1
  Ta  Ta100  1  0.50692340  0.69298766  0.49256544  1
  Ta  Ta101  1  0.20704682  0.40357431  0.59389186  1
  Ta  Ta102  1  0.21346677  0.79905736  0.79332543  1
  Ta  Ta103  1  0.09468504  0.69696461  0.09436799  1
  Ta  Ta104  1  0.60503733  0.40457959  0.80244941  1
  Ta  Ta105  1  0.69708101  0.50246085  0.10091655  1
  Ta  Ta106  1  0.79540614  0.79897063  0.20608255  1
  Ta  Ta107  1  0.50404536  0.50474923  0.49198806  1
  Ta  Ta108  1  0.90133519  0.30463158  0.10301656  1
  Ta  Ta109  1  0.50518162  0.30341962  0.69777571  1
  Ta  Ta110  1  0.10538832  0.89234224  0.69891987  1
  Ta  Ta111  1  0.79425320  0.59969840  0.20419339  1
  Ta  Ta112  1  0.68866109  0.30303480  0.70978431  1
  Ta  Ta113  1  0.89213914  0.10190682  0.30302697  1
  Ta  Ta114  1  0.89928641  0.88948832  0.49585907  1
  Ta  Ta115  1  0.40382326  0.40540572  0.80512099  1
  Ta  Ta116  1  0.10422528  0.89429582  0.88855598  1
  Ta  Ta117  1  0.39554680  0.00451781  0.79829003  1
  Ta  Ta118  1  0.30199099  0.09833561  0.69718825  1
  Ta  Ta119  1  0.79459906  0.59484318  0.59840913  1
  Ta  Ta120  1  0.40523874  0.00418552  -0.00072600  1
  Ta  Ta121  1  0.89271054  0.90039501  0.10480786  1
  Ta  Ta122  1  -0.01272432  0.39165269  0.61812093  1
  Ta  Ta123  1  0.59460596  0.79978110  0.78816114  1
  Ta  Ta124  1  0.50024920  0.70112459  0.10645329  1
  Ta  Ta125  1  -0.00458271  0.20016721  0.39474070  1
  Ta  Ta126  1  0.69667761  0.49943464  0.30451253  1
  Ta  Ta127  1  0.00590545  -0.00961075  0.79216728  1
  Ta  Ta128  1  0.79126720  0.60170915  0.39757894  1
  Ta  Ta129  1  0.49643504  0.90615041  0.11134256  1
  Ta  Ta130  1  0.30607964  0.29669484  0.29563010  1
  Ta  Ta131  1  0.49764809  0.29904291  0.29177569  1
  Ta  Ta132  1  0.41769087  0.79953597  0.39624457  1
  Ta  Ta133  1  -0.00589687  0.80125223  0.19801682  1
  Ta  Ta134  1  0.09622814  0.30146311  0.30187195  1
  Ta  Ta135  1  0.69940581  0.69834096  0.10596501  1
  Ta  Ta136  1  0.89621191  0.49830601  0.09903652  1
  Ta  Ta137  1  0.90034756  0.69635940  0.89824373  1
  Ta  Ta138  1  0.89895397  0.69881866  0.69860914  1
  Ta  Ta139  1  0.20926184  0.00256854  0.00081836  1
  Ta  Ta140  1  0.59925185  0.60082822  0.01012699  1
  Ta  Ta141  1  0.69960286  0.69762290  0.49365051  1
  Ta  Ta142  1  0.88381515  0.50023269  0.71270267  1
  Ta  Ta143  1  -0.00007601  0.59429689  -0.00006992  1
  Ta  Ta144  1  0.41118665  0.40688925  0.00807856  1
  Ta  Ta145  1  0.59259460  0.79670397  0.59913143  1
  Ta  Ta146  1  0.40289022  0.19907896  0.39440430  1
  Ta  Ta147  1  0.50189592  0.30260057  0.50180228  1
  Ta  Ta148  1  0.58941001  0.40885115  0.19716388  1
  Ta  Ta149  1  0.88836912  0.70927048  0.50337683  1
  Ti  Ti150  1  0.50096030  0.10387532  0.27455760  1
  Ti  Ti151  1  0.59215192  0.40382985  0.39349644  1
  Ti  Ti152  1  0.69940571  0.89944022  0.29633773  1
  Ti  Ti153  1  0.39766874  -0.00311110  0.60091029  1
  Ti  Ti154  1  0.88487397  0.50430005  0.89846523  1
  Ti  Ti155  1  0.79014420  0.00836252  0.00386508  1
  Ti  Ti156  1  0.20645631  0.40133724  0.39505376  1
  Ti  Ti157  1  0.30072681  0.51417190  0.90646030  1
  Ti  Ti158  1  0.41077909  0.79828675  0.20528636  1
  Ti  Ti159  1  0.40334689  0.80256881  0.00451834  1
  Ti  Ti160  1  0.49807597  0.90392032  0.70151808  1
  Ti  Ti161  1  0.70358405  0.89592199  0.69759454  1
  Ti  Ti162  1  -0.01419577  0.39011146  0.38282728  1
  Ti  Ti163  1  0.79790262  0.59697412  0.00359128  1
  Ti  Ti164  1  0.11283422  0.30255139  0.69343053  1
  Ti  Ti165  1  0.00462258  0.00020608  0.59542547  1
  Ti  Ti166  1  0.50447338  0.29619882  0.10657526  1
  Ti  Ti167  1  0.70031769  0.50005567  0.90139679  1
  Ti  Ti168  1  0.88681888  0.30230799  0.89585980  1
  Ti  Ti169  1  0.29867239  0.70065224  0.69657522  1
  Ti  Ti170  1  0.20232279  0.00922368  0.40877595  1
  Ti  Ti171  1  0.59974761  0.40450537  0.60331781  1
  Ti  Ti172  1  0.09047840  0.70539992  0.29911479  1
  Ti  Ti173  1  -0.00450642  0.20228601  0.20464421  1
  Ti  Ti174  1  0.69511769  0.49836269  0.48919674  1
  Ti  Ti175  1  0.29897572  0.50271298  0.70428857  1
  Ti  Ti176  1  0.11462651  0.51302738  0.90348665  1
  Ti  Ti177  1  0.50496981  0.90192645  0.29349861  1
  Ti  Ti178  1  0.50183863  0.49529221  0.70283877  1
  Ti  Ti179  1  0.30938650  0.09972627  0.29804295  1
  Ti  Ti180  1  -0.00400678  0.00123854  0.40510137  1
  Ti  Ti181  1  0.60505547  0.19307584  0.00022424  1
  Ti  Ti182  1  0.59728743  0.79068938  0.38953022  1
  Ti  Ti183  1  0.08696890  0.48532957  0.29740671  1
  Ti  Ti184  1  -0.00345299  0.79659328  -0.00211958  1
  Ti  Ti185  1  0.40929870  0.59964041  0.60279515  1
  Ti  Ti186  1  0.88982033  0.49374593  0.29948024  1
  Ti  Ti187  1  0.20406837  0.19080833  0.58843179  1
  Ti  Ti188  1  0.59880061  0.79491211  0.20679313  1
  Ti  Ti189  1  0.68611065  0.09607605  0.12158977  1
  Ti  Ti190  1  0.41696097  0.58390753  0.21045253  1
  Ti  Ti191  1  0.68181704  0.30560473  0.09789045  1
  Ti  Ti192  1  0.30923904  0.31077818  0.91111300  1
  Ti  Ti193  1  0.60761828  0.20114996  0.60102578  1
  Ti  Ti194  1  0.40020913  0.79866320  0.79059624  1
  Ti  Ti195  1  0.40578493  0.60311160  0.00138140  1
  Ti  Ti196  1  0.50583230  0.10203353  0.89480973  1
  Ti  Ti197  1  0.31205680  0.90280140  0.10412598  1
  Ti  Ti198  1  0.30853080  0.50534464  0.49291917  1
  Ti  Ti199  1  0.89371361  0.89993941  0.30376357  1
  Mo  Mo200  1  0.50484502  0.88798015  0.49505691  1
  Mo  Mo201  1  0.59946784  0.20717464  0.80104600  1
  Mo  Mo202  1  0.79338291  0.40476919  0.39422330  1
  Mo  Mo203  1  0.79250559  0.39883203  0.80674084  1
  Mo  Mo204  1  0.09831600  0.09391800  0.49698080  1
  Mo  Mo205  1  0.30612435  0.08994073  0.90253666  1
  Mo  Mo206  1  0.69507963  0.10176837  0.90251987  1
  Mo  Mo207  1  -0.00687482  0.79772498  0.59921151  1
  Mo  Mo208  1  0.69634567  0.10992444  0.49568171  1
  Mo  Mo209  1  0.30400734  0.90090539  0.70050342  1
  Mo  Mo210  1  0.10481155  0.30220189  0.89948313  1
  Mo  Mo211  1  0.59810618  0.00040943  0.20788876  1
  Mo  Mo212  1  0.88650381  0.30917765  0.71369648  1
  Mo  Mo213  1  0.20084578  0.60012095  -0.00004980  1
  Mo  Mo214  1  0.30639769  0.49623434  0.29708702  1
  Mo  Mo215  1  0.50516323  0.70066817  0.29985817  1
  Mo  Mo216  1  0.69080321  0.30073740  0.90318924  1
  Mo  Mo217  1  0.60263269  0.40738096  0.00782554  1
  Mo  Mo218  1  0.21066254  0.80229390  0.60825303  1
  Mo  Mo219  1  0.69887717  0.49578650  0.70540559  1
  Mo  Mo220  1  0.80106377  0.59658752  0.80400814  1
  Mo  Mo221  1  0.69738087  0.09774181  0.29477992  1
  Mo  Mo222  1  0.40071284  0.20912092  0.59771574  1
  Mo  Mo223  1  0.69465955  0.10788428  0.69525023  1
  Mo  Mo224  1  -0.00838109  0.80290130  0.39687251  1
  Mo  Mo225  1  -0.00765520  0.40297396  0.20412792  1
  Mo  Mo226  1  0.80065750  -0.00056496  0.79214500  1
  Mo  Mo227  1  0.20502165  -0.00716021  0.79436347  1
  Mo  Mo228  1  0.30287173  0.10233928  0.50346120  1
  Mo  Mo229  1  0.79708860  0.79403540  0.59700896  1
  Mo  Mo230  1  0.40687317  0.39908819  0.19857575  1
  Mo  Mo231  1  0.59687176  0.20389467  0.19535137  1
  Mo  Mo232  1  0.40467840  0.20096765  0.20527642  1
  Mo  Mo233  1  0.70002558  0.70248737  0.30129279  1
  Mo  Mo234  1  0.79707168  -0.00435934  0.20954015  1
  Mo  Mo235  1  0.09317943  0.50754521  0.09862369  1
  Mo  Mo236  1  0.90048336  0.29323333  0.29743575  1
  Mo  Mo237  1  0.50056349  0.70228936  0.69579255  1
  Mo  Mo238  1  0.00199358  0.79917786  0.79893235  1
  Mo  Mo239  1  0.79493655  0.80059615  0.39405272  1
  Mo  Mo240  1  0.50564594  0.49917061  0.30148032  1
  Mo  Mo241  1  0.21379783  0.60767666  0.80698327  1
  Mo  Mo242  1  0.10429065  0.09347915  0.10403224  1
  Mo  Mo243  1  0.60421490  0.59811845  0.40111674  1
  Mo  Mo244  1  0.79570693  0.19689651  0.39620479  1
  Mo  Mo245  1  0.40539894  -0.00185741  0.19970072  1
  Mo  Mo246  1  0.30690274  0.69830764  0.89640994  1
  Mo  Mo247  1  0.50534064  0.10094538  0.10176053  1
  Mo  Mo248  1  0.41200844  0.59792410  0.39711894  1
  Mo  Mo249  1  0.50155874  0.50618630  0.10078039  1
