# generated using pymatgen
data_HfZrTaTiMo
_symmetry_space_group_name_H-M   'P 1'
_cell_length_a   16.88397399
_cell_length_b   16.89141434
_cell_length_c   16.87722185
_cell_angle_alpha   89.99309276
_cell_angle_beta   90.00359288
_cell_angle_gamma   89.96340915
_symmetry_Int_Tables_number   1
_chemical_formula_structural   HfZrTaTiMo
_chemical_formula_sum   'Hf50 Zr50 Ta50 Ti50 Mo50'
_cell_volume   4813.28476621
_cell_formula_units_Z   50
loop_
 _symmetry_equiv_pos_site_id
 _symmetry_equiv_pos_as_xyz
  1  'x, y, z'
loop_
 _atom_site_type_symbol
 _atom_site_label
 _atom_site_symmetry_multiplicity
 _atom_site_fract_x
 _atom_site_fract_y
 _atom_site_fract_z
 _atom_site_occupancy
  Hf  Hf0  1  0.89321416  0.31200690  0.89327097  1
  Hf  Hf1  1  0.69698282  0.51024368  0.49433062  1
  Hf  Hf2  1  -0.01005450  0.41556018  -0.00164779  1
  Hf  Hf3  1  0.80993752  0.79131437  0.00106190  1
  Hf  Hf4  1  0.50319588  0.87764705  0.09278294  1
  Hf  Hf5  1  0.00271347  0.00436401  -0.01105484  1
  Hf  Hf6  1  0.29517223  0.51303703  0.69451680  1
  Hf  Hf7  1  0.81012210  0.80212095  0.40372097  1
  Hf  Hf8  1  0.29569723  0.50904125  0.10584328  1
  Hf  Hf9  1  -0.00099705  0.78929587  -0.00624947  1
  Hf  Hf10  1  0.89883791  0.49534140  0.49722431  1
  Hf  Hf11  1  0.50864588  0.68758050  0.51213769  1
  Hf  Hf12  1  0.10176203  0.51378321  0.90097781  1
  Hf  Hf13  1  0.89800895  0.10328621  0.10668558  1
  Hf  Hf14  1  0.69980803  0.30167997  0.09201530  1
  Hf  Hf15  1  0.39821156  0.59564622  0.39981018  1
  Hf  Hf16  1  0.30070043  0.09269047  0.89324027  1
  Hf  Hf17  1  0.10883431  0.68206539  0.09560641  1
  Hf  Hf18  1  0.18437435  0.40026422  0.59410569  1
  Hf  Hf19  1  0.09372203  0.31115519  0.89572214  1
  Hf  Hf20  1  0.18836336  0.40477808  0.78390900  1
  Hf  Hf21  1  0.69489990  0.68936951  0.11101356  1
  Hf  Hf22  1  0.10363973  0.90088588  0.88756284  1
  Hf  Hf23  1  0.40501721  0.59797978  -0.00290059  1
  Hf  Hf24  1  0.60542436  0.40645237  0.20640565  1
  Hf  Hf25  1  0.80136846  0.59986314  0.00161361  1
  Hf  Hf26  1  0.19996160  0.40616536  0.40267970  1
  Hf  Hf27  1  0.40336128  0.61504242  0.78738603  1
  Hf  Hf28  1  0.20001500  -0.00212900  0.40712821  1
  Hf  Hf29  1  0.79241649  0.20456408  0.78547652  1
  Hf  Hf30  1  0.88447747  0.90048826  0.69600763  1
  Hf  Hf31  1  -0.00368929  0.19792960  -0.00763429  1
  Hf  Hf32  1  0.90342405  0.30642047  0.69459603  1
  Hf  Hf33  1  0.20220349  0.79811234  0.79209341  1
  Hf  Hf34  1  0.69623784  0.88869269  0.29978830  1
  Hf  Hf35  1  0.59691219  0.79870853  0.79565565  1
  Hf  Hf36  1  0.09556545  0.90066975  0.29802357  1
  Hf  Hf37  1  0.49957941  0.30377723  0.10022122  1
  Hf  Hf38  1  0.30350564  0.09345238  0.70017172  1
  Hf  Hf39  1  0.39908085  0.79211356  0.40881834  1
  Hf  Hf40  1  0.10179147  0.09379262  0.10609049  1
  Hf  Hf41  1  0.30351335  0.90809486  0.70219871  1
  Hf  Hf42  1  0.70845728  0.89335545  0.51548622  1
  Hf  Hf43  1  0.68944091  0.10758587  0.90142495  1
  Hf  Hf44  1  0.09684146  0.30895343  0.10150950  1
  Hf  Hf45  1  0.88220734  0.08917095  0.88798123  1
  Hf  Hf46  1  0.89350589  0.30761791  0.10373272  1
  Hf  Hf47  1  0.31019904  0.89542167  0.09482130  1
  Hf  Hf48  1  0.29901353  0.30521488  0.89309533  1
  Hf  Hf49  1  0.39674550  0.78580077  0.61163183  1
  Zr  Zr50  1  0.80302313  0.00119643  0.40952406  1
  Zr  Zr51  1  0.90210440  0.67989344  0.30946525  1
  Zr  Zr52  1  0.79235514  0.78900737  0.80300791  1
  Zr  Zr53  1  0.59696673  0.41493304  -0.00784434  1
  Zr  Zr54  1  0.39397326  0.40458297  0.39245187  1
  Zr  Zr55  1  0.50320588  0.29673177  0.49590081  1
  Zr  Zr56  1  0.61895502  0.79313094  -0.01420812  1
  Zr  Zr57  1  0.40635505  -0.00227155  0.19394614  1
  Zr  Zr58  1  0.50475899  0.29523538  0.69590431  1
  Zr  Zr59  1  0.49849538  0.89157433  0.30425333  1
  Zr  Zr60  1  0.09778161  0.69887160  0.49658897  1
  Zr  Zr61  1  0.39228648  0.40456562  0.59131005  1
  Zr  Zr62  1  0.19958359  0.20249112  0.00044199  1
  Zr  Zr63  1  0.71108352  0.92012574  0.89130635  1
  Zr  Zr64  1  0.80998289  0.79090256  0.20400865  1
  Zr  Zr65  1  0.50727335  0.51654224  0.68401619  1
  Zr  Zr66  1  0.20472918  0.80164499  0.40976371  1
  Zr  Zr67  1  0.50132673  0.50791951  0.10474977  1
  Zr  Zr68  1  0.19261559  0.20215890  0.78558730  1
  Zr  Zr69  1  0.60088405  0.00092461  0.41308671  1
  Zr  Zr70  1  0.10069301  0.90309267  0.10179009  1
  Zr  Zr71  1  0.39131157  0.20203990  0.40178783  1
  Zr  Zr72  1  0.00425950  0.00303551  0.77993349  1
  Zr  Zr73  1  0.69959599  0.89652307  0.10455783  1
  Zr  Zr74  1  0.80242339  0.59056875  0.61286350  1
  Zr  Zr75  1  0.20099913  0.79535965  -0.00618891  1
  Zr  Zr76  1  0.21142502  0.20928966  0.20279504  1
  Zr  Zr77  1  0.50623521  0.10978155  0.08761348  1
  Zr  Zr78  1  0.00174608  0.20544355  0.20509395  1
  Zr  Zr79  1  0.70143758  0.10556752  0.30321070  1
  Zr  Zr80  1  0.30369745  0.09018355  0.30029006  1
  Zr  Zr81  1  0.49888873  0.70276566  0.90707637  1
  Zr  Zr82  1  0.41427566  0.40679635  0.80298470  1
  Zr  Zr83  1  0.10096450  0.69467772  0.70239416  1
  Zr  Zr84  1  0.61141207  0.39656460  0.59847754  1
  Zr  Zr85  1  0.49895064  0.10584381  0.30731913  1
  Zr  Zr86  1  0.20551087  0.79480748  0.20147728  1
  Zr  Zr87  1  -0.00212380  0.78737970  0.20231197  1
  Zr  Zr88  1  0.19616445  0.20360017  0.40176768  1
  Zr  Zr89  1  -0.00720863  -0.00454899  0.40666162  1
  Zr  Zr90  1  0.29490384  0.50688592  0.89538467  1
  Zr  Zr91  1  0.39924950  0.20533532  -0.00619742  1
  Zr  Zr92  1  -0.00025652  0.19548463  0.79113020  1
  Zr  Zr93  1  0.90375386  0.29958640  0.50002093  1
  Zr  Zr94  1  0.70171753  0.10614684  0.09441326  1
  Zr  Zr95  1  0.60060873  0.00154711  0.19766822  1
  Zr  Zr96  1  0.00233535  0.58891372  0.60433234  1
  Zr  Zr97  1  0.91036367  0.90909513  0.10580803  1
  Zr  Zr98  1  0.19532104  0.20318578  0.59648855  1
  Zr  Zr99  1  0.18190165  -0.00137733  0.60323874  1
  Ta  Ta100  1  0.40868256  0.19734543  0.79862685  1
  Ta  Ta101  1  0.79445044  0.40519310  0.20666500  1
  Ta  Ta102  1  0.60724489  0.40626312  0.79707317  1
  Ta  Ta103  1  0.10140596  0.50229507  0.10355733  1
  Ta  Ta104  1  0.20378432  0.40316252  0.00703246  1
  Ta  Ta105  1  -0.00822197  0.00272299  0.59706470  1
  Ta  Ta106  1  0.49746924  0.89844395  0.50945096  1
  Ta  Ta107  1  0.60023796  0.00197475  0.60142268  1
  Ta  Ta108  1  0.69794937  0.90510173  0.69777434  1
  Ta  Ta109  1  0.39894933  0.19554149  0.60060088  1
  Ta  Ta110  1  0.50525184  0.50549393  0.49538039  1
  Ta  Ta111  1  0.60422263  0.60029915  0.80184149  1
  Ta  Ta112  1  0.39905533  0.40316845  -0.00158641  1
  Ta  Ta113  1  0.20223168  0.40033600  0.20465319  1
  Ta  Ta114  1  0.69457843  0.09714698  0.70016132  1
  Ta  Ta115  1  0.90189757  0.10851243  0.30630001  1
  Ta  Ta116  1  0.79607483  0.20465552  0.40636644  1
  Ta  Ta117  1  0.49992944  0.30165973  0.29809237  1
  Ta  Ta118  1  0.60137928  0.20923042  0.20350308  1
  Ta  Ta119  1  0.89768181  0.69734014  0.50416798  1
  Ta  Ta120  1  0.70099250  0.68812250  0.31224961  1
  Ta  Ta121  1  0.09626361  0.30496490  0.30417287  1
  Ta  Ta122  1  0.89923454  0.89986590  0.89077815  1
  Ta  Ta123  1  0.30705181  0.89641616  0.30346779  1
  Ta  Ta124  1  0.60294219  0.59178722  0.21458356  1
  Ta  Ta125  1  0.60089726  0.79947031  0.60519033  1
  Ta  Ta126  1  -0.00722948  0.80472499  0.60156575  1
  Ta  Ta127  1  0.69723729  0.69413151  0.69650536  1
  Ta  Ta128  1  0.79227451  0.39635521  0.60414817  1
  Ta  Ta129  1  0.89733064  0.49582070  0.30458973  1
  Ta  Ta130  1  0.00547725  0.19656265  0.60093119  1
  Ta  Ta131  1  0.89587525  0.50568305  0.11380377  1
  Ta  Ta132  1  0.29620332  0.69235802  0.30025970  1
  Ta  Ta133  1  0.79197171  0.40801347  0.79408999  1
  Ta  Ta134  1  0.70527792  0.69667317  0.50235628  1
  Ta  Ta135  1  0.60076968  0.40514107  0.39241592  1
  Ta  Ta136  1  0.60167348  0.79280478  0.40981675  1
  Ta  Ta137  1  0.10707902  0.68640640  0.30512991  1
  Ta  Ta138  1  0.00738180  0.40117555  0.40268061  1
  Ta  Ta139  1  0.70315959  0.50695849  0.89777243  1
  Ta  Ta140  1  0.90254181  0.69038347  0.88973121  1
  Ta  Ta141  1  0.69874108  0.30575566  0.89699544  1
  Ta  Ta142  1  0.80850396  -0.00126057  0.21250659  1
  Ta  Ta143  1  0.50315705  0.09914578  0.69806759  1
  Ta  Ta144  1  0.49916942  0.90353053  0.69809886  1
  Ta  Ta145  1  0.30174647  0.09543750  0.09560787  1
  Ta  Ta146  1  0.89886653  0.30388108  0.30655397  1
  Ta  Ta147  1  0.29317376  0.69600797  0.89817772  1
  Ta  Ta148  1  0.79218310  0.39817476  0.39909163  1
  Ta  Ta149  1  0.20539971  -0.00182462  -0.00413553  1
  Ti  Ti150  1  0.89704228  0.69980321  0.70139769  1
  Ti  Ti151  1  0.59091954  -0.00204413  -0.00772557  1
  Ti  Ti152  1  0.40628414  0.00028967  -0.00687364  1
  Ti  Ti153  1  0.59125483  0.00174232  0.80023897  1
  Ti  Ti154  1  0.30722728  0.89850983  0.89883135  1
  Ti  Ti155  1  0.79648127  0.20642863  0.20729300  1
  Ti  Ti156  1  0.09385353  0.09868647  0.29987529  1
  Ti  Ti157  1  0.00008889  0.59567872  0.20026455  1
  Ti  Ti158  1  0.11076422  0.09382322  0.88837963  1
  Ti  Ti159  1  0.39833314  0.79624559  0.79791391  1
  Ti  Ti160  1  0.29812508  0.30053748  0.50193526  1
  Ti  Ti161  1  0.79996050  0.01578590  0.59938383  1
  Ti  Ti162  1  -0.00939216  0.60107994  -0.00083285  1
  Ti  Ti163  1  0.50873825  0.69794370  0.10330575  1
  Ti  Ti164  1  0.10308453  0.50480723  0.29709612  1
  Ti  Ti165  1  0.60821417  0.20425210  0.40761938  1
  Ti  Ti166  1  0.09092866  0.89372053  0.50517131  1
  Ti  Ti167  1  0.49386649  0.09421666  0.50644609  1
  Ti  Ti168  1  0.40318482  0.78582088  0.20326571  1
  Ti  Ti169  1  0.79809616  0.41464146  -0.00053745  1
  Ti  Ti170  1  0.41268191  0.00172344  0.80413214  1
  Ti  Ti171  1  0.69894153  0.30025342  0.30464067  1
  Ti  Ti172  1  0.08808917  0.10663991  0.49347950  1
  Ti  Ti173  1  -0.00674052  0.80206859  0.40265032  1
  Ti  Ti174  1  0.19334919  0.59257126  0.59500980  1
  Ti  Ti175  1  0.80253736  -0.00247278  0.00764325  1
  Ti  Ti176  1  0.19917537  0.80244201  0.60168474  1
  Ti  Ti177  1  0.20580739  -0.00359562  0.20042927  1
  Ti  Ti178  1  0.00897953  0.58841277  0.40509603  1
  Ti  Ti179  1  0.31219970  0.90814008  0.50830107  1
  Ti  Ti180  1  0.39481607  0.20850784  0.19827333  1
  Ti  Ti181  1  0.29203234  0.50945701  0.29554020  1
  Ti  Ti182  1  -0.00030761  0.79749476  0.79568393  1
  Ti  Ti183  1  -0.00103331  0.40647660  0.20793089  1
  Ti  Ti184  1  0.60937366  0.19510459  0.59434707  1
  Ti  Ti185  1  0.29372981  0.68500040  0.50663294  1
  Ti  Ti186  1  0.50820523  0.29892425  0.90034449  1
  Ti  Ti187  1  0.78845174  0.20361200  0.59604495  1
  Ti  Ti188  1  -0.00214635  0.59543184  0.79934832  1
  Ti  Ti189  1  0.90515877  0.49174837  0.70800611  1
  Ti  Ti190  1  0.30400234  0.69402519  0.09962040  1
  Ti  Ti191  1  0.30632770  0.30156355  0.69814117  1
  Ti  Ti192  1  0.40646698  0.60233075  0.20885056  1
  Ti  Ti193  1  0.31050599  0.08837150  0.50580589  1
  Ti  Ti194  1  0.89912580  0.11164866  0.50147273  1
  Ti  Ti195  1  0.50845770  0.69567767  0.30514786  1
  Ti  Ti196  1  0.80115569  0.20472928  -0.00629116  1
  Ti  Ti197  1  0.49201832  0.89408848  0.90209278  1
  Ti  Ti198  1  0.39214922  0.39820532  0.20471908  1
  Ti  Ti199  1  0.59787632  0.20346763  0.79842083  1
  Mo  Mo200  1  -0.00315251  0.00957247  0.21329723  1
  Mo  Mo201  1  0.70516364  0.50162421  0.10350191  1
  Mo  Mo202  1  0.49858494  0.49864430  0.30000118  1
  Mo  Mo203  1  0.80244337  0.59660564  0.40339159  1
  Mo  Mo204  1  0.50706040  0.70676316  0.70213240  1
  Mo  Mo205  1  0.60245685  0.21236982  -0.00886302  1
  Mo  Mo206  1  0.80450019  0.59535198  0.80004755  1
  Mo  Mo207  1  0.29147498  0.70019412  0.69711597  1
  Mo  Mo208  1  0.20370066  0.59865244  0.00105850  1
  Mo  Mo209  1  0.70436906  0.68625797  0.89408714  1
  Mo  Mo210  1  -0.00388898  0.41158100  0.79823489  1
  Mo  Mo211  1  0.39458501  0.79239211  -0.00156211  1
  Mo  Mo212  1  0.09341680  0.30000018  0.49564506  1
  Mo  Mo213  1  0.50142379  0.09840001  0.89044588  1
  Mo  Mo214  1  0.89299560  0.10406804  0.68397526  1
  Mo  Mo215  1  0.90395635  0.90805719  0.30374769  1
  Mo  Mo216  1  0.19632737  0.60618437  0.79966969  1
  Mo  Mo217  1  0.60840688  0.60350894  0.60157180  1
  Mo  Mo218  1  0.09394841  0.50163226  0.70204819  1
  Mo  Mo219  1  0.69854498  0.29716579  0.70011165  1
  Mo  Mo220  1  0.29473833  0.51016545  0.50164612  1
  Mo  Mo221  1  0.00075929  0.39786069  0.60046002  1
  Mo  Mo222  1  0.79590412  0.58980852  0.20536759  1
  Mo  Mo223  1  0.70136385  0.29913363  0.49524513  1
  Mo  Mo224  1  0.20030372  0.59574794  0.20403413  1
  Mo  Mo225  1  0.80025209  0.78613150  0.60406151  1
  Mo  Mo226  1  0.89993550  0.89357854  0.50963693  1
  Mo  Mo227  1  0.09834857  0.09809104  0.69252748  1
  Mo  Mo228  1  0.89706216  0.50511044  0.89301918  1
  Mo  Mo229  1  0.39754880  -0.00924470  0.41309556  1
  Mo  Mo230  1  0.20225876  -0.00559020  0.80176910  1
  Mo  Mo231  1  0.09397276  0.89378889  0.69326847  1
  Mo  Mo232  1  0.09313905  0.69522951  0.89549798  1
  Mo  Mo233  1  0.70522277  0.50151206  0.30412564  1
  Mo  Mo234  1  -0.00195154  0.20146020  0.40159752  1
  Mo  Mo235  1  0.20086724  0.59557832  0.39928790  1
  Mo  Mo236  1  0.69929340  0.10609478  0.50816269  1
  Mo  Mo237  1  0.30464004  0.31292808  0.10051711  1
  Mo  Mo238  1  0.59512227  0.78039828  0.21307090  1
  Mo  Mo239  1  0.59868981  0.59943787  0.39899567  1
  Mo  Mo240  1  0.30061796  0.30848149  0.29492017  1
  Mo  Mo241  1  0.60434609  0.59824367  -0.00229500  1
  Mo  Mo242  1  0.50678387  0.50467870  0.89499557  1
  Mo  Mo243  1  0.08537484  0.30585531  0.69296899  1
  Mo  Mo244  1  0.09701243  0.49914231  0.49700618  1
  Mo  Mo245  1  0.70170198  0.50040129  0.70438287  1
  Mo  Mo246  1  0.41060723  0.00220475  0.60281647  1
  Mo  Mo247  1  0.90571258  0.68394856  0.10003519  1
  Mo  Mo248  1  0.79527829  0.00666413  0.78590471  1
  Mo  Mo249  1  0.39006486  0.60135499  0.59336569  1
