# generated using pymatgen
data_HfZrTaTiMo
_symmetry_space_group_name_H-M   'P 1'
_cell_length_a   16.90035296
_cell_length_b   16.88292997
_cell_length_c   16.88147438
_cell_angle_alpha   90.03904934
_cell_angle_beta   89.99905146
_cell_angle_gamma   90.03164670
_symmetry_Int_Tables_number   1
_chemical_formula_structural   HfZrTaTiMo
_chemical_formula_sum   'Hf50 Zr50 Ta50 Ti50 Mo50'
_cell_volume   4816.74661550
_cell_formula_units_Z   50
loop_
 _symmetry_equiv_pos_site_id
 _symmetry_equiv_pos_as_xyz
  1  'x, y, z'
loop_
 _atom_site_type_symbol
 _atom_site_label
 _atom_site_symmetry_multiplicity
 _atom_site_fract_x
 _atom_site_fract_y
 _atom_site_fract_z
 _atom_site_occupancy
  Hf  Hf0  1  0.29973784  0.49236358  0.30400629  1
  Hf  Hf1  1  0.08533167  0.90948593  0.88603551  1
  Hf  Hf2  1  0.60211244  0.80131638  0.80201362  1
  Hf  Hf3  1  0.08478911  0.50129195  0.69824754  1
  Hf  Hf4  1  0.90444340  0.89446780  0.10538063  1
  Hf  Hf5  1  0.70621314  0.29519503  0.69734533  1
  Hf  Hf6  1  0.89879181  0.90535728  0.69853111  1
  Hf  Hf7  1  0.90198299  0.69535367  0.10342991  1
  Hf  Hf8  1  0.50889394  0.70626094  0.50416211  1
  Hf  Hf9  1  0.19004370  0.39159963  0.40147572  1
  Hf  Hf10  1  0.70163616  0.29902231  0.28604853  1
  Hf  Hf11  1  0.00439555  0.20386784  0.20651295  1
  Hf  Hf12  1  0.29907500  0.10200072  0.70198755  1
  Hf  Hf13  1  0.20561348  0.59619007  -0.01462687  1
  Hf  Hf14  1  0.00414474  0.59629240  0.40020465  1
  Hf  Hf15  1  0.41310331  0.81497018  0.60655361  1
  Hf  Hf16  1  0.90217863  0.69665276  0.29433943  1
  Hf  Hf17  1  0.41273889  0.60178324  0.39079418  1
  Hf  Hf18  1  0.50821174  0.50382716  0.90727243  1
  Hf  Hf19  1  0.30380290  0.29989449  0.30520799  1
  Hf  Hf20  1  0.60179683  0.79870306  -0.00926385  1
  Hf  Hf21  1  -0.00096605  0.38220151  0.19111784  1
  Hf  Hf22  1  0.90684544  0.90134588  0.30266798  1
  Hf  Hf23  1  0.70147647  0.49379086  0.29269315  1
  Hf  Hf24  1  0.19456711  0.80192131  0.79150618  1
  Hf  Hf25  1  0.50553028  0.69647543  0.09556488  1
  Hf  Hf26  1  0.61724225  0.59757315  0.60552982  1
  Hf  Hf27  1  0.40184227  -0.00462017  0.19754147  1
  Hf  Hf28  1  0.08827404  0.10828640  0.89842873  1
  Hf  Hf29  1  0.50125109  0.50368337  0.70471144  1
  Hf  Hf30  1  0.31360861  0.70170442  0.08608659  1
  Hf  Hf31  1  0.49199003  0.30977250  0.50339429  1
  Hf  Hf32  1  0.69887460  0.11858727  0.10547346  1
  Hf  Hf33  1  0.29722247  0.90257665  0.30477527  1
  Hf  Hf34  1  0.49980861  0.10282414  0.09054197  1
  Hf  Hf35  1  0.30876683  0.09846575  0.90625197  1
  Hf  Hf36  1  0.89984992  0.10660042  0.90185844  1
  Hf  Hf37  1  0.50523481  0.10602923  0.30180540  1
  Hf  Hf38  1  -0.00500048  0.79689601  -0.00973587  1
  Hf  Hf39  1  0.09486551  0.49151588  0.08879503  1
  Hf  Hf40  1  0.50757681  0.69862730  0.70140971  1
  Hf  Hf41  1  0.30529947  0.29679483  0.09343145  1
  Hf  Hf42  1  0.19986401  0.59124297  0.19709475  1
  Hf  Hf43  1  0.09830400  0.90629528  0.29989269  1
  Hf  Hf44  1  0.29856534  0.90201552  0.50355972  1
  Hf  Hf45  1  0.59403700  -0.00622296  0.20111865  1
  Hf  Hf46  1  0.20230951  0.80036697  -0.01430815  1
  Hf  Hf47  1  0.30685327  0.49659075  0.08972297  1
  Hf  Hf48  1  0.30874663  0.69611503  0.50490806  1
  Hf  Hf49  1  0.09318877  0.29678316  0.69729795  1
  Zr  Zr50  1  0.89630284  0.49249754  0.29879792  1
  Zr  Zr51  1  0.19963781  -0.00127675  0.00152499  1
  Zr  Zr52  1  0.41254795  0.20310711  0.79422262  1
  Zr  Zr53  1  0.89136976  0.49509656  0.10427969  1
  Zr  Zr54  1  0.31300388  0.49685895  0.69499273  1
  Zr  Zr55  1  0.60765656  -0.00371135  0.80545668  1
  Zr  Zr56  1  0.89657908  0.50095626  0.89634690  1
  Zr  Zr57  1  0.70234168  0.10463213  0.51014702  1
  Zr  Zr58  1  0.19404198  0.79708378  0.41502442  1
  Zr  Zr59  1  0.79685923  0.79647284  0.40423572  1
  Zr  Zr60  1  0.31321186  0.48962550  0.49875732  1
  Zr  Zr61  1  0.78159455  0.60001077  -0.00599077  1
  Zr  Zr62  1  0.19890908  0.39295406  0.59940815  1
  Zr  Zr63  1  -0.01189734  0.39383774  0.79828606  1
  Zr  Zr64  1  0.19067076  0.00241491  0.60120300  1
  Zr  Zr65  1  0.41181043  0.40098573  0.19593305  1
  Zr  Zr66  1  0.30692557  0.29883891  0.89996850  1
  Zr  Zr67  1  0.09674188  0.70136645  0.29327247  1
  Zr  Zr68  1  0.69002038  0.89141931  0.10446581  1
  Zr  Zr69  1  0.79776912  -0.00036028  0.20501241  1
  Zr  Zr70  1  0.89556407  0.90982249  0.88780850  1
  Zr  Zr71  1  0.60767854  0.39960517  0.60210087  1
  Zr  Zr72  1  0.60862715  0.60640851  0.39702692  1
  Zr  Zr73  1  0.80361819  0.00964643  0.60138274  1
  Zr  Zr74  1  0.19657218  0.59805825  0.59703794  1
  Zr  Zr75  1  0.78948018  0.39698163  0.00413055  1
  Zr  Zr76  1  0.41176111  0.59850126  0.20056269  1
  Zr  Zr77  1  0.29985204  0.70201268  0.30174348  1
  Zr  Zr78  1  0.89320237  0.11006213  0.09845869  1
  Zr  Zr79  1  0.30576428  0.70456053  0.69699856  1
  Zr  Zr80  1  0.49291981  0.50118824  0.50798859  1
  Zr  Zr81  1  0.20535931  0.59407023  0.80222340  1
  Zr  Zr82  1  0.79163324  0.79117451  -0.01286496  1
  Zr  Zr83  1  0.19221606  0.19953883  0.40399246  1
  Zr  Zr84  1  0.09494264  0.69943796  0.09767753  1
  Zr  Zr85  1  0.49851263  0.09929384  0.90537941  1
  Zr  Zr86  1  0.70220324  0.10705055  0.30017090  1
  Zr  Zr87  1  0.78619104  -0.00247374  -0.00598456  1
  Zr  Zr88  1  0.78864755  0.79168738  0.20507732  1
  Zr  Zr89  1  0.40250417  0.20032117  0.20048488  1
  Zr  Zr90  1  0.20580173  0.80836910  0.18964844  1
  Zr  Zr91  1  0.60084833  0.20835050  0.40882973  1
  Zr  Zr92  1  0.40950142  -0.00441198  0.40364926  1
  Zr  Zr93  1  0.89887871  0.69693882  0.51279307  1
  Zr  Zr94  1  0.09655091  0.10319774  0.09526597  1
  Zr  Zr95  1  0.00163716  0.80164241  0.41148028  1
  Zr  Zr96  1  0.40274745  0.19905509  0.60315709  1
  Zr  Zr97  1  0.08765231  0.68973953  0.88613306  1
  Zr  Zr98  1  0.90523739  0.49278568  0.50315075  1
  Zr  Zr99  1  0.19629551  0.00075276  0.79430522  1
  Ta  Ta100  1  0.19707110  0.19966784  0.20039515  1
  Ta  Ta101  1  0.79614828  0.39413237  0.40593633  1
  Ta  Ta102  1  0.19853932  0.39967660  0.80590933  1
  Ta  Ta103  1  0.19585838  0.39671273  -0.00710458  1
  Ta  Ta104  1  0.60724386  0.40220383  0.40314624  1
  Ta  Ta105  1  0.29615598  0.29933932  0.70310028  1
  Ta  Ta106  1  0.41231191  0.80023324  0.39741870  1
  Ta  Ta107  1  0.79333608  0.59665236  0.60230860  1
  Ta  Ta108  1  0.60510831  0.21015122  -0.00193621  1
  Ta  Ta109  1  0.79128125  0.59931219  0.40599197  1
  Ta  Ta110  1  0.39976047  0.60579891  0.80923342  1
  Ta  Ta111  1  0.79271649  0.79333988  0.79505771  1
  Ta  Ta112  1  0.31426833  0.89975394  0.08800378  1
  Ta  Ta113  1  0.78525826  0.60027086  0.79133360  1
  Ta  Ta114  1  -0.00909813  0.20441824  0.79665080  1
  Ta  Ta115  1  0.70058149  0.30176455  0.89920761  1
  Ta  Ta116  1  0.59748570  0.19886937  0.61033287  1
  Ta  Ta117  1  0.30316236  0.09957403  0.49968873  1
  Ta  Ta118  1  -0.00708296  0.79620545  0.78787738  1
  Ta  Ta119  1  0.50764745  0.30499045  0.90403642  1
  Ta  Ta120  1  0.40072192  0.19893390  0.40390031  1
  Ta  Ta121  1  0.50401876  0.09682967  0.50559504  1
  Ta  Ta122  1  0.69987107  0.89842259  0.50627676  1
  Ta  Ta123  1  0.08089396  0.30249493  0.50352183  1
  Ta  Ta124  1  0.09514812  0.48715597  0.30103639  1
  Ta  Ta125  1  0.20345338  0.00696291  0.19628039  1
  Ta  Ta126  1  0.69195089  0.89321887  0.31078692  1
  Ta  Ta127  1  0.00316058  0.80364255  0.60499781  1
  Ta  Ta128  1  0.40979204  0.00027090  0.60526138  1
  Ta  Ta129  1  0.19235863  0.38901006  0.19670135  1
  Ta  Ta130  1  0.80300489  0.00107432  0.40608939  1
  Ta  Ta131  1  0.19856440  0.20444476  0.00001359  1
  Ta  Ta132  1  0.79481293  0.40255233  0.79623101  1
  Ta  Ta133  1  0.80959279  0.20184150  0.40604891  1
  Ta  Ta134  1  0.29625809  0.09858164  0.30389425  1
  Ta  Ta135  1  0.08786558  0.49117987  0.50184633  1
  Ta  Ta136  1  -0.00210365  0.19942712  0.40126911  1
  Ta  Ta137  1  0.90259365  0.09954400  0.30607447  1
  Ta  Ta138  1  0.41281359  0.80600088  0.19903343  1
  Ta  Ta139  1  0.80042975  0.20217432  0.79847158  1
  Ta  Ta140  1  0.09340849  0.30092076  0.90231440  1
  Ta  Ta141  1  0.19431521  0.19741231  0.59451986  1
  Ta  Ta142  1  0.70229272  0.89447517  0.69245665  1
  Ta  Ta143  1  0.31160162  0.90015173  0.89738931  1
  Ta  Ta144  1  0.60515074  0.20200220  0.79997728  1
  Ta  Ta145  1  0.00386864  0.00553156  0.20213705  1
  Ta  Ta146  1  0.60667562  0.40258887  0.80279772  1
  Ta  Ta147  1  0.79999181  0.40537114  0.60181863  1
  Ta  Ta148  1  0.60476719  -0.00240171  0.40702327  1
  Ta  Ta149  1  -0.00612687  0.59483132  -0.00622237  1
  Ti  Ti150  1  0.50030995  0.69121872  0.90468792  1
  Ti  Ti151  1  0.70254997  0.11152669  0.90252015  1
  Ti  Ti152  1  0.40760224  0.39591397  0.79820443  1
  Ti  Ti153  1  0.19437807  0.20450688  0.80110769  1
  Ti  Ti154  1  0.51107704  0.89019411  0.30440369  1
  Ti  Ti155  1  0.89740376  0.10682971  0.70138006  1
  Ti  Ti156  1  0.00399160  0.58946838  0.19770545  1
  Ti  Ti157  1  0.09501209  0.90026736  0.10181063  1
  Ti  Ti158  1  -0.00407241  0.22492066  0.01232682  1
  Ti  Ti159  1  0.08741735  0.49370871  0.89680204  1
  Ti  Ti160  1  0.89343216  0.29745812  0.90783006  1
  Ti  Ti161  1  0.60047020  -0.00153162  0.60828235  1
  Ti  Ti162  1  0.08954171  0.10360358  0.70252981  1
  Ti  Ti163  1  0.09842962  0.09570832  0.30509584  1
  Ti  Ti164  1  0.50750328  0.30506995  0.30059985  1
  Ti  Ti165  1  -0.00584625  0.19223353  0.59418706  1
  Ti  Ti166  1  0.89253188  0.29967195  0.30024493  1
  Ti  Ti167  1  0.19375606  0.00862069  0.40624565  1
  Ti  Ti168  1  0.68483911  0.69166498  0.10731360  1
  Ti  Ti169  1  0.78705617  0.60155096  0.20208109  1
  Ti  Ti170  1  0.70847981  0.29717815  0.50676216  1
  Ti  Ti171  1  0.89913276  0.50724721  0.69692883  1
  Ti  Ti172  1  0.49089784  0.90312059  0.91087814  1
  Ti  Ti173  1  0.50841837  0.09453447  0.70102073  1
  Ti  Ti174  1  0.78867606  0.00895011  0.79547117  1
  Ti  Ti175  1  0.89993930  0.29984675  0.50537765  1
  Ti  Ti176  1  0.30758492  0.30121508  0.50234774  1
  Ti  Ti177  1  0.89576362  0.69691218  0.69688143  1
  Ti  Ti178  1  -0.00035371  0.00857254  0.59706650  1
  Ti  Ti179  1  0.18545134  0.80687552  0.60593664  1
  Ti  Ti180  1  -0.00460704  -0.00062909  0.00451504  1
  Ti  Ti181  1  0.51422915  0.49199478  0.29455526  1
  Ti  Ti182  1  0.08612382  0.69173648  0.69564998  1
  Ti  Ti183  1  0.31364345  0.49318694  0.90077859  1
  Ti  Ti184  1  0.19408811  0.59336980  0.40233986  1
  Ti  Ti185  1  0.30237737  0.90272206  0.70181909  1
  Ti  Ti186  1  0.51548538  0.30456544  0.09846243  1
  Ti  Ti187  1  0.40832735  -0.00860784  0.79137972  1
  Ti  Ti188  1  0.09048628  0.91255748  0.50142124  1
  Ti  Ti189  1  0.89983440  0.90526406  0.50395841  1
  Ti  Ti190  1  0.30543398  0.10165258  0.09410893  1
  Ti  Ti191  1  0.68096627  0.49382336  0.10653521  1
  Ti  Ti192  1  0.60263949  -0.00556792  -0.00210763  1
  Ti  Ti193  1  0.51612453  0.89892223  0.50316158  1
  Ti  Ti194  1  0.40605394  0.80176747  0.80463152  1
  Ti  Ti195  1  0.89616962  0.29760074  0.68857250  1
  Ti  Ti196  1  0.09497090  0.69154788  0.51098775  1
  Ti  Ti197  1  0.69924307  0.71562840  0.51248255  1
  Ti  Ti198  1  0.89584493  0.69104468  0.88671232  1
  Ti  Ti199  1  0.41409847  0.39958368  0.00219061  1
  Mo  Mo200  1  0.50754772  0.30421053  0.70725159  1
  Mo  Mo201  1  0.09381953  0.10513849  0.50242539  1
  Mo  Mo202  1  0.60196896  0.59850936  0.19994418  1
  Mo  Mo203  1  0.79790214  0.39495310  0.19766218  1
  Mo  Mo204  1  0.49876925  0.89679175  0.09472503  1
  Mo  Mo205  1  0.40726625  0.80057303  -0.00739879  1
  Mo  Mo206  1  0.51040633  0.50149615  0.09390610  1
  Mo  Mo207  1  0.88077569  0.29631335  0.10532703  1
  Mo  Mo208  1  -0.00434104  0.60263726  0.60319177  1
  Mo  Mo209  1  0.80294530  0.80130824  0.60372390  1
  Mo  Mo210  1  0.00366318  0.80848532  0.19343005  1
  Mo  Mo211  1  0.70443500  0.49726638  0.70220190  1
  Mo  Mo212  1  -0.00672826  0.01445231  0.78626952  1
  Mo  Mo213  1  0.59563814  0.20829322  0.19228872  1
  Mo  Mo214  1  0.70459315  0.70294241  0.69736645  1
  Mo  Mo215  1  0.79536841  0.20774011  -0.00737245  1
  Mo  Mo216  1  0.40709945  0.61359324  0.60652278  1
  Mo  Mo217  1  0.70045422  0.10332932  0.70481810  1
  Mo  Mo218  1  0.08754404  0.90012309  0.69404860  1
  Mo  Mo219  1  0.60361678  0.60046505  0.80520444  1
  Mo  Mo220  1  -0.00976187  0.39653636  0.60109699  1
  Mo  Mo221  1  0.90499025  0.10482292  0.49693730  1
  Mo  Mo222  1  0.50902985  0.71063761  0.29737945  1
  Mo  Mo223  1  0.31408920  0.70898834  0.89444980  1
  Mo  Mo224  1  0.59988268  0.39933202  0.19642725  1
  Mo  Mo225  1  0.11047248  0.29813200  0.09462078  1
  Mo  Mo226  1  0.60587249  0.80702879  0.60322843  1
  Mo  Mo227  1  0.70173117  0.89834837  0.89057960  1
  Mo  Mo228  1  0.60274492  0.80381397  0.40472072  1
  Mo  Mo229  1  0.81016407  0.20447419  0.20707493  1
  Mo  Mo230  1  -0.01649942  0.60250327  0.79501907  1
  Mo  Mo231  1  0.50354617  0.90391074  0.70374221  1
  Mo  Mo232  1  0.60066916  0.59716787  0.00181607  1
  Mo  Mo233  1  0.60171522  0.39950307  0.00140870  1
  Mo  Mo234  1  0.80734900  0.20595366  0.60054613  1
  Mo  Mo235  1  0.69852315  0.69524944  0.29925535  1
  Mo  Mo236  1  -0.00238653  0.39444627  -0.00347861  1
  Mo  Mo237  1  0.40152157  -0.00335429  0.00122532  1
  Mo  Mo238  1  0.09795297  0.29664726  0.30170603  1
  Mo  Mo239  1  0.40650530  0.20735867  0.00212286  1
  Mo  Mo240  1  0.69221607  0.69267541  0.88999129  1
  Mo  Mo241  1  -0.00490112  0.38941357  0.39687231  1
  Mo  Mo242  1  0.59477183  0.79486637  0.20788160  1
  Mo  Mo243  1  0.69398361  0.30172879  0.10155991  1
  Mo  Mo244  1  0.69451559  0.49831499  0.89313461  1
  Mo  Mo245  1  0.40242797  0.59938922  -0.00922831  1
  Mo  Mo246  1  0.40071384  0.38522118  0.62039731  1
  Mo  Mo247  1  0.70838543  0.49333335  0.49616221  1
  Mo  Mo248  1  -0.00143169  0.00700214  0.40470670  1
  Mo  Mo249  1  0.41309078  0.39468437  0.38884464  1
