# generated using pymatgen
data_HfZrTaTiMo
_symmetry_space_group_name_H-M   'P 1'
_cell_length_a   16.88765393
_cell_length_b   16.88536242
_cell_length_c   16.88771968
_cell_angle_alpha   89.96462726
_cell_angle_beta   89.99152000
_cell_angle_gamma   89.99106728
_symmetry_Int_Tables_number   1
_chemical_formula_structural   HfZrTaTiMo
_chemical_formula_sum   'Hf50 Zr50 Ta50 Ti50 Mo50'
_cell_volume   4815.60244230
_cell_formula_units_Z   50
loop_
 _symmetry_equiv_pos_site_id
 _symmetry_equiv_pos_as_xyz
  1  'x, y, z'
loop_
 _atom_site_type_symbol
 _atom_site_label
 _atom_site_symmetry_multiplicity
 _atom_site_fract_x
 _atom_site_fract_y
 _atom_site_fract_z
 _atom_site_occupancy
  Hf  Hf0  1  0.59338769  0.20680439  -0.00327981  1
  Hf  Hf1  1  0.49426630  0.10429895  0.29566174  1
  Hf  Hf2  1  0.10020253  0.70490305  0.09797243  1
  Hf  Hf3  1  0.30555222  0.29440911  0.89258794  1
  Hf  Hf4  1  0.19778673  0.20014525  0.00028673  1
  Hf  Hf5  1  0.90438436  0.10306636  0.29533614  1
  Hf  Hf6  1  0.80454601  -0.00237145  0.19396889  1
  Hf  Hf7  1  0.68967030  0.90824297  0.89092020  1
  Hf  Hf8  1  0.49922165  0.50005129  0.09250431  1
  Hf  Hf9  1  0.49349538  0.10623199  0.88143687  1
  Hf  Hf10  1  0.90849229  0.09795886  0.50466172  1
  Hf  Hf11  1  0.59909375  -0.01022627  0.40833764  1
  Hf  Hf12  1  0.69641690  0.69621387  0.69771023  1
  Hf  Hf13  1  0.20686273  0.40419178  0.60888429  1
  Hf  Hf14  1  0.69966565  0.49878509  0.70785531  1
  Hf  Hf15  1  0.59248913  0.19168624  0.60930589  1
  Hf  Hf16  1  0.59505028  0.40734975  0.40382480  1
  Hf  Hf17  1  0.80044822  0.39622291  0.40235041  1
  Hf  Hf18  1  0.00590784  0.39982023  -0.00975271  1
  Hf  Hf19  1  0.29994546  0.50719236  0.49804873  1
  Hf  Hf20  1  0.89778854  0.49946157  0.09015500  1
  Hf  Hf21  1  0.59863733  0.78994605  -0.00907114  1
  Hf  Hf22  1  0.80003241  0.40268073  0.19462754  1
  Hf  Hf23  1  0.09145966  0.70669044  0.29913651  1
  Hf  Hf24  1  0.30160832  0.10417566  0.89158025  1
  Hf  Hf25  1  0.79931200  0.78949038  0.19513648  1
  Hf  Hf26  1  0.58632953  -0.00116329  0.19457572  1
  Hf  Hf27  1  0.47988901  0.88071003  0.09534955  1
  Hf  Hf28  1  0.30038431  0.69890858  0.89490791  1
  Hf  Hf29  1  0.00311167  0.59749276  0.60393959  1
  Hf  Hf30  1  0.48847463  0.29916170  0.50885893  1
  Hf  Hf31  1  0.00388057  0.20797457  0.39470693  1
  Hf  Hf32  1  0.60233226  0.40164421  0.19875464  1
  Hf  Hf33  1  0.39468793  0.00312292  0.00262022  1
  Hf  Hf34  1  0.69765354  0.89687791  0.09601203  1
  Hf  Hf35  1  0.89707565  0.29918619  0.70231303  1
  Hf  Hf36  1  0.69626491  0.11059838  0.88900549  1
  Hf  Hf37  1  0.80350349  0.00597964  0.79459104  1
  Hf  Hf38  1  0.70246595  0.29871579  0.50759116  1
  Hf  Hf39  1  0.50088229  0.49786966  0.89913155  1
  Hf  Hf40  1  0.19881814  0.59846991  0.60577666  1
  Hf  Hf41  1  0.20046024  0.39700090  0.19515308  1
  Hf  Hf42  1  0.69923492  0.10379653  0.29735847  1
  Hf  Hf43  1  0.10410063  0.29720237  0.51181600  1
  Hf  Hf44  1  0.79311991  -0.00914395  0.59727191  1
  Hf  Hf45  1  0.91772900  0.09773516  0.69352903  1
  Hf  Hf46  1  0.49340939  0.89401686  0.30180507  1
  Hf  Hf47  1  0.39601632  0.39513897  0.39783069  1
  Hf  Hf48  1  0.00986996  0.79938781  -0.01181653  1
  Hf  Hf49  1  0.79673151  0.79491589  0.80249340  1
  Zr  Zr50  1  -0.00076193  -0.00092539  0.18945019  1
  Zr  Zr51  1  0.20782960  0.80809990  0.40655174  1
  Zr  Zr52  1  0.39431246  -0.00345578  0.41228261  1
  Zr  Zr53  1  0.69980954  0.69018893  0.31720901  1
  Zr  Zr54  1  0.00582227  0.39774212  0.39506050  1
  Zr  Zr55  1  0.59239273  -0.00334846  0.59727270  1
  Zr  Zr56  1  0.30723699  0.71684866  0.08875097  1
  Zr  Zr57  1  0.79797982  0.78682229  -0.00462580  1
  Zr  Zr58  1  0.59422613  0.40970040  0.60348546  1
  Zr  Zr59  1  0.09901948  0.50005855  0.10072136  1
  Zr  Zr60  1  0.40385077  0.60009477  0.40026780  1
  Zr  Zr61  1  0.29906019  0.90492927  0.70145939  1
  Zr  Zr62  1  0.91373604  0.88522587  0.30098515  1
  Zr  Zr63  1  0.70311630  0.10600951  0.49888845  1
  Zr  Zr64  1  0.68775730  0.11599649  0.11223905  1
  Zr  Zr65  1  0.10380719  0.10098625  0.29297017  1
  Zr  Zr66  1  0.89632859  0.50629097  0.49832422  1
  Zr  Zr67  1  0.79469541  0.80450986  0.41147720  1
  Zr  Zr68  1  0.00486504  0.40673117  0.80631181  1
  Zr  Zr69  1  0.49560806  0.29935065  0.09996848  1
  Zr  Zr70  1  0.70519537  0.29383957  0.71643727  1
  Zr  Zr71  1  0.50060474  0.50767033  0.29610991  1
  Zr  Zr72  1  0.01183151  0.79464479  0.60164159  1
  Zr  Zr73  1  0.60903919  0.60400537  0.18777237  1
  Zr  Zr74  1  0.20692518  0.20025746  0.40067605  1
  Zr  Zr75  1  0.70010379  0.29152085  0.28982237  1
  Zr  Zr76  1  0.19171575  0.80236707  0.80528592  1
  Zr  Zr77  1  0.80777156  0.00908570  0.00790024  1
  Zr  Zr78  1  0.89827636  0.50803414  0.30033178  1
  Zr  Zr79  1  0.09985527  0.10371018  0.51795110  1
  Zr  Zr80  1  0.58714550  0.00550143  0.00210029  1
  Zr  Zr81  1  0.40822632  0.80706048  0.60002172  1
  Zr  Zr82  1  0.49489943  0.29306390  0.70998540  1
  Zr  Zr83  1  0.18863378  0.00039890  0.79977749  1
  Zr  Zr84  1  0.80052328  0.59557751  0.81831770  1
  Zr  Zr85  1  0.40775355  0.80036383  0.79663159  1
  Zr  Zr86  1  0.20774456  0.80462390  0.20112615  1
  Zr  Zr87  1  0.80006342  0.20560483  0.00025706  1
  Zr  Zr88  1  0.19810638  0.59655196  -0.00370168  1
  Zr  Zr89  1  0.10969400  0.28655361  0.69862258  1
  Zr  Zr90  1  0.00803233  0.19623858  0.80250350  1
  Zr  Zr91  1  0.50564418  0.68140075  0.51415630  1
  Zr  Zr92  1  0.10680575  0.69539567  0.49203846  1
  Zr  Zr93  1  0.89601158  0.49944579  0.70618381  1
  Zr  Zr94  1  0.80008045  -0.00499363  0.39925862  1
  Zr  Zr95  1  0.90707552  0.89801000  0.69605925  1
  Zr  Zr96  1  0.59975049  0.79144436  0.19944107  1
  Zr  Zr97  1  0.90661545  0.90810546  0.89507137  1
  Zr  Zr98  1  0.59100539  0.20484018  0.39960027  1
  Zr  Zr99  1  0.19905834  0.39388511  0.39172890  1
  Ta  Ta100  1  0.20511478  0.60144285  0.19901808  1
  Ta  Ta101  1  -0.00259328  0.60188489  0.19649734  1
  Ta  Ta102  1  0.59377545  0.80062143  0.41546014  1
  Ta  Ta103  1  0.30232580  0.69789499  0.50787600  1
  Ta  Ta104  1  0.90707172  0.30247872  0.09292371  1
  Ta  Ta105  1  0.81071896  0.20656956  0.39868964  1
  Ta  Ta106  1  0.29619670  0.50421008  0.29604843  1
  Ta  Ta107  1  0.49384189  0.69071782  0.89931357  1
  Ta  Ta108  1  0.00455388  0.39922074  0.20114780  1
  Ta  Ta109  1  0.20372642  0.40271457  0.80232000  1
  Ta  Ta110  1  0.20463755  -0.00056086  0.19418170  1
  Ta  Ta111  1  0.90073782  0.70017294  0.70074520  1
  Ta  Ta112  1  0.09892552  0.10452696  0.09673354  1
  Ta  Ta113  1  0.20309602  -0.00129677  0.40406683  1
  Ta  Ta114  1  0.49518178  0.30124785  0.89871199  1
  Ta  Ta115  1  0.00168446  0.40298197  0.60041885  1
  Ta  Ta116  1  0.39060004  0.19780763  0.40227835  1
  Ta  Ta117  1  0.01028279  0.80044672  0.79943112  1
  Ta  Ta118  1  0.30049309  0.10758740  0.70018460  1
  Ta  Ta119  1  0.00534253  0.00532864  -0.00113469  1
  Ta  Ta120  1  0.90786104  0.10660249  0.89925394  1
  Ta  Ta121  1  0.39497842  0.59546257  -0.00185207  1
  Ta  Ta122  1  0.69952234  0.69629682  0.51028817  1
  Ta  Ta123  1  0.39770501  0.00483195  0.60041183  1
  Ta  Ta124  1  0.69480706  0.89580326  0.70217906  1
  Ta  Ta125  1  0.59709330  0.80219223  0.60513519  1
  Ta  Ta126  1  0.80012428  0.60324711  0.19124821  1
  Ta  Ta127  1  0.19869390  -0.00198101  0.00349518  1
  Ta  Ta128  1  0.20321532  0.39978429  -0.00343483  1
  Ta  Ta129  1  0.70481637  0.50786916  0.30878321  1
  Ta  Ta130  1  0.29967724  0.09760026  0.29603126  1
  Ta  Ta131  1  0.10315104  0.89859991  0.09763846  1
  Ta  Ta132  1  0.79989842  0.40360699  0.60008261  1
  Ta  Ta133  1  0.30760753  0.69116079  0.69997964  1
  Ta  Ta134  1  0.39141811  0.40170409  -0.00063101  1
  Ta  Ta135  1  -0.00036465  0.59770049  -0.01303566  1
  Ta  Ta136  1  0.90944580  0.89622552  0.50488518  1
  Ta  Ta137  1  0.10065580  0.89854126  0.29875506  1
  Ta  Ta138  1  0.38988658  0.40368149  0.19650833  1
  Ta  Ta139  1  0.39955489  0.79813899  0.40749412  1
  Ta  Ta140  1  0.00936655  -0.00598730  0.40383278  1
  Ta  Ta141  1  0.39626332  0.40836886  0.60774989  1
  Ta  Ta142  1  0.30200342  0.49982988  0.89540476  1
  Ta  Ta143  1  0.00791257  0.60327004  0.80747717  1
  Ta  Ta144  1  0.90346352  0.69771931  0.30442868  1
  Ta  Ta145  1  0.39157724  -0.00058232  0.19293437  1
  Ta  Ta146  1  0.89022478  0.30055369  0.89382580  1
  Ta  Ta147  1  0.39827685  0.40436971  0.79616378  1
  Ta  Ta148  1  0.49200781  0.69468852  0.09117092  1
  Ta  Ta149  1  0.30171369  0.90477641  0.30016038  1
  Ti  Ti150  1  0.20359525  -0.00083276  0.59825189  1
  Ti  Ti151  1  0.48751289  0.10577114  0.50429932  1
  Ti  Ti152  1  0.69539489  0.89574508  0.29789223  1
  Ti  Ti153  1  0.20325245  0.80307416  0.60334728  1
  Ti  Ti154  1  0.49316939  0.29681631  0.29270388  1
  Ti  Ti155  1  0.09843915  0.09956296  0.90130028  1
  Ti  Ti156  1  0.49561338  0.51669595  0.70006750  1
  Ti  Ti157  1  0.09225182  0.29312656  0.09975737  1
  Ti  Ti158  1  0.19860087  0.20350243  0.19690292  1
  Ti  Ti159  1  0.39102832  0.60057255  0.19429472  1
  Ti  Ti160  1  0.39668499  0.19665657  0.19447206  1
  Ti  Ti161  1  0.69472935  0.51548900  0.50004582  1
  Ti  Ti162  1  0.59916306  0.60314505  0.80503585  1
  Ti  Ti163  1  0.90560365  0.29880885  0.28782796  1
  Ti  Ti164  1  0.10494709  0.69929249  0.70533990  1
  Ti  Ti165  1  0.60571151  0.39733622  0.81437733  1
  Ti  Ti166  1  0.81328823  0.20190385  0.19122883  1
  Ti  Ti167  1  0.60860610  0.60169634  -0.00784967  1
  Ti  Ti168  1  0.10059453  0.90154305  0.50307156  1
  Ti  Ti169  1  0.30180232  0.29003838  0.51739029  1
  Ti  Ti170  1  0.90303202  0.29711699  0.51136791  1
  Ti  Ti171  1  0.30170577  0.89661155  0.90867140  1
  Ti  Ti172  1  0.50348582  0.69610451  0.30448521  1
  Ti  Ti173  1  0.39485609  0.79029802  0.21322320  1
  Ti  Ti174  1  0.89709113  0.70384168  0.50046781  1
  Ti  Ti175  1  0.10449758  0.50100258  0.49386159  1
  Ti  Ti176  1  0.10128538  0.49846720  0.70533276  1
  Ti  Ti177  1  0.79077537  0.40340806  -0.01705905  1
  Ti  Ti178  1  0.30248848  0.29086531  0.70361632  1
  Ti  Ti179  1  -0.00067690  0.60303412  0.40031340  1
  Ti  Ti180  1  0.80154685  0.19622005  0.60477561  1
  Ti  Ti181  1  0.10666430  0.29593512  0.89810314  1
  Ti  Ti182  1  0.29496383  0.69228688  0.30957189  1
  Ti  Ti183  1  0.90610363  0.69711361  0.09795144  1
  Ti  Ti184  1  0.30310977  0.29384689  0.29099700  1
  Ti  Ti185  1  0.19407065  0.59586660  0.80355852  1
  Ti  Ti186  1  0.69215830  0.09978257  0.70940897  1
  Ti  Ti187  1  0.69799694  0.30543635  0.09462722  1
  Ti  Ti188  1  0.90855655  0.88789192  0.09613090  1
  Ti  Ti189  1  0.90758500  0.69824430  0.89621511  1
  Ti  Ti190  1  0.50268656  0.91651982  0.71217641  1
  Ti  Ti191  1  0.10556115  0.51222037  0.30061452  1
  Ti  Ti192  1  0.49570429  0.90664239  0.89268379  1
  Ti  Ti193  1  0.30621430  0.50987264  0.70915614  1
  Ti  Ti194  1  0.70005733  0.49826691  0.08698128  1
  Ti  Ti195  1  0.29811260  0.10564567  0.10059201  1
  Ti  Ti196  1  0.30429196  0.29602893  0.09422587  1
  Ti  Ti197  1  0.80082534  0.60203257  0.59979641  1
  Ti  Ti198  1  0.59313285  0.79444603  0.79755910  1
  Ti  Ti199  1  0.79335061  0.60354734  -0.00352101  1
  Mo  Mo200  1  0.59705602  0.20123174  0.80153009  1
  Mo  Mo201  1  0.29746025  0.89986568  0.50415499  1
  Mo  Mo202  1  0.00761155  -0.00087264  0.80364164  1
  Mo  Mo203  1  0.69697381  0.88711896  0.51125911  1
  Mo  Mo204  1  0.10690916  0.09367873  0.69818208  1
  Mo  Mo205  1  0.00002757  0.80332568  0.40606628  1
  Mo  Mo206  1  0.91522885  0.11546576  0.09515555  1
  Mo  Mo207  1  0.60279687  0.59918392  0.41032622  1
  Mo  Mo208  1  0.39570569  0.19589369  0.60035503  1
  Mo  Mo209  1  0.19964162  0.19855986  0.80067606  1
  Mo  Mo210  1  0.39695314  0.59637956  0.60889491  1
  Mo  Mo211  1  0.79703180  0.39789091  0.80919102  1
  Mo  Mo212  1  0.21039130  0.19595671  0.60501872  1
  Mo  Mo213  1  0.39649473  -0.00081798  0.79559283  1
  Mo  Mo214  1  0.48388783  0.10758965  0.10144146  1
  Mo  Mo215  1  0.29761441  0.90363025  0.10012183  1
  Mo  Mo216  1  0.50454029  0.69119518  0.70646669  1
  Mo  Mo217  1  0.69685863  0.30579770  0.90022310  1
  Mo  Mo218  1  0.60174890  0.59834645  0.60847083  1
  Mo  Mo219  1  0.80375407  0.19695170  0.80059212  1
  Mo  Mo220  1  0.40141677  0.59667695  0.80077056  1
  Mo  Mo221  1  0.10147089  0.29662805  0.28268608  1
  Mo  Mo222  1  0.70337574  0.69235341  0.08900264  1
  Mo  Mo223  1  0.79823369  0.79501024  0.60275675  1
  Mo  Mo224  1  0.00273133  0.20349305  -0.00342515  1
  Mo  Mo225  1  0.58794696  0.20553777  0.19714713  1
  Mo  Mo226  1  0.10096294  0.90231030  0.69343626  1
  Mo  Mo227  1  0.40298251  0.79902691  -0.01431437  1
  Mo  Mo228  1  0.01206245  -0.00903483  0.59999912  1
  Mo  Mo229  1  0.09973045  0.90626018  0.90529815  1
  Mo  Mo230  1  0.10081647  0.69806777  0.89697326  1
  Mo  Mo231  1  -0.00150965  0.79538834  0.18939972  1
  Mo  Mo232  1  -0.00389298  0.20728332  0.60009958  1
  Mo  Mo233  1  0.60364319  0.39942864  -0.00357027  1
  Mo  Mo234  1  0.69356856  0.49879929  0.90501148  1
  Mo  Mo235  1  0.68729523  0.69599102  0.89491058  1
  Mo  Mo236  1  0.89673133  0.50082519  0.90557316  1
  Mo  Mo237  1  0.80110359  0.60517987  0.40754321  1
  Mo  Mo238  1  0.59910285  0.00151461  0.79440027  1
  Mo  Mo239  1  0.39699809  0.20341888  0.79529429  1
  Mo  Mo240  1  0.20101090  0.81322152  -0.00463313  1
  Mo  Mo241  1  0.48855007  0.09511390  0.70165976  1
  Mo  Mo242  1  0.30130934  0.49697137  0.09958674  1
  Mo  Mo243  1  0.29866337  0.09785772  0.50556777  1
  Mo  Mo244  1  0.00058877  0.20733433  0.19266366  1
  Mo  Mo245  1  0.10940582  0.50012355  0.89625599  1
  Mo  Mo246  1  0.49524825  0.49390731  0.51031232  1
  Mo  Mo247  1  0.20078519  0.60055935  0.39340299  1
  Mo  Mo248  1  0.39628646  0.20202542  0.00239025  1
  Mo  Mo249  1  0.49817088  0.89465514  0.50360081  1
