# generated using pymatgen
data_HfZrTaTiMo
_symmetry_space_group_name_H-M   'P 1'
_cell_length_a   16.89409715
_cell_length_b   16.87398558
_cell_length_c   16.87708403
_cell_angle_alpha   90.04181677
_cell_angle_beta   90.02881012
_cell_angle_gamma   89.92000233
_symmetry_Int_Tables_number   1
_chemical_formula_structural   HfZrTaTiMo
_chemical_formula_sum   'Hf50 Zr50 Ta50 Ti50 Mo50'
_cell_volume   4811.15645668
_cell_formula_units_Z   50
loop_
 _symmetry_equiv_pos_site_id
 _symmetry_equiv_pos_as_xyz
  1  'x, y, z'
loop_
 _atom_site_type_symbol
 _atom_site_label
 _atom_site_symmetry_multiplicity
 _atom_site_fract_x
 _atom_site_fract_y
 _atom_site_fract_z
 _atom_site_occupancy
  Hf  Hf0  1  0.19967096  0.59794072  0.59707079  1
  Hf  Hf1  1  0.00673369  0.80772947  0.80306249  1
  Hf  Hf2  1  0.40599640  0.39095522  0.19629456  1
  Hf  Hf3  1  0.08935860  0.29965562  0.90945562  1
  Hf  Hf4  1  0.50310909  0.50822188  0.70689849  1
  Hf  Hf5  1  0.80105140  0.59584034  0.19837033  1
  Hf  Hf6  1  0.50402669  0.70264146  0.50520994  1
  Hf  Hf7  1  0.69417473  0.90405747  0.50459593  1
  Hf  Hf8  1  0.40295359  0.60292641  0.20143256  1
  Hf  Hf9  1  0.60344504  0.80309423  -0.00005854  1
  Hf  Hf10  1  0.79123416  0.79721993  -0.00196319  1
  Hf  Hf11  1  0.30768214  0.49666119  0.48849828  1
  Hf  Hf12  1  0.69486892  0.29521702  0.69959192  1
  Hf  Hf13  1  0.19973590  0.80829805  0.60994885  1
  Hf  Hf14  1  0.08976359  0.10053485  0.30175240  1
  Hf  Hf15  1  0.30536788  0.49359851  0.29917603  1
  Hf  Hf16  1  0.09256644  0.71119181  0.29915869  1
  Hf  Hf17  1  0.40705890  0.00621429  0.40600237  1
  Hf  Hf18  1  0.69578473  0.49338850  0.29573952  1
  Hf  Hf19  1  0.79946652  0.59443587  0.39753895  1
  Hf  Hf20  1  0.09725012  0.69199683  0.90329625  1
  Hf  Hf21  1  -0.00563833  0.39737512  0.79492303  1
  Hf  Hf22  1  0.50166232  0.89993159  0.29208645  1
  Hf  Hf23  1  0.21370915  0.19725297  0.20601854  1
  Hf  Hf24  1  0.49820847  0.50090307  0.89643071  1
  Hf  Hf25  1  0.90202914  0.89004338  0.09752393  1
  Hf  Hf26  1  0.60423338  -0.00036765  0.79742543  1
  Hf  Hf27  1  0.29855125  0.70456631  0.29912537  1
  Hf  Hf28  1  0.09953346  0.29746530  0.09903408  1
  Hf  Hf29  1  0.19226079  0.80820339  0.00227974  1
  Hf  Hf30  1  0.40707818  0.39757852  0.59792153  1
  Hf  Hf31  1  0.80533521  0.59644888  0.60815734  1
  Hf  Hf32  1  0.30881584  0.49684834  0.71229610  1
  Hf  Hf33  1  0.79657563  0.19299939  0.20246729  1
  Hf  Hf34  1  0.50820558  0.29344079  0.89472924  1
  Hf  Hf35  1  0.59773628  0.59231429  0.40492821  1
  Hf  Hf36  1  -0.00561469  -0.00855425  0.60337065  1
  Hf  Hf37  1  0.50408327  0.10172967  0.09800600  1
  Hf  Hf38  1  0.09523959  0.70582696  0.49617562  1
  Hf  Hf39  1  0.89970756  0.10859106  0.71169854  1
  Hf  Hf40  1  0.88934416  0.90788899  0.28997810  1
  Hf  Hf41  1  0.08681440  0.70264036  0.10045047  1
  Hf  Hf42  1  0.39441596  0.60283919  -0.00016857  1
  Hf  Hf43  1  0.19439814  0.59446430  0.19727271  1
  Hf  Hf44  1  0.50367775  0.29841907  0.70236967  1
  Hf  Hf45  1  0.49662992  0.89915175  0.89719829  1
  Hf  Hf46  1  -0.00133591  0.40452798  0.20137943  1
  Hf  Hf47  1  0.80146737  0.19428695  0.00431411  1
  Hf  Hf48  1  0.79719498  0.39969178  0.19344292  1
  Hf  Hf49  1  0.31089076  0.08635838  0.09465768  1
  Zr  Zr50  1  0.90856868  0.29693732  0.09032820  1
  Zr  Zr51  1  0.09621334  0.10707552  0.10073189  1
  Zr  Zr52  1  0.90468354  0.70595699  0.29365213  1
  Zr  Zr53  1  0.30754736  0.29965217  0.49207288  1
  Zr  Zr54  1  0.79913689  0.60969440  0.80458384  1
  Zr  Zr55  1  0.29951764  0.91710390  0.90463951  1
  Zr  Zr56  1  0.31013117  0.30655424  0.89397169  1
  Zr  Zr57  1  0.90441746  0.49759300  0.91834275  1
  Zr  Zr58  1  0.40496496  0.80671703  0.40291517  1
  Zr  Zr59  1  0.40029109  0.18056503  -0.02465066  1
  Zr  Zr60  1  0.30066453  0.09727296  0.70098760  1
  Zr  Zr61  1  0.89827825  0.29876960  0.29828768  1
  Zr  Zr62  1  0.69458821  0.69473673  0.51158015  1
  Zr  Zr63  1  0.80496576  0.40272894  0.79326843  1
  Zr  Zr64  1  0.18940726  0.38846047  0.39279236  1
  Zr  Zr65  1  0.51093058  0.49865666  0.09751660  1
  Zr  Zr66  1  0.00148433  0.21076702  0.59945698  1
  Zr  Zr67  1  -0.00679881  0.59455619  0.80113122  1
  Zr  Zr68  1  0.69323713  0.50234930  0.91192630  1
  Zr  Zr69  1  0.30774942  0.69724276  0.71599771  1
  Zr  Zr70  1  0.18671552  0.59063691  0.40084214  1
  Zr  Zr71  1  0.30861839  0.90860325  0.71166651  1
  Zr  Zr72  1  0.79334938  0.80027560  0.40179259  1
  Zr  Zr73  1  0.50266075  0.70567267  0.10081647  1
  Zr  Zr74  1  0.89837652  0.49275909  0.49768851  1
  Zr  Zr75  1  0.20246687  0.19713744  0.80440973  1
  Zr  Zr76  1  0.10420559  0.90668100  0.49655707  1
  Zr  Zr77  1  0.38917294  0.80100256  0.00056950  1
  Zr  Zr78  1  0.21697090  0.00722727  0.39467683  1
  Zr  Zr79  1  0.20054740  -0.00657573  0.19539541  1
  Zr  Zr80  1  0.80653871  0.80278140  0.60522401  1
  Zr  Zr81  1  0.80103464  0.20102790  0.59562718  1
  Zr  Zr82  1  -0.00046026  0.59969097  0.59978021  1
  Zr  Zr83  1  0.41147171  0.03316711  0.81831247  1
  Zr  Zr84  1  0.79620722  0.00389707  0.40170861  1
  Zr  Zr85  1  0.40309633  0.18932029  0.39182418  1
  Zr  Zr86  1  0.70434637  0.10385865  0.90154638  1
  Zr  Zr87  1  -0.00164008  -0.00291923  0.19686763  1
  Zr  Zr88  1  0.69095311  0.50694116  0.69683394  1
  Zr  Zr89  1  0.70014313  0.10477234  0.70052234  1
  Zr  Zr90  1  0.10522677  0.50446847  0.70651358  1
  Zr  Zr91  1  0.40749545  0.59865250  0.59437633  1
  Zr  Zr92  1  0.19728999  0.39692496  0.80210840  1
  Zr  Zr93  1  0.09904530  0.09872746  0.49845131  1
  Zr  Zr94  1  0.19238375  0.39262985  0.59504553  1
  Zr  Zr95  1  0.40402076  0.18863156  0.59145581  1
  Zr  Zr96  1  0.89505522  0.30419382  0.49737627  1
  Zr  Zr97  1  -0.01499489  0.82098010  0.41208293  1
  Zr  Zr98  1  0.29819572  0.70530366  0.49564055  1
  Zr  Zr99  1  0.09999829  0.09751820  0.70533770  1
  Ta  Ta100  1  0.90475245  0.70540698  0.91239530  1
  Ta  Ta101  1  0.50318896  0.49620894  0.29756949  1
  Ta  Ta102  1  0.20249999  0.39463910  0.19591101  1
  Ta  Ta103  1  0.80375200  -0.00430920  0.80358273  1
  Ta  Ta104  1  0.00746978  0.39976915  0.39969124  1
  Ta  Ta105  1  0.69422173  0.09390890  0.29598118  1
  Ta  Ta106  1  0.90243688  0.09710520  0.49340966  1
  Ta  Ta107  1  0.59226166  0.00214365  0.59968243  1
  Ta  Ta108  1  0.69588520  0.69318821  0.09911739  1
  Ta  Ta109  1  0.59676226  0.80249555  0.39828444  1
  Ta  Ta110  1  0.49611871  0.90182045  0.70603047  1
  Ta  Ta111  1  -0.00475480  0.59207668  0.20043580  1
  Ta  Ta112  1  0.50180569  0.70579983  0.70832444  1
  Ta  Ta113  1  0.60011067  0.39461397  0.39647757  1
  Ta  Ta114  1  0.00059968  0.80551764  0.60959892  1
  Ta  Ta115  1  0.30649598  0.29396884  0.09361326  1
  Ta  Ta116  1  0.30111867  0.50435762  0.89759657  1
  Ta  Ta117  1  0.28928998  0.69956384  0.10139942  1
  Ta  Ta118  1  0.78924880  0.79690896  0.19467285  1
  Ta  Ta119  1  0.40184476  0.39977175  0.00068015  1
  Ta  Ta120  1  0.20279375  0.19416307  -0.00407214  1
  Ta  Ta121  1  0.89760916  0.29045885  0.89585215  1
  Ta  Ta122  1  0.69130845  0.29498827  0.09654658  1
  Ta  Ta123  1  0.89924742  0.89829644  0.90227343  1
  Ta  Ta124  1  0.49914875  0.28780794  0.09577054  1
  Ta  Ta125  1  0.59332955  0.80899224  0.60752130  1
  Ta  Ta126  1  0.30989767  0.90365014  0.28899687  1
  Ta  Ta127  1  0.69480415  0.90275844  0.29360789  1
  Ta  Ta128  1  0.90172347  0.69842132  0.09701789  1
  Ta  Ta129  1  0.09642518  0.49575767  0.09007196  1
  Ta  Ta130  1  0.70082942  0.29505076  0.90030662  1
  Ta  Ta131  1  0.20391410  0.20490699  0.59548474  1
  Ta  Ta132  1  0.00203593  -0.00514730  -0.00487188  1
  Ta  Ta133  1  0.19896542  0.59599157  -0.00149300  1
  Ta  Ta134  1  0.51235494  0.29217772  0.49639361  1
  Ta  Ta135  1  -0.00302223  0.20243349  0.39827671  1
  Ta  Ta136  1  0.20349834  0.19740239  0.39956725  1
  Ta  Ta137  1  0.59879772  0.60498842  0.20627990  1
  Ta  Ta138  1  0.89768688  0.90233909  0.70974130  1
  Ta  Ta139  1  0.19965587  0.80416810  0.80889811  1
  Ta  Ta140  1  0.59956580  0.40885316  0.58528305  1
  Ta  Ta141  1  0.69688523  0.29927425  0.49593242  1
  Ta  Ta142  1  0.19654857  0.80950695  0.19511966  1
  Ta  Ta143  1  0.59999594  -0.00079831  0.19644165  1
  Ta  Ta144  1  0.40519816  0.80882562  0.60399111  1
  Ta  Ta145  1  0.49636506  0.70128015  0.89309866  1
  Ta  Ta146  1  0.79248323  0.19604376  0.39432809  1
  Ta  Ta147  1  0.29655770  0.49389077  0.09598063  1
  Ta  Ta148  1  0.00326268  -0.00187333  0.80936732  1
  Ta  Ta149  1  0.10652727  0.70223511  0.70724142  1
  Ti  Ti150  1  -0.00153045  0.18417131  -0.00721711  1
  Ti  Ti151  1  0.90024402  0.09461902  0.10660046  1
  Ti  Ti152  1  0.60295412  0.20180773  0.38928585  1
  Ti  Ti153  1  0.69032582  0.10588224  0.50029345  1
  Ti  Ti154  1  0.09424222  0.28976367  0.29283765  1
  Ti  Ti155  1  0.60489393  0.61261295  0.80942014  1
  Ti  Ti156  1  0.79599651  0.39460978  0.00369332  1
  Ti  Ti157  1  0.20461840  0.81338284  0.39363162  1
  Ti  Ti158  1  0.80007634  0.00121375  0.60196203  1
  Ti  Ti159  1  0.39453648  0.80155564  0.19420837  1
  Ti  Ti160  1  0.59891498  -0.00198185  0.00024169  1
  Ti  Ti161  1  0.18565533  0.00069094  -0.00245701  1
  Ti  Ti162  1  0.41948164  0.39390411  0.39513869  1
  Ti  Ti163  1  0.70429864  0.90399522  0.89986408  1
  Ti  Ti164  1  0.60464247  0.40024780  0.80139961  1
  Ti  Ti165  1  0.59425049  0.00175192  0.40099469  1
  Ti  Ti166  1  0.90413393  0.50308649  0.09265467  1
  Ti  Ti167  1  0.41310305  0.00313162  0.59076295  1
  Ti  Ti168  1  0.50122602  0.09891816  0.28773949  1
  Ti  Ti169  1  0.79102654  0.39757317  0.39459518  1
  Ti  Ti170  1  -0.00416210  0.58748661  0.39404225  1
  Ti  Ti171  1  0.20177238  0.00005107  0.60374350  1
  Ti  Ti172  1  0.48624325  0.91114142  0.10091572  1
  Ti  Ti173  1  0.09724126  0.49651564  0.29503060  1
  Ti  Ti174  1  0.59727267  0.38653060  0.20452986  1
  Ti  Ti175  1  0.30427921  0.90505512  0.50634655  1
  Ti  Ti176  1  0.60251874  0.80052303  0.19893002  1
  Ti  Ti177  1  0.79322269  0.60545842  0.00211328  1
  Ti  Ti178  1  0.09237755  0.90040423  0.30050617  1
  Ti  Ti179  1  0.69536076  0.09563339  0.10134322  1
  Ti  Ti180  1  0.69021993  0.70373085  0.70076248  1
  Ti  Ti181  1  0.51047988  0.11182028  0.70069113  1
  Ti  Ti182  1  0.90264862  0.70013468  0.50078187  1
  Ti  Ti183  1  0.59905243  0.39231218  0.00269080  1
  Ti  Ti184  1  0.70167315  0.90042949  0.70139071  1
  Ti  Ti185  1  0.69384159  0.70296081  0.29774743  1
  Ti  Ti186  1  0.41230381  0.60225621  0.39260443  1
  Ti  Ti187  1  0.70200504  0.90709297  0.10483671  1
  Ti  Ti188  1  0.79722120  0.40205177  0.60318486  1
  Ti  Ti189  1  0.31112610  0.29627675  0.29618606  1
  Ti  Ti190  1  0.90104786  0.09911795  0.89524821  1
  Ti  Ti191  1  0.80444996  0.00020931  0.00211026  1
  Ti  Ti192  1  0.90568810  0.70787270  0.70752082  1
  Ti  Ti193  1  0.79497842  0.79904391  0.80525085  1
  Ti  Ti194  1  0.20217334  0.40033562  -0.00041097  1
  Ti  Ti195  1  0.00261488  0.39905378  0.60111041  1
  Ti  Ti196  1  0.69107885  0.50115088  0.09672694  1
  Ti  Ti197  1  0.60524665  0.80149063  0.80128602  1
  Ti  Ti198  1  0.09632850  0.29342087  0.70478047  1
  Ti  Ti199  1  0.60112239  0.20361069  0.20501706  1
  Mo  Mo200  1  0.09733482  0.90261748  0.90201339  1
  Mo  Mo201  1  0.10582298  0.49655277  0.91055190  1
  Mo  Mo202  1  -0.00402038  0.20045542  0.80487592  1
  Mo  Mo203  1  0.40265302  0.60444315  0.80751030  1
  Mo  Mo204  1  0.89247058  0.90937929  0.51476044  1
  Mo  Mo205  1  0.09266999  0.09914915  0.90310380  1
  Mo  Mo206  1  0.29302612  0.09617902  0.50577994  1
  Mo  Mo207  1  0.09523414  0.89668409  0.09520528  1
  Mo  Mo208  1  0.89902195  0.49335230  0.69173087  1
  Mo  Mo209  1  0.60132622  0.20005292  0.59182622  1
  Mo  Mo210  1  0.80278202  0.20305293  0.80553527  1
  Mo  Mo211  1  0.50262777  0.49505124  0.49093706  1
  Mo  Mo212  1  0.78859979  0.00146333  0.19149113  1
  Mo  Mo213  1  0.60112481  0.60694427  0.00014748  1
  Mo  Mo214  1  0.27941090  0.09554644  0.90164172  1
  Mo  Mo215  1  0.50648118  0.70302014  0.29942199  1
  Mo  Mo216  1  0.51830021  0.09973435  0.49548917  1
  Mo  Mo217  1  0.40410908  0.19982510  0.19918700  1
  Mo  Mo218  1  0.40888667  -0.00190306  0.00294133  1
  Mo  Mo219  1  0.40062508  0.79712857  0.80111467  1
  Mo  Mo220  1  0.31084348  0.29530417  0.70100562  1
  Mo  Mo221  1  0.29917402  0.89850885  0.10287249  1
  Mo  Mo222  1  0.60547702  0.20177705  0.00345589  1
  Mo  Mo223  1  0.50700024  0.29748558  0.29696514  1
  Mo  Mo224  1  0.52666046  0.10284826  0.90339836  1
  Mo  Mo225  1  0.29364926  0.69641426  0.90274481  1
  Mo  Mo226  1  0.10287435  0.90119748  0.70760223  1
  Mo  Mo227  1  -0.00150081  0.79965584  0.19941202  1
  Mo  Mo228  1  0.90133160  0.49634590  0.30164966  1
  Mo  Mo229  1  0.60068085  0.60464531  0.60432777  1
  Mo  Mo230  1  -0.00068407  0.59796151  0.00660636  1
  Mo  Mo231  1  0.70120042  0.48992233  0.49738790  1
  Mo  Mo232  1  0.40337097  0.40295354  0.80209774  1
  Mo  Mo233  1  0.20336436  0.60420898  0.81216787  1
  Mo  Mo234  1  0.89575715  0.10156690  0.30330527  1
  Mo  Mo235  1  0.69619349  0.70388597  0.90108209  1
  Mo  Mo236  1  0.18480738  -0.00471733  0.80605929  1
  Mo  Mo237  1  -0.01167328  0.00741015  0.39750503  1
  Mo  Mo238  1  0.89952149  0.30404065  0.70120508  1
  Mo  Mo239  1  -0.00638512  0.19807280  0.20422744  1
  Mo  Mo240  1  0.40195010  0.20446947  0.79042373  1
  Mo  Mo241  1  0.09856030  0.29607053  0.49310465  1
  Mo  Mo242  1  -0.00402455  0.80152166  -0.00188670  1
  Mo  Mo243  1  0.69647207  0.29411829  0.29801608  1
  Mo  Mo244  1  0.00115755  0.40043399  0.00010768  1
  Mo  Mo245  1  0.31043274  0.09908655  0.29215543  1
  Mo  Mo246  1  0.50413324  0.90308401  0.50713743  1
  Mo  Mo247  1  0.09391273  0.49474757  0.49512955  1
  Mo  Mo248  1  0.60224106  0.19996999  0.80107452  1
  Mo  Mo249  1  0.40601501  0.00030862  0.20117160  1
