# generated using pymatgen
data_HfZrTaTiMo
_symmetry_space_group_name_H-M   'P 1'
_cell_length_a   16.88391908
_cell_length_b   16.88147328
_cell_length_c   16.88283593
_cell_angle_alpha   89.95090139
_cell_angle_beta   89.98044282
_cell_angle_gamma   89.99211261
_symmetry_Int_Tables_number   1
_chemical_formula_structural   HfZrTaTiMo
_chemical_formula_sum   'Hf50 Zr50 Ta50 Ti50 Mo50'
_cell_volume   4812.03545592
_cell_formula_units_Z   50
loop_
 _symmetry_equiv_pos_site_id
 _symmetry_equiv_pos_as_xyz
  1  'x, y, z'
loop_
 _atom_site_type_symbol
 _atom_site_label
 _atom_site_symmetry_multiplicity
 _atom_site_fract_x
 _atom_site_fract_y
 _atom_site_fract_z
 _atom_site_occupancy
  Hf  Hf0  1  0.41170440  0.20975655  0.39765827  1
  Hf  Hf1  1  0.31024341  0.30657305  0.29075650  1
  Hf  Hf2  1  0.41348776  0.00061304  0.80412977  1
  Hf  Hf3  1  0.20109480  0.21206917  -0.00229905  1
  Hf  Hf4  1  0.90967333  0.70253501  0.49808189  1
  Hf  Hf5  1  0.79731939  0.40426661  0.78938353  1
  Hf  Hf6  1  0.39590561  0.79696910  0.79699548  1
  Hf  Hf7  1  0.80938858  0.80846240  0.40252987  1
  Hf  Hf8  1  0.90425750  0.29721782  0.89605410  1
  Hf  Hf9  1  0.51251853  0.88566219  0.90560442  1
  Hf  Hf10  1  0.20351841  0.20573440  0.19275028  1
  Hf  Hf11  1  0.50145002  0.09285357  0.30500443  1
  Hf  Hf12  1  0.49539551  0.50035055  0.08580119  1
  Hf  Hf13  1  0.50336236  0.68327299  0.90685931  1
  Hf  Hf14  1  -0.00417986  0.79132636  -0.00417595  1
  Hf  Hf15  1  0.79237085  0.40112297  0.19450209  1
  Hf  Hf16  1  0.10227977  0.11138944  0.88871715  1
  Hf  Hf17  1  0.69999682  0.09945137  0.10077961  1
  Hf  Hf18  1  0.00846376  0.40051318  0.60222468  1
  Hf  Hf19  1  0.39770363  0.58215174  0.20478466  1
  Hf  Hf20  1  -0.00881749  0.59549782  0.00291567  1
  Hf  Hf21  1  0.30468490  0.49857796  0.50464664  1
  Hf  Hf22  1  0.19204884  0.79136944  0.00278895  1
  Hf  Hf23  1  0.89706557  0.90064950  0.89557411  1
  Hf  Hf24  1  0.09097007  0.89961857  0.50483124  1
  Hf  Hf25  1  0.60670844  -0.00906181  0.20369353  1
  Hf  Hf26  1  0.30033388  0.10461806  0.89510129  1
  Hf  Hf27  1  0.00969126  0.58672191  0.40194951  1
  Hf  Hf28  1  0.90216903  0.10848893  0.29905707  1
  Hf  Hf29  1  0.30509327  0.30900177  0.49619204  1
  Hf  Hf30  1  0.80228086  0.59638522  0.60053207  1
  Hf  Hf31  1  0.49329271  0.50190074  0.70056850  1
  Hf  Hf32  1  0.60754131  0.19719805  0.40137454  1
  Hf  Hf33  1  0.10029904  0.68624398  0.89875128  1
  Hf  Hf34  1  0.90927069  0.29725868  0.30158177  1
  Hf  Hf35  1  0.79384860  0.39844255  0.40892528  1
  Hf  Hf36  1  0.69713588  0.69757295  0.89939310  1
  Hf  Hf37  1  0.09701098  0.89676331  0.30209517  1
  Hf  Hf38  1  0.59696451  0.80020323  0.60105705  1
  Hf  Hf39  1  0.19655631  0.79640991  0.79974246  1
  Hf  Hf40  1  0.90323386  0.29647716  0.10338164  1
  Hf  Hf41  1  0.10181821  0.70070766  0.50012395  1
  Hf  Hf42  1  0.40800013  -0.01058722  0.19916349  1
  Hf  Hf43  1  0.59871414  0.20056876  0.80140528  1
  Hf  Hf44  1  0.09394412  0.10816347  0.29886154  1
  Hf  Hf45  1  0.49815532  0.49594495  0.89799271  1
  Hf  Hf46  1  0.09427626  0.90853195  0.09207424  1
  Hf  Hf47  1  0.30631396  0.70757111  0.30137557  1
  Hf  Hf48  1  0.48959704  0.69734202  0.49991537  1
  Hf  Hf49  1  0.79881600  0.59764746  0.19318025  1
  Zr  Zr50  1  0.59798679  0.00668541  0.79802458  1
  Zr  Zr51  1  -0.00015623  0.79478306  0.19441909  1
  Zr  Zr52  1  0.28951577  0.91021424  0.70588063  1
  Zr  Zr53  1  0.00096926  0.60143859  0.19471990  1
  Zr  Zr54  1  0.70101007  0.70153649  0.30008421  1
  Zr  Zr55  1  0.49626218  0.49490117  0.50516155  1
  Zr  Zr56  1  0.29660213  0.89817328  0.10169721  1
  Zr  Zr57  1  0.71151959  0.89524722  0.70541070  1
  Zr  Zr58  1  0.90326485  0.11167311  0.69392374  1
  Zr  Zr59  1  0.30768024  0.10094109  0.29930357  1
  Zr  Zr60  1  0.19899711  0.00277155  0.19626273  1
  Zr  Zr61  1  0.10681914  0.49184129  0.89965205  1
  Zr  Zr62  1  0.49969898  0.10438972  0.10067341  1
  Zr  Zr63  1  0.70251873  0.89546648  0.90748598  1
  Zr  Zr64  1  0.30820511  0.09694426  0.49815041  1
  Zr  Zr65  1  0.90115008  0.91070396  0.69104266  1
  Zr  Zr66  1  0.29482114  0.10922704  0.70972042  1
  Zr  Zr67  1  0.89742078  0.90703492  0.09329656  1
  Zr  Zr68  1  0.68989847  0.51085349  0.89527608  1
  Zr  Zr69  1  0.79893378  0.59530052  0.40584383  1
  Zr  Zr70  1  0.90031236  0.10142064  0.50759692  1
  Zr  Zr71  1  0.79108198  0.20515724  0.79410761  1
  Zr  Zr72  1  0.79915960  0.01642577  0.80442745  1
  Zr  Zr73  1  0.19670827  0.79632919  0.60893260  1
  Zr  Zr74  1  0.59232588  0.39824348  0.20453580  1
  Zr  Zr75  1  -0.00215275  0.79656255  0.79297021  1
  Zr  Zr76  1  0.69462311  0.31212690  0.90929520  1
  Zr  Zr77  1  0.78712196  0.20133529  0.20539981  1
  Zr  Zr78  1  0.59697127  0.80629422  0.39692539  1
  Zr  Zr79  1  0.48640319  0.30102525  0.10551422  1
  Zr  Zr80  1  0.59932820  -0.00164765  0.60398919  1
  Zr  Zr81  1  0.09745010  0.31073194  0.10096381  1
  Zr  Zr82  1  0.40883764  -0.00619561  0.60741424  1
  Zr  Zr83  1  0.20162101  0.20439859  0.59916650  1
  Zr  Zr84  1  -0.00118345  0.40236328  0.79725892  1
  Zr  Zr85  1  0.30534816  0.89374576  0.49727548  1
  Zr  Zr86  1  0.40833381  0.00034687  -0.00429282  1
  Zr  Zr87  1  0.89831974  0.29534466  0.50921288  1
  Zr  Zr88  1  0.79462086  0.00335436  0.39768217  1
  Zr  Zr89  1  0.59413441  0.79063032  0.78595231  1
  Zr  Zr90  1  0.20189894  0.59319180  0.39604828  1
  Zr  Zr91  1  0.19680241  0.60137082  0.19717219  1
  Zr  Zr92  1  0.61102128  0.59678544  0.60380958  1
  Zr  Zr93  1  0.90188789  0.49340613  0.29997606  1
  Zr  Zr94  1  0.50501660  0.30451559  0.51048660  1
  Zr  Zr95  1  0.39891398  0.79953858  -0.00102736  1
  Zr  Zr96  1  0.60177310  0.39688490  0.78245577  1
  Zr  Zr97  1  0.19749832  0.00130115  0.40269376  1
  Zr  Zr98  1  0.30703075  0.68907335  0.09504967  1
  Zr  Zr99  1  0.59831311  0.59733216  0.20276641  1
  Ta  Ta100  1  0.29947831  0.49399899  0.70450139  1
  Ta  Ta101  1  0.79985709  0.20263853  0.00206211  1
  Ta  Ta102  1  0.80248552  0.40431082  0.00479553  1
  Ta  Ta103  1  0.78784393  0.40502706  0.60290518  1
  Ta  Ta104  1  0.59917581  0.20508439  0.20755886  1
  Ta  Ta105  1  0.01791751  0.20186083  0.60471913  1
  Ta  Ta106  1  0.30534995  0.69737936  0.50237084  1
  Ta  Ta107  1  -0.00547081  0.00485656  0.20042180  1
  Ta  Ta108  1  -0.00425089  0.79962441  0.60422386  1
  Ta  Ta109  1  0.10512329  0.48516468  0.29079813  1
  Ta  Ta110  1  0.30913314  0.10986850  0.09822482  1
  Ta  Ta111  1  0.69722305  0.10501342  0.91104676  1
  Ta  Ta112  1  0.10879076  0.29570520  0.71703218  1
  Ta  Ta113  1  0.70549303  0.89897401  0.50435332  1
  Ta  Ta114  1  0.70152013  0.70349101  0.50022652  1
  Ta  Ta115  1  0.59779098  0.59487246  0.40234307  1
  Ta  Ta116  1  0.50185814  0.09775015  0.50121641  1
  Ta  Ta117  1  0.10021922  0.30417981  0.29618999  1
  Ta  Ta118  1  0.78852557  0.19779954  0.40636063  1
  Ta  Ta119  1  0.20114081  0.79773808  0.39923303  1
  Ta  Ta120  1  0.20206464  0.59607630  0.79467227  1
  Ta  Ta121  1  0.79966480  0.59855701  0.00373202  1
  Ta  Ta122  1  0.28734682  0.90609940  0.89999149  1
  Ta  Ta123  1  0.01187961  0.39891985  0.40628809  1
  Ta  Ta124  1  0.49169374  0.30535377  0.89958069  1
  Ta  Ta125  1  0.59857958  0.20695814  0.00341413  1
  Ta  Ta126  1  0.10719229  0.49992110  0.09242283  1
  Ta  Ta127  1  0.29751989  0.68693092  0.90091170  1
  Ta  Ta128  1  0.69121231  0.49755227  0.08859272  1
  Ta  Ta129  1  -0.00524765  0.59701903  0.79195479  1
  Ta  Ta130  1  0.49745962  0.70039342  0.29927253  1
  Ta  Ta131  1  0.80472943  0.79462589  0.60064382  1
  Ta  Ta132  1  0.50499701  0.69564105  0.09749397  1
  Ta  Ta133  1  0.38483537  0.39711109  -0.00078955  1
  Ta  Ta134  1  0.40163947  0.59316010  0.39323675  1
  Ta  Ta135  1  0.79531979  0.80465221  0.19461023  1
  Ta  Ta136  1  -0.00841913  -0.00268424  0.40413285  1
  Ta  Ta137  1  0.90208110  0.10451097  0.10087871  1
  Ta  Ta138  1  0.19728451  0.59336825  0.60300261  1
  Ta  Ta139  1  0.09974778  0.91241965  0.89803056  1
  Ta  Ta140  1  0.00466582  0.59333809  0.60375174  1
  Ta  Ta141  1  0.30988226  0.89437469  0.30580060  1
  Ta  Ta142  1  0.69401191  0.49669737  0.30495372  1
  Ta  Ta143  1  0.49573610  0.11583287  0.69861974  1
  Ta  Ta144  1  0.79515993  0.79167009  0.00659260  1
  Ta  Ta145  1  0.00064009  0.01314563  0.79944253  1
  Ta  Ta146  1  0.00886851  0.20488633  0.40845229  1
  Ta  Ta147  1  -0.00057465  0.20033346  -0.00435952  1
  Ta  Ta148  1  0.19990085  0.40183196  0.39716180  1
  Ta  Ta149  1  0.79843673  -0.00295237  0.20226464  1
  Ti  Ti150  1  0.69575837  0.30433911  0.30510789  1
  Ti  Ti151  1  0.90384359  0.49367344  0.50476341  1
  Ti  Ti152  1  0.60495053  -0.00179115  0.40283389  1
  Ti  Ti153  1  0.89735069  0.50466437  0.69881559  1
  Ti  Ti154  1  0.09563972  0.70577234  0.30642474  1
  Ti  Ti155  1  0.69495777  0.30218726  0.50960861  1
  Ti  Ti156  1  0.19966445  0.20544457  0.39937409  1
  Ti  Ti157  1  0.39658319  0.39632518  0.61196848  1
  Ti  Ti158  1  0.49323420  0.29842477  0.70193304  1
  Ti  Ti159  1  -0.00599801  0.40352956  -0.00052076  1
  Ti  Ti160  1  0.10866025  0.49633676  0.70383003  1
  Ti  Ti161  1  0.70235181  0.89799941  0.29957983  1
  Ti  Ti162  1  0.40320664  0.80126213  0.60917607  1
  Ti  Ti163  1  0.89279353  0.50383414  0.89696587  1
  Ti  Ti164  1  0.39972098  0.20336970  0.60162357  1
  Ti  Ti165  1  0.59580507  0.40139774  0.40076527  1
  Ti  Ti166  1  0.10723260  0.30328438  0.49860814  1
  Ti  Ti167  1  0.49167558  0.68672934  0.69753275  1
  Ti  Ti168  1  0.60097337  0.00296556  0.00040138  1
  Ti  Ti169  1  0.30139001  0.30371721  0.71197498  1
  Ti  Ti170  1  0.09630938  0.69023852  0.69869080  1
  Ti  Ti171  1  0.90655110  0.89859182  0.29871516  1
  Ti  Ti172  1  0.19957732  0.00999958  0.00041504  1
  Ti  Ti173  1  0.09485781  0.91506789  0.70444794  1
  Ti  Ti174  1  0.39847952  0.20597122  -0.00708971  1
  Ti  Ti175  1  0.20804130  0.39681314  -0.00218306  1
  Ti  Ti176  1  0.71750721  0.69184569  0.71270657  1
  Ti  Ti177  1  0.41516578  0.80273275  0.20158262  1
  Ti  Ti178  1  0.30015532  0.50045317  0.89822921  1
  Ti  Ti179  1  0.78881138  0.00945127  0.59591222  1
  Ti  Ti180  1  -0.00610868  0.01484867  -0.00823604  1
  Ti  Ti181  1  0.21592532  0.40795171  0.19128014  1
  Ti  Ti182  1  0.18900954  0.00983083  0.60659473  1
  Ti  Ti183  1  0.39296944  0.59777239  0.80020044  1
  Ti  Ti184  1  0.88568706  0.69526470  0.88608214  1
  Ti  Ti185  1  0.80080315  0.00688846  0.00054060  1
  Ti  Ti186  1  0.89311416  0.69988677  0.09973891  1
  Ti  Ti187  1  0.09150342  0.10587981  0.09928638  1
  Ti  Ti188  1  0.19392827  0.79499447  0.19755028  1
  Ti  Ti189  1  0.90531656  0.70363991  0.30269210  1
  Ti  Ti190  1  -0.00198849  0.40855870  0.19331207  1
  Ti  Ti191  1  0.60573328  0.80035129  0.19349483  1
  Ti  Ti192  1  0.19854021  0.39996423  0.60389482  1
  Ti  Ti193  1  0.29863699  0.30336983  0.88401034  1
  Ti  Ti194  1  0.49267670  0.90124003  0.48823404  1
  Ti  Ti195  1  0.51372630  0.89015222  0.09475189  1
  Ti  Ti196  1  0.90034433  0.29621551  0.69272576  1
  Ti  Ti197  1  0.60892323  0.19540121  0.60426596  1
  Ti  Ti198  1  0.09586960  0.09865385  0.50161576  1
  Ti  Ti199  1  0.30251301  0.68800951  0.69419709  1
  Mo  Mo200  1  0.40385382  0.20733226  0.80185776  1
  Mo  Mo201  1  0.70340335  0.90054037  0.09915849  1
  Mo  Mo202  1  0.39559551  0.40217731  0.19690059  1
  Mo  Mo203  1  0.40206965  0.40645225  0.38874489  1
  Mo  Mo204  1  0.39934563  0.79502328  0.39652582  1
  Mo  Mo205  1  0.49874423  0.49649547  0.30819337  1
  Mo  Mo206  1  0.80633104  0.59591149  0.79849251  1
  Mo  Mo207  1  0.41133319  -0.00756701  0.39884027  1
  Mo  Mo208  1  0.89645366  0.49605375  0.09243447  1
  Mo  Mo209  1  0.19161313  0.00150892  0.80410900  1
  Mo  Mo210  1  0.60669308  0.79292065  0.01576325  1
  Mo  Mo211  1  0.50441344  0.11371748  0.90232422  1
  Mo  Mo212  1  0.60002384  0.59951347  0.79060466  1
  Mo  Mo213  1  0.20181615  0.59131219  -0.00373786  1
  Mo  Mo214  1  0.69526561  0.30197395  0.09684851  1
  Mo  Mo215  1  -0.00006811  0.80334602  0.40132122  1
  Mo  Mo216  1  0.09878253  0.10326410  0.70057705  1
  Mo  Mo217  1  0.20622645  0.40117903  0.79993730  1
  Mo  Mo218  1  0.60268028  0.39687114  0.60071198  1
  Mo  Mo219  1  0.40372266  0.19810998  0.20063394  1
  Mo  Mo220  1  0.50296928  0.30296269  0.30126449  1
  Mo  Mo221  1  0.09986406  0.69418703  0.09434117  1
  Mo  Mo222  1  0.70049036  0.69860666  0.09861513  1
  Mo  Mo223  1  0.50369064  0.89288370  0.29856866  1
  Mo  Mo224  1  0.00094458  0.20500561  0.79723789  1
  Mo  Mo225  1  0.00628811  0.19806104  0.19650247  1
  Mo  Mo226  1  0.70161994  0.50315538  0.69773734  1
  Mo  Mo227  1  0.20267001  0.20862567  0.80301693  1
  Mo  Mo228  1  0.80382552  0.79079224  0.79872584  1
  Mo  Mo229  1  0.90024102  0.10581657  0.90668925  1
  Mo  Mo230  1  0.29727819  0.49460311  0.09137358  1
  Mo  Mo231  1  0.10702242  0.49279055  0.50727261  1
  Mo  Mo232  1  0.69550243  0.09796020  0.50222313  1
  Mo  Mo233  1  0.39528539  0.39723827  0.80160981  1
  Mo  Mo234  1  0.30030286  0.49277912  0.30111374  1
  Mo  Mo235  1  0.39475546  0.59164054  -0.00229879  1
  Mo  Mo236  1  0.30255280  0.30170898  0.09734144  1
  Mo  Mo237  1  0.69424542  0.10647581  0.69526050  1
  Mo  Mo238  1  0.69655197  0.30019641  0.68729321  1
  Mo  Mo239  1  0.60215562  0.60043852  0.00458067  1
  Mo  Mo240  1  0.09901850  0.30303014  0.90193963  1
  Mo  Mo241  1  0.59592902  0.39506274  0.00263399  1
  Mo  Mo242  1  0.00940110  0.00423982  0.60158928  1
  Mo  Mo243  1  0.39008120  0.60031458  0.60370144  1
  Mo  Mo244  1  0.49477615  0.88822798  0.70350290  1
  Mo  Mo245  1  0.89940061  0.90219167  0.50663614  1
  Mo  Mo246  1  0.78326403  0.20359122  0.59817194  1
  Mo  Mo247  1  0.69454883  0.49513996  0.49789618  1
  Mo  Mo248  1  0.69728083  0.09695701  0.30159812  1
  Mo  Mo249  1  0.90424558  0.69455416  0.69568138  1
