# generated using pymatgen
data_HfZrTaTiMo
_symmetry_space_group_name_H-M   'P 1'
_cell_length_a   16.88828685
_cell_length_b   16.88452981
_cell_length_c   16.88560743
_cell_angle_alpha   89.97760209
_cell_angle_beta   90.02928598
_cell_angle_gamma   89.99327141
_symmetry_Int_Tables_number   1
_chemical_formula_structural   HfZrTaTiMo
_chemical_formula_sum   'Hf50 Zr50 Ta50 Ti50 Mo50'
_cell_volume   4814.94314693
_cell_formula_units_Z   50
loop_
 _symmetry_equiv_pos_site_id
 _symmetry_equiv_pos_as_xyz
  1  'x, y, z'
loop_
 _atom_site_type_symbol
 _atom_site_label
 _atom_site_symmetry_multiplicity
 _atom_site_fract_x
 _atom_site_fract_y
 _atom_site_fract_z
 _atom_site_occupancy
  Hf  Hf0  1  0.21013205  0.40354551  0.58934005  1
  Hf  Hf1  1  0.89715354  0.49485677  0.70592845  1
  Hf  Hf2  1  0.69733383  0.30702458  0.90060336  1
  Hf  Hf3  1  0.49602542  0.30578922  0.69943034  1
  Hf  Hf4  1  0.89681415  0.49979783  0.89739417  1
  Hf  Hf5  1  0.10578051  0.69220287  0.09777707  1
  Hf  Hf6  1  0.18945414  0.00246647  -0.00426798  1
  Hf  Hf7  1  0.80536182  0.20270712  0.39581300  1
  Hf  Hf8  1  0.18959115  0.61389760  0.80817695  1
  Hf  Hf9  1  0.50645689  0.30386443  0.90151016  1
  Hf  Hf10  1  0.10588568  0.50866736  0.30040474  1
  Hf  Hf11  1  0.89952872  0.70213650  0.09470208  1
  Hf  Hf12  1  0.89702437  0.49538194  0.10524401  1
  Hf  Hf13  1  0.20214256  0.00110489  0.60242861  1
  Hf  Hf14  1  0.10328749  0.49825252  0.70662073  1
  Hf  Hf15  1  0.09229640  0.91123771  0.30769784  1
  Hf  Hf16  1  0.78704670  0.80175955  0.18482502  1
  Hf  Hf17  1  0.29765597  0.30241011  0.10199460  1
  Hf  Hf18  1  0.59772540  -0.00638496  0.79979924  1
  Hf  Hf19  1  0.59960795  0.79643454  0.59967613  1
  Hf  Hf20  1  0.70431492  0.10226457  0.50049350  1
  Hf  Hf21  1  0.79907473  0.79844801  0.60250935  1
  Hf  Hf22  1  0.39700148  0.20320344  0.59741981  1
  Hf  Hf23  1  0.40689645  0.20061980  -0.00061391  1
  Hf  Hf24  1  0.90375641  0.90212753  0.10199815  1
  Hf  Hf25  1  0.69487101  0.30249209  0.10682033  1
  Hf  Hf26  1  0.00415592  0.40193603  0.59599096  1
  Hf  Hf27  1  0.39994093  0.78561663  0.39792888  1
  Hf  Hf28  1  0.89680996  0.08996154  0.89701767  1
  Hf  Hf29  1  0.10387132  0.30186398  0.70513508  1
  Hf  Hf30  1  0.29667152  0.30289594  0.71710713  1
  Hf  Hf31  1  0.59626150  0.19550703  0.79841644  1
  Hf  Hf32  1  0.89612867  0.91125633  0.30368374  1
  Hf  Hf33  1  0.69878685  0.90877228  0.29672051  1
  Hf  Hf34  1  0.60048362  0.60499429  0.79894223  1
  Hf  Hf35  1  0.19389268  0.79361183  -0.01252754  1
  Hf  Hf36  1  0.30884681  0.89413350  0.09757220  1
  Hf  Hf37  1  0.00003707  0.19554050  -0.00297330  1
  Hf  Hf38  1  0.29720382  0.10656836  0.89328366  1
  Hf  Hf39  1  0.40096489  0.40229634  0.00131157  1
  Hf  Hf40  1  0.59833336  0.39617802  0.59735440  1
  Hf  Hf41  1  0.09295091  0.09939076  0.49156324  1
  Hf  Hf42  1  0.80447927  0.60445440  0.60192417  1
  Hf  Hf43  1  0.80073141  0.80191748  0.40962829  1
  Hf  Hf44  1  0.19502408  0.39478410  0.20760584  1
  Hf  Hf45  1  0.30911829  0.09168643  0.10354536  1
  Hf  Hf46  1  0.09888582  0.10076077  0.70132607  1
  Hf  Hf47  1  0.81207956  -0.01263603  0.59784103  1
  Hf  Hf48  1  0.59586407  -0.00679121  0.61000003  1
  Hf  Hf49  1  0.59747619  0.39665018  0.40696217  1
  Zr  Zr50  1  0.79037331  0.61047832  -0.00336626  1
  Zr  Zr51  1  0.19345556  0.19252651  0.00381555  1
  Zr  Zr52  1  0.59571030  0.20381497  0.39867195  1
  Zr  Zr53  1  0.18698271  0.79520911  0.60300759  1
  Zr  Zr54  1  0.50032222  0.50395156  0.10103266  1
  Zr  Zr55  1  0.18859959  0.79217013  0.39542521  1
  Zr  Zr56  1  0.29056686  0.49919530  0.90567468  1
  Zr  Zr57  1  0.90412763  0.49808462  0.49195858  1
  Zr  Zr58  1  0.69626909  0.09213683  0.90747552  1
  Zr  Zr59  1  0.59351557  0.78817613  0.40161314  1
  Zr  Zr60  1  0.49543833  0.30151587  0.29777333  1
  Zr  Zr61  1  0.63661571  0.79464153  0.01168793  1
  Zr  Zr62  1  0.49949542  0.70049586  0.09839973  1
  Zr  Zr63  1  0.00208966  0.59866271  0.19956427  1
  Zr  Zr64  1  0.29649084  0.09895251  0.48749633  1
  Zr  Zr65  1  0.71161262  0.09795907  0.29427755  1
  Zr  Zr66  1  0.91010354  0.89736521  0.71682061  1
  Zr  Zr67  1  0.90149651  0.09354985  0.11366621  1
  Zr  Zr68  1  0.29863688  0.89156726  0.70354619  1
  Zr  Zr69  1  0.69733877  0.91298308  0.48918333  1
  Zr  Zr70  1  0.30044875  0.50204788  0.70279883  1
  Zr  Zr71  1  0.19746913  0.00095653  0.19904930  1
  Zr  Zr72  1  0.80216357  0.19918243  0.79827258  1
  Zr  Zr73  1  0.41152059  0.00139197  0.79812463  1
  Zr  Zr74  1  0.09967803  0.89726578  0.88235610  1
  Zr  Zr75  1  0.70701404  0.10371373  0.69086214  1
  Zr  Zr76  1  0.40357622  0.00479819  0.39023487  1
  Zr  Zr77  1  0.69590591  0.69705245  0.29712288  1
  Zr  Zr78  1  0.89496612  0.49267826  0.30062484  1
  Zr  Zr79  1  0.90192817  0.29915861  0.49355332  1
  Zr  Zr80  1  0.20427318  0.20047213  0.59978913  1
  Zr  Zr81  1  0.00604742  0.79672193  0.20803775  1
  Zr  Zr82  1  0.48985513  0.89930265  0.50048356  1
  Zr  Zr83  1  0.60599841  0.80772652  0.79377403  1
  Zr  Zr84  1  0.80140281  0.20290193  0.00866220  1
  Zr  Zr85  1  0.49577304  0.89484066  0.09469129  1
  Zr  Zr86  1  0.58805801  0.00890555  0.19185588  1
  Zr  Zr87  1  0.89796887  0.30796685  0.89585011  1
  Zr  Zr88  1  0.30003356  0.49961921  0.30263987  1
  Zr  Zr89  1  0.30042100  0.69615602  0.09643800  1
  Zr  Zr90  1  -0.00319378  0.79954735  0.60213500  1
  Zr  Zr91  1  0.29871165  0.90008071  0.29601542  1
  Zr  Zr92  1  0.09260807  0.30366121  0.10598798  1
  Zr  Zr93  1  0.30776572  0.89812110  0.90081373  1
  Zr  Zr94  1  0.29578993  0.69665249  0.50412072  1
  Zr  Zr95  1  0.50100974  0.70725366  0.90836667  1
  Zr  Zr96  1  0.40177790  0.60101154  0.59810132  1
  Zr  Zr97  1  0.11127423  0.30760528  0.89835464  1
  Zr  Zr98  1  0.79197227  0.60560481  0.40720550  1
  Zr  Zr99  1  0.70075388  0.49383272  0.29764474  1
  Ta  Ta100  1  0.29892245  0.10466058  0.29770245  1
  Ta  Ta101  1  0.09227571  0.90985903  0.49622706  1
  Ta  Ta102  1  0.39610012  0.00332539  0.60473724  1
  Ta  Ta103  1  0.80041261  -0.01248952  0.00162239  1
  Ta  Ta104  1  0.10016787  0.29708033  0.49426320  1
  Ta  Ta105  1  0.30053269  0.70378215  0.70621274  1
  Ta  Ta106  1  0.90248392  0.70505643  0.30577282  1
  Ta  Ta107  1  0.58944038  0.59988063  0.41006523  1
  Ta  Ta108  1  0.40794581  0.19188815  0.20087063  1
  Ta  Ta109  1  0.00231877  -0.00360136  -0.00488358  1
  Ta  Ta110  1  0.29481544  0.89992369  0.49826232  1
  Ta  Ta111  1  0.00358768  0.60616772  0.60529709  1
  Ta  Ta112  1  -0.00284909  0.20003806  0.59909420  1
  Ta  Ta113  1  0.50000758  0.49953497  0.69900960  1
  Ta  Ta114  1  0.69866631  0.49909416  0.69978949  1
  Ta  Ta115  1  0.40416591  0.59855769  0.39985550  1
  Ta  Ta116  1  0.90955639  0.09987305  0.30369640  1
  Ta  Ta117  1  0.09552203  0.89889823  0.10018675  1
  Ta  Ta118  1  0.79835942  0.40158696  0.00596867  1
  Ta  Ta119  1  0.89775372  0.29901809  0.69732032  1
  Ta  Ta120  1  0.10551566  0.50572894  0.49301920  1
  Ta  Ta121  1  0.69944263  0.49864457  0.10510902  1
  Ta  Ta122  1  0.28920704  0.50645116  0.10151743  1
  Ta  Ta123  1  0.90504277  0.09955210  0.69308310  1
  Ta  Ta124  1  0.39954059  0.60106559  0.20802700  1
  Ta  Ta125  1  0.39798128  0.40106771  0.41012092  1
  Ta  Ta126  1  0.20243868  0.39548841  0.40116369  1
  Ta  Ta127  1  0.00380462  0.60004504  -0.00909054  1
  Ta  Ta128  1  0.09565709  0.10234865  0.30405457  1
  Ta  Ta129  1  0.90313170  0.30668800  0.29406691  1
  Ta  Ta130  1  0.70184089  0.69766663  0.69991740  1
  Ta  Ta131  1  0.49785689  0.10605460  0.50010291  1
  Ta  Ta132  1  0.69825179  0.49729503  0.50377837  1
  Ta  Ta133  1  0.49692026  0.89656412  0.29076152  1
  Ta  Ta134  1  0.89981158  0.70595129  0.89630886  1
  Ta  Ta135  1  -0.00074292  0.80190420  -0.00908671  1
  Ta  Ta136  1  0.79827898  0.40060877  0.59934457  1
  Ta  Ta137  1  0.19761112  0.20791668  0.38986899  1
  Ta  Ta138  1  0.79889179  0.60483671  0.79869749  1
  Ta  Ta139  1  0.70607438  0.30367324  0.69794577  1
  Ta  Ta140  1  0.49503015  0.49620264  0.50627047  1
  Ta  Ta141  1  0.90911526  0.70172333  0.49705207  1
  Ta  Ta142  1  0.01352874  0.39465261  0.39036881  1
  Ta  Ta143  1  0.90415299  0.09479387  0.49729316  1
  Ta  Ta144  1  -0.00205857  0.40440192  0.00553222  1
  Ta  Ta145  1  0.49737036  0.10456715  0.69393522  1
  Ta  Ta146  1  0.70228696  0.49605958  0.89512254  1
  Ta  Ta147  1  0.00189102  0.19776386  0.79979347  1
  Ta  Ta148  1  0.40486165  0.60242120  0.80071691  1
  Ta  Ta149  1  0.40461696  0.40787669  0.80512839  1
  Ti  Ti150  1  0.49380474  0.70442911  0.69493680  1
  Ti  Ti151  1  0.59702326  0.20619977  0.59512032  1
  Ti  Ti152  1  0.70782064  0.30748730  0.29487252  1
  Ti  Ti153  1  0.60018406  0.79761847  0.19750033  1
  Ti  Ti154  1  0.79975580  0.79495680  0.80314882  1
  Ti  Ti155  1  0.39739004  0.59967801  -0.00454428  1
  Ti  Ti156  1  0.58920918  0.00952299  0.39212841  1
  Ti  Ti157  1  0.10710498  0.49991426  0.09539587  1
  Ti  Ti158  1  0.00127853  0.00568515  0.80356317  1
  Ti  Ti159  1  0.70256727  0.09324101  0.10025350  1
  Ti  Ti160  1  0.50470272  0.50249886  0.89932537  1
  Ti  Ti161  1  0.70984873  0.89691159  0.90209944  1
  Ti  Ti162  1  0.50440877  0.29935648  0.10308731  1
  Ti  Ti163  1  0.19566712  0.60001625  0.59957283  1
  Ti  Ti164  1  0.79933080  0.60437944  0.20021804  1
  Ti  Ti165  1  0.40907639  0.80063149  0.79796381  1
  Ti  Ti166  1  0.59956644  0.60393998  0.59594437  1
  Ti  Ti167  1  -0.00219296  0.60680762  0.79821444  1
  Ti  Ti168  1  0.10240304  0.49754241  0.90709995  1
  Ti  Ti169  1  0.20272641  0.00880223  0.79543674  1
  Ti  Ti170  1  0.40346904  0.19833131  0.80231466  1
  Ti  Ti171  1  0.71014012  0.29876995  0.50579106  1
  Ti  Ti172  1  0.80708748  0.20783454  0.19933456  1
  Ti  Ti173  1  0.59578342  0.40259310  0.20140126  1
  Ti  Ti174  1  0.40196885  0.78602226  0.21044849  1
  Ti  Ti175  1  0.30710704  0.29459618  0.30137277  1
  Ti  Ti176  1  0.59456402  0.19376048  0.19922652  1
  Ti  Ti177  1  0.60021130  0.40637430  0.79677346  1
  Ti  Ti178  1  0.19890362  0.19864663  0.20501004  1
  Ti  Ti179  1  0.29316700  0.30473279  0.89843515  1
  Ti  Ti180  1  0.50568287  0.89535015  0.91299053  1
  Ti  Ti181  1  -0.00013499  0.20801468  0.20753511  1
  Ti  Ti182  1  0.30510446  0.29991977  0.49283202  1
  Ti  Ti183  1  0.00354723  0.60707457  0.39688784  1
  Ti  Ti184  1  0.40029729  0.40177564  0.19917235  1
  Ti  Ti185  1  0.59150408  0.18352180  0.00775238  1
  Ti  Ti186  1  0.28500885  0.68579711  0.29708967  1
  Ti  Ti187  1  0.09504810  0.69366470  0.49463528  1
  Ti  Ti188  1  0.01031542  0.78235776  0.79611126  1
  Ti  Ti189  1  0.49675095  0.50008038  0.30462986  1
  Ti  Ti190  1  0.09788014  0.90324513  0.70121052  1
  Ti  Ti191  1  0.60910294  0.59942986  -0.00419992  1
  Ti  Ti192  1  0.08974516  0.09492612  0.11273899  1
  Ti  Ti193  1  0.19505506  0.79492190  0.20294249  1
  Ti  Ti194  1  0.59171119  0.60144555  0.20688937  1
  Ti  Ti195  1  0.42083208  0.01193661  -0.00403977  1
  Ti  Ti196  1  0.60218594  0.40876427  0.00332801  1
  Ti  Ti197  1  0.00182622  0.39945021  0.80357332  1
  Ti  Ti198  1  0.30534222  0.70422378  0.89554223  1
  Ti  Ti199  1  0.79670474  -0.01036565  0.79654736  1
  Mo  Mo200  1  0.19906464  0.00522714  0.40054175  1
  Mo  Mo201  1  0.80790689  0.20433465  0.59770154  1
  Mo  Mo202  1  -0.00269320  0.00299950  0.40261447  1
  Mo  Mo203  1  0.79755842  0.39190298  0.19732277  1
  Mo  Mo204  1  0.49868507  0.69129880  0.50311046  1
  Mo  Mo205  1  -0.00279337  0.79918527  0.40489926  1
  Mo  Mo206  1  0.20038181  0.59742201  0.40600337  1
  Mo  Mo207  1  0.19772092  0.79251865  0.79525051  1
  Mo  Mo208  1  0.20240597  0.59856997  0.19918505  1
  Mo  Mo209  1  0.00120931  0.00055775  0.60066661  1
  Mo  Mo210  1  0.80893838  0.80404876  -0.00718178  1
  Mo  Mo211  1  0.19363715  0.59866852  -0.00165825  1
  Mo  Mo212  1  0.00315682  0.00337702  0.20067161  1
  Mo  Mo213  1  0.00057421  0.20177503  0.39488308  1
  Mo  Mo214  1  0.30428618  0.10335836  0.70589114  1
  Mo  Mo215  1  0.90011343  0.30514865  0.10868058  1
  Mo  Mo216  1  0.49083892  0.89720496  0.69330279  1
  Mo  Mo217  1  0.69622158  0.68989909  0.50840903  1
  Mo  Mo218  1  0.79313726  0.40481189  0.79491600  1
  Mo  Mo219  1  0.09419264  0.09691872  0.89122021  1
  Mo  Mo220  1  0.20135615  0.40484255  0.80782631  1
  Mo  Mo221  1  0.08970154  0.69761479  0.89953872  1
  Mo  Mo222  1  0.49040276  0.30113010  0.50229961  1
  Mo  Mo223  1  0.50071325  0.10295234  0.09841839  1
  Mo  Mo224  1  0.90083512  0.69581205  0.70637992  1
  Mo  Mo225  1  0.40127743  0.39992523  0.59847061  1
  Mo  Mo226  1  0.49415371  0.10288469  0.29944643  1
  Mo  Mo227  1  0.29874710  0.49913299  0.49623119  1
  Mo  Mo228  1  0.39879436  0.80125016  0.60354513  1
  Mo  Mo229  1  0.50174071  0.10265806  0.89946723  1
  Mo  Mo230  1  0.49839035  0.69458861  0.29656101  1
  Mo  Mo231  1  0.79905577  0.00125089  0.19708861  1
  Mo  Mo232  1  0.70647453  0.69752244  0.89040796  1
  Mo  Mo233  1  0.91055706  0.89959428  0.49351142  1
  Mo  Mo234  1  0.39270296  0.79698418  -0.01001670  1
  Mo  Mo235  1  0.90130117  0.89583052  0.89970044  1
  Mo  Mo236  1  0.40060723  0.00167372  0.19942804  1
  Mo  Mo237  1  0.10059835  0.69633803  0.30348305  1
  Mo  Mo238  1  0.79053270  0.39263762  0.40149659  1
  Mo  Mo239  1  0.70950758  0.89490780  0.70723429  1
  Mo  Mo240  1  0.70221174  0.91714356  0.10071110  1
  Mo  Mo241  1  0.20030729  0.19641077  0.80234154  1
  Mo  Mo242  1  0.39463199  0.20576336  0.39677610  1
  Mo  Mo243  1  0.19575236  0.40521829  0.00720187  1
  Mo  Mo244  1  0.09860555  0.69362712  0.69991720  1
  Mo  Mo245  1  -0.00022853  0.39958794  0.19975401  1
  Mo  Mo246  1  0.60481097  -0.00436577  -0.00297854  1
  Mo  Mo247  1  0.09920374  0.29623727  0.30156681  1
  Mo  Mo248  1  0.80743427  0.00537055  0.40125636  1
  Mo  Mo249  1  0.69672094  0.67996026  0.10911939  1
