# generated using pymatgen
data_HfZrTaTiMo
_symmetry_space_group_name_H-M   'P 1'
_cell_length_a   16.88583397
_cell_length_b   16.88518921
_cell_length_c   16.88633659
_cell_angle_alpha   90.03352375
_cell_angle_beta   90.00946344
_cell_angle_gamma   90.01436880
_symmetry_Int_Tables_number   1
_chemical_formula_structural   HfZrTaTiMo
_chemical_formula_sum   'Hf50 Zr50 Ta50 Ti50 Mo50'
_cell_volume   4814.63971750
_cell_formula_units_Z   50
loop_
 _symmetry_equiv_pos_site_id
 _symmetry_equiv_pos_as_xyz
  1  'x, y, z'
loop_
 _atom_site_type_symbol
 _atom_site_label
 _atom_site_symmetry_multiplicity
 _atom_site_fract_x
 _atom_site_fract_y
 _atom_site_fract_z
 _atom_site_occupancy
  Hf  Hf0  1  0.48876240  0.70253048  0.30563226  1
  Hf  Hf1  1  0.49404265  0.50113052  0.69999024  1
  Hf  Hf2  1  0.20583114  -0.00063386  0.79492213  1
  Hf  Hf3  1  0.00151226  0.39569356  0.79604697  1
  Hf  Hf4  1  0.70114725  0.71276115  0.09395143  1
  Hf  Hf5  1  0.09387466  0.10368607  0.89470944  1
  Hf  Hf6  1  0.89956218  0.10413486  0.89442569  1
  Hf  Hf7  1  0.49258077  0.30222177  0.50047820  1
  Hf  Hf8  1  0.69650721  0.09680987  0.90285152  1
  Hf  Hf9  1  0.59243225  0.60803674  0.19867457  1
  Hf  Hf10  1  0.30114184  0.70334639  0.89997993  1
  Hf  Hf11  1  0.39360059  0.18910997  0.60657086  1
  Hf  Hf12  1  0.80102628  0.59870449  0.39764010  1
  Hf  Hf13  1  0.30171907  0.49638771  0.49767373  1
  Hf  Hf14  1  0.90352941  0.70929514  0.29456103  1
  Hf  Hf15  1  0.79737930  0.39523736  0.79983112  1
  Hf  Hf16  1  0.10581905  0.89996329  0.90116333  1
  Hf  Hf17  1  0.49945788  0.69729921  0.89792902  1
  Hf  Hf18  1  0.79454390  0.39645521  0.59825606  1
  Hf  Hf19  1  0.69640736  0.28070407  0.48824966  1
  Hf  Hf20  1  0.40081930  0.40295828  0.80895635  1
  Hf  Hf21  1  0.90159238  0.89477118  0.69623231  1
  Hf  Hf22  1  0.49236852  0.70061412  0.49152920  1
  Hf  Hf23  1  -0.01538244  -0.00647924  0.20059791  1
  Hf  Hf24  1  0.40171748  0.59323723  -0.00006911  1
  Hf  Hf25  1  0.39524700  0.39686344  -0.00721455  1
  Hf  Hf26  1  0.48766520  0.89991282  0.31655066  1
  Hf  Hf27  1  0.60478779  -0.00655345  0.40284696  1
  Hf  Hf28  1  0.30227567  0.31096124  0.68668250  1
  Hf  Hf29  1  0.31304687  0.49677131  0.12850663  1
  Hf  Hf30  1  0.69059643  0.90933813  0.07666339  1
  Hf  Hf31  1  0.39816141  0.19843127  0.39296154  1
  Hf  Hf32  1  0.70621142  0.10912353  0.31354451  1
  Hf  Hf33  1  0.79668228  0.59754884  0.59593992  1
  Hf  Hf34  1  0.59698836  0.59647336  0.00163278  1
  Hf  Hf35  1  0.60276543  0.40009047  0.80184999  1
  Hf  Hf36  1  0.51053880  0.28900152  0.90016508  1
  Hf  Hf37  1  0.01274943  0.39338364  -0.00200655  1
  Hf  Hf38  1  0.41016566  0.00713535  0.20161987  1
  Hf  Hf39  1  0.60757955  0.40323979  0.59277558  1
  Hf  Hf40  1  0.40106743  0.80186302  0.79616454  1
  Hf  Hf41  1  0.51634892  0.90030077  0.90996521  1
  Hf  Hf42  1  0.79792966  0.80988704  0.40371858  1
  Hf  Hf43  1  0.49845208  0.49063714  0.10947256  1
  Hf  Hf44  1  0.10316417  0.70519223  0.50216948  1
  Hf  Hf45  1  0.19283777  0.39644285  0.39991569  1
  Hf  Hf46  1  0.09749501  0.10075061  0.50115228  1
  Hf  Hf47  1  0.09830732  0.89385354  0.68753915  1
  Hf  Hf48  1  0.70180127  0.71186637  0.90268693  1
  Hf  Hf49  1  0.60183575  0.00604409  0.19887971  1
  Zr  Zr50  1  0.08996229  0.10369943  0.69365882  1
  Zr  Zr51  1  0.00002718  0.19137638  0.20276285  1
  Zr  Zr52  1  0.47371259  0.49553511  0.29793166  1
  Zr  Zr53  1  0.40726481  0.00519441  0.79526172  1
  Zr  Zr54  1  0.80167298  0.83145113  0.20218840  1
  Zr  Zr55  1  0.50564539  0.10289741  0.49139359  1
  Zr  Zr56  1  -0.00392614  0.80723746  -0.00104280  1
  Zr  Zr57  1  0.90272917  0.49473065  0.10068465  1
  Zr  Zr58  1  0.19084186  0.00752926  0.20183863  1
  Zr  Zr59  1  0.30801140  0.09683714  0.90540729  1
  Zr  Zr60  1  0.29836154  0.89444267  0.09841128  1
  Zr  Zr61  1  0.90402135  0.30352151  0.10428338  1
  Zr  Zr62  1  0.20558085  0.59836282  0.00898404  1
  Zr  Zr63  1  0.59921877  0.19984744  0.20379879  1
  Zr  Zr64  1  0.20975210  0.39787503  0.00365185  1
  Zr  Zr65  1  0.60253914  -0.00520850  0.59957170  1
  Zr  Zr66  1  0.19986456  0.21053025  0.00074305  1
  Zr  Zr67  1  0.20855744  0.00651121  0.59903054  1
  Zr  Zr68  1  0.00460582  0.60547154  0.79946566  1
  Zr  Zr69  1  0.90068799  0.49958160  0.90206506  1
  Zr  Zr70  1  0.00425729  0.39314411  0.40436078  1
  Zr  Zr71  1  0.20998870  0.39317682  0.81604005  1
  Zr  Zr72  1  0.60312680  0.60342457  0.60032446  1
  Zr  Zr73  1  0.19324819  0.00366864  0.00698943  1
  Zr  Zr74  1  0.10736347  0.50838956  0.90094034  1
  Zr  Zr75  1  -0.00564018  0.80554027  0.40286316  1
  Zr  Zr76  1  0.71185900  0.10546613  0.50310974  1
  Zr  Zr77  1  0.59314700  0.81176260  0.19880304  1
  Zr  Zr78  1  0.40331640  -0.00026743  0.59765577  1
  Zr  Zr79  1  0.19388139  0.20314431  0.21156702  1
  Zr  Zr80  1  0.90427113  0.49667634  0.50276409  1
  Zr  Zr81  1  0.21580356  0.19765727  0.78864616  1
  Zr  Zr82  1  0.10642148  0.49586198  0.69612299  1
  Zr  Zr83  1  0.30013855  0.89434775  0.30284681  1
  Zr  Zr84  1  0.30283560  0.10690307  0.10632402  1
  Zr  Zr85  1  0.60498019  0.79929211  0.79260364  1
  Zr  Zr86  1  0.89569408  0.70910098  0.09660462  1
  Zr  Zr87  1  0.09835236  0.89301202  0.29933457  1
  Zr  Zr88  1  0.00293251  0.59763654  0.20026976  1
  Zr  Zr89  1  0.79566486  0.59672063  0.20036219  1
  Zr  Zr90  1  0.78716093  0.39401354  -0.00190167  1
  Zr  Zr91  1  0.79306282  0.39875139  0.39540907  1
  Zr  Zr92  1  0.40421115  0.79939282  0.60021066  1
  Zr  Zr93  1  0.89777050  0.10130245  0.69206239  1
  Zr  Zr94  1  0.00274845  0.79729383  0.80485604  1
  Zr  Zr95  1  0.60449635  0.59207733  0.40017316  1
  Zr  Zr96  1  0.89754920  0.10176160  0.50152522  1
  Zr  Zr97  1  0.48720550  0.49707108  0.49634889  1
  Zr  Zr98  1  0.79507581  0.20067622  0.00923006  1
  Zr  Zr99  1  0.88762863  0.70445984  0.90028910  1
  Ta  Ta100  1  0.00500069  0.59861444  0.59758395  1
  Ta  Ta101  1  0.60453098  0.80206659  0.59425094  1
  Ta  Ta102  1  0.29989047  0.50266564  0.69726394  1
  Ta  Ta103  1  0.20344918  0.60156794  0.20862554  1
  Ta  Ta104  1  0.00122852  0.19385728  0.00703313  1
  Ta  Ta105  1  0.70180781  0.50168610  0.70240324  1
  Ta  Ta106  1  0.10414303  0.70497536  0.69089787  1
  Ta  Ta107  1  -0.00569114  0.00145827  0.00409038  1
  Ta  Ta108  1  0.59638123  0.39295476  0.39111954  1
  Ta  Ta109  1  0.30555147  0.89625191  0.90477475  1
  Ta  Ta110  1  0.40660126  0.19935571  0.79617930  1
  Ta  Ta111  1  0.09340657  0.89338000  0.10479542  1
  Ta  Ta112  1  0.50068436  0.30080941  0.10223950  1
  Ta  Ta113  1  0.40900176  0.19847499  0.00466854  1
  Ta  Ta114  1  0.60522204  0.00191965  0.79673881  1
  Ta  Ta115  1  0.10286136  0.70009556  0.29989179  1
  Ta  Ta116  1  0.70557567  0.89700382  0.70124935  1
  Ta  Ta117  1  0.69748109  0.70866499  0.30172872  1
  Ta  Ta118  1  0.10169524  0.50297701  0.30204347  1
  Ta  Ta119  1  0.50643017  0.90055184  0.69865443  1
  Ta  Ta120  1  0.90364606  0.29603336  0.69654017  1
  Ta  Ta121  1  0.79881740  -0.00807475  0.80290079  1
  Ta  Ta122  1  0.41547431  0.00258483  0.00814412  1
  Ta  Ta123  1  0.20096311  0.60050340  0.59711201  1
  Ta  Ta124  1  0.29697085  0.70060183  0.49526140  1
  Ta  Ta125  1  0.19822735  0.39984578  0.20770296  1
  Ta  Ta126  1  0.90086730  0.70003418  0.69333888  1
  Ta  Ta127  1  0.90511246  0.29008090  0.89465266  1
  Ta  Ta128  1  0.79766686  0.79822429  0.59647448  1
  Ta  Ta129  1  0.10115971  0.70513257  0.10629184  1
  Ta  Ta130  1  0.79685016  0.59902324  0.79624766  1
  Ta  Ta131  1  0.30186376  0.89533592  0.49477455  1
  Ta  Ta132  1  0.79035085  0.20551256  0.20008270  1
  Ta  Ta133  1  0.00410529  0.59813914  0.40115771  1
  Ta  Ta134  1  0.79131084  0.59198443  0.00108986  1
  Ta  Ta135  1  0.30436758  0.30668220  0.30197347  1
  Ta  Ta136  1  0.00261112  0.20469255  0.39661537  1
  Ta  Ta137  1  0.69236492  0.49676706  0.29412017  1
  Ta  Ta138  1  0.70469636  0.10090557  0.70166146  1
  Ta  Ta139  1  0.10139438  0.29519787  0.69138087  1
  Ta  Ta140  1  0.70173626  0.70224022  0.49692728  1
  Ta  Ta141  1  0.69195960  0.49254198  0.10408975  1
  Ta  Ta142  1  0.39095362  0.60444659  0.60210695  1
  Ta  Ta143  1  0.89964766  0.49909583  0.69697491  1
  Ta  Ta144  1  0.29727233  0.89362440  0.69776119  1
  Ta  Ta145  1  -0.00551479  -0.00611754  0.80350656  1
  Ta  Ta146  1  0.78705812  0.39196481  0.20221849  1
  Ta  Ta147  1  0.50127195  0.30006293  0.69656541  1
  Ta  Ta148  1  0.60453523  0.80759491  0.40642552  1
  Ta  Ta149  1  -0.00477845  -0.00022087  0.39996620  1
  Ti  Ti150  1  0.59899853  0.40087734  -0.00366715  1
  Ti  Ti151  1  0.30009797  0.30168225  0.50059860  1
  Ti  Ti152  1  0.90163184  0.49435265  0.29652574  1
  Ti  Ti153  1  0.30332720  0.69646296  0.30507532  1
  Ti  Ti154  1  0.41003066  0.19836071  0.20620534  1
  Ti  Ti155  1  0.80261698  -0.01384246  0.39390804  1
  Ti  Ti156  1  0.29505335  0.10012010  0.49231746  1
  Ti  Ti157  1  0.19731535  -0.00357228  0.40179550  1
  Ti  Ti158  1  0.29996696  0.09516071  0.30880381  1
  Ti  Ti159  1  0.60091493  0.59597883  0.80013002  1
  Ti  Ti160  1  0.19876769  0.59599060  0.39828450  1
  Ti  Ti161  1  0.19512141  0.20773970  0.40293971  1
  Ti  Ti162  1  0.40538049  0.79880945  0.19120102  1
  Ti  Ti163  1  0.20013141  0.79650888  0.80088612  1
  Ti  Ti164  1  0.20294456  0.60716206  0.79848062  1
  Ti  Ti165  1  0.69732511  0.50353282  0.89851339  1
  Ti  Ti166  1  0.09982833  0.89858063  0.50693988  1
  Ti  Ti167  1  0.09190442  0.28540688  0.88821006  1
  Ti  Ti168  1  0.19753246  0.79443268  0.00178967  1
  Ti  Ti169  1  0.51080232  0.10288491  0.90034643  1
  Ti  Ti170  1  0.41095563  0.80170559  0.00936892  1
  Ti  Ti171  1  0.70886296  0.70180189  0.70100274  1
  Ti  Ti172  1  0.00181771  0.21134967  0.59250608  1
  Ti  Ti173  1  0.20059858  0.79209861  0.20063774  1
  Ti  Ti174  1  0.90632330  0.90402591  0.50921345  1
  Ti  Ti175  1  0.30834358  0.29785150  0.11019990  1
  Ti  Ti176  1  0.89824559  0.29808874  0.29688754  1
  Ti  Ti177  1  0.29354594  0.70133783  0.69578703  1
  Ti  Ti178  1  0.60203882  0.19186681  0.01723092  1
  Ti  Ti179  1  0.89146209  0.09975280  0.30388933  1
  Ti  Ti180  1  0.59690127  0.19561138  0.61032814  1
  Ti  Ti181  1  0.10266984  0.50027949  0.10738696  1
  Ti  Ti182  1  0.69805477  0.29102350  0.69903579  1
  Ti  Ti183  1  0.19011090  0.39931572  0.58723056  1
  Ti  Ti184  1  0.30502955  0.70032573  0.10581441  1
  Ti  Ti185  1  0.80663455  -0.00386695  -0.00316698  1
  Ti  Ti186  1  0.09636254  0.09864857  0.31083149  1
  Ti  Ti187  1  0.59930392  0.38923212  0.20729119  1
  Ti  Ti188  1  0.89333060  0.29058782  0.50178586  1
  Ti  Ti189  1  0.49872926  0.69442175  0.70118466  1
  Ti  Ti190  1  0.10050254  0.29770343  0.10748185  1
  Ti  Ti191  1  0.79764063  0.20191778  0.79590881  1
  Ti  Ti192  1  0.00607610  0.39647928  0.59465691  1
  Ti  Ti193  1  0.88817594  0.09584386  0.10421408  1
  Ti  Ti194  1  0.01125162  0.39558338  0.21061291  1
  Ti  Ti195  1  0.69320172  0.28701589  0.89860884  1
  Ti  Ti196  1  0.00666443  0.60711400  0.00031730  1
  Ti  Ti197  1  0.79534190  -0.00927111  0.59910560  1
  Ti  Ti198  1  0.90340779  0.70128957  0.50543943  1
  Ti  Ti199  1  0.20180010  0.79886283  0.40156213  1
  Mo  Mo200  1  0.29200412  0.50140724  0.30379454  1
  Mo  Mo201  1  0.10231559  0.50729645  0.49888752  1
  Mo  Mo202  1  0.81969219  0.20873170  0.39042202  1
  Mo  Mo203  1  0.49526625  0.70560905  0.09732825  1
  Mo  Mo204  1  0.70580296  0.90385930  0.89567092  1
  Mo  Mo205  1  0.30666125  0.51832469  0.88242733  1
  Mo  Mo206  1  0.30574467  0.09832095  0.69856134  1
  Mo  Mo207  1  0.39402022  0.60386852  0.79268599  1
  Mo  Mo208  1  0.51016754  0.10359297  0.70496986  1
  Mo  Mo209  1  0.49834138  0.89496166  0.50230014  1
  Mo  Mo210  1  -0.00537180  0.79286875  0.59591201  1
  Mo  Mo211  1  0.89735996  0.90670957  0.89815629  1
  Mo  Mo212  1  0.00206285  0.80189936  0.19751798  1
  Mo  Mo213  1  0.79993148  0.79939828  0.79192188  1
  Mo  Mo214  1  0.49760709  0.29946694  0.30081516  1
  Mo  Mo215  1  0.39393095  0.62018945  0.20012302  1
  Mo  Mo216  1  0.10268902  0.29091683  0.50348132  1
  Mo  Mo217  1  0.20272400  0.20550741  0.59001780  1
  Mo  Mo218  1  0.08769436  0.09628025  0.09866306  1
  Mo  Mo219  1  0.38926086  0.00391141  0.40271271  1
  Mo  Mo220  1  0.20568119  0.79771938  0.59712862  1
  Mo  Mo221  1  0.69836131  0.90590232  0.30718593  1
  Mo  Mo222  1  0.11231190  0.70371865  0.90652251  1
  Mo  Mo223  1  0.49916475  0.90239462  0.09617849  1
  Mo  Mo224  1  0.68843440  0.30489206  0.10190311  1
  Mo  Mo225  1  -0.00029875  -0.00874072  0.59246195  1
  Mo  Mo226  1  0.59512509  0.79618985  -0.00109904  1
  Mo  Mo227  1  0.49878818  0.09956697  0.30271521  1
  Mo  Mo228  1  0.79506735  0.01278058  0.19753201  1
  Mo  Mo229  1  0.10176172  0.30022204  0.30150430  1
  Mo  Mo230  1  -0.00346389  0.20252670  0.79423444  1
  Mo  Mo231  1  0.70670154  0.89746263  0.50594983  1
  Mo  Mo232  1  0.50339547  0.10521923  0.10015271  1
  Mo  Mo233  1  0.50598351  0.50132856  0.89750899  1
  Mo  Mo234  1  0.31655239  0.28584056  0.90283843  1
  Mo  Mo235  1  0.69591600  0.30089141  0.29960696  1
  Mo  Mo236  1  0.58529936  0.20210255  0.39161150  1
  Mo  Mo237  1  0.89533342  0.90946694  0.09409707  1
  Mo  Mo238  1  0.89838683  0.90957699  0.30333640  1
  Mo  Mo239  1  0.39252300  0.79954218  0.40440645  1
  Mo  Mo240  1  0.38283905  0.60248839  0.39884163  1
  Mo  Mo241  1  0.69743415  0.49996634  0.49308989  1
  Mo  Mo242  1  0.40070169  0.37927095  0.20250890  1
  Mo  Mo243  1  0.39852543  0.40105225  0.60237874  1
  Mo  Mo244  1  0.39290410  0.39364625  0.39874504  1
  Mo  Mo245  1  0.79802833  0.20792384  0.60897107  1
  Mo  Mo246  1  0.60222952  0.19740886  0.79032946  1
  Mo  Mo247  1  0.70615292  0.09848463  0.10157058  1
  Mo  Mo248  1  0.79995250  0.81939984  -0.00995460  1
  Mo  Mo249  1  0.59663633  0.01481930  -0.00235352  1
