# generated using pymatgen
data_HfZrTaTiMo
_symmetry_space_group_name_H-M   'P 1'
_cell_length_a   16.88254137
_cell_length_b   16.88894121
_cell_length_c   16.89080702
_cell_angle_alpha   89.96886615
_cell_angle_beta   89.98986905
_cell_angle_gamma   90.01483869
_symmetry_Int_Tables_number   1
_chemical_formula_structural   HfZrTaTiMo
_chemical_formula_sum   'Hf50 Zr50 Ta50 Ti50 Mo50'
_cell_volume   4816.04527512
_cell_formula_units_Z   50
loop_
 _symmetry_equiv_pos_site_id
 _symmetry_equiv_pos_as_xyz
  1  'x, y, z'
loop_
 _atom_site_type_symbol
 _atom_site_label
 _atom_site_symmetry_multiplicity
 _atom_site_fract_x
 _atom_site_fract_y
 _atom_site_fract_z
 _atom_site_occupancy
  Hf  Hf0  1  0.70180826  0.50229894  0.29741470  1
  Hf  Hf1  1  0.00262129  0.60211639  0.40429485  1
  Hf  Hf2  1  0.60192301  0.60168267  0.80636062  1
  Hf  Hf3  1  0.30238834  0.29410618  0.89966804  1
  Hf  Hf4  1  0.70157959  0.89997959  0.70922000  1
  Hf  Hf5  1  0.50468854  0.49401576  0.90685308  1
  Hf  Hf6  1  0.10510694  0.69558478  0.69921594  1
  Hf  Hf7  1  0.58848514  0.79348192  0.40190979  1
  Hf  Hf8  1  0.09728436  0.70113769  0.90219678  1
  Hf  Hf9  1  0.71091631  0.09573867  0.89126127  1
  Hf  Hf10  1  0.09521551  0.09195930  0.89696337  1
  Hf  Hf11  1  0.69968144  0.90204194  0.10527160  1
  Hf  Hf12  1  0.00107588  0.20512888  0.60787636  1
  Hf  Hf13  1  0.39824994  0.79870614  0.19421099  1
  Hf  Hf14  1  0.20509014  0.60741190  0.18969120  1
  Hf  Hf15  1  0.58954913  0.79151074  0.20028485  1
  Hf  Hf16  1  0.30513091  0.69648022  0.69189041  1
  Hf  Hf17  1  0.91105863  0.48369801  0.50248860  1
  Hf  Hf18  1  0.11172053  0.70618704  0.30528236  1
  Hf  Hf19  1  0.89567247  0.09636713  0.70584969  1
  Hf  Hf20  1  0.20815809  0.80649387  0.79852202  1
  Hf  Hf21  1  0.20275519  -0.00602320  0.01233930  1
  Hf  Hf22  1  0.19476242  0.19944338  0.59658805  1
  Hf  Hf23  1  -0.00943189  0.80092583  0.79577186  1
  Hf  Hf24  1  0.81428482  0.80392560  0.20297224  1
  Hf  Hf25  1  0.90421842  0.90465692  0.49537856  1
  Hf  Hf26  1  0.70820482  0.49404158  0.69942590  1
  Hf  Hf27  1  0.40385116  0.59614197  0.40407195  1
  Hf  Hf28  1  0.19458743  0.20375450  0.79609349  1
  Hf  Hf29  1  0.40079534  0.38837715  0.20780065  1
  Hf  Hf30  1  0.69641979  0.29868916  0.89568205  1
  Hf  Hf31  1  0.78871420  0.61220109  -0.02254170  1
  Hf  Hf32  1  0.69896156  0.30390593  0.69107900  1
  Hf  Hf33  1  0.60233049  -0.00025143  -0.00134890  1
  Hf  Hf34  1  0.69202496  0.90985995  0.50429645  1
  Hf  Hf35  1  0.80699052  0.00210590  0.20396879  1
  Hf  Hf36  1  0.80373744  0.19844560  0.01231876  1
  Hf  Hf37  1  0.20768331  0.39687157  0.40634161  1
  Hf  Hf38  1  0.10124735  0.30039559  0.10512237  1
  Hf  Hf39  1  0.30567901  0.29975933  0.69157003  1
  Hf  Hf40  1  0.40284596  0.39165303  0.00485721  1
  Hf  Hf41  1  0.69215101  0.48772054  0.49986263  1
  Hf  Hf42  1  0.69732354  0.10180165  0.50158880  1
  Hf  Hf43  1  0.69994391  0.70315816  0.70399186  1
  Hf  Hf44  1  0.09823980  0.90579802  0.90402089  1
  Hf  Hf45  1  0.29802562  0.70570596  0.30711645  1
  Hf  Hf46  1  0.39760574  0.19029832  0.00721310  1
  Hf  Hf47  1  0.90514864  0.69265393  0.09050821  1
  Hf  Hf48  1  0.30009600  0.08920286  0.88981418  1
  Hf  Hf49  1  0.09970363  0.09818080  0.10687666  1
  Zr  Zr50  1  0.00634830  0.39707479  -0.01409613  1
  Zr  Zr51  1  0.60476385  0.19554218  0.00117134  1
  Zr  Zr52  1  0.49346510  0.29672050  0.68607869  1
  Zr  Zr53  1  0.70194815  0.69760812  0.49953846  1
  Zr  Zr54  1  0.50269767  0.09376399  0.10917868  1
  Zr  Zr55  1  0.00536189  0.80968460  0.19920154  1
  Zr  Zr56  1  0.39434429  0.40779396  0.79628809  1
  Zr  Zr57  1  0.20341901  0.80613646  0.59505027  1
  Zr  Zr58  1  -0.00291069  0.19956369  -0.00488977  1
  Zr  Zr59  1  0.80003711  0.79969236  -0.00523136  1
  Zr  Zr60  1  0.50031615  0.09999810  0.29695080  1
  Zr  Zr61  1  0.59295033  0.39637929  0.79646803  1
  Zr  Zr62  1  0.00470769  0.59501195  0.60766475  1
  Zr  Zr63  1  0.51180371  0.48964044  0.30195925  1
  Zr  Zr64  1  0.89435625  0.91112906  0.89346773  1
  Zr  Zr65  1  0.51288408  0.49064235  0.10645190  1
  Zr  Zr66  1  0.59398097  0.00399593  0.79443425  1
  Zr  Zr67  1  0.00448373  0.19763402  0.40417414  1
  Zr  Zr68  1  0.40365921  0.39485548  0.40640070  1
  Zr  Zr69  1  0.81037396  0.80549127  0.60566044  1
  Zr  Zr70  1  0.89359292  0.09934110  0.49529663  1
  Zr  Zr71  1  0.49815391  0.10059426  0.50485533  1
  Zr  Zr72  1  0.09623347  0.50108271  0.09407598  1
  Zr  Zr73  1  0.70115587  0.50241236  0.11050602  1
  Zr  Zr74  1  0.80447331  0.80122857  0.39721034  1
  Zr  Zr75  1  0.19275493  0.40418903  0.80017919  1
  Zr  Zr76  1  0.49852834  0.70082946  0.69879511  1
  Zr  Zr77  1  0.79278047  0.39456075  0.00814658  1
  Zr  Zr78  1  0.29644517  0.50512151  0.30348830  1
  Zr  Zr79  1  0.10078184  0.90589613  0.70130358  1
  Zr  Zr80  1  0.49600863  0.90772515  0.29840345  1
  Zr  Zr81  1  0.09153569  0.31706579  0.50334862  1
  Zr  Zr82  1  0.79870028  0.38851499  0.39362425  1
  Zr  Zr83  1  0.59846393  0.79569865  0.00213976  1
  Zr  Zr84  1  -0.00825562  0.20167621  0.20632197  1
  Zr  Zr85  1  0.29697907  0.49409791  0.09863619  1
  Zr  Zr86  1  0.60450004  0.61087634  0.00055120  1
  Zr  Zr87  1  0.00393404  0.60618308  0.20266417  1
  Zr  Zr88  1  0.09830637  0.49541470  0.30681582  1
  Zr  Zr89  1  0.29147264  0.29022705  0.10714521  1
  Zr  Zr90  1  0.40280689  0.60642439  0.00603562  1
  Zr  Zr91  1  0.00362711  0.00588711  0.59358205  1
  Zr  Zr92  1  0.69315338  0.90494680  0.29904321  1
  Zr  Zr93  1  0.20670354  0.00302085  0.59687616  1
  Zr  Zr94  1  0.89885863  0.50371254  0.10098194  1
  Zr  Zr95  1  0.48930236  0.69833945  0.51189160  1
  Zr  Zr96  1  0.89308637  0.30529849  0.88447401  1
  Zr  Zr97  1  0.48791301  0.90331047  0.89895038  1
  Zr  Zr98  1  0.89409498  0.50369008  0.88388412  1
  Zr  Zr99  1  0.80803678  0.59346888  0.59878379  1
  Ta  Ta100  1  0.79910644  0.20209520  0.78880728  1
  Ta  Ta101  1  0.40783346  0.61039141  0.19943423  1
  Ta  Ta102  1  0.09709442  0.90251197  0.49057682  1
  Ta  Ta103  1  0.10180832  0.70612207  0.08611238  1
  Ta  Ta104  1  0.29411033  0.69402993  0.49914122  1
  Ta  Ta105  1  0.20397480  0.41209414  0.60842820  1
  Ta  Ta106  1  0.39816410  0.59871078  0.80144629  1
  Ta  Ta107  1  0.80337730  0.00277864  0.00474736  1
  Ta  Ta108  1  0.19605127  0.39478274  0.20701467  1
  Ta  Ta109  1  0.39099660  0.00150962  0.39857972  1
  Ta  Ta110  1  0.59992616  0.21065500  0.39433970  1
  Ta  Ta111  1  0.69573159  0.29931342  0.50283731  1
  Ta  Ta112  1  0.39946750  0.20509227  0.39832920  1
  Ta  Ta113  1  0.10195450  0.09796195  0.70579475  1
  Ta  Ta114  1  0.59477947  0.80754169  0.60162070  1
  Ta  Ta115  1  0.90362960  0.09558988  0.30374121  1
  Ta  Ta116  1  0.19925898  0.19818859  0.40255442  1
  Ta  Ta117  1  0.80261916  0.38440972  0.20524401  1
  Ta  Ta118  1  0.49445222  0.90631984  0.69282257  1
  Ta  Ta119  1  0.71000144  0.69364428  0.11962327  1
  Ta  Ta120  1  0.29428953  0.90036520  0.30202066  1
  Ta  Ta121  1  0.19986316  0.00263288  0.40109266  1
  Ta  Ta122  1  0.79958281  0.20140664  0.20704855  1
  Ta  Ta123  1  0.50043773  0.29078575  0.90247021  1
  Ta  Ta124  1  0.10229010  0.09409270  0.30062133  1
  Ta  Ta125  1  0.49787838  0.49910465  0.68760072  1
  Ta  Ta126  1  0.29376955  0.10102762  0.29916390  1
  Ta  Ta127  1  0.30467951  0.10551597  0.49713270  1
  Ta  Ta128  1  0.19512881  0.19759136  -0.00497634  1
  Ta  Ta129  1  0.00468760  0.80049589  0.39873093  1
  Ta  Ta130  1  0.90806427  0.70212666  0.50022633  1
  Ta  Ta131  1  0.89413444  0.69134966  0.71141524  1
  Ta  Ta132  1  0.70065819  0.09616755  0.11233798  1
  Ta  Ta133  1  0.49307700  0.70991311  0.89553223  1
  Ta  Ta134  1  0.90395591  0.49063092  0.29740134  1
  Ta  Ta135  1  0.38471091  -0.00302579  0.19757165  1
  Ta  Ta136  1  0.00298115  0.20959974  0.79398607  1
  Ta  Ta137  1  0.48966745  0.09677875  0.89491007  1
  Ta  Ta138  1  0.20260002  0.60420271  -0.00675571  1
  Ta  Ta139  1  0.39677954  0.80558145  0.40468949  1
  Ta  Ta140  1  0.20688306  0.59547041  0.79826125  1
  Ta  Ta141  1  0.59386450  0.59981558  0.40133862  1
  Ta  Ta142  1  0.39635942  0.80560852  0.79503840  1
  Ta  Ta143  1  0.70211421  0.69136625  0.30008694  1
  Ta  Ta144  1  0.89621209  0.30173873  0.50404522  1
  Ta  Ta145  1  0.10833377  0.50381579  0.50466102  1
  Ta  Ta146  1  0.59436975  0.19289336  0.79349781  1
  Ta  Ta147  1  0.80025887  0.20263303  0.60046305  1
  Ta  Ta148  1  0.51186336  0.29401689  0.10567068  1
  Ta  Ta149  1  0.30421362  0.70567926  0.89960472  1
  Ti  Ti150  1  0.28937651  0.10420996  0.11450029  1
  Ti  Ti151  1  0.80022364  -0.00067380  0.60584613  1
  Ti  Ti152  1  0.69930726  0.48659936  0.89638496  1
  Ti  Ti153  1  0.10739726  0.70034077  0.50029362  1
  Ti  Ti154  1  -0.00548340  0.80903427  0.00153398  1
  Ti  Ti155  1  0.20082592  0.80913753  0.40464517  1
  Ti  Ti156  1  0.91400989  0.91108195  0.31004906  1
  Ti  Ti157  1  0.38888494  0.58057731  0.59686128  1
  Ti  Ti158  1  0.59671344  0.59536743  0.59581701  1
  Ti  Ti159  1  -0.00459109  -0.00018201  0.79388258  1
  Ti  Ti160  1  0.89958035  0.09865729  0.89491665  1
  Ti  Ti161  1  0.19581802  0.39630202  -0.00726148  1
  Ti  Ti162  1  0.01067877  0.40034966  0.78526436  1
  Ti  Ti163  1  0.40050325  0.20008340  0.20550525  1
  Ti  Ti164  1  0.38922173  -0.00277995  0.01262569  1
  Ti  Ti165  1  0.30751851  0.29715153  0.50908733  1
  Ti  Ti166  1  0.59874135  0.00889572  0.39575420  1
  Ti  Ti167  1  0.29244661  0.28844647  0.29953785  1
  Ti  Ti168  1  0.89588083  0.31648765  0.69376853  1
  Ti  Ti169  1  0.30811778  0.09394571  0.69679993  1
  Ti  Ti170  1  0.40441395  0.19362203  0.79426688  1
  Ti  Ti171  1  0.39584954  0.81279842  0.59731065  1
  Ti  Ti172  1  0.70252278  0.89789748  0.89041807  1
  Ti  Ti173  1  0.09945093  0.50921013  0.89848712  1
  Ti  Ti174  1  0.80533057  0.59691593  0.40087238  1
  Ti  Ti175  1  0.61346935  0.19870201  0.21059507  1
  Ti  Ti176  1  0.48953553  0.09423852  0.68996163  1
  Ti  Ti177  1  0.61247293  0.37704708  0.20842570  1
  Ti  Ti178  1  0.30091888  0.71002308  0.08980178  1
  Ti  Ti179  1  0.30416602  0.90504728  0.49757454  1
  Ti  Ti180  1  0.19786354  0.81105990  0.18844832  1
  Ti  Ti181  1  0.79522975  0.20028553  0.39172949  1
  Ti  Ti182  1  0.00508676  -0.00963917  0.19752686  1
  Ti  Ti183  1  0.90781087  0.30846477  0.10797049  1
  Ti  Ti184  1  0.20639413  0.80732287  0.00278235  1
  Ti  Ti185  1  0.29907046  0.50369675  0.90406178  1
  Ti  Ti186  1  0.09501996  0.30278392  0.30096034  1
  Ti  Ti187  1  0.49464679  0.90191698  0.09879468  1
  Ti  Ti188  1  0.30361475  0.90532415  0.89718020  1
  Ti  Ti189  1  0.19626501  -0.01119482  0.20269900  1
  Ti  Ti190  1  0.59899329  0.19681830  0.60092890  1
  Ti  Ti191  1  0.90585295  0.09068969  0.10151568  1
  Ti  Ti192  1  0.69971916  0.09751947  0.69533410  1
  Ti  Ti193  1  0.79469039  0.00522493  0.39289689  1
  Ti  Ti194  1  -0.00142261  0.80001019  0.60073628  1
  Ti  Ti195  1  0.50422864  0.30469594  0.50496925  1
  Ti  Ti196  1  0.89868736  0.69393102  0.30335237  1
  Ti  Ti197  1  0.58817134  0.61294328  0.20657076  1
  Ti  Ti198  1  0.00069322  0.59712765  0.79749125  1
  Ti  Ti199  1  0.49824569  0.91235849  0.50572049  1
  Mo  Mo200  1  0.10018636  0.89678811  0.09896694  1
  Mo  Mo201  1  -0.00284882  0.39534979  0.20789359  1
  Mo  Mo202  1  0.19302335  0.19886711  0.21283280  1
  Mo  Mo203  1  0.90415547  0.90890581  0.09404710  1
  Mo  Mo204  1  0.29702374  0.89799052  0.10448804  1
  Mo  Mo205  1  0.90464562  0.69883824  0.89419196  1
  Mo  Mo206  1  0.70001809  0.29116593  0.11071714  1
  Mo  Mo207  1  0.59106915  0.80338847  0.79713224  1
  Mo  Mo208  1  0.89762124  0.90110197  0.69761727  1
  Mo  Mo209  1  0.60026452  0.00011026  0.19673008  1
  Mo  Mo210  1  0.50308590  0.49675805  0.50570040  1
  Mo  Mo211  1  0.10325608  0.50228624  0.70286526  1
  Mo  Mo212  1  0.79638585  0.59918250  0.80083570  1
  Mo  Mo213  1  0.69437994  0.72182765  0.87863172  1
  Mo  Mo214  1  0.59924717  0.39255105  0.40158469  1
  Mo  Mo215  1  0.00118488  0.39813365  0.39884240  1
  Mo  Mo216  1  0.30130081  0.50395146  0.69974649  1
  Mo  Mo217  1  0.39842984  -0.00054871  0.59422824  1
  Mo  Mo218  1  0.80738637  0.60137712  0.21386816  1
  Mo  Mo219  1  0.10956233  0.09812100  0.49577654  1
  Mo  Mo220  1  0.30981373  0.90509020  0.69955300  1
  Mo  Mo221  1  0.59850467  -0.00057571  0.60276204  1
  Mo  Mo222  1  0.39278267  0.80521193  -0.00321055  1
  Mo  Mo223  1  0.10027859  0.29677671  0.89753534  1
  Mo  Mo224  1  0.79939387  0.00505798  0.79815185  1
  Mo  Mo225  1  0.70001404  0.29463537  0.30442806  1
  Mo  Mo226  1  -0.00492065  0.00024444  0.00682130  1
  Mo  Mo227  1  0.90344521  0.49342799  0.70353064  1
  Mo  Mo228  1  0.10721479  0.90214837  0.30058303  1
  Mo  Mo229  1  0.39629371  0.19752628  0.59274123  1
  Mo  Mo230  1  0.50354222  0.29176215  0.29809864  1
  Mo  Mo231  1  0.80329212  0.39263033  0.59621291  1
  Mo  Mo232  1  0.39579722  -0.00005241  0.78824130  1
  Mo  Mo233  1  0.59344408  0.40083781  0.59338070  1
  Mo  Mo234  1  0.79617727  0.39778001  0.79261508  1
  Mo  Mo235  1  0.49647519  0.70165222  0.09748779  1
  Mo  Mo236  1  0.09878099  0.30468092  0.69845940  1
  Mo  Mo237  1  0.70375625  0.10295669  0.30362050  1
  Mo  Mo238  1  0.59850092  0.38771316  0.00499633  1
  Mo  Mo239  1  0.49574081  0.69774582  0.30461733  1
  Mo  Mo240  1  0.00945722  -0.00139440  0.39324285  1
  Mo  Mo241  1  0.80271845  0.79613245  0.80262241  1
  Mo  Mo242  1  0.20320166  0.59699772  0.59994295  1
  Mo  Mo243  1  0.00512246  0.60493025  -0.01196229  1
  Mo  Mo244  1  0.00368584  0.40217291  0.61257209  1
  Mo  Mo245  1  0.20482303  0.00164989  0.79723374  1
  Mo  Mo246  1  0.29701137  0.50069007  0.50548488  1
  Mo  Mo247  1  0.89985501  0.29555800  0.30532539  1
  Mo  Mo248  1  0.19989555  0.60312873  0.41161135  1
  Mo  Mo249  1  0.39689013  0.40501864  0.59188586  1
