# generated using pymatgen
data_HfZrTaTiMo
_symmetry_space_group_name_H-M   'P 1'
_cell_length_a   16.88524279
_cell_length_b   16.89029689
_cell_length_c   16.89178599
_cell_angle_alpha   90.01325833
_cell_angle_beta   89.96375928
_cell_angle_gamma   89.99163676
_symmetry_Int_Tables_number   1
_chemical_formula_structural   HfZrTaTiMo
_chemical_formula_sum   'Hf50 Zr50 Ta50 Ti50 Mo50'
_cell_volume   4817.48155642
_cell_formula_units_Z   50
loop_
 _symmetry_equiv_pos_site_id
 _symmetry_equiv_pos_as_xyz
  1  'x, y, z'
loop_
 _atom_site_type_symbol
 _atom_site_label
 _atom_site_symmetry_multiplicity
 _atom_site_fract_x
 _atom_site_fract_y
 _atom_site_fract_z
 _atom_site_occupancy
  Hf  Hf0  1  0.09134113  0.90550895  0.70863187  1
  Hf  Hf1  1  0.50328077  0.10263586  0.30096858  1
  Hf  Hf2  1  0.40913064  0.58791255  0.20840931  1
  Hf  Hf3  1  0.00237927  0.39574836  0.59882202  1
  Hf  Hf4  1  0.88167113  0.89303243  0.10309871  1
  Hf  Hf5  1  0.61451099  0.60423015  0.00229084  1
  Hf  Hf6  1  0.49485549  0.09359378  0.91258353  1
  Hf  Hf7  1  0.71041372  0.50146939  0.50444042  1
  Hf  Hf8  1  0.88587265  0.91284054  0.50182003  1
  Hf  Hf9  1  0.50027320  0.29739552  0.49837920  1
  Hf  Hf10  1  0.19697413  0.80595043  0.80858210  1
  Hf  Hf11  1  0.80980244  0.79987136  0.39570428  1
  Hf  Hf12  1  0.10340210  0.91050850  0.49042788  1
  Hf  Hf13  1  0.50709140  0.29393047  0.69667280  1
  Hf  Hf14  1  0.40086683  0.80504819  0.00313686  1
  Hf  Hf15  1  0.90935956  0.51042116  0.29475284  1
  Hf  Hf16  1  0.51655891  0.70763269  0.89264306  1
  Hf  Hf17  1  0.70180129  0.50043860  0.70797688  1
  Hf  Hf18  1  0.69477888  0.09434108  0.69502879  1
  Hf  Hf19  1  0.70279287  0.08946802  0.50337991  1
  Hf  Hf20  1  0.30023612  0.49729215  0.09923050  1
  Hf  Hf21  1  0.89217132  0.08877567  0.89266999  1
  Hf  Hf22  1  0.70242885  0.30454455  0.89375296  1
  Hf  Hf23  1  0.89023597  0.49283833  0.69842473  1
  Hf  Hf24  1  0.79197104  0.19984329  0.19552158  1
  Hf  Hf25  1  0.39976579  0.39681508  0.80943830  1
  Hf  Hf26  1  0.29832713  0.90443243  0.70364613  1
  Hf  Hf27  1  0.00271168  0.19269853  0.79240896  1
  Hf  Hf28  1  0.10986174  0.10600246  0.48193208  1
  Hf  Hf29  1  -0.00473820  0.79912910  0.39198657  1
  Hf  Hf30  1  0.90235625  0.30005109  0.50099270  1
  Hf  Hf31  1  0.59644962  0.00181021  0.19203339  1
  Hf  Hf32  1  0.89459029  0.09108392  0.70178792  1
  Hf  Hf33  1  0.20893313  0.38984240  -0.00163319  1
  Hf  Hf34  1  0.18381047  -0.00087703  0.01062653  1
  Hf  Hf35  1  0.51924997  0.71052124  0.70317635  1
  Hf  Hf36  1  0.88343389  0.08900808  0.09820406  1
  Hf  Hf37  1  0.00837822  0.01525650  0.59881367  1
  Hf  Hf38  1  0.50371262  0.69553884  0.30902893  1
  Hf  Hf39  1  0.29892238  0.50026298  0.49821080  1
  Hf  Hf40  1  0.38829998  0.19404562  0.60055574  1
  Hf  Hf41  1  0.00009738  0.39659897  0.80176146  1
  Hf  Hf42  1  0.10733526  0.50507152  0.70129160  1
  Hf  Hf43  1  0.50573824  0.50536104  0.70605853  1
  Hf  Hf44  1  0.19220283  0.79568174  0.59759909  1
  Hf  Hf45  1  0.50462791  0.89340587  0.29835613  1
  Hf  Hf46  1  0.50506933  0.09591762  0.69861290  1
  Hf  Hf47  1  0.59930105  0.40698204  0.39489508  1
  Hf  Hf48  1  0.59964299  0.40452615  0.59862396  1
  Hf  Hf49  1  0.10352278  0.90051243  0.28975667  1
  Zr  Zr50  1  0.40973930  0.60203666  -0.00103266  1
  Zr  Zr51  1  0.70421571  0.71727879  0.50845232  1
  Zr  Zr52  1  0.28895069  0.29663079  0.49139397  1
  Zr  Zr53  1  0.29267962  0.50162209  0.69650573  1
  Zr  Zr54  1  0.89821746  0.90357494  0.70595599  1
  Zr  Zr55  1  0.10548423  0.50384940  0.90600632  1
  Zr  Zr56  1  0.40483566  -0.00169206  0.40470779  1
  Zr  Zr57  1  0.59614309  -0.01288019  0.80592713  1
  Zr  Zr58  1  -0.00211185  0.79834175  0.58559352  1
  Zr  Zr59  1  0.00427190  0.40859859  0.40332984  1
  Zr  Zr60  1  0.51008577  0.10206326  0.50897020  1
  Zr  Zr61  1  0.40457118  0.61178950  0.60330097  1
  Zr  Zr62  1  0.10457722  0.29317303  0.30248467  1
  Zr  Zr63  1  0.40388814  0.79853584  0.40738338  1
  Zr  Zr64  1  0.18630857  0.80301177  0.00098339  1
  Zr  Zr65  1  0.29424164  0.10608813  0.10184466  1
  Zr  Zr66  1  0.49341667  0.51170889  0.49277921  1
  Zr  Zr67  1  0.30015567  0.69319103  0.29473159  1
  Zr  Zr68  1  0.80109571  0.40546905  0.00131632  1
  Zr  Zr69  1  0.80741013  0.61135739  0.60096367  1
  Zr  Zr70  1  0.29629590  0.68984787  0.49969655  1
  Zr  Zr71  1  0.38786695  -0.00093995  0.21143457  1
  Zr  Zr72  1  0.29801495  0.89914984  0.50355801  1
  Zr  Zr73  1  0.80583891  0.39992099  0.20248368  1
  Zr  Zr74  1  0.11269442  0.50803478  0.50374915  1
  Zr  Zr75  1  0.39862664  0.60637632  0.80153914  1
  Zr  Zr76  1  0.60293381  0.79899779  0.01029356  1
  Zr  Zr77  1  0.09400352  0.68830155  0.28565604  1
  Zr  Zr78  1  0.29030578  0.29717432  0.70243466  1
  Zr  Zr79  1  -0.01114074  0.61071653  -0.00175083  1
  Zr  Zr80  1  0.22237264  -0.00113628  0.37460706  1
  Zr  Zr81  1  -0.00005535  -0.01289979  -0.00486959  1
  Zr  Zr82  1  0.39991391  0.20193122  0.81219631  1
  Zr  Zr83  1  0.58630186  0.20309275  0.00613397  1
  Zr  Zr84  1  0.40442826  0.81222681  0.80490739  1
  Zr  Zr85  1  -0.00172794  0.60691742  0.59200902  1
  Zr  Zr86  1  -0.00972342  0.60460571  0.80472835  1
  Zr  Zr87  1  0.59645482  0.40155327  -0.00461575  1
  Zr  Zr88  1  0.50277879  0.49135989  0.10386829  1
  Zr  Zr89  1  -0.00497524  0.19611462  0.19746028  1
  Zr  Zr90  1  -0.00098593  0.19218065  0.00260093  1
  Zr  Zr91  1  0.71165716  0.90158660  0.29639798  1
  Zr  Zr92  1  0.00658335  -0.00199205  0.18763281  1
  Zr  Zr93  1  0.29070382  0.69106851  0.10217741  1
  Zr  Zr94  1  0.09974885  0.50259557  0.10262406  1
  Zr  Zr95  1  0.79064486  0.20002778  -0.00079654  1
  Zr  Zr96  1  0.69850000  0.30438703  0.30141613  1
  Zr  Zr97  1  0.80557918  0.19742231  0.59992907  1
  Zr  Zr98  1  0.10263144  0.29342711  0.90326983  1
  Zr  Zr99  1  0.80168698  0.19861629  0.39776889  1
  Ta  Ta100  1  0.80810889  0.40787434  0.40402627  1
  Ta  Ta101  1  0.20354587  0.39586675  0.19944883  1
  Ta  Ta102  1  0.79374435  0.79925099  0.80475188  1
  Ta  Ta103  1  -0.00732280  0.80005519  -0.00505249  1
  Ta  Ta104  1  0.69019391  0.30890230  0.10407548  1
  Ta  Ta105  1  0.19691041  0.59733807  0.39128544  1
  Ta  Ta106  1  0.40782133  0.20404340  0.19342578  1
  Ta  Ta107  1  0.88758450  0.08614211  0.29576065  1
  Ta  Ta108  1  0.69983265  0.30086509  0.50458717  1
  Ta  Ta109  1  0.60197236  0.19972099  0.80537496  1
  Ta  Ta110  1  0.30240066  0.30015976  0.29228165  1
  Ta  Ta111  1  0.40868668  0.80192136  0.60031517  1
  Ta  Ta112  1  0.11266213  0.10200331  0.28785021  1
  Ta  Ta113  1  0.69351413  0.89138282  0.90610334  1
  Ta  Ta114  1  0.89906615  0.51047437  0.10454342  1
  Ta  Ta115  1  0.60567265  0.61003655  0.59959487  1
  Ta  Ta116  1  0.70439746  0.69947676  0.29973380  1
  Ta  Ta117  1  0.79765673  0.61221623  0.80772783  1
  Ta  Ta118  1  0.20092103  0.60906892  0.80385160  1
  Ta  Ta119  1  0.29439414  0.70012411  0.90543993  1
  Ta  Ta120  1  0.09511760  0.70422574  0.70819748  1
  Ta  Ta121  1  0.20177277  0.01080609  0.60631544  1
  Ta  Ta122  1  -0.00537533  0.00214495  0.38678041  1
  Ta  Ta123  1  0.19526623  0.79288548  0.39477250  1
  Ta  Ta124  1  0.60701919  0.60511476  0.40210449  1
  Ta  Ta125  1  0.81046488  0.60551111  0.40261403  1
  Ta  Ta126  1  0.60571849  0.60144035  0.20396671  1
  Ta  Ta127  1  0.90426230  0.29984822  0.30177454  1
  Ta  Ta128  1  0.60571876  -0.00659612  0.40339986  1
  Ta  Ta129  1  0.29596116  0.09980788  0.90975177  1
  Ta  Ta130  1  0.69835986  0.09469962  0.29922959  1
  Ta  Ta131  1  0.39871122  0.20117807  0.39236021  1
  Ta  Ta132  1  0.29904267  0.91344960  0.90904400  1
  Ta  Ta133  1  0.89907166  0.71486474  0.70470371  1
  Ta  Ta134  1  0.59565420  0.20086168  0.19542734  1
  Ta  Ta135  1  0.60197967  0.20036001  0.39697335  1
  Ta  Ta136  1  0.70686096  0.50535534  0.10874535  1
  Ta  Ta137  1  0.10714550  0.29504907  0.10223166  1
  Ta  Ta138  1  0.89142035  0.30132004  0.70368340  1
  Ta  Ta139  1  0.29787311  0.50540785  0.90586923  1
  Ta  Ta140  1  -0.00717758  0.79582280  0.18817590  1
  Ta  Ta141  1  0.29211016  0.90113147  0.10684403  1
  Ta  Ta142  1  0.39963344  -0.00270772  0.60337671  1
  Ta  Ta143  1  0.40135917  0.40145047  0.38736532  1
  Ta  Ta144  1  0.39936248  0.39809256  0.59920975  1
  Ta  Ta145  1  0.60489174  0.79351212  0.19771728  1
  Ta  Ta146  1  0.40433838  0.38286428  -0.00468200  1
  Ta  Ta147  1  0.70399376  0.30377556  0.69972577  1
  Ta  Ta148  1  0.70663555  0.51078864  0.30114507  1
  Ta  Ta149  1  0.89548907  0.29913265  0.89356833  1
  Ti  Ti150  1  0.30432799  0.29460009  0.10058985  1
  Ti  Ti151  1  0.10361651  0.29525294  0.70162692  1
  Ti  Ti152  1  0.30010744  0.49554015  0.29731110  1
  Ti  Ti153  1  0.69865479  0.89032576  0.68392502  1
  Ti  Ti154  1  0.40136596  -0.00397286  0.80672394  1
  Ti  Ti155  1  0.20140477  0.19393213  0.80648910  1
  Ti  Ti156  1  0.10079868  0.09750654  0.89890227  1
  Ti  Ti157  1  0.19293351  0.00375120  0.80699977  1
  Ti  Ti158  1  0.80026762  0.78951472  -0.00776073  1
  Ti  Ti159  1  0.89404776  0.69759878  0.27991609  1
  Ti  Ti160  1  0.19996358  0.40246007  0.39165215  1
  Ti  Ti161  1  0.79361551  0.19680992  0.80030326  1
  Ti  Ti162  1  0.59686320  0.39677812  0.80440302  1
  Ti  Ti163  1  0.69213016  0.09280376  0.09365293  1
  Ti  Ti164  1  -0.00372966  0.60997056  0.40843632  1
  Ti  Ti165  1  0.51437990  0.89693564  0.51200076  1
  Ti  Ti166  1  0.90045079  0.30281577  0.09701792  1
  Ti  Ti167  1  0.10013707  0.50396338  0.28933181  1
  Ti  Ti168  1  0.59747854  0.40464753  0.20482001  1
  Ti  Ti169  1  0.69224222  0.09282250  0.90327878  1
  Ti  Ti170  1  0.89177267  0.49499258  0.89771069  1
  Ti  Ti171  1  0.70250012  0.89863679  0.10152995  1
  Ti  Ti172  1  0.29682748  0.10078759  0.49473637  1
  Ti  Ti173  1  0.10390119  0.28867452  0.49318173  1
  Ti  Ti174  1  0.78762229  -0.01372239  0.80434060  1
  Ti  Ti175  1  0.20464086  0.39773055  0.80708763  1
  Ti  Ti176  1  0.00654829  0.19802993  0.60273500  1
  Ti  Ti177  1  0.40127053  -0.00208596  0.01056392  1
  Ti  Ti178  1  0.19503653  0.80126373  0.19600554  1
  Ti  Ti179  1  0.09880846  0.69140995  0.10104794  1
  Ti  Ti180  1  0.19638369  0.39072519  0.59883044  1
  Ti  Ti181  1  0.60422300  0.80239121  0.40506611  1
  Ti  Ti182  1  -0.00500229  0.39707041  0.00128105  1
  Ti  Ti183  1  0.70216483  0.50411982  0.89353046  1
  Ti  Ti184  1  0.49705272  0.30440303  0.29335445  1
  Ti  Ti185  1  0.19328375  0.18849687  0.60702547  1
  Ti  Ti186  1  0.80156297  0.60677148  -0.00405962  1
  Ti  Ti187  1  0.50644401  0.89914891  0.69528380  1
  Ti  Ti188  1  0.71913792  0.69872396  0.11306213  1
  Ti  Ti189  1  -0.00434358  0.18989657  0.39122055  1
  Ti  Ti190  1  0.09591674  0.70260248  0.89705369  1
  Ti  Ti191  1  0.78849681  -0.00973254  -0.00752094  1
  Ti  Ti192  1  0.40091392  0.79996937  0.19641918  1
  Ti  Ti193  1  0.29791642  0.09286756  0.71096130  1
  Ti  Ti194  1  0.89806005  0.09540850  0.49405208  1
  Ti  Ti195  1  0.29479540  0.70542241  0.70208866  1
  Ti  Ti196  1  0.00134830  0.39700681  0.19559472  1
  Ti  Ti197  1  0.50197489  0.69907794  0.10776453  1
  Ti  Ti198  1  0.50575603  0.50531296  0.89609823  1
  Ti  Ti199  1  0.49919364  0.90313347  0.10076826  1
  Mo  Mo200  1  0.50921515  0.49933748  0.30188557  1
  Mo  Mo201  1  0.80110091  0.39998362  0.80248117  1
  Mo  Mo202  1  0.19664128  0.60367983  -0.00596860  1
  Mo  Mo203  1  0.00582108  0.00100546  0.80613183  1
  Mo  Mo204  1  0.59934691  -0.00561964  0.00603273  1
  Mo  Mo205  1  0.79690301  -0.00164896  0.60076262  1
  Mo  Mo206  1  0.39815815  0.59168818  0.39438653  1
  Mo  Mo207  1  -0.00458383  0.80290356  0.81325387  1
  Mo  Mo208  1  0.89221014  0.70159343  0.09508738  1
  Mo  Mo209  1  0.30010263  0.29315800  0.90591334  1
  Mo  Mo210  1  0.79962848  0.79710516  0.19915065  1
  Mo  Mo211  1  0.80001370  0.60125202  0.20213266  1
  Mo  Mo212  1  0.60182082  0.80320650  0.60103220  1
  Mo  Mo213  1  0.19641209  0.61481767  0.61060489  1
  Mo  Mo214  1  0.70430761  0.70215951  0.90055657  1
  Mo  Mo215  1  0.59903372  -0.00970579  0.59964001  1
  Mo  Mo216  1  0.49401756  0.10009025  0.10207111  1
  Mo  Mo217  1  0.09279075  0.90239214  0.89662719  1
  Mo  Mo218  1  0.60859733  0.20786124  0.60196617  1
  Mo  Mo219  1  0.79992243  0.80496967  0.60775568  1
  Mo  Mo220  1  0.88779963  0.89706258  0.90022204  1
  Mo  Mo221  1  0.61068354  0.80594093  0.79798202  1
  Mo  Mo222  1  0.90054607  0.50206854  0.49571382  1
  Mo  Mo223  1  0.80032507  -0.00035658  0.39612458  1
  Mo  Mo224  1  0.90431610  0.90268381  0.29315573  1
  Mo  Mo225  1  0.29876267  0.87638594  0.28740275  1
  Mo  Mo226  1  0.10387415  0.11475423  0.09967587  1
  Mo  Mo227  1  0.19760624  0.58675623  0.20011594  1
  Mo  Mo228  1  0.30278591  0.12138552  0.29504460  1
  Mo  Mo229  1  0.10806038  0.10284017  0.70599443  1
  Mo  Mo230  1  0.09512648  0.88223360  0.10211116  1
  Mo  Mo231  1  0.20064488  0.19715106  -0.00059541  1
  Mo  Mo232  1  0.39714801  0.39344738  0.20229364  1
  Mo  Mo233  1  0.50198622  0.29793557  0.89640838  1
  Mo  Mo234  1  0.89979966  0.70634257  0.49906308  1
  Mo  Mo235  1  -0.00437614  0.60239179  0.19143690  1
  Mo  Mo236  1  0.20698858  0.19790931  0.39110073  1
  Mo  Mo237  1  0.70344252  0.70529251  0.70658186  1
  Mo  Mo238  1  0.69799638  0.90262213  0.50215461  1
  Mo  Mo239  1  0.80074038  0.39537869  0.59893208  1
  Mo  Mo240  1  0.89510831  0.70937895  0.89847996  1
  Mo  Mo241  1  0.19922406  -0.00072946  0.19399043  1
  Mo  Mo242  1  0.49762426  0.30272293  0.10835562  1
  Mo  Mo243  1  0.78925930  0.00100556  0.19508580  1
  Mo  Mo244  1  0.61232885  0.60012363  0.80314393  1
  Mo  Mo245  1  0.20510683  0.20476441  0.19658073  1
  Mo  Mo246  1  0.51000818  0.70511241  0.50139988  1
  Mo  Mo247  1  0.39523007  0.20335848  0.00428944  1
  Mo  Mo248  1  0.10099084  0.69886449  0.48706249  1
  Mo  Mo249  1  0.49775591  0.90446714  0.91158559  1
