# generated using pymatgen
data_HfZrTaTiMo
_symmetry_space_group_name_H-M   'P 1'
_cell_length_a   16.88866116
_cell_length_b   16.89147680
_cell_length_c   16.89077186
_cell_angle_alpha   90.01837383
_cell_angle_beta   90.02623733
_cell_angle_gamma   89.95921742
_symmetry_Int_Tables_number   1
_chemical_formula_structural   HfZrTaTiMo
_chemical_formula_sum   'Hf50 Zr50 Ta50 Ti50 Mo50'
_cell_volume   4818.50331199
_cell_formula_units_Z   50
loop_
 _symmetry_equiv_pos_site_id
 _symmetry_equiv_pos_as_xyz
  1  'x, y, z'
loop_
 _atom_site_type_symbol
 _atom_site_label
 _atom_site_symmetry_multiplicity
 _atom_site_fract_x
 _atom_site_fract_y
 _atom_site_fract_z
 _atom_site_occupancy
  Hf  Hf0  1  0.10786091  0.31207101  0.29406117  1
  Hf  Hf1  1  0.69671343  0.90528244  0.69610216  1
  Hf  Hf2  1  0.70266339  0.30762108  0.49790308  1
  Hf  Hf3  1  0.40141940  0.59821680  0.00170207  1
  Hf  Hf4  1  0.51330076  0.70549325  0.10135601  1
  Hf  Hf5  1  0.21332765  0.19286460  0.60054630  1
  Hf  Hf6  1  -0.00396556  0.39564107  0.59969546  1
  Hf  Hf7  1  0.59944325  -0.00358000  -0.00468971  1
  Hf  Hf8  1  0.79487345  0.60227274  0.80488796  1
  Hf  Hf9  1  0.01440096  0.19100282  0.38589403  1
  Hf  Hf10  1  0.00065452  0.79978804  0.19478351  1
  Hf  Hf11  1  -0.00588219  0.80079939  0.79753451  1
  Hf  Hf12  1  0.69638921  0.49563754  0.69264250  1
  Hf  Hf13  1  0.10632046  0.08585181  0.89760866  1
  Hf  Hf14  1  0.69575882  0.89735321  0.50883530  1
  Hf  Hf15  1  0.29418269  0.08737627  0.09655790  1
  Hf  Hf16  1  0.70583520  0.90132018  0.90363535  1
  Hf  Hf17  1  0.80590158  0.40171464  0.19178086  1
  Hf  Hf18  1  0.68680046  0.70274039  0.28462001  1
  Hf  Hf19  1  0.40214227  0.00267010  0.60273815  1
  Hf  Hf20  1  0.50871438  0.10819042  0.90157462  1
  Hf  Hf21  1  0.49221024  0.49414987  0.69856464  1
  Hf  Hf22  1  0.29989692  0.70875296  0.90004121  1
  Hf  Hf23  1  -0.00255801  0.39965143  0.81292114  1
  Hf  Hf24  1  0.20208072  0.00498701  0.60114985  1
  Hf  Hf25  1  0.80421120  0.19576969  0.19551362  1
  Hf  Hf26  1  0.29414411  0.48895782  0.09958303  1
  Hf  Hf27  1  0.60349026  0.59768903  -0.01327114  1
  Hf  Hf28  1  0.30399538  0.89921810  0.71171098  1
  Hf  Hf29  1  0.79736778  0.79588578  0.39107351  1
  Hf  Hf30  1  0.69945030  0.49864059  0.50361106  1
  Hf  Hf31  1  0.00291793  0.59147320  0.80499582  1
  Hf  Hf32  1  0.40527836  0.20601955  0.40768889  1
  Hf  Hf33  1  0.50483488  0.30366890  0.90243616  1
  Hf  Hf34  1  0.39641038  0.80625351  0.19413332  1
  Hf  Hf35  1  0.30410840  0.30783604  0.69911764  1
  Hf  Hf36  1  0.10076721  0.91356906  0.71277262  1
  Hf  Hf37  1  0.09638909  0.71369994  0.49319498  1
  Hf  Hf38  1  0.19804682  0.80803633  0.59864315  1
  Hf  Hf39  1  0.89581626  0.29457262  0.49806830  1
  Hf  Hf40  1  0.69021708  0.70584262  0.50480239  1
  Hf  Hf41  1  0.60306269  0.19648311  0.20399626  1
  Hf  Hf42  1  0.91297704  0.89449040  0.49751416  1
  Hf  Hf43  1  0.80193636  0.60752326  0.60465196  1
  Hf  Hf44  1  0.19269040  0.19828657  0.19694279  1
  Hf  Hf45  1  0.08706628  0.50294543  0.09624069  1
  Hf  Hf46  1  0.90525504  0.10520773  0.50344137  1
  Hf  Hf47  1  0.39375498  0.19739714  -0.00198613  1
  Hf  Hf48  1  0.60282544  0.79801973  0.80345544  1
  Hf  Hf49  1  0.90146081  0.29802671  0.29982405  1
  Zr  Zr50  1  -0.00037713  0.60925895  0.60713639  1
  Zr  Zr51  1  0.90309238  0.69863718  0.90929014  1
  Zr  Zr52  1  0.39493372  0.59635549  0.41043744  1
  Zr  Zr53  1  0.70681373  0.29880909  0.07873117  1
  Zr  Zr54  1  0.49779889  0.71358367  0.90389473  1
  Zr  Zr55  1  0.80253074  0.59881378  0.19559741  1
  Zr  Zr56  1  0.29861079  0.30879483  0.29688975  1
  Zr  Zr57  1  0.50146159  0.70288179  0.29365175  1
  Zr  Zr58  1  0.49278035  0.49447036  0.28442570  1
  Zr  Zr59  1  0.40106157  0.20011816  0.19707463  1
  Zr  Zr60  1  0.89163024  0.29533193  0.70455442  1
  Zr  Zr61  1  0.30571742  0.49651411  0.69149628  1
  Zr  Zr62  1  0.69956370  0.30645218  0.70330851  1
  Zr  Zr63  1  0.00971299  0.00022261  0.39913912  1
  Zr  Zr64  1  -0.00154868  0.19654686  0.00330664  1
  Zr  Zr65  1  0.40585076  0.80576485  0.40701039  1
  Zr  Zr66  1  0.80291134  0.79447568  0.79499690  1
  Zr  Zr67  1  0.39946246  0.40367307  0.41820719  1
  Zr  Zr68  1  0.10392781  0.50414807  0.49880461  1
  Zr  Zr69  1  0.59864284  0.20073027  0.59608525  1
  Zr  Zr70  1  0.10753269  0.49354754  0.69176363  1
  Zr  Zr71  1  0.81863762  0.79726908  0.61217344  1
  Zr  Zr72  1  0.29993927  0.90559292  0.30068995  1
  Zr  Zr73  1  0.90030128  0.89578652  0.29323867  1
  Zr  Zr74  1  0.79482274  0.18981516  0.60475997  1
  Zr  Zr75  1  0.70149230  0.09835449  0.08410909  1
  Zr  Zr76  1  0.10785915  0.29514543  0.50298596  1
  Zr  Zr77  1  0.89947603  0.08661203  0.09196487  1
  Zr  Zr78  1  0.10013521  0.28697589  0.70261138  1
  Zr  Zr79  1  0.69952982  0.30386097  0.30575056  1
  Zr  Zr80  1  0.39806353  0.01035889  0.80433775  1
  Zr  Zr81  1  0.19233143  0.80272377  0.80732859  1
  Zr  Zr82  1  0.10007768  0.69587217  0.10072723  1
  Zr  Zr83  1  0.30296364  0.09227834  0.30289915  1
  Zr  Zr84  1  0.00212953  0.40303003  0.39791747  1
  Zr  Zr85  1  0.79526535  0.41062970  0.81819829  1
  Zr  Zr86  1  0.59695109  0.00138005  0.20018088  1
  Zr  Zr87  1  0.30319467  0.30464930  0.89933973  1
  Zr  Zr88  1  0.40588144  0.59968352  0.80281507  1
  Zr  Zr89  1  0.30643327  0.49213637  0.90361004  1
  Zr  Zr90  1  0.88408096  0.29280976  0.91543587  1
  Zr  Zr91  1  0.60011387  0.00163974  0.39527030  1
  Zr  Zr92  1  0.69024267  0.50239861  0.29783725  1
  Zr  Zr93  1  0.18907008  0.40432790  0.81039164  1
  Zr  Zr94  1  0.20454128  0.60008131  0.39864891  1
  Zr  Zr95  1  0.58457115  0.59799791  0.41087927  1
  Zr  Zr96  1  0.39160290  0.60444013  0.19320621  1
  Zr  Zr97  1  0.79547619  0.00279694  0.39688616  1
  Zr  Zr98  1  0.19814745  0.20098212  0.00147526  1
  Zr  Zr99  1  0.90778791  0.70020053  0.48564779  1
  Ta  Ta100  1  0.49436170  0.89837804  0.89900649  1
  Ta  Ta101  1  -0.01056086  0.18907279  0.80792103  1
  Ta  Ta102  1  0.70336426  0.89005327  0.10045526  1
  Ta  Ta103  1  0.80532274  0.41067551  0.39542313  1
  Ta  Ta104  1  0.50168218  0.30424233  0.29776799  1
  Ta  Ta105  1  0.00012792  -0.00087569  0.60571945  1
  Ta  Ta106  1  0.29229701  0.49136799  0.28774807  1
  Ta  Ta107  1  0.49934281  0.30154186  0.70537187  1
  Ta  Ta108  1  0.49531056  0.70849859  0.70055926  1
  Ta  Ta109  1  0.89580144  0.90457427  0.90431675  1
  Ta  Ta110  1  0.29259168  0.90333675  0.09673121  1
  Ta  Ta111  1  0.19240931  0.80753229  -0.00012964  1
  Ta  Ta112  1  0.09885937  0.08745737  0.09897084  1
  Ta  Ta113  1  0.59987916  0.39475278  0.19116542  1
  Ta  Ta114  1  0.19174152  0.00310274  0.40842094  1
  Ta  Ta115  1  0.58425566  0.60429669  0.60238752  1
  Ta  Ta116  1  0.09769348  0.69647525  0.90707823  1
  Ta  Ta117  1  0.10302697  0.50040475  0.28605421  1
  Ta  Ta118  1  0.39954139  0.19767440  0.79450282  1
  Ta  Ta119  1  0.29213259  0.90974132  0.90513407  1
  Ta  Ta120  1  0.60272036  0.59931524  0.80078256  1
  Ta  Ta121  1  0.60016129  0.00254407  0.80044953  1
  Ta  Ta122  1  0.50226200  0.48820619  0.09107832  1
  Ta  Ta123  1  0.20785173  0.60863127  0.60042418  1
  Ta  Ta124  1  0.50570837  0.10295298  0.69834237  1
  Ta  Ta125  1  0.60077700  0.40906833  0.81072728  1
  Ta  Ta126  1  0.30564483  0.70432839  0.70115962  1
  Ta  Ta127  1  0.50468190  0.30143726  0.09237652  1
  Ta  Ta128  1  0.50102795  0.10270925  0.09336806  1
  Ta  Ta129  1  0.40238569  0.80565132  0.60097223  1
  Ta  Ta130  1  0.40011625  -0.00161855  -0.00005845  1
  Ta  Ta131  1  0.80858914  -0.00036659  0.60686003  1
  Ta  Ta132  1  0.89711721  0.50488662  0.49609395  1
  Ta  Ta133  1  0.30209482  0.70642910  0.50494879  1
  Ta  Ta134  1  0.00260331  0.80665123  -0.00027181  1
  Ta  Ta135  1  0.59921161  0.19479297  0.39822482  1
  Ta  Ta136  1  0.50144773  0.09604295  0.50140160  1
  Ta  Ta137  1  0.89371018  0.49456830  0.69498763  1
  Ta  Ta138  1  0.10073036  0.90656796  0.10007614  1
  Ta  Ta139  1  0.19716134  0.60132009  0.80172418  1
  Ta  Ta140  1  0.69446508  0.49802321  0.09363420  1
  Ta  Ta141  1  0.69580674  0.89119634  0.28907570  1
  Ta  Ta142  1  0.79403309  -0.00361227  0.19967937  1
  Ta  Ta143  1  0.79687335  0.59667937  0.00074191  1
  Ta  Ta144  1  0.00268703  0.19615306  0.19611947  1
  Ta  Ta145  1  0.10322848  0.89707304  0.30061888  1
  Ta  Ta146  1  0.90854134  0.50603662  0.29587444  1
  Ta  Ta147  1  0.90011208  0.69681544  0.09889140  1
  Ta  Ta148  1  0.29237710  0.70628679  0.30069357  1
  Ta  Ta149  1  0.69731114  0.70454151  0.09778280  1
  Ti  Ti150  1  0.50435790  0.89515233  0.09151444  1
  Ti  Ti151  1  -0.00850720  0.39908253  0.19072889  1
  Ti  Ti152  1  0.90150292  0.10029928  0.70397818  1
  Ti  Ti153  1  0.20215052  0.19044276  0.40122105  1
  Ti  Ti154  1  0.89943541  0.09714859  0.29615380  1
  Ti  Ti155  1  0.30412846  0.31352284  0.10143360  1
  Ti  Ti156  1  0.69937877  0.28918422  0.90469208  1
  Ti  Ti157  1  0.20073808  0.60287051  0.20106826  1
  Ti  Ti158  1  0.20035417  0.80271535  0.19773511  1
  Ti  Ti159  1  0.78904962  0.18886513  0.39500499  1
  Ti  Ti160  1  0.00272520  0.00166462  0.20255274  1
  Ti  Ti161  1  0.90500134  0.69759821  0.29370343  1
  Ti  Ti162  1  0.69793749  0.09442112  0.70423408  1
  Ti  Ti163  1  0.89227968  0.89719864  0.09617606  1
  Ti  Ti164  1  0.30963776  0.09542010  0.49368673  1
  Ti  Ti165  1  0.19637866  0.59817385  -0.00737766  1
  Ti  Ti166  1  0.19257161  -0.00142892  0.20526413  1
  Ti  Ti167  1  0.58692457  0.39994934  0.40613006  1
  Ti  Ti168  1  0.30313199  0.90672836  0.49708251  1
  Ti  Ti169  1  0.10513298  0.70014992  0.70377049  1
  Ti  Ti170  1  0.49288319  0.09711911  0.30330473  1
  Ti  Ti171  1  -0.01055731  0.00089369  0.80409655  1
  Ti  Ti172  1  0.59301746  0.80268475  0.40186330  1
  Ti  Ti173  1  0.21054731  0.40634651  0.41094099  1
  Ti  Ti174  1  0.00435076  0.60103886  0.38728760  1
  Ti  Ti175  1  0.91012551  0.49931736  0.92517249  1
  Ti  Ti176  1  0.09424926  0.10409270  0.51243227  1
  Ti  Ti177  1  0.40743016  -0.00391201  0.19104703  1
  Ti  Ti178  1  0.68749513  0.70181890  0.69384217  1
  Ti  Ti179  1  0.80291572  0.00912765  0.80356472  1
  Ti  Ti180  1  0.18410909  0.39810463  -0.00120545  1
  Ti  Ti181  1  0.50439192  0.90035613  0.70224983  1
  Ti  Ti182  1  0.58318418  0.39870887  0.58963373  1
  Ti  Ti183  1  0.29160849  0.70488940  0.09544967  1
  Ti  Ti184  1  0.79841517  0.79375968  0.00150734  1
  Ti  Ti185  1  0.50916362  0.90517411  0.51024998  1
  Ti  Ti186  1  0.21465978  0.18332019  0.80037306  1
  Ti  Ti187  1  0.09194815  0.30628437  0.10030050  1
  Ti  Ti188  1  -0.00021077  -0.00902055  -0.00591999  1
  Ti  Ti189  1  0.40238582  0.20300704  0.59812130  1
  Ti  Ti190  1  0.19906978  0.81021487  0.40327896  1
  Ti  Ti191  1  0.10264390  0.70400671  0.29873659  1
  Ti  Ti192  1  0.39189441  0.80876948  0.00298369  1
  Ti  Ti193  1  0.69450734  0.08988328  0.50555257  1
  Ti  Ti194  1  0.09453864  0.29199823  0.90138071  1
  Ti  Ti195  1  0.79820644  0.60120340  0.39448842  1
  Ti  Ti196  1  0.00203163  0.80631906  0.61416826  1
  Ti  Ti197  1  0.09643205  0.10115724  0.70587589  1
  Ti  Ti198  1  0.49926291  0.90305523  0.30015698  1
  Ti  Ti199  1  0.60765512  0.19853370  0.79957764  1
  Mo  Mo200  1  0.80554983  0.40682918  0.58941754  1
  Mo  Mo201  1  0.19818637  -0.00495781  0.00014530  1
  Mo  Mo202  1  0.60507418  0.80379062  -0.00041539  1
  Mo  Mo203  1  0.70473056  0.09936807  0.89225482  1
  Mo  Mo204  1  -0.00349914  0.60371235  0.00493730  1
  Mo  Mo205  1  0.79944015  0.18120473  -0.00951931  1
  Mo  Mo206  1  0.90307996  0.91624003  0.70616363  1
  Mo  Mo207  1  0.60560075  0.40013977  -0.00509599  1
  Mo  Mo208  1  0.19380964  0.40044538  0.18903697  1
  Mo  Mo209  1  0.49560119  0.70712817  0.51105309  1
  Mo  Mo210  1  0.09911512  0.50577584  0.91133167  1
  Mo  Mo211  1  0.70485019  0.09736614  0.29998718  1
  Mo  Mo212  1  0.20322033  0.00737738  0.80207525  1
  Mo  Mo213  1  0.89988434  0.50119349  0.09873076  1
  Mo  Mo214  1  0.00931841  0.79664182  0.38482538  1
  Mo  Mo215  1  0.09162943  0.90154095  0.90551228  1
  Mo  Mo216  1  0.80207102  -0.01121139  -0.00005295  1
  Mo  Mo217  1  0.50431937  0.29461282  0.49960989  1
  Mo  Mo218  1  0.69871583  0.50339093  0.90297537  1
  Mo  Mo219  1  0.10478236  0.09379220  0.29057145  1
  Mo  Mo220  1  0.58863135  0.80201968  0.60450114  1
  Mo  Mo221  1  0.39905974  0.61700830  0.60114843  1
  Mo  Mo222  1  0.59906067  0.00206612  0.60641630  1
  Mo  Mo223  1  0.70190862  0.70081537  0.90525121  1
  Mo  Mo224  1  0.21422663  0.39698736  0.58345152  1
  Mo  Mo225  1  0.79412472  0.18524879  0.80395708  1
  Mo  Mo226  1  0.30081169  0.50322308  0.51420936  1
  Mo  Mo227  1  -0.00065279  0.60399034  0.20560177  1
  Mo  Mo228  1  0.30011555  0.09721417  0.89842543  1
  Mo  Mo229  1  0.91142069  0.68776472  0.70874060  1
  Mo  Mo230  1  0.80185744  0.79750518  0.19194916  1
  Mo  Mo231  1  0.41171745  0.39456753  0.80047869  1
  Mo  Mo232  1  0.60115873  0.59087509  0.18326010  1
  Mo  Mo233  1  0.50412122  0.49407567  0.89857067  1
  Mo  Mo234  1  0.40114644  0.80829171  0.79881941  1
  Mo  Mo235  1  0.00448358  0.19067521  0.61458338  1
  Mo  Mo236  1  0.40514369  0.38167204  0.59614019  1
  Mo  Mo237  1  0.59639220  0.81042062  0.19591564  1
  Mo  Mo238  1  0.30896407  0.10471980  0.69828106  1
  Mo  Mo239  1  0.40321710  0.39512453  0.19168888  1
  Mo  Mo240  1  0.59999315  0.19973523  -0.00418805  1
  Mo  Mo241  1  0.89870098  0.09114254  0.89793279  1
  Mo  Mo242  1  0.30012879  0.29512364  0.50273415  1
  Mo  Mo243  1  -0.00167746  0.39356058  0.00495753  1
  Mo  Mo244  1  0.40778465  0.39799180  0.00178526  1
  Mo  Mo245  1  0.10071564  0.90278577  0.50195932  1
  Mo  Mo246  1  0.40597836  0.00052145  0.40979187  1
  Mo  Mo247  1  0.80330993  0.41504366  0.00558569  1
  Mo  Mo248  1  0.49451608  0.49973912  0.51531514  1
  Mo  Mo249  1  0.90468790  0.30034198  0.10082283  1
