# generated using pymatgen
data_HfZrTaTiMo
_symmetry_space_group_name_H-M   'P 1'
_cell_length_a   16.89646671
_cell_length_b   16.89041956
_cell_length_c   16.89245451
_cell_angle_alpha   89.98802447
_cell_angle_beta   90.00217760
_cell_angle_gamma   89.97665175
_symmetry_Int_Tables_number   1
_chemical_formula_structural   HfZrTaTiMo
_chemical_formula_sum   'Hf50 Zr50 Ta50 Ti50 Mo50'
_cell_volume   4820.91025415
_cell_formula_units_Z   50
loop_
 _symmetry_equiv_pos_site_id
 _symmetry_equiv_pos_as_xyz
  1  'x, y, z'
loop_
 _atom_site_type_symbol
 _atom_site_label
 _atom_site_symmetry_multiplicity
 _atom_site_fract_x
 _atom_site_fract_y
 _atom_site_fract_z
 _atom_site_occupancy
  Hf  Hf0  1  0.09408133  0.90159768  0.11158645  1
  Hf  Hf1  1  -0.01389314  0.79099509  0.78990607  1
  Hf  Hf2  1  0.70125166  0.49399955  0.71101251  1
  Hf  Hf3  1  0.69178672  0.51063081  0.50403901  1
  Hf  Hf4  1  0.59982836  -0.00363976  0.80492525  1
  Hf  Hf5  1  0.09770756  0.89699101  0.29583838  1
  Hf  Hf6  1  0.40701312  -0.00017476  0.38704099  1
  Hf  Hf7  1  0.29949746  0.30405182  0.90748428  1
  Hf  Hf8  1  0.29602611  0.29940794  0.71074710  1
  Hf  Hf9  1  0.31906387  0.48523984  0.09654546  1
  Hf  Hf10  1  -0.00205829  0.60195853  0.59766706  1
  Hf  Hf11  1  0.20074273  0.80254050  0.00498051  1
  Hf  Hf12  1  0.89569886  0.09690104  0.09814270  1
  Hf  Hf13  1  0.62030120  0.19760998  0.80083861  1
  Hf  Hf14  1  0.89747604  0.09189140  0.30326150  1
  Hf  Hf15  1  0.40851650  0.40575129  0.80194577  1
  Hf  Hf16  1  0.79854312  0.39936545  0.40808749  1
  Hf  Hf17  1  0.20016012  0.19146044  0.60062044  1
  Hf  Hf18  1  0.29876193  0.88943678  0.48848181  1
  Hf  Hf19  1  0.80567929  0.59943101  0.39927574  1
  Hf  Hf20  1  0.09629112  0.30854765  0.29797121  1
  Hf  Hf21  1  0.60323896  0.00481510  0.39288670  1
  Hf  Hf22  1  -0.00353224  0.00452532  -0.00691578  1
  Hf  Hf23  1  -0.00491759  0.19907665  0.61179067  1
  Hf  Hf24  1  0.59436375  0.19235696  0.19593818  1
  Hf  Hf25  1  0.50231286  0.49544859  0.30666890  1
  Hf  Hf26  1  0.90990902  0.90422919  0.29735528  1
  Hf  Hf27  1  0.61074962  0.38987691  0.60555411  1
  Hf  Hf28  1  0.79733305  0.40172267  -0.00152936  1
  Hf  Hf29  1  0.11050559  0.70077304  0.70435593  1
  Hf  Hf30  1  0.20130167  0.40366340  0.39733977  1
  Hf  Hf31  1  0.79114460  -0.00180517  0.40717277  1
  Hf  Hf32  1  0.39789795  0.79679815  0.60207757  1
  Hf  Hf33  1  0.40028139  0.60785535  0.39770030  1
  Hf  Hf34  1  0.40702023  0.80237158  0.79980676  1
  Hf  Hf35  1  0.48986621  0.31605783  0.09709134  1
  Hf  Hf36  1  0.39769840  0.20523973  0.59519066  1
  Hf  Hf37  1  0.09722370  0.69784655  0.90554825  1
  Hf  Hf38  1  0.20158227  0.59660109  0.20098151  1
  Hf  Hf39  1  0.10670877  0.30266721  0.09990078  1
  Hf  Hf40  1  0.09621768  0.30315790  0.49784218  1
  Hf  Hf41  1  0.29730744  0.69577840  0.70925823  1
  Hf  Hf42  1  0.09403369  0.09386478  0.49585561  1
  Hf  Hf43  1  0.69692712  0.90420713  0.69759448  1
  Hf  Hf44  1  0.59714940  0.60138528  0.80891438  1
  Hf  Hf45  1  0.61806591  0.19243951  0.38732654  1
  Hf  Hf46  1  0.50766571  0.90011735  0.50066182  1
  Hf  Hf47  1  0.40908036  0.59973534  0.19815555  1
  Hf  Hf48  1  0.40531202  0.19927886  0.80138173  1
  Hf  Hf49  1  0.89189224  0.29977598  0.10069223  1
  Zr  Zr50  1  0.30103484  0.51311809  0.70732985  1
  Zr  Zr51  1  0.10312378  0.28835121  0.71575847  1
  Zr  Zr52  1  0.80897537  0.80281266  0.59429150  1
  Zr  Zr53  1  0.39999589  0.19437035  0.00831091  1
  Zr  Zr54  1  0.78678990  0.19536485  -0.01492819  1
  Zr  Zr55  1  0.60670272  0.40634557  0.19574234  1
  Zr  Zr56  1  0.20174566  0.00126733  -0.00141820  1
  Zr  Zr57  1  -0.00707255  0.60226606  0.80009968  1
  Zr  Zr58  1  0.51390649  0.09963262  0.68841035  1
  Zr  Zr59  1  -0.00378615  0.19611080  0.39840152  1
  Zr  Zr60  1  0.50213314  0.10233306  0.90225614  1
  Zr  Zr61  1  0.38702992  0.38765478  0.40806915  1
  Zr  Zr62  1  0.90847881  0.49593144  0.30065018  1
  Zr  Zr63  1  0.89948237  0.29687719  0.50295282  1
  Zr  Zr64  1  0.51160899  0.69392358  0.49916975  1
  Zr  Zr65  1  0.89750096  0.91268556  0.69801350  1
  Zr  Zr66  1  0.09640126  0.08388834  0.28785270  1
  Zr  Zr67  1  0.40122734  0.39900378  0.60166324  1
  Zr  Zr68  1  0.09601686  0.89420398  0.50275608  1
  Zr  Zr69  1  0.60516214  0.60086580  0.19724968  1
  Zr  Zr70  1  -0.00027848  0.39791122  0.00061326  1
  Zr  Zr71  1  0.29533329  0.71416163  0.30206872  1
  Zr  Zr72  1  0.50144299  0.30347929  0.29884995  1
  Zr  Zr73  1  0.10692911  0.50243284  0.70316166  1
  Zr  Zr74  1  -0.00254138  0.39672347  0.79729058  1
  Zr  Zr75  1  0.79876136  0.79662935  0.20774139  1
  Zr  Zr76  1  0.89787601  0.50139863  0.90233676  1
  Zr  Zr77  1  0.69212258  0.69840519  0.69666690  1
  Zr  Zr78  1  -0.00804539  0.79482238  0.41232750  1
  Zr  Zr79  1  0.20285638  -0.00153853  0.78771709  1
  Zr  Zr80  1  0.20264643  -0.00352024  0.60474745  1
  Zr  Zr81  1  0.29785436  0.89192412  0.89527502  1
  Zr  Zr82  1  0.59400703  0.00051310  0.00378470  1
  Zr  Zr83  1  0.09177629  0.89378224  0.89018080  1
  Zr  Zr84  1  0.40850379  0.00200503  0.19554660  1
  Zr  Zr85  1  0.09629087  0.10978214  0.87976958  1
  Zr  Zr86  1  0.70140097  0.70833951  0.09306368  1
  Zr  Zr87  1  0.51430915  0.28911179  0.50060726  1
  Zr  Zr88  1  0.78396101  0.20032540  0.21241326  1
  Zr  Zr89  1  0.89418134  0.89708547  0.89995065  1
  Zr  Zr90  1  0.69424818  0.89340214  0.09642911  1
  Zr  Zr91  1  0.20612956  0.39976680  0.59289326  1
  Zr  Zr92  1  0.20732622  0.60239763  0.00970710  1
  Zr  Zr93  1  0.09726392  0.70623637  0.29574399  1
  Zr  Zr94  1  -0.00281138  0.20156956  0.19598239  1
  Zr  Zr95  1  0.39577694  -0.00676113  0.60652763  1
  Zr  Zr96  1  0.20623447  -0.00165089  0.39364426  1
  Zr  Zr97  1  0.69490172  0.70085769  0.49653467  1
  Zr  Zr98  1  0.31135981  0.71718490  0.10783771  1
  Zr  Zr99  1  0.50687406  0.50322849  0.49998133  1
  Ta  Ta100  1  0.50544954  0.09947494  0.49937575  1
  Ta  Ta101  1  0.70011705  0.50276421  0.89913376  1
  Ta  Ta102  1  0.69619912  0.30324987  0.09684372  1
  Ta  Ta103  1  0.60158107  0.40742039  -0.00043789  1
  Ta  Ta104  1  0.49997807  0.69352603  0.70334334  1
  Ta  Ta105  1  0.90460917  0.70301578  0.09707425  1
  Ta  Ta106  1  0.19720964  0.60480462  0.58473691  1
  Ta  Ta107  1  0.79914099  0.60301722  0.00117195  1
  Ta  Ta108  1  0.89211055  0.49527618  0.70085430  1
  Ta  Ta109  1  0.89047147  0.10566686  0.70426148  1
  Ta  Ta110  1  0.40086186  0.19717555  0.20095171  1
  Ta  Ta111  1  0.88873905  0.09540451  0.51232022  1
  Ta  Ta112  1  0.20719847  0.20142277  0.39559606  1
  Ta  Ta113  1  0.09362803  0.50572017  0.10044767  1
  Ta  Ta114  1  0.30678201  0.50680832  0.90222486  1
  Ta  Ta115  1  0.00205885  0.59832563  0.40804741  1
  Ta  Ta116  1  0.79326442  -0.00137167  -0.00568004  1
  Ta  Ta117  1  0.19904181  0.19760153  0.00185522  1
  Ta  Ta118  1  0.50028607  0.88885349  0.10195047  1
  Ta  Ta119  1  0.79934431  0.39375651  0.60356761  1
  Ta  Ta120  1  0.10138240  0.09712521  0.10150303  1
  Ta  Ta121  1  0.50629904  0.71024053  0.09857502  1
  Ta  Ta122  1  0.80281794  0.59804453  0.19761134  1
  Ta  Ta123  1  0.89732596  0.29206240  0.88933381  1
  Ta  Ta124  1  0.89816719  0.30713230  0.30234799  1
  Ta  Ta125  1  0.59901538  0.59881081  0.00158945  1
  Ta  Ta126  1  0.40281970  -0.00708842  0.80022825  1
  Ta  Ta127  1  0.29857210  0.10163268  0.29240523  1
  Ta  Ta128  1  0.69920475  0.70438888  0.90273286  1
  Ta  Ta129  1  0.79362921  -0.00315951  0.19498798  1
  Ta  Ta130  1  0.39935023  -0.00520649  0.00265464  1
  Ta  Ta131  1  0.80546351  0.59480575  0.60191015  1
  Ta  Ta132  1  0.08847881  0.70508670  0.10310363  1
  Ta  Ta133  1  0.10452574  0.29683489  0.90058617  1
  Ta  Ta134  1  0.51462170  0.29888002  0.70795289  1
  Ta  Ta135  1  0.30527490  0.09923262  0.49379936  1
  Ta  Ta136  1  0.69495190  0.88809291  0.89945005  1
  Ta  Ta137  1  0.19205135  0.60052541  0.40323475  1
  Ta  Ta138  1  0.50992988  0.30722027  0.90120381  1
  Ta  Ta139  1  0.78992807  0.01034741  0.80453808  1
  Ta  Ta140  1  0.79770674  0.79337949  0.79855254  1
  Ta  Ta141  1  0.49850878  0.50095564  0.90629372  1
  Ta  Ta142  1  0.89963413  0.89229099  0.09440540  1
  Ta  Ta143  1  0.39864062  0.19356315  0.39389309  1
  Ta  Ta144  1  0.00044095  0.20023419  -0.00538114  1
  Ta  Ta145  1  0.29491543  0.09870245  0.10456861  1
  Ta  Ta146  1  0.90279266  0.69810925  0.29705381  1
  Ta  Ta147  1  0.30084570  0.51014130  0.49685117  1
  Ta  Ta148  1  0.80311413  0.60803497  0.80168037  1
  Ta  Ta149  1  0.10589497  0.50461104  0.90713084  1
  Ti  Ti150  1  0.90288299  0.50846911  0.09898169  1
  Ti  Ti151  1  0.50802097  0.89679458  0.69996090  1
  Ti  Ti152  1  0.40685836  0.80091609  0.39259073  1
  Ti  Ti153  1  -0.00208347  0.40352256  0.19532584  1
  Ti  Ti154  1  -0.00447603  0.79280486  0.60038528  1
  Ti  Ti155  1  0.09666468  0.89592078  0.70167878  1
  Ti  Ti156  1  0.20027872  0.40750827  0.81121772  1
  Ti  Ti157  1  0.39877248  0.60335979  0.59775851  1
  Ti  Ti158  1  0.89782140  0.70483967  0.91553642  1
  Ti  Ti159  1  0.60249420  0.20291633  0.00127261  1
  Ti  Ti160  1  0.61768874  0.38922498  0.40038432  1
  Ti  Ti161  1  0.79063053  0.20083079  0.40206656  1
  Ti  Ti162  1  0.29254583  0.70405843  0.49315594  1
  Ti  Ti163  1  0.40445842  0.80740447  -0.00291039  1
  Ti  Ti164  1  0.09351502  0.49914976  0.29930535  1
  Ti  Ti165  1  0.89809293  0.10337149  0.88826939  1
  Ti  Ti166  1  0.09276197  0.49575299  0.49672664  1
  Ti  Ti167  1  0.29322887  0.89254537  0.28207631  1
  Ti  Ti168  1  0.20034143  0.40411197  0.00103265  1
  Ti  Ti169  1  -0.00291983  0.60084583  0.19971644  1
  Ti  Ti170  1  0.70052186  0.31615421  0.88782451  1
  Ti  Ti171  1  0.50947110  0.70866127  0.29538110  1
  Ti  Ti172  1  0.69742559  0.09787325  0.09778070  1
  Ti  Ti173  1  0.30171417  0.69405792  0.89380418  1
  Ti  Ti174  1  0.69876439  0.69999595  0.30363404  1
  Ti  Ti175  1  0.79481006  0.40426625  0.20225180  1
  Ti  Ti176  1  0.69602499  0.10479310  0.52231648  1
  Ti  Ti177  1  0.59698428  0.00610303  0.20110918  1
  Ti  Ti178  1  0.50839494  0.88950213  0.28971195  1
  Ti  Ti179  1  0.50452627  0.50622875  0.70232137  1
  Ti  Ti180  1  0.69613162  0.89859876  0.29416036  1
  Ti  Ti181  1  0.59611212  0.79922787  0.60376369  1
  Ti  Ti182  1  0.89678286  0.69500338  0.50004102  1
  Ti  Ti183  1  0.40979756  0.60445004  0.00009075  1
  Ti  Ti184  1  0.30528335  0.49826654  0.29970022  1
  Ti  Ti185  1  0.29977475  0.10047283  0.89698701  1
  Ti  Ti186  1  0.20136310  0.79815300  0.59991729  1
  Ti  Ti187  1  0.50491169  0.70762561  0.90371402  1
  Ti  Ti188  1  0.69568859  0.90443665  0.51056295  1
  Ti  Ti189  1  0.30067745  0.29936775  0.28932434  1
  Ti  Ti190  1  0.70007989  0.50346916  0.30443691  1
  Ti  Ti191  1  0.20227811  0.19740146  0.19852407  1
  Ti  Ti192  1  -0.00186063  0.00421128  0.60482755  1
  Ti  Ti193  1  0.60696499  0.80379895  0.39552631  1
  Ti  Ti194  1  0.20216357  0.40776900  0.19975909  1
  Ti  Ti195  1  0.29997942  0.30244341  0.10360300  1
  Ti  Ti196  1  0.30394913  0.10268570  0.70494721  1
  Ti  Ti197  1  -0.00917987  0.40283278  0.60211723  1
  Ti  Ti198  1  0.70458074  0.50296404  0.09572408  1
  Ti  Ti199  1  0.80139607  0.80661921  0.40321961  1
  Mo  Mo200  1  0.60528011  0.60323046  0.38428660  1
  Mo  Mo201  1  -0.00622335  0.00620799  0.78876377  1
  Mo  Mo202  1  0.60107631  -0.00135210  0.59515491  1
  Mo  Mo203  1  0.79335841  0.00716570  0.60202378  1
  Mo  Mo204  1  -0.01060795  0.19992840  0.80131712  1
  Mo  Mo205  1  0.89260049  0.69535120  0.69415939  1
  Mo  Mo206  1  0.59776434  0.59505116  0.61655860  1
  Mo  Mo207  1  -0.00411458  0.60111506  0.00823352  1
  Mo  Mo208  1  0.49764669  0.10171863  0.10064233  1
  Mo  Mo209  1  0.10290174  0.69987533  0.50308186  1
  Mo  Mo210  1  0.70617314  0.09909110  0.69581283  1
  Mo  Mo211  1  0.90252148  0.49777122  0.50794676  1
  Mo  Mo212  1  0.79378450  0.20290349  0.60757187  1
  Mo  Mo213  1  0.60648992  0.19979307  0.60224012  1
  Mo  Mo214  1  0.19952001  0.79771537  0.39850830  1
  Mo  Mo215  1  0.80068611  0.79854937  -0.00739581  1
  Mo  Mo216  1  0.50119493  0.50785386  0.09165179  1
  Mo  Mo217  1  0.29841659  0.88912586  0.70100410  1
  Mo  Mo218  1  0.79899997  0.20392107  0.79593246  1
  Mo  Mo219  1  0.00094864  0.40568316  0.39965087  1
  Mo  Mo220  1  0.70700976  0.31102637  0.29838089  1
  Mo  Mo221  1  0.49781221  0.10241673  0.30008510  1
  Mo  Mo222  1  0.20379144  0.60017931  0.81632466  1
  Mo  Mo223  1  0.39323414  0.39720460  0.20635164  1
  Mo  Mo224  1  0.70831578  0.29734247  0.70145988  1
  Mo  Mo225  1  -0.00258588  0.79857134  0.00158210  1
  Mo  Mo226  1  0.49699688  0.89772185  0.90485787  1
  Mo  Mo227  1  0.19796214  0.80385994  0.19637346  1
  Mo  Mo228  1  0.70642489  0.28936109  0.50268947  1
  Mo  Mo229  1  0.59290685  0.79739324  -0.00660257  1
  Mo  Mo230  1  0.70089021  0.08316581  0.28890975  1
  Mo  Mo231  1  0.20030271  0.79680994  0.79711306  1
  Mo  Mo232  1  0.89149813  0.30230539  0.70279069  1
  Mo  Mo233  1  -0.01306614  -0.00231003  0.41829725  1
  Mo  Mo234  1  0.59930416  0.40128440  0.80414856  1
  Mo  Mo235  1  0.21147480  -0.00278183  0.19457584  1
  Mo  Mo236  1  0.08665979  0.09358257  0.69830111  1
  Mo  Mo237  1  0.79809999  0.39863696  0.79913216  1
  Mo  Mo238  1  -0.01492340  -0.00090154  0.18418667  1
  Mo  Mo239  1  0.40944558  0.80407178  0.20281544  1
  Mo  Mo240  1  0.60062518  0.79928686  0.20696467  1
  Mo  Mo241  1  0.29433878  0.28919049  0.49257115  1
  Mo  Mo242  1  0.59775488  0.79924446  0.80236101  1
  Mo  Mo243  1  -0.00666459  0.79711150  0.19680559  1
  Mo  Mo244  1  0.40387806  0.39977449  -0.00600460  1
  Mo  Mo245  1  0.21029316  0.19565784  0.80669608  1
  Mo  Mo246  1  0.30612718  0.90454014  0.10052040  1
  Mo  Mo247  1  0.40692026  0.60402996  0.81178122  1
  Mo  Mo248  1  0.89985574  0.90961950  0.50303790  1
  Mo  Mo249  1  0.69946965  0.09231272  0.90327791  1
