# generated using pymatgen
data_HfZrTaTiMo
_symmetry_space_group_name_H-M   'P 1'
_cell_length_a   16.89652911
_cell_length_b   16.89366048
_cell_length_c   16.89232161
_cell_angle_alpha   90.00986160
_cell_angle_beta   90.00756299
_cell_angle_gamma   89.93659694
_symmetry_Int_Tables_number   1
_chemical_formula_structural   HfZrTaTiMo
_chemical_formula_sum   'Hf50 Zr50 Ta50 Ti50 Mo50'
_cell_volume   4821.81260375
_cell_formula_units_Z   50
loop_
 _symmetry_equiv_pos_site_id
 _symmetry_equiv_pos_as_xyz
  1  'x, y, z'
loop_
 _atom_site_type_symbol
 _atom_site_label
 _atom_site_symmetry_multiplicity
 _atom_site_fract_x
 _atom_site_fract_y
 _atom_site_fract_z
 _atom_site_occupancy
  Hf  Hf0  1  0.60130074  0.40547168  0.20709474  1
  Hf  Hf1  1  0.20099076  0.20077685  0.79368305  1
  Hf  Hf2  1  0.80464412  0.59457337  0.19744463  1
  Hf  Hf3  1  0.80238240  -0.00551269  0.39534989  1
  Hf  Hf4  1  0.70075610  0.50023952  0.70471920  1
  Hf  Hf5  1  0.09662372  0.09222354  0.89539459  1
  Hf  Hf6  1  0.20239851  0.40275536  0.40219266  1
  Hf  Hf7  1  -0.00218624  0.20050027  -0.00266715  1
  Hf  Hf8  1  0.80595243  -0.00519730  0.59364740  1
  Hf  Hf9  1  0.19668566  -0.00386040  0.59036900  1
  Hf  Hf10  1  0.30590344  0.89089398  0.69449075  1
  Hf  Hf11  1  0.09455811  0.31278358  0.09326824  1
  Hf  Hf12  1  0.89947769  0.09634468  0.70607535  1
  Hf  Hf13  1  -0.00896783  0.19808051  0.20058179  1
  Hf  Hf14  1  0.39915652  0.59636217  0.79509214  1
  Hf  Hf15  1  0.60582193  0.81077209  0.20466742  1
  Hf  Hf16  1  0.58829987  0.41013424  0.79571737  1
  Hf  Hf17  1  0.19617025  0.41169200  0.19969251  1
  Hf  Hf18  1  0.79095390  -0.00746245  0.80149543  1
  Hf  Hf19  1  0.70252669  0.29583258  0.89196369  1
  Hf  Hf20  1  0.79827206  0.19305791  -0.00017808  1
  Hf  Hf21  1  0.30720968  0.69686752  0.09809647  1
  Hf  Hf22  1  0.90877294  0.70991428  0.50806892  1
  Hf  Hf23  1  0.70088233  0.29797422  0.70031370  1
  Hf  Hf24  1  0.39970073  0.40270339  0.40095829  1
  Hf  Hf25  1  0.10624449  0.49744512  0.70617398  1
  Hf  Hf26  1  0.79872032  0.40982947  0.00466472  1
  Hf  Hf27  1  0.08814566  0.88542478  0.50193023  1
  Hf  Hf28  1  0.50140230  0.10139704  0.49107081  1
  Hf  Hf29  1  0.80129961  0.80534886  0.39449934  1
  Hf  Hf30  1  0.20377287  0.41130599  0.00002064  1
  Hf  Hf31  1  0.20879634  0.21002121  0.19235698  1
  Hf  Hf32  1  0.69447592  0.29108335  0.10769882  1
  Hf  Hf33  1  0.29811159  0.10155427  0.90654618  1
  Hf  Hf34  1  0.40309968  -0.01306099  0.58431196  1
  Hf  Hf35  1  0.40868299  -0.00452584  -0.00062380  1
  Hf  Hf36  1  0.60425493  -0.00232956  0.39289315  1
  Hf  Hf37  1  0.30386077  0.91362895  0.30646296  1
  Hf  Hf38  1  0.00635398  0.58990338  0.19492667  1
  Hf  Hf39  1  0.69558087  0.69681844  0.09985676  1
  Hf  Hf40  1  -0.00375689  0.39682379  0.80069626  1
  Hf  Hf41  1  0.47233111  0.32173878  0.69478003  1
  Hf  Hf42  1  0.60806955  0.41211034  0.00183592  1
  Hf  Hf43  1  0.50198073  0.69697697  0.09279749  1
  Hf  Hf44  1  0.49442708  0.30096240  0.90516727  1
  Hf  Hf45  1  0.49765714  0.30160819  0.10570586  1
  Hf  Hf46  1  0.00169551  0.60333012  0.39141100  1
  Hf  Hf47  1  0.91743327  0.89919458  0.89014952  1
  Hf  Hf48  1  0.89966217  0.50016029  0.50486611  1
  Hf  Hf49  1  0.49839859  0.69804442  0.90639932  1
  Zr  Zr50  1  0.90185487  0.30931677  0.10435985  1
  Zr  Zr51  1  0.19733938  0.19636466  0.59545656  1
  Zr  Zr52  1  0.79085183  0.00095656  0.20635546  1
  Zr  Zr53  1  0.58397240  0.19515902  0.79134488  1
  Zr  Zr54  1  0.49993547  0.69998440  0.30418905  1
  Zr  Zr55  1  0.09213887  0.30184840  0.29691044  1
  Zr  Zr56  1  -0.00551516  0.20593513  0.79702015  1
  Zr  Zr57  1  0.39193751  0.40746988  0.00523112  1
  Zr  Zr58  1  0.10077608  0.50402166  0.51164933  1
  Zr  Zr59  1  0.60104306  0.81647804  -0.00678275  1
  Zr  Zr60  1  0.59226938  0.59362845  0.60767544  1
  Zr  Zr61  1  0.60250018  0.59613700  0.40130520  1
  Zr  Zr62  1  0.89987685  0.08995325  0.90157882  1
  Zr  Zr63  1  0.40820637  -0.00019085  0.79854329  1
  Zr  Zr64  1  0.39625409  0.19724699  0.79286265  1
  Zr  Zr65  1  0.20280273  0.79466550  -0.00752860  1
  Zr  Zr66  1  0.01906511  0.79966997  0.00191721  1
  Zr  Zr67  1  0.90393222  0.48491671  0.29671814  1
  Zr  Zr68  1  0.40278187  0.80432763  0.20304327  1
  Zr  Zr69  1  0.79937743  0.60718282  0.60213902  1
  Zr  Zr70  1  0.38787201  0.59873385  0.60074799  1
  Zr  Zr71  1  0.69671026  0.29666827  0.49539994  1
  Zr  Zr72  1  0.09657889  0.88685653  0.69666174  1
  Zr  Zr73  1  0.68996193  0.89766027  0.50658062  1
  Zr  Zr74  1  0.89935104  0.89828953  0.09967704  1
  Zr  Zr75  1  0.10395368  0.09862548  0.09793922  1
  Zr  Zr76  1  0.80326618  0.60697459  0.39753608  1
  Zr  Zr77  1  0.69730576  0.10835117  0.49890658  1
  Zr  Zr78  1  0.50914304  0.10595608  0.10124922  1
  Zr  Zr79  1  0.69459998  0.10117418  0.69367578  1
  Zr  Zr80  1  0.00065083  0.19696463  0.59394003  1
  Zr  Zr81  1  0.30448027  0.10001059  0.48841394  1
  Zr  Zr82  1  0.10495400  0.70143594  0.29364027  1
  Zr  Zr83  1  0.20885672  0.60135391  0.80253629  1
  Zr  Zr84  1  0.79438650  0.79692872  0.80650882  1
  Zr  Zr85  1  0.10087002  0.10006715  0.30243629  1
  Zr  Zr86  1  0.79629429  0.80248506  -0.00639828  1
  Zr  Zr87  1  0.20190752  0.80644617  0.19384893  1
  Zr  Zr88  1  0.20853855  0.80088934  0.40384109  1
  Zr  Zr89  1  0.69217089  0.70131317  0.70639015  1
  Zr  Zr90  1  0.19625621  -0.01866807  0.00297385  1
  Zr  Zr91  1  0.49776780  0.70310569  0.50098995  1
  Zr  Zr92  1  0.79983671  0.59720350  0.00279451  1
  Zr  Zr93  1  0.89895918  0.50414361  0.70873559  1
  Zr  Zr94  1  0.21294618  0.59923333  0.40916092  1
  Zr  Zr95  1  0.49909469  0.51098115  0.09946102  1
  Zr  Zr96  1  0.30268621  0.10293147  0.30152449  1
  Zr  Zr97  1  0.00441527  0.39695534  0.40163050  1
  Zr  Zr98  1  0.09905536  0.70166634  0.51045672  1
  Zr  Zr99  1  0.20177901  -0.01359273  0.80364845  1
  Ta  Ta100  1  0.59477816  0.39751637  0.40162438  1
  Ta  Ta101  1  0.10358298  0.30355520  0.70070937  1
  Ta  Ta102  1  0.20475582  0.78825327  0.80520882  1
  Ta  Ta103  1  0.40079665  0.59912220  0.20612162  1
  Ta  Ta104  1  0.79650996  0.39991862  0.20213904  1
  Ta  Ta105  1  -0.00606190  -0.00439000  0.40209706  1
  Ta  Ta106  1  0.89776148  0.30004523  0.49711048  1
  Ta  Ta107  1  -0.01360318  0.80432075  0.38328899  1
  Ta  Ta108  1  0.18890109  -0.00275570  0.40652081  1
  Ta  Ta109  1  0.00476196  0.60714258  0.61996766  1
  Ta  Ta110  1  0.49944897  0.10600684  0.29922535  1
  Ta  Ta111  1  0.50286374  0.89515010  0.69266255  1
  Ta  Ta112  1  0.90794636  0.70206658  0.10242644  1
  Ta  Ta113  1  0.80926015  0.20496874  0.60281476  1
  Ta  Ta114  1  0.29682289  0.30903312  0.89090648  1
  Ta  Ta115  1  0.70223603  0.70012518  0.29744342  1
  Ta  Ta116  1  0.30498763  0.50509828  0.29837853  1
  Ta  Ta117  1  0.80261243  0.80402489  0.60401922  1
  Ta  Ta118  1  0.90668667  0.89429781  0.70088481  1
  Ta  Ta119  1  0.09664274  0.09049980  0.69874368  1
  Ta  Ta120  1  0.10310982  0.30724397  0.90001163  1
  Ta  Ta121  1  0.50226480  0.29698902  0.29837121  1
  Ta  Ta122  1  0.59199616  -0.00176595  0.79885087  1
  Ta  Ta123  1  0.69125788  0.90044203  0.69739333  1
  Ta  Ta124  1  0.20596244  0.39454621  0.60049028  1
  Ta  Ta125  1  0.90686053  0.50371325  0.90250228  1
  Ta  Ta126  1  -0.00431136  -0.00482421  0.20457191  1
  Ta  Ta127  1  0.70002508  0.49132075  0.50023595  1
  Ta  Ta128  1  0.09538369  0.50033631  0.90068677  1
  Ta  Ta129  1  0.70204413  0.49623001  0.30689608  1
  Ta  Ta130  1  0.39759617  0.20495777  0.19841304  1
  Ta  Ta131  1  0.49691824  0.90720667  0.30490894  1
  Ta  Ta132  1  0.40105417  0.79499122  0.80226441  1
  Ta  Ta133  1  0.59169137  0.39940532  0.59556051  1
  Ta  Ta134  1  0.59446396  0.80823928  0.80436225  1
  Ta  Ta135  1  0.31077132  0.46980465  0.70661507  1
  Ta  Ta136  1  0.91449995  0.69247218  0.90112698  1
  Ta  Ta137  1  -0.00358564  -0.00227866  0.59237041  1
  Ta  Ta138  1  0.90016812  0.10047469  0.30320510  1
  Ta  Ta139  1  0.30301110  0.09883884  0.09921338  1
  Ta  Ta140  1  0.49456399  0.49713440  0.49954698  1
  Ta  Ta141  1  -0.00320670  0.39243333  0.60555980  1
  Ta  Ta142  1  0.80237363  0.39472550  0.60061767  1
  Ta  Ta143  1  0.40523058  0.00626427  0.19821765  1
  Ta  Ta144  1  0.09474307  0.90112727  0.29805424  1
  Ta  Ta145  1  0.58056688  0.20735795  0.59965471  1
  Ta  Ta146  1  0.30079103  0.09508073  0.69163735  1
  Ta  Ta147  1  0.19761733  0.59883843  -0.00116635  1
  Ta  Ta148  1  0.30475689  0.29924827  0.50203231  1
  Ta  Ta149  1  0.39753276  0.80887497  0.41411572  1
  Ti  Ti150  1  0.80544303  0.60610600  0.80777869  1
  Ti  Ti151  1  0.40409589  0.21083890  0.39757627  1
  Ti  Ti152  1  0.19945781  -0.00154135  0.19767766  1
  Ti  Ti153  1  0.90620084  0.70465328  0.71008286  1
  Ti  Ti154  1  0.89593391  0.09118895  0.10068740  1
  Ti  Ti155  1  0.80514361  0.80115396  0.20709475  1
  Ti  Ti156  1  0.38210112  0.59442441  -0.01263375  1
  Ti  Ti157  1  0.79823236  0.39278926  0.39773316  1
  Ti  Ti158  1  0.21635287  0.78524594  0.59922883  1
  Ti  Ti159  1  0.49940828  0.10381690  0.90627545  1
  Ti  Ti160  1  0.01779155  0.78152258  0.80159267  1
  Ti  Ti161  1  0.60160787  0.80438376  0.39598871  1
  Ti  Ti162  1  0.69569617  0.29589188  0.30214514  1
  Ti  Ti163  1  0.01107402  -0.01063145  0.00657362  1
  Ti  Ti164  1  0.80659719  0.20400199  0.39361731  1
  Ti  Ti165  1  0.21184619  0.59998167  0.60988122  1
  Ti  Ti166  1  0.68560526  0.68781048  0.89917983  1
  Ti  Ti167  1  0.60303574  0.19780861  -0.00352738  1
  Ti  Ti168  1  0.78795429  -0.00107565  -0.00432225  1
  Ti  Ti169  1  0.30738609  0.69510899  0.30360632  1
  Ti  Ti170  1  0.60484025  0.59475059  0.20368672  1
  Ti  Ti171  1  0.19657183  0.20285036  0.40240127  1
  Ti  Ti172  1  0.09989469  0.29859308  0.50194898  1
  Ti  Ti173  1  0.39809912  0.20035397  0.59991129  1
  Ti  Ti174  1  0.31276705  0.88888566  0.90288974  1
  Ti  Ti175  1  0.00686088  0.59573960  0.00420720  1
  Ti  Ti176  1  0.70006728  0.90633489  0.10007705  1
  Ti  Ti177  1  0.30062665  0.50870821  0.11148218  1
  Ti  Ti178  1  0.49408304  0.50138021  0.30238750  1
  Ti  Ti179  1  0.60450767  0.00006003  -0.01167465  1
  Ti  Ti180  1  0.30746809  0.30792916  0.29511302  1
  Ti  Ti181  1  0.60107049  0.00067754  0.20520998  1
  Ti  Ti182  1  0.10513485  0.69353064  0.10417614  1
  Ti  Ti183  1  0.80305815  0.20113311  0.20694837  1
  Ti  Ti184  1  0.69704773  0.10425022  0.89062265  1
  Ti  Ti185  1  0.69447384  0.10138176  0.10451048  1
  Ti  Ti186  1  0.69043651  0.11774201  0.29876072  1
  Ti  Ti187  1  0.59467437  0.80084623  0.60085301  1
  Ti  Ti188  1  0.20569436  0.21006129  0.00096649  1
  Ti  Ti189  1  0.30917427  0.90198690  0.10003008  1
  Ti  Ti190  1  0.50342614  0.51094029  0.90042220  1
  Ti  Ti191  1  0.49846644  0.70502068  0.70335233  1
  Ti  Ti192  1  0.69842360  0.70358192  0.50055336  1
  Ti  Ti193  1  0.38816198  0.20622477  0.00695568  1
  Ti  Ti194  1  -0.00280032  0.19766229  0.40135719  1
  Ti  Ti195  1  0.80461960  0.39720204  0.79970892  1
  Ti  Ti196  1  0.69794204  0.51014518  0.89166561  1
  Ti  Ti197  1  0.50184066  0.90323590  0.10082020  1
  Ti  Ti198  1  0.90015712  0.10290629  0.49407179  1
  Ti  Ti199  1  0.89556591  0.30302199  0.90139156  1
  Mo  Mo200  1  0.90663571  0.49832004  0.09572532  1
  Mo  Mo201  1  0.29971723  0.49716731  0.50430653  1
  Mo  Mo202  1  0.39392212  0.40204334  0.58415601  1
  Mo  Mo203  1  0.89919237  0.70677197  0.28569378  1
  Mo  Mo204  1  0.49516412  0.09075580  0.68449277  1
  Mo  Mo205  1  0.59181512  0.60269058  0.80253306  1
  Mo  Mo206  1  0.11110644  0.69434021  0.70171574  1
  Mo  Mo207  1  0.29620889  0.89613465  0.49860248  1
  Mo  Mo208  1  0.39899034  0.59895053  0.39855672  1
  Mo  Mo209  1  0.49593906  0.49911356  0.69645042  1
  Mo  Mo210  1  0.09876828  0.90056700  0.11718166  1
  Mo  Mo211  1  0.00398475  0.60287576  0.80613610  1
  Mo  Mo212  1  0.40263061  0.79720207  0.60214054  1
  Mo  Mo213  1  0.29511578  0.50110142  0.89675418  1
  Mo  Mo214  1  0.20633400  0.59914472  0.19837613  1
  Mo  Mo215  1  0.39662046  0.40236351  0.20772907  1
  Mo  Mo216  1  0.69683919  0.89463414  0.29886426  1
  Mo  Mo217  1  -0.00162937  0.40751472  -0.00650361  1
  Mo  Mo218  1  0.49484340  0.29893901  0.49796240  1
  Mo  Mo219  1  0.59965081  0.20101899  0.20578643  1
  Mo  Mo220  1  0.40192633  0.80609999  -0.00023715  1
  Mo  Mo221  1  0.29599849  0.29699142  0.69547886  1
  Mo  Mo222  1  0.30100958  0.29960207  0.09859394  1
  Mo  Mo223  1  0.89672949  0.30060421  0.69594898  1
  Mo  Mo224  1  0.10034440  0.50627656  0.09364534  1
  Mo  Mo225  1  -0.00719287  0.79422618  0.61417382  1
  Mo  Mo226  1  0.40709847  -0.00251818  0.39527032  1
  Mo  Mo227  1  0.60739962  0.59540344  -0.00359935  1
  Mo  Mo228  1  0.10101088  0.69052096  0.90040539  1
  Mo  Mo229  1  0.09198704  0.09541383  0.49406288  1
  Mo  Mo230  1  0.89066498  0.29336290  0.30385203  1
  Mo  Mo231  1  0.59559473  0.20466580  0.39563070  1
  Mo  Mo232  1  0.90032345  0.90375577  0.29592408  1
  Mo  Mo233  1  0.19729336  0.39678111  0.80202392  1
  Mo  Mo234  1  0.69317860  0.91278154  0.89502869  1
  Mo  Mo235  1  0.90215663  0.89757444  0.50437192  1
  Mo  Mo236  1  0.09828775  0.89366698  0.88786561  1
  Mo  Mo237  1  -0.00150736  0.40571945  0.19369168  1
  Mo  Mo238  1  0.70109633  0.50048235  0.11313551  1
  Mo  Mo239  1  0.30575065  0.69932718  0.50551331  1
  Mo  Mo240  1  0.79996943  0.20323183  0.80106019  1
  Mo  Mo241  1  0.59227457  0.00283794  0.60407672  1
  Mo  Mo242  1  0.39676016  0.40731769  0.81817260  1
  Mo  Mo243  1  0.30569165  0.69994708  0.90231792  1
  Mo  Mo244  1  0.00248955  -0.00422664  0.79061253  1
  Mo  Mo245  1  0.30424976  0.70835561  0.70230499  1
  Mo  Mo246  1  0.49935956  0.90110162  0.89317852  1
  Mo  Mo247  1  0.10951120  0.50354592  0.29317417  1
  Mo  Mo248  1  0.50379495  0.89561710  0.49664689  1
  Mo  Mo249  1  -0.00129771  0.79690882  0.19833101  1
