# generated using pymatgen
data_HfZrTaTiMo
_symmetry_space_group_name_H-M   'P 1'
_cell_length_a   16.88348618
_cell_length_b   16.88431193
_cell_length_c   16.88080146
_cell_angle_alpha   90.03263168
_cell_angle_beta   90.02150174
_cell_angle_gamma   90.04971663
_symmetry_Int_Tables_number   1
_chemical_formula_structural   HfZrTaTiMo
_chemical_formula_sum   'Hf50 Zr50 Ta50 Ti50 Mo50'
_cell_volume   4812.14041194
_cell_formula_units_Z   50
loop_
 _symmetry_equiv_pos_site_id
 _symmetry_equiv_pos_as_xyz
  1  'x, y, z'
loop_
 _atom_site_type_symbol
 _atom_site_label
 _atom_site_symmetry_multiplicity
 _atom_site_fract_x
 _atom_site_fract_y
 _atom_site_fract_z
 _atom_site_occupancy
  Hf  Hf0  1  -0.00279726  0.80284641  0.40632552  1
  Hf  Hf1  1  0.29002199  0.29058338  0.09936712  1
  Hf  Hf2  1  0.09595622  0.09891553  0.69677710  1
  Hf  Hf3  1  -0.00246940  0.19627461  0.20065153  1
  Hf  Hf4  1  -0.00239741  0.19444683  0.40813338  1
  Hf  Hf5  1  0.40263741  0.80812602  0.41010523  1
  Hf  Hf6  1  0.20754527  0.18637583  0.39987801  1
  Hf  Hf7  1  0.80601146  0.19235627  -0.00349219  1
  Hf  Hf8  1  0.81447301  0.01183801  0.59911479  1
  Hf  Hf9  1  0.71128109  0.49938185  0.31032037  1
  Hf  Hf10  1  0.29967179  0.10640685  0.09994967  1
  Hf  Hf11  1  0.69971801  0.50287859  0.69291620  1
  Hf  Hf12  1  0.39391661  -0.00634893  -0.00193900  1
  Hf  Hf13  1  0.39981869  0.59531324  0.40519987  1
  Hf  Hf14  1  0.81004696  0.20294910  0.59953988  1
  Hf  Hf15  1  0.69894339  0.90332123  0.30033094  1
  Hf  Hf16  1  0.60489419  -0.00072400  0.80565623  1
  Hf  Hf17  1  0.39344056  0.80075421  0.19474809  1
  Hf  Hf18  1  0.70576731  0.89685066  0.50045543  1
  Hf  Hf19  1  0.59014937  0.39876077  0.79897801  1
  Hf  Hf20  1  0.30029906  0.29325364  0.50171348  1
  Hf  Hf21  1  0.29680609  0.69259472  0.30521826  1
  Hf  Hf22  1  0.59708755  0.20075608  0.80554141  1
  Hf  Hf23  1  0.40090784  0.40117074  0.59743739  1
  Hf  Hf24  1  0.81144177  0.39327539  -0.00793389  1
  Hf  Hf25  1  0.89701725  0.50431936  0.50467998  1
  Hf  Hf26  1  0.48811598  0.89153603  0.69521605  1
  Hf  Hf27  1  0.49931338  0.89647656  0.89680147  1
  Hf  Hf28  1  0.49546010  0.09498917  0.29644194  1
  Hf  Hf29  1  0.49569044  0.50721351  0.29253475  1
  Hf  Hf30  1  0.10938147  0.69571787  0.90339180  1
  Hf  Hf31  1  0.61332692  0.79559942  0.79882879  1
  Hf  Hf32  1  0.70704757  0.89613716  0.69062419  1
  Hf  Hf33  1  0.38729158  0.80246685  -0.00060417  1
  Hf  Hf34  1  0.90047459  0.50151099  0.30306364  1
  Hf  Hf35  1  0.11382734  0.70365255  0.50225431  1
  Hf  Hf36  1  0.81276846  0.20731383  0.79386195  1
  Hf  Hf37  1  0.40001770  0.40023358  0.80355025  1
  Hf  Hf38  1  0.60408692  0.60674806  0.41009780  1
  Hf  Hf39  1  0.29179212  0.10655455  0.90444060  1
  Hf  Hf40  1  0.60180078  0.19905372  0.20482180  1
  Hf  Hf41  1  0.29017069  0.50226181  0.69852956  1
  Hf  Hf42  1  0.40212103  0.20228387  0.80232805  1
  Hf  Hf43  1  0.80305452  0.80377726  0.80090604  1
  Hf  Hf44  1  0.20170062  -0.01079390  -0.00365364  1
  Hf  Hf45  1  0.19993400  0.39736872  0.39814412  1
  Hf  Hf46  1  0.39214269  0.61054342  0.80195860  1
  Hf  Hf47  1  0.80674540  0.39428012  0.60348046  1
  Hf  Hf48  1  0.90571091  0.70059771  0.90148648  1
  Hf  Hf49  1  -0.00645311  0.00058125  0.20931308  1
  Zr  Zr50  1  0.50021867  0.90586958  0.29236510  1
  Zr  Zr51  1  0.80036113  0.60504863  0.79356339  1
  Zr  Zr52  1  0.90593319  0.69623270  0.10358810  1
  Zr  Zr53  1  0.10348037  0.90583411  0.31620238  1
  Zr  Zr54  1  0.70151168  0.49490670  0.89192325  1
  Zr  Zr55  1  0.09788934  0.69693677  0.09959669  1
  Zr  Zr56  1  0.18839849  0.20788879  0.79604510  1
  Zr  Zr57  1  0.10502375  0.69648986  0.30864369  1
  Zr  Zr58  1  0.20614949  0.80615810  0.19896614  1
  Zr  Zr59  1  0.59366998  -0.00136164  0.59392091  1
  Zr  Zr60  1  0.70251430  0.70047271  0.09341806  1
  Zr  Zr61  1  0.50267614  0.09518487  0.10057646  1
  Zr  Zr62  1  0.00248456  0.60971833  0.79281270  1
  Zr  Zr63  1  0.28949941  0.70261822  0.50078757  1
  Zr  Zr64  1  0.81040993  0.00404015  0.40014757  1
  Zr  Zr65  1  0.70876712  0.29851125  0.30630603  1
  Zr  Zr66  1  0.49292432  0.09454529  0.69739829  1
  Zr  Zr67  1  -0.00135690  0.39303276  0.40764984  1
  Zr  Zr68  1  0.59667233  0.00306467  0.40387010  1
  Zr  Zr69  1  0.70388052  0.29269762  0.09777360  1
  Zr  Zr70  1  0.28609670  0.50906322  0.90323064  1
  Zr  Zr71  1  0.10267972  0.28486076  0.51375009  1
  Zr  Zr72  1  0.40444115  0.39666684  0.19143335  1
  Zr  Zr73  1  0.59650619  0.40115709  0.40463403  1
  Zr  Zr74  1  0.89402330  0.30276644  0.29914569  1
  Zr  Zr75  1  0.39676754  0.60189967  0.60106341  1
  Zr  Zr76  1  0.49983419  0.70479202  0.69521992  1
  Zr  Zr77  1  -0.00412648  0.00383850  -0.00448455  1
  Zr  Zr78  1  0.58736662  0.39431683  -0.00439457  1
  Zr  Zr79  1  0.70005962  0.49882199  0.10192530  1
  Zr  Zr80  1  0.91177896  0.10289653  0.88711165  1
  Zr  Zr81  1  0.89525963  0.89937994  0.09385395  1
  Zr  Zr82  1  0.18343188  0.40515201  0.00898325  1
  Zr  Zr83  1  0.09244513  0.49916309  0.69990169  1
  Zr  Zr84  1  0.49909889  0.70053558  0.90222158  1
  Zr  Zr85  1  0.00305013  0.80961895  -0.01048494  1
  Zr  Zr86  1  0.80699707  0.59323095  -0.00124064  1
  Zr  Zr87  1  0.70202517  0.10173687  0.70092443  1
  Zr  Zr88  1  0.10360107  0.50481910  0.50735258  1
  Zr  Zr89  1  0.10222003  0.90161170  0.10578026  1
  Zr  Zr90  1  0.29295301  0.09527346  0.68921544  1
  Zr  Zr91  1  0.49409287  0.68664686  0.10171300  1
  Zr  Zr92  1  0.19047901  0.58608266  0.19725920  1
  Zr  Zr93  1  0.59371926  0.39792981  0.19546485  1
  Zr  Zr94  1  0.29616569  0.29857313  0.91004374  1
  Zr  Zr95  1  0.80605257  0.80312932  0.21049043  1
  Zr  Zr96  1  0.10743247  0.10833616  0.09896505  1
  Zr  Zr97  1  0.80213514  0.01464347  0.19342953  1
  Zr  Zr98  1  0.69334953  0.90648513  0.09863180  1
  Zr  Zr99  1  0.59940559  0.79277046  0.20191208  1
  Ta  Ta100  1  0.49776352  0.29893242  0.69439893  1
  Ta  Ta101  1  0.49771352  0.69534513  0.30068235  1
  Ta  Ta102  1  0.91316418  0.90654451  0.50302803  1
  Ta  Ta103  1  0.59991784  0.60312641  0.79541567  1
  Ta  Ta104  1  0.39817434  0.40132647  0.40209288  1
  Ta  Ta105  1  0.91003998  0.49487429  0.10750565  1
  Ta  Ta106  1  0.80119550  0.60087989  0.20450038  1
  Ta  Ta107  1  0.39057580  -0.00512127  0.80444721  1
  Ta  Ta108  1  0.30008464  0.29681407  0.29848298  1
  Ta  Ta109  1  0.79644155  0.00341597  -0.01569233  1
  Ta  Ta110  1  0.09482444  0.49601710  0.89489853  1
  Ta  Ta111  1  0.90015436  0.69451826  0.30597158  1
  Ta  Ta112  1  0.19758715  0.39241499  0.60691836  1
  Ta  Ta113  1  0.70441785  0.69839115  0.30841944  1
  Ta  Ta114  1  0.40428730  0.40182568  0.00167383  1
  Ta  Ta115  1  0.18958704  0.39401310  0.79658126  1
  Ta  Ta116  1  0.30015776  0.49599634  0.29791730  1
  Ta  Ta117  1  0.90686290  0.30075147  0.09973153  1
  Ta  Ta118  1  0.21015012  0.00057514  0.41157225  1
  Ta  Ta119  1  0.59740101  0.19998728  0.40483290  1
  Ta  Ta120  1  -0.00270775  0.61564828  0.59861109  1
  Ta  Ta121  1  0.59753879  0.20611272  0.59538978  1
  Ta  Ta122  1  0.21216462  0.00723751  0.21191846  1
  Ta  Ta123  1  0.91204730  0.48946632  0.89248230  1
  Ta  Ta124  1  0.39388223  0.00201136  0.40721956  1
  Ta  Ta125  1  0.59967119  0.39782826  0.59883863  1
  Ta  Ta126  1  0.39557628  0.19777444  0.20545098  1
  Ta  Ta127  1  0.40136735  0.19784639  0.59552246  1
  Ta  Ta128  1  0.90137446  0.70778607  0.69148218  1
  Ta  Ta129  1  0.70211851  0.30150005  0.50061712  1
  Ta  Ta130  1  0.89752808  0.10574437  0.30349957  1
  Ta  Ta131  1  0.29790690  0.29620355  0.69517028  1
  Ta  Ta132  1  0.29220618  0.68751340  0.09103110  1
  Ta  Ta133  1  0.10657580  0.29264082  0.29397933  1
  Ta  Ta134  1  0.50193897  0.90850970  0.10094242  1
  Ta  Ta135  1  0.70041281  0.10946173  0.49814467  1
  Ta  Ta136  1  0.19974097  0.80293448  0.79455281  1
  Ta  Ta137  1  -0.00479373  0.80262152  0.21412219  1
  Ta  Ta138  1  0.30225967  0.50256936  0.10118482  1
  Ta  Ta139  1  0.59859319  0.79573854  0.40601598  1
  Ta  Ta140  1  0.00774176  0.80342256  0.60039823  1
  Ta  Ta141  1  0.60785266  0.00545019  -0.00903635  1
  Ta  Ta142  1  0.70250311  0.29665172  0.89511278  1
  Ta  Ta143  1  0.50537073  0.50301045  0.50674841  1
  Ta  Ta144  1  0.00004159  0.60377030  0.40477358  1
  Ta  Ta145  1  0.90517633  0.89960294  0.69508976  1
  Ta  Ta146  1  0.00754192  0.58286534  0.00382695  1
  Ta  Ta147  1  0.10095410  0.08894829  0.51067937  1
  Ta  Ta148  1  0.69829474  0.30450718  0.70187249  1
  Ta  Ta149  1  0.49155261  0.29432545  0.30762768  1
  Ti  Ti150  1  0.08806258  0.30101455  0.90291665  1
  Ti  Ti151  1  0.59903584  0.79661732  0.58879516  1
  Ti  Ti152  1  0.30266263  0.90496612  0.30547196  1
  Ti  Ti153  1  0.59573706  0.59252638  -0.00115730  1
  Ti  Ti154  1  0.70365875  0.69413598  0.67714784  1
  Ti  Ti155  1  0.29009541  0.50306516  0.50175426  1
  Ti  Ti156  1  0.49595259  0.28010469  0.08846590  1
  Ti  Ti157  1  0.79568381  0.81412711  -0.01700053  1
  Ti  Ti158  1  0.50041206  0.70081237  0.50727608  1
  Ti  Ti159  1  0.80328343  -0.00403842  0.80316932  1
  Ti  Ti160  1  0.80658128  0.20182812  0.41200014  1
  Ti  Ti161  1  0.10156717  0.90105165  0.88912776  1
  Ti  Ti162  1  0.49486575  0.10110671  0.50111946  1
  Ti  Ti163  1  0.39882672  0.19409174  0.40110254  1
  Ti  Ti164  1  0.10113726  0.90777211  0.69145333  1
  Ti  Ti165  1  0.70584967  0.10691575  0.30144838  1
  Ti  Ti166  1  -0.01318707  0.19646867  0.60986266  1
  Ti  Ti167  1  0.49692302  0.10636156  0.91070651  1
  Ti  Ti168  1  0.20423350  0.81971033  0.60202978  1
  Ti  Ti169  1  0.19768360  0.61161511  0.79256669  1
  Ti  Ti170  1  0.09891071  0.29543101  0.10344063  1
  Ti  Ti171  1  0.00917120  0.40001066  0.19809427  1
  Ti  Ti172  1  0.69656105  0.10334173  0.09444799  1
  Ti  Ti173  1  0.60268544  0.80515703  -0.00403798  1
  Ti  Ti174  1  0.80221313  0.61443743  0.41534381  1
  Ti  Ti175  1  0.19513000  0.39805762  0.20202951  1
  Ti  Ti176  1  0.80347757  0.40067224  0.19441914  1
  Ti  Ti177  1  0.20974820  0.80494274  -0.00765616  1
  Ti  Ti178  1  0.80764490  0.79910591  0.40313120  1
  Ti  Ti179  1  0.38801471  -0.01235197  0.58862716  1
  Ti  Ti180  1  0.69914272  0.69588264  0.90516384  1
  Ti  Ti181  1  -0.00488040  0.38824216  0.60624999  1
  Ti  Ti182  1  0.49847644  0.29857865  0.49843031  1
  Ti  Ti183  1  -0.00278557  -0.00721594  0.79258729  1
  Ti  Ti184  1  0.09387992  0.49851962  0.30209892  1
  Ti  Ti185  1  0.10187676  0.09801651  0.30568929  1
  Ti  Ti186  1  -0.00574108  0.38326934  0.79606057  1
  Ti  Ti187  1  0.60504235  0.59965224  0.20176268  1
  Ti  Ti188  1  0.00653995  0.80403354  0.79028361  1
  Ti  Ti189  1  0.70422234  0.50550886  0.50842652  1
  Ti  Ti190  1  0.89974401  0.50063471  0.70089489  1
  Ti  Ti191  1  0.37743394  0.80264953  0.80186422  1
  Ti  Ti192  1  0.49578970  0.50760124  0.89951985  1
  Ti  Ti193  1  0.39339201  0.59619066  -0.00135233  1
  Ti  Ti194  1  0.20671946  -0.01213251  0.79651771  1
  Ti  Ti195  1  -0.00244407  0.20627231  -0.00263935  1
  Ti  Ti196  1  0.50402394  0.50563670  0.69450135  1
  Ti  Ti197  1  0.81181519  0.79267291  0.58638812  1
  Ti  Ti198  1  0.09965096  0.10224847  0.89532764  1
  Ti  Ti199  1  0.29082385  0.70803711  0.68978887  1
  Mo  Mo200  1  0.29848061  0.89862901  0.69768552  1
  Mo  Mo201  1  0.39113842  0.59991357  0.19910125  1
  Mo  Mo202  1  0.00360062  0.20721126  0.79621411  1
  Mo  Mo203  1  0.49808844  0.29714466  0.90308644  1
  Mo  Mo204  1  0.00278291  -0.00435670  0.60145197  1
  Mo  Mo205  1  0.90934911  0.10124862  0.50042945  1
  Mo  Mo206  1  0.90981963  0.09427018  0.70108389  1
  Mo  Mo207  1  0.60713778  0.00868588  0.19279436  1
  Mo  Mo208  1  0.60411117  0.59972111  0.59778523  1
  Mo  Mo209  1  0.90751741  0.30223491  0.89954075  1
  Mo  Mo210  1  0.00429341  0.00641108  0.40576763  1
  Mo  Mo211  1  0.19453449  0.59412682  0.00128827  1
  Mo  Mo212  1  0.19463071  0.59822538  0.60726129  1
  Mo  Mo213  1  0.49354135  0.50964727  0.09222080  1
  Mo  Mo214  1  0.30514177  0.09881897  0.30235975  1
  Mo  Mo215  1  0.90225743  0.90096964  0.30956893  1
  Mo  Mo216  1  0.10516841  0.90376868  0.50662943  1
  Mo  Mo217  1  0.90390549  0.70439530  0.50136322  1
  Mo  Mo218  1  0.29979633  0.90439672  0.10526738  1
  Mo  Mo219  1  0.19765128  -0.00397760  0.59818437  1
  Mo  Mo220  1  0.39087156  -0.00336294  0.19984791  1
  Mo  Mo221  1  0.70133671  0.90235877  0.89870171  1
  Mo  Mo222  1  0.80481177  0.60433059  0.59953419  1
  Mo  Mo223  1  0.40567629  0.20109832  -0.00018232  1
  Mo  Mo224  1  0.80435691  0.19625377  0.19233590  1
  Mo  Mo225  1  0.70616059  0.70636098  0.50015696  1
  Mo  Mo226  1  0.29800340  0.90112570  0.50300614  1
  Mo  Mo227  1  -0.00114205  0.39528660  0.00026802  1
  Mo  Mo228  1  0.89935467  0.29891410  0.50494418  1
  Mo  Mo229  1  0.79816339  0.39993915  0.41435900  1
  Mo  Mo230  1  0.20566285  0.81862493  0.40499976  1
  Mo  Mo231  1  0.19852564  0.57966127  0.39745231  1
  Mo  Mo232  1  0.09254994  0.49307470  0.10631072  1
  Mo  Mo233  1  0.39556288  0.80243535  0.59884643  1
  Mo  Mo234  1  0.49670156  0.89432457  0.50291296  1
  Mo  Mo235  1  0.09471135  0.29791514  0.69779820  1
  Mo  Mo236  1  0.80608083  0.39679840  0.79686472  1
  Mo  Mo237  1  0.18088905  0.20147059  -0.00396279  1
  Mo  Mo238  1  0.30435502  0.09706971  0.50095552  1
  Mo  Mo239  1  0.20426030  0.19515507  0.59926760  1
  Mo  Mo240  1  0.29486296  0.89932410  0.89159622  1
  Mo  Mo241  1  0.90011535  0.90264597  0.88521242  1
  Mo  Mo242  1  0.28997483  0.70342309  0.90146880  1
  Mo  Mo243  1  0.70430322  0.10108746  0.89807862  1
  Mo  Mo244  1  0.90406885  0.30205302  0.70225940  1
  Mo  Mo245  1  0.19920152  0.19917673  0.20852123  1
  Mo  Mo246  1  0.89994160  0.10839868  0.09902828  1
  Mo  Mo247  1  0.60475055  0.19459223  -0.00795875  1
  Mo  Mo248  1  0.10379609  0.71164715  0.69444390  1
  Mo  Mo249  1  -0.00529142  0.59677562  0.20744333  1
