# generated using pymatgen
data_HfZrTaTiMo
_symmetry_space_group_name_H-M   'P 1'
_cell_length_a   16.89499847
_cell_length_b   16.88940589
_cell_length_c   16.88860921
_cell_angle_alpha   90.00790340
_cell_angle_beta   90.05558711
_cell_angle_gamma   89.97244600
_symmetry_Int_Tables_number   1
_chemical_formula_structural   HfZrTaTiMo
_chemical_formula_sum   'Hf50 Zr50 Ta50 Ti50 Mo50'
_cell_volume   4819.10243188
_cell_formula_units_Z   50
loop_
 _symmetry_equiv_pos_site_id
 _symmetry_equiv_pos_as_xyz
  1  'x, y, z'
loop_
 _atom_site_type_symbol
 _atom_site_label
 _atom_site_symmetry_multiplicity
 _atom_site_fract_x
 _atom_site_fract_y
 _atom_site_fract_z
 _atom_site_occupancy
  Hf  Hf0  1  0.50473936  0.89480941  0.70675885  1
  Hf  Hf1  1  0.60581686  0.79867430  0.20629745  1
  Hf  Hf2  1  0.89223261  0.09060182  0.50751857  1
  Hf  Hf3  1  0.19928792  0.79971921  0.00345192  1
  Hf  Hf4  1  0.40524171  0.39544817  0.60330638  1
  Hf  Hf5  1  0.00215919  -0.00284215  0.39536435  1
  Hf  Hf6  1  0.39754351  -0.01004508  0.00281013  1
  Hf  Hf7  1  -0.00482284  -0.00454694  0.00209585  1
  Hf  Hf8  1  -0.00261377  0.19877601  0.80462901  1
  Hf  Hf9  1  0.00369593  -0.00762034  0.18928046  1
  Hf  Hf10  1  0.08912394  0.31073780  0.69969807  1
  Hf  Hf11  1  0.80156392  -0.00198670  0.19108918  1
  Hf  Hf12  1  0.30345753  0.69490696  0.10120557  1
  Hf  Hf13  1  0.18935366  0.60103281  0.20542210  1
  Hf  Hf14  1  0.80191095  0.20564099  0.40175499  1
  Hf  Hf15  1  0.60979927  -0.00083138  0.80009610  1
  Hf  Hf16  1  0.19552260  -0.00102844  0.59404678  1
  Hf  Hf17  1  0.40262801  0.00348257  0.59661689  1
  Hf  Hf18  1  0.20017623  0.20996990  0.80657613  1
  Hf  Hf19  1  0.80063909  -0.00285523  0.80201711  1
  Hf  Hf20  1  0.89082689  0.30359500  0.90244812  1
  Hf  Hf21  1  0.70853026  0.70505754  0.10177497  1
  Hf  Hf22  1  0.49314324  0.49069872  0.88801635  1
  Hf  Hf23  1  0.29897355  0.50429111  0.09616204  1
  Hf  Hf24  1  0.29925478  0.10019834  0.70614546  1
  Hf  Hf25  1  0.19737633  0.20714956  0.59173879  1
  Hf  Hf26  1  0.11428431  0.08821634  0.90030267  1
  Hf  Hf27  1  0.50194704  0.89932328  0.49451751  1
  Hf  Hf28  1  0.89590540  0.09753093  0.29919702  1
  Hf  Hf29  1  0.09557467  0.69544808  0.49791364  1
  Hf  Hf30  1  0.20103603  0.39961072  0.80319035  1
  Hf  Hf31  1  0.69829290  0.70515130  0.89847898  1
  Hf  Hf32  1  0.80022312  0.20245604  0.79743876  1
  Hf  Hf33  1  0.60715346  0.00072305  0.19353170  1
  Hf  Hf34  1  0.00585777  0.19766641  0.59659692  1
  Hf  Hf35  1  0.30845023  0.50899455  0.50140747  1
  Hf  Hf36  1  0.29693677  0.89531086  0.49098543  1
  Hf  Hf37  1  0.61428291  0.78869522  0.39941796  1
  Hf  Hf38  1  0.89236806  0.89696883  0.48692850  1
  Hf  Hf39  1  0.61191843  0.60048318  0.40232998  1
  Hf  Hf40  1  0.21692819  0.20525598  0.20703493  1
  Hf  Hf41  1  0.20296542  0.40173641  0.59981916  1
  Hf  Hf42  1  0.00981910  0.19941326  0.41040080  1
  Hf  Hf43  1  0.09822360  0.08988535  0.70888419  1
  Hf  Hf44  1  0.10214666  0.30192584  0.09962244  1
  Hf  Hf45  1  0.19321067  0.78868737  0.80215301  1
  Hf  Hf46  1  0.59061755  0.79787875  0.00068769  1
  Hf  Hf47  1  0.39845404  0.39171925  0.19869031  1
  Hf  Hf48  1  0.40400092  0.79275343  0.81173341  1
  Hf  Hf49  1  0.90598197  0.70019118  0.10119020  1
  Zr  Zr50  1  0.60546552  0.00093819  0.40079090  1
  Zr  Zr51  1  0.09600262  0.89929739  0.89592378  1
  Zr  Zr52  1  0.79914228  0.59398146  0.20182408  1
  Zr  Zr53  1  0.20101482  0.00407658  0.38862387  1
  Zr  Zr54  1  0.58807406  0.60128722  0.79706925  1
  Zr  Zr55  1  0.30655834  0.10427096  0.49440124  1
  Zr  Zr56  1  0.49820854  0.90162465  0.29639491  1
  Zr  Zr57  1  0.60077835  0.59591173  0.00331232  1
  Zr  Zr58  1  0.59543959  0.20072632  0.41549401  1
  Zr  Zr59  1  0.80475401  0.59697225  0.79482968  1
  Zr  Zr60  1  0.40177683  0.79959189  0.60203599  1
  Zr  Zr61  1  0.89551289  0.50342193  0.50722998  1
  Zr  Zr62  1  0.20278565  0.21016553  0.40250271  1
  Zr  Zr63  1  0.79240908  0.40652967  0.01440156  1
  Zr  Zr64  1  0.19736987  0.79983772  0.20166232  1
  Zr  Zr65  1  0.18755446  0.59255597  0.38696286  1
  Zr  Zr66  1  0.89940727  0.29928896  0.10508801  1
  Zr  Zr67  1  0.60621264  0.59832251  0.20348995  1
  Zr  Zr68  1  0.49867863  0.69026550  0.50151694  1
  Zr  Zr69  1  -0.00309019  0.40544166  0.00112222  1
  Zr  Zr70  1  0.30685448  0.68776378  0.70152849  1
  Zr  Zr71  1  0.69775678  0.49044063  0.89235140  1
  Zr  Zr72  1  0.39671313  0.79376055  0.38808830  1
  Zr  Zr73  1  0.71626224  0.09752864  0.50973487  1
  Zr  Zr74  1  0.49850047  0.10399566  0.70699588  1
  Zr  Zr75  1  0.19553697  0.79509229  0.60479001  1
  Zr  Zr76  1  0.80712384  0.80783557  0.79675613  1
  Zr  Zr77  1  -0.00247002  0.79638835  0.59702988  1
  Zr  Zr78  1  0.29778498  0.10610054  0.08732718  1
  Zr  Zr79  1  0.00375722  0.40483930  0.40088428  1
  Zr  Zr80  1  0.79300319  0.20257066  0.19191555  1
  Zr  Zr81  1  0.50206057  0.10877615  0.90801667  1
  Zr  Zr82  1  0.60384670  0.00118851  0.60035950  1
  Zr  Zr83  1  0.00755847  0.19758578  -0.00507498  1
  Zr  Zr84  1  0.29924335  0.68913125  0.49652792  1
  Zr  Zr85  1  0.08464598  0.30192394  0.28733749  1
  Zr  Zr86  1  0.60242846  -0.00438915  0.00601482  1
  Zr  Zr87  1  0.20260423  0.39657856  0.40118533  1
  Zr  Zr88  1  0.20197925  0.40511947  0.20769987  1
  Zr  Zr89  1  0.59554424  0.39565099  0.00971668  1
  Zr  Zr90  1  0.08863543  0.50776589  0.89638369  1
  Zr  Zr91  1  0.30300259  0.50262661  0.89617841  1
  Zr  Zr92  1  0.09428954  0.90241659  0.70894626  1
  Zr  Zr93  1  0.69715458  0.70241923  0.69904575  1
  Zr  Zr94  1  0.49717900  0.50146615  0.30203953  1
  Zr  Zr95  1  0.69844822  0.30156280  0.29985349  1
  Zr  Zr96  1  0.59240495  0.40005863  0.60317556  1
  Zr  Zr97  1  0.50317723  0.10706200  0.29477583  1
  Zr  Zr98  1  0.89735613  0.30711383  0.51000195  1
  Zr  Zr99  1  0.10354904  0.10000414  0.28645732  1
  Ta  Ta100  1  0.80543561  0.59705055  0.00311035  1
  Ta  Ta101  1  0.72104909  0.89694930  0.30499779  1
  Ta  Ta102  1  0.40072992  0.20503991  0.19843272  1
  Ta  Ta103  1  0.40983322  0.20923265  0.59559964  1
  Ta  Ta104  1  0.70161790  0.09913968  0.29808348  1
  Ta  Ta105  1  0.19074377  0.60266664  0.79808621  1
  Ta  Ta106  1  0.49986980  0.11255626  0.09837089  1
  Ta  Ta107  1  0.50004133  0.29932672  0.89973368  1
  Ta  Ta108  1  0.08761136  0.50411091  0.70027581  1
  Ta  Ta109  1  0.80169550  0.79462159  0.59528561  1
  Ta  Ta110  1  0.29962475  0.69264810  0.90198939  1
  Ta  Ta111  1  0.80821004  0.80151151  -0.00623301  1
  Ta  Ta112  1  0.60192790  0.39684897  0.19481499  1
  Ta  Ta113  1  0.79794686  0.61012000  0.40361300  1
  Ta  Ta114  1  0.71283725  0.89831165  0.49808007  1
  Ta  Ta115  1  0.49152980  0.50174566  0.10342723  1
  Ta  Ta116  1  0.39609375  0.21049681  0.80472645  1
  Ta  Ta117  1  0.69916242  0.89576947  0.90055328  1
  Ta  Ta118  1  0.79935647  -0.00479449  -0.00195689  1
  Ta  Ta119  1  0.90053899  0.50713154  0.89884680  1
  Ta  Ta120  1  0.70849755  0.10436437  0.69677577  1
  Ta  Ta121  1  0.08893093  0.69938286  0.09798398  1
  Ta  Ta122  1  0.09362798  0.50774391  0.09873499  1
  Ta  Ta123  1  0.69674502  0.49645021  0.69843220  1
  Ta  Ta124  1  0.90056064  0.88818107  0.10059785  1
  Ta  Ta125  1  0.90690244  0.69857827  0.70098418  1
  Ta  Ta126  1  0.89461641  0.09563440  0.69144433  1
  Ta  Ta127  1  0.10065158  0.89196398  0.48595125  1
  Ta  Ta128  1  0.49204812  0.69890700  0.10668670  1
  Ta  Ta129  1  0.39089023  0.00615261  0.19618095  1
  Ta  Ta130  1  0.59695277  0.20581626  0.60438701  1
  Ta  Ta131  1  0.61033522  0.80127611  0.59790786  1
  Ta  Ta132  1  0.89424152  0.70803257  0.29792840  1
  Ta  Ta133  1  0.40346746  0.39122244  0.40555493  1
  Ta  Ta134  1  0.70014855  0.10659835  0.90387849  1
  Ta  Ta135  1  0.40719508  0.60328905  -0.00514850  1
  Ta  Ta136  1  0.91265592  0.69875056  0.89889523  1
  Ta  Ta137  1  0.39892977  0.79948497  -0.00017114  1
  Ta  Ta138  1  0.19018665  0.60502889  -0.00328085  1
  Ta  Ta139  1  0.69302767  0.29366752  0.90308931  1
  Ta  Ta140  1  0.50496355  0.30029583  0.29821474  1
  Ta  Ta141  1  0.09544580  0.89056264  0.29534939  1
  Ta  Ta142  1  0.70451605  0.30541062  0.51179695  1
  Ta  Ta143  1  0.29959803  0.90393777  0.71012659  1
  Ta  Ta144  1  0.39923903  0.39360689  -0.00041717  1
  Ta  Ta145  1  0.89443439  0.50102494  0.30212543  1
  Ta  Ta146  1  0.19754551  0.39972400  -0.00553972  1
  Ta  Ta147  1  -0.00787735  0.60390094  0.39567236  1
  Ta  Ta148  1  0.09264253  0.50318528  0.51047768  1
  Ta  Ta149  1  0.60012356  0.39928669  0.40728358  1
  Ti  Ti150  1  -0.00422369  0.79394484  0.39136606  1
  Ti  Ti151  1  0.20172306  -0.01645405  0.01160644  1
  Ti  Ti152  1  0.00405142  -0.00398838  0.59233346  1
  Ti  Ti153  1  -0.00683650  0.60034319  0.60396562  1
  Ti  Ti154  1  0.70539227  0.49851648  0.50639367  1
  Ti  Ti155  1  0.49159164  0.69127423  0.29283040  1
  Ti  Ti156  1  0.30158959  0.10207367  0.90296439  1
  Ti  Ti157  1  0.39417198  0.80482128  0.19648113  1
  Ti  Ti158  1  0.39766038  -0.00021895  0.80779785  1
  Ti  Ti159  1  0.40028243  0.20859491  0.40057650  1
  Ti  Ti160  1  0.49862705  0.50185167  0.49633345  1
  Ti  Ti161  1  0.70214255  0.49355544  0.30367695  1
  Ti  Ti162  1  -0.00163585  0.59999693  0.20803699  1
  Ti  Ti163  1  0.50388006  0.70390307  0.70285134  1
  Ti  Ti164  1  0.90473482  0.90070903  0.69577403  1
  Ti  Ti165  1  0.80145116  0.40574342  0.61392451  1
  Ti  Ti166  1  0.31382349  0.50445409  0.30332101  1
  Ti  Ti167  1  0.89888526  0.30581550  0.29554923  1
  Ti  Ti168  1  0.30221402  0.29902368  0.08886106  1
  Ti  Ti169  1  0.60183809  0.59685773  0.60023008  1
  Ti  Ti170  1  0.70924735  0.89049904  0.09829122  1
  Ti  Ti171  1  0.30639695  0.30114949  0.70289407  1
  Ti  Ti172  1  -0.01894713  -0.00205816  0.81008123  1
  Ti  Ti173  1  0.69771855  0.30292901  0.70315219  1
  Ti  Ti174  1  -0.00345828  0.19133132  0.19134449  1
  Ti  Ti175  1  0.59957448  0.20618755  0.79679060  1
  Ti  Ti176  1  0.69405751  0.11393786  0.08910693  1
  Ti  Ti177  1  0.89901188  0.30218326  0.69617853  1
  Ti  Ti178  1  0.50540558  0.89694023  0.89639152  1
  Ti  Ti179  1  0.31241063  0.68547320  0.29443352  1
  Ti  Ti180  1  0.29986523  0.90527481  0.29544157  1
  Ti  Ti181  1  0.79451285  0.40574435  0.19425508  1
  Ti  Ti182  1  0.19275087  0.59612066  0.61038070  1
  Ti  Ti183  1  0.20153251  0.21750656  -0.01478105  1
  Ti  Ti184  1  0.19725039  0.78971207  0.38585933  1
  Ti  Ti185  1  0.20486058  -0.00776822  0.19064382  1
  Ti  Ti186  1  0.80020910  0.60652196  0.59813505  1
  Ti  Ti187  1  0.88904681  0.10245238  0.90764887  1
  Ti  Ti188  1  -0.00826076  0.41676540  0.19752524  1
  Ti  Ti189  1  0.11134978  0.10242423  0.09473488  1
  Ti  Ti190  1  -0.01304477  0.40701157  0.79561336  1
  Ti  Ti191  1  0.40091477  0.01015811  0.39222856  1
  Ti  Ti192  1  0.31224376  0.50225804  0.71091982  1
  Ti  Ti193  1  0.89198664  0.10301038  0.08999134  1
  Ti  Ti194  1  0.41806041  0.58923619  0.61568981  1
  Ti  Ti195  1  0.49415377  0.89689744  0.10673569  1
  Ti  Ti196  1  0.79753205  0.40324825  0.40132325  1
  Ti  Ti197  1  0.29558385  0.90007056  0.89591349  1
  Ti  Ti198  1  0.80057259  0.40113372  0.79438558  1
  Ti  Ti199  1  0.00273035  0.80175285  -0.00395886  1
  Mo  Mo200  1  0.69163521  0.29684291  0.10050810  1
  Mo  Mo201  1  0.30299746  0.89771432  0.10207742  1
  Mo  Mo202  1  0.09796260  0.89554571  0.10001262  1
  Mo  Mo203  1  0.79808251  0.21378661  0.61119407  1
  Mo  Mo204  1  0.70664732  0.69671619  0.50773428  1
  Mo  Mo205  1  0.31684166  0.29845494  0.30537045  1
  Mo  Mo206  1  0.49781738  0.29658019  0.10085831  1
  Mo  Mo207  1  -0.00193948  0.40645807  0.60710786  1
  Mo  Mo208  1  0.09199332  0.68909318  0.70214288  1
  Mo  Mo209  1  -0.00355539  0.79493150  0.79884566  1
  Mo  Mo210  1  0.08224779  0.50424102  0.29573691  1
  Mo  Mo211  1  -0.00044069  0.79873833  0.20241137  1
  Mo  Mo212  1  0.50323497  0.30125029  0.49802699  1
  Mo  Mo213  1  -0.00258143  0.60423841  0.00116938  1
  Mo  Mo214  1  0.09650553  0.08501692  0.50396260  1
  Mo  Mo215  1  0.39969758  0.60214427  0.79973697  1
  Mo  Mo216  1  0.89999388  0.69798129  0.49958881  1
  Mo  Mo217  1  0.80549977  0.80320130  0.19899711  1
  Mo  Mo218  1  0.08290913  0.70207228  0.29807680  1
  Mo  Mo219  1  0.49507134  0.10766155  0.49968051  1
  Mo  Mo220  1  0.90153398  0.50689995  0.10552440  1
  Mo  Mo221  1  0.39978116  0.20823547  -0.00187077  1
  Mo  Mo222  1  0.30773679  0.30251151  0.50253170  1
  Mo  Mo223  1  0.10131830  0.31693955  0.50821009  1
  Mo  Mo224  1  0.21667355  -0.00070444  0.80455853  1
  Mo  Mo225  1  -0.00085304  0.60398845  0.79707447  1
  Mo  Mo226  1  0.30421289  0.30415227  0.90320951  1
  Mo  Mo227  1  0.39855440  0.59831623  0.19662901  1
  Mo  Mo228  1  0.09747764  0.30936765  0.89715892  1
  Mo  Mo229  1  0.59762757  0.80456806  0.80116460  1
  Mo  Mo230  1  0.59682530  0.20362031  0.19221653  1
  Mo  Mo231  1  0.31127346  0.10083971  0.29479823  1
  Mo  Mo232  1  0.89921292  0.89729659  0.90565151  1
  Mo  Mo233  1  0.50159107  0.29905877  0.70956326  1
  Mo  Mo234  1  0.71137398  0.70471355  0.30335187  1
  Mo  Mo235  1  0.90308801  0.89462394  0.29279478  1
  Mo  Mo236  1  0.69740870  0.49874622  0.10700808  1
  Mo  Mo237  1  0.49510785  0.70133361  0.90653394  1
  Mo  Mo238  1  0.59819242  0.20402118  0.00138215  1
  Mo  Mo239  1  0.40144025  0.39305952  0.79727472  1
  Mo  Mo240  1  0.09596072  0.69988502  0.90302427  1
  Mo  Mo241  1  0.79235543  0.19594385  -0.00406751  1
  Mo  Mo242  1  0.70275675  0.89897649  0.69595470  1
  Mo  Mo243  1  0.40363221  0.59282143  0.39293437  1
  Mo  Mo244  1  0.80288009  -0.00060952  0.38834348  1
  Mo  Mo245  1  0.80506420  0.79404799  0.39997487  1
  Mo  Mo246  1  0.89618208  0.50172819  0.70051028  1
  Mo  Mo247  1  0.60077456  0.38873728  0.79526058  1
  Mo  Mo248  1  0.50183140  0.49759508  0.70208180  1
  Mo  Mo249  1  0.80250865  -0.01819449  0.61452004  1
