# generated using pymatgen
data_HfZrTaTiMo
_symmetry_space_group_name_H-M   'P 1'
_cell_length_a   16.88942561
_cell_length_b   16.88007750
_cell_length_c   16.87920991
_cell_angle_alpha   89.99775125
_cell_angle_beta   89.98345499
_cell_angle_gamma   90.01975133
_symmetry_Int_Tables_number   1
_chemical_formula_structural   HfZrTaTiMo
_chemical_formula_sum   'Hf50 Zr50 Ta50 Ti50 Mo50'
_cell_volume   4812.17470676
_cell_formula_units_Z   50
loop_
 _symmetry_equiv_pos_site_id
 _symmetry_equiv_pos_as_xyz
  1  'x, y, z'
loop_
 _atom_site_type_symbol
 _atom_site_label
 _atom_site_symmetry_multiplicity
 _atom_site_fract_x
 _atom_site_fract_y
 _atom_site_fract_z
 _atom_site_occupancy
  Hf  Hf0  1  0.00068146  0.79743160  0.39877780  1
  Hf  Hf1  1  0.79690700  0.39144233  0.80581265  1
  Hf  Hf2  1  0.20742597  0.19738357  -0.00332745  1
  Hf  Hf3  1  0.20237184  0.19668548  0.59653537  1
  Hf  Hf4  1  0.79742077  0.20510846  -0.01207605  1
  Hf  Hf5  1  0.89373375  0.89566560  0.90618536  1
  Hf  Hf6  1  0.89494017  0.51271731  0.10059257  1
  Hf  Hf7  1  0.90105175  0.89925778  0.50856146  1
  Hf  Hf8  1  0.21288553  0.19597453  0.80234889  1
  Hf  Hf9  1  0.11176671  0.50281428  0.69777289  1
  Hf  Hf10  1  0.30188692  0.10180747  0.29735578  1
  Hf  Hf11  1  0.00150037  0.79330269  0.20063026  1
  Hf  Hf12  1  0.89445807  0.89987479  0.69466562  1
  Hf  Hf13  1  0.69519810  0.89350217  0.69978387  1
  Hf  Hf14  1  0.09463370  0.10110416  0.89604907  1
  Hf  Hf15  1  0.89352584  0.70958504  0.69723823  1
  Hf  Hf16  1  0.30172496  0.50047944  0.69562636  1
  Hf  Hf17  1  0.69425272  0.10111542  0.29619831  1
  Hf  Hf18  1  0.10336134  0.50473683  0.09737828  1
  Hf  Hf19  1  0.69993771  0.28988512  0.29779658  1
  Hf  Hf20  1  0.59266188  0.40799010  0.20020697  1
  Hf  Hf21  1  0.89378499  0.29853878  0.10122743  1
  Hf  Hf22  1  0.21571071  -0.01090901  0.19144546  1
  Hf  Hf23  1  0.90440800  0.10073703  0.89585054  1
  Hf  Hf24  1  0.50216790  0.29416510  0.69819581  1
  Hf  Hf25  1  0.79211464  0.00682070  0.80071725  1
  Hf  Hf26  1  0.10220423  0.49465792  0.50098486  1
  Hf  Hf27  1  0.80501674  0.19309825  0.40274466  1
  Hf  Hf28  1  0.49822446  0.89250677  0.50402450  1
  Hf  Hf29  1  0.79290217  0.60466866  0.39024924  1
  Hf  Hf30  1  0.78942789  0.41437469  0.20510368  1
  Hf  Hf31  1  0.49264851  0.09822271  0.50334065  1
  Hf  Hf32  1  0.70036930  0.10279790  0.10338640  1
  Hf  Hf33  1  0.19747515  0.40746671  0.81553392  1
  Hf  Hf34  1  0.10574286  0.70032019  0.50250975  1
  Hf  Hf35  1  0.78835397  0.79533793  0.20265278  1
  Hf  Hf36  1  0.19211867  -0.01321047  0.60333617  1
  Hf  Hf37  1  -0.00272159  0.40224379  0.19659707  1
  Hf  Hf38  1  0.30046064  0.30182555  0.10250999  1
  Hf  Hf39  1  0.49162970  0.30379155  0.50071828  1
  Hf  Hf40  1  0.31027284  0.89228558  0.50472742  1
  Hf  Hf41  1  0.40701029  0.61051886  0.79578205  1
  Hf  Hf42  1  0.68953514  0.10474986  0.50554251  1
  Hf  Hf43  1  0.40692573  0.20066065  0.19482408  1
  Hf  Hf44  1  0.89143096  0.69772324  0.09563764  1
  Hf  Hf45  1  0.79482352  0.79760548  0.39511179  1
  Hf  Hf46  1  0.19964882  0.79585580  0.39167795  1
  Hf  Hf47  1  0.40870032  -0.00412738  0.18675170  1
  Hf  Hf48  1  0.10035473  0.29301916  0.30237401  1
  Hf  Hf49  1  0.01134205  0.60388425  0.80517053  1
  Zr  Zr50  1  0.09165327  0.09845360  0.69999410  1
  Zr  Zr51  1  0.79396532  0.40550062  -0.00919635  1
  Zr  Zr52  1  0.30581220  0.49644175  0.50359837  1
  Zr  Zr53  1  0.49403254  0.30528815  0.30865076  1
  Zr  Zr54  1  0.40256473  0.19587456  0.80570202  1
  Zr  Zr55  1  0.21253436  -0.00968471  -0.00926274  1
  Zr  Zr56  1  0.30861802  0.50673508  0.90364345  1
  Zr  Zr57  1  0.49403160  0.48620844  0.70048823  1
  Zr  Zr58  1  0.69399407  0.89342165  0.90528694  1
  Zr  Zr59  1  0.79586634  0.59663897  0.80754811  1
  Zr  Zr60  1  0.21230895  0.40931241  0.20879521  1
  Zr  Zr61  1  0.00952058  0.79876555  0.80019030  1
  Zr  Zr62  1  0.69789147  0.29096362  0.10679751  1
  Zr  Zr63  1  0.89224034  0.89663080  0.09241868  1
  Zr  Zr64  1  0.59575313  -0.00630116  0.19499277  1
  Zr  Zr65  1  0.79820835  0.21261747  0.60736890  1
  Zr  Zr66  1  0.19742379  0.60781215  -0.01300443  1
  Zr  Zr67  1  -0.00689557  0.39980986  0.80704172  1
  Zr  Zr68  1  0.90137135  0.29901399  0.30015030  1
  Zr  Zr69  1  -0.00046876  0.60721528  0.60253212  1
  Zr  Zr70  1  0.19954525  -0.00719383  0.40415600  1
  Zr  Zr71  1  0.20780042  0.59868431  0.39359022  1
  Zr  Zr72  1  0.20352858  0.61036138  0.20436273  1
  Zr  Zr73  1  0.59587549  -0.00341591  0.60562360  1
  Zr  Zr74  1  0.10115081  0.89794865  0.29212711  1
  Zr  Zr75  1  -0.00553876  0.39642427  0.60532396  1
  Zr  Zr76  1  0.61230033  0.38869840  0.60313018  1
  Zr  Zr77  1  0.20636146  0.80436192  -0.00989129  1
  Zr  Zr78  1  0.69826943  0.49937473  0.49825785  1
  Zr  Zr79  1  0.32374937  0.70395758  0.30005811  1
  Zr  Zr80  1  0.49735942  0.88761143  0.30650699  1
  Zr  Zr81  1  0.90487872  0.30683848  0.49172237  1
  Zr  Zr82  1  0.20134105  0.79993908  0.79904261  1
  Zr  Zr83  1  0.60043648  0.60452237  0.81038861  1
  Zr  Zr84  1  0.50115588  0.89225015  0.90036359  1
  Zr  Zr85  1  0.10146277  0.29770203  0.70346648  1
  Zr  Zr86  1  0.60115151  0.39943350  0.00093537  1
  Zr  Zr87  1  0.10578816  0.29669467  0.10341434  1
  Zr  Zr88  1  0.79592278  -0.00372606  0.40094432  1
  Zr  Zr89  1  0.20500655  -0.01286181  0.80065949  1
  Zr  Zr90  1  0.69481974  0.71127532  0.70165650  1
  Zr  Zr91  1  0.08964093  0.49940893  0.30601213  1
  Zr  Zr92  1  0.49577378  0.49832140  0.49095073  1
  Zr  Zr93  1  0.79855199  0.59946014  0.59768254  1
  Zr  Zr94  1  0.68602170  0.71019643  0.50005865  1
  Zr  Zr95  1  0.10428235  0.10013825  0.10152862  1
  Zr  Zr96  1  0.10278737  0.10108551  0.29608023  1
  Zr  Zr97  1  0.30590178  0.31435803  0.69324012  1
  Zr  Zr98  1  0.59028005  0.60123574  0.60855808  1
  Zr  Zr99  1  0.10095768  0.89667611  0.09813701  1
  Ta  Ta100  1  0.89945566  0.10128976  0.70102197  1
  Ta  Ta101  1  0.00211367  0.40346689  -0.00537747  1
  Ta  Ta102  1  0.49938433  0.51424722  0.09787063  1
  Ta  Ta103  1  -0.01083338  0.00087006  0.19819866  1
  Ta  Ta104  1  0.31148518  0.50941696  0.09807047  1
  Ta  Ta105  1  0.49938799  0.09817120  0.30760576  1
  Ta  Ta106  1  0.89483892  0.70199047  0.90695350  1
  Ta  Ta107  1  0.89766849  0.50787906  0.30062894  1
  Ta  Ta108  1  0.69321590  0.10783683  0.70130833  1
  Ta  Ta109  1  0.10160980  0.29924475  0.49370662  1
  Ta  Ta110  1  0.31014253  0.70364955  0.50212392  1
  Ta  Ta111  1  0.79817768  0.20768669  0.80074173  1
  Ta  Ta112  1  0.00924689  0.79160306  -0.00722819  1
  Ta  Ta113  1  0.89819967  0.90100573  0.29842270  1
  Ta  Ta114  1  -0.00680817  0.60850552  0.39944298  1
  Ta  Ta115  1  0.40342797  0.61029177  0.60124193  1
  Ta  Ta116  1  0.00502337  0.60516982  -0.00497703  1
  Ta  Ta117  1  0.89397105  0.49803517  0.70014466  1
  Ta  Ta118  1  0.30364140  0.09549608  0.50335019  1
  Ta  Ta119  1  0.09936092  0.29616324  0.90299174  1
  Ta  Ta120  1  -0.00519163  0.20019084  0.60087058  1
  Ta  Ta121  1  0.79495469  0.40738341  0.39452360  1
  Ta  Ta122  1  0.69076701  0.51740105  0.10315010  1
  Ta  Ta123  1  0.31124541  0.70348011  0.09402849  1
  Ta  Ta124  1  -0.00865736  0.19088582  0.19586833  1
  Ta  Ta125  1  0.90121551  0.49839172  0.49219934  1
  Ta  Ta126  1  0.30105420  0.30220675  0.49738921  1
  Ta  Ta127  1  0.20703657  0.39650040  0.39708539  1
  Ta  Ta128  1  -0.00408599  0.20502971  -0.00134476  1
  Ta  Ta129  1  0.30960747  0.09828737  0.09343673  1
  Ta  Ta130  1  0.41003448  0.20148860  0.00301898  1
  Ta  Ta131  1  0.59479147  0.00542814  0.80168464  1
  Ta  Ta132  1  0.79762868  -0.00605619  0.20026942  1
  Ta  Ta133  1  0.09499816  0.09809513  0.50126742  1
  Ta  Ta134  1  0.69424292  0.89247250  0.09497310  1
  Ta  Ta135  1  0.20448276  0.19858905  0.40460881  1
  Ta  Ta136  1  0.49413669  0.50983125  0.30178131  1
  Ta  Ta137  1  0.30598686  0.30433162  0.90848903  1
  Ta  Ta138  1  0.49543896  0.70706102  0.49300661  1
  Ta  Ta139  1  0.78306235  0.60574227  -0.00503480  1
  Ta  Ta140  1  0.40454278  -0.00373020  0.79880697  1
  Ta  Ta141  1  0.70133703  0.49363540  0.70619392  1
  Ta  Ta142  1  0.60597761  0.39637884  0.81045463  1
  Ta  Ta143  1  0.40706310  0.39980898  0.00806392  1
  Ta  Ta144  1  0.50006243  0.50603755  0.90957541  1
  Ta  Ta145  1  0.00048459  -0.00876887  0.79618550  1
  Ta  Ta146  1  0.50003288  0.10033869  0.69856236  1
  Ta  Ta147  1  0.59488394  0.00614567  0.00271962  1
  Ta  Ta148  1  0.60346983  0.20256289  0.80404864  1
  Ta  Ta149  1  -0.00033848  -0.00362717  0.40384110  1
  Ti  Ti150  1  0.20711871  0.61247488  0.60562498  1
  Ti  Ti151  1  0.90093468  0.50798422  0.90563316  1
  Ti  Ti152  1  0.00114904  -0.00289029  -0.00138907  1
  Ti  Ti153  1  0.60051520  0.60524171  0.38808879  1
  Ti  Ti154  1  0.59330292  0.19990067  0.40208612  1
  Ti  Ti155  1  0.49694053  0.70465183  0.90882263  1
  Ti  Ti156  1  0.31814442  0.89355930  0.69663402  1
  Ti  Ti157  1  0.69445183  0.89260613  0.50619408  1
  Ti  Ti158  1  0.89419961  0.09807662  0.09795021  1
  Ti  Ti159  1  0.01775388  0.80822871  0.60513852  1
  Ti  Ti160  1  0.58241190  0.19838083  0.19435876  1
  Ti  Ti161  1  0.68738276  0.69618708  0.10796352  1
  Ti  Ti162  1  0.40725780  0.60313812  0.19688405  1
  Ti  Ti163  1  0.59954559  -0.00491168  0.40119505  1
  Ti  Ti164  1  0.10878528  0.70460264  0.10205095  1
  Ti  Ti165  1  0.50866226  0.70418865  0.29706744  1
  Ti  Ti166  1  -0.00040566  0.18815949  0.40238752  1
  Ti  Ti167  1  0.40300659  0.40618886  0.19994211  1
  Ti  Ti168  1  0.30894525  0.88912285  0.29370192  1
  Ti  Ti169  1  0.31255492  0.70549686  0.89842078  1
  Ti  Ti170  1  0.20102633  0.40477114  -0.00097989  1
  Ti  Ti171  1  0.79402280  0.00381669  0.60188195  1
  Ti  Ti172  1  0.79303683  0.79432404  0.81260710  1
  Ti  Ti173  1  0.80088381  0.39643230  0.60421460  1
  Ti  Ti174  1  0.49977600  0.30082405  0.90365607  1
  Ti  Ti175  1  0.39412638  0.19902962  0.40172648  1
  Ti  Ti176  1  0.60184150  0.78424398  0.00302886  1
  Ti  Ti177  1  0.90635512  0.09254269  0.51049420  1
  Ti  Ti178  1  0.69711050  0.29752371  0.49303502  1
  Ti  Ti179  1  0.19739059  0.80178836  0.60647149  1
  Ti  Ti180  1  0.30965718  0.08867959  0.69327978  1
  Ti  Ti181  1  0.50262841  0.88784474  0.08658509  1
  Ti  Ti182  1  0.69095694  0.10244213  0.90108463  1
  Ti  Ti183  1  0.00390191  0.60786803  0.20155483  1
  Ti  Ti184  1  0.40482065  0.39908115  0.81349628  1
  Ti  Ti185  1  0.89844960  0.09326464  0.29691592  1
  Ti  Ti186  1  0.30682937  0.70829946  0.69731170  1
  Ti  Ti187  1  0.49751491  0.89026528  0.70213542  1
  Ti  Ti188  1  0.68794369  0.89187815  0.29831571  1
  Ti  Ti189  1  0.79083188  0.00305710  0.00072939  1
  Ti  Ti190  1  0.60756165  0.40604510  0.39022390  1
  Ti  Ti191  1  0.30088830  0.29820947  0.30141228  1
  Ti  Ti192  1  0.40724471  0.79990177  0.18576836  1
  Ti  Ti193  1  0.89634938  0.69501005  0.29252473  1
  Ti  Ti194  1  0.39555812  0.19738080  0.59997519  1
  Ti  Ti195  1  0.39709564  -0.00239650  0.39647173  1
  Ti  Ti196  1  0.31556389  0.09181187  0.90562341  1
  Ti  Ti197  1  0.59134278  0.20038967  0.00117614  1
  Ti  Ti198  1  0.49925549  0.09645172  0.90328034  1
  Ti  Ti199  1  0.89659131  0.70837998  0.50671628  1
  Mo  Mo200  1  0.68597383  0.70021930  0.29394546  1
  Mo  Mo201  1  0.21185788  0.19563458  0.20371086  1
  Mo  Mo202  1  0.69965043  0.29927952  0.70745600  1
  Mo  Mo203  1  0.81226261  0.18326455  0.20153068  1
  Mo  Mo204  1  -0.00963958  0.20162181  0.80167219  1
  Mo  Mo205  1  0.89711037  0.29667533  0.70434182  1
  Mo  Mo206  1  0.59337906  0.60550947  0.20232374  1
  Mo  Mo207  1  0.40242271  0.79733190  0.40157555  1
  Mo  Mo208  1  0.50331715  0.10357827  0.09338887  1
  Mo  Mo209  1  0.60080204  0.80050020  0.39518813  1
  Mo  Mo210  1  0.31885902  0.50025484  0.29802236  1
  Mo  Mo211  1  0.09480242  0.89964257  0.69709270  1
  Mo  Mo212  1  0.40200640  0.79791235  -0.00049307  1
  Mo  Mo213  1  0.50022665  0.70076854  0.10047567  1
  Mo  Mo214  1  0.59176336  0.79843535  0.80221646  1
  Mo  Mo215  1  0.59576043  0.79670057  0.19334975  1
  Mo  Mo216  1  0.39102254  0.40179604  0.39053602  1
  Mo  Mo217  1  0.39898956  0.39682612  0.59298353  1
  Mo  Mo218  1  0.11492686  0.69935531  0.69823289  1
  Mo  Mo219  1  0.90824102  0.29730890  0.90172031  1
  Mo  Mo220  1  0.59081470  0.80096752  0.60115033  1
  Mo  Mo221  1  0.49786485  0.71665106  0.69757893  1
  Mo  Mo222  1  0.59769945  0.19855606  0.60430644  1
  Mo  Mo223  1  -0.00278993  0.00373147  0.59986046  1
  Mo  Mo224  1  0.39944458  0.79606712  0.60475365  1
  Mo  Mo225  1  0.40827512  -0.00010904  -0.00237827  1
  Mo  Mo226  1  0.32233714  0.89746514  0.89502457  1
  Mo  Mo227  1  0.69232498  0.50217707  0.90421989  1
  Mo  Mo228  1  -0.00129582  0.40828168  0.39736606  1
  Mo  Mo229  1  0.19925671  0.39276836  0.58922467  1
  Mo  Mo230  1  0.40958287  0.60388451  0.40176947  1
  Mo  Mo231  1  0.69513042  0.70350629  0.90689558  1
  Mo  Mo232  1  0.09796733  0.89793922  0.50395927  1
  Mo  Mo233  1  0.21411974  0.79771825  0.19273295  1
  Mo  Mo234  1  0.69038114  0.29193959  0.90107784  1
  Mo  Mo235  1  0.20707196  0.61000142  0.79387865  1
  Mo  Mo236  1  0.39866875  -0.00195183  0.60945433  1
  Mo  Mo237  1  0.78972267  0.60427954  0.20036598  1
  Mo  Mo238  1  0.49746998  0.30425894  0.09862737  1
  Mo  Mo239  1  0.40088985  0.79862381  0.80001804  1
  Mo  Mo240  1  0.31561152  0.89313888  0.09292154  1
  Mo  Mo241  1  0.79435751  0.80640074  0.59224432  1
  Mo  Mo242  1  0.09870656  0.49938378  0.90421709  1
  Mo  Mo243  1  0.59568367  0.60610082  0.00362121  1
  Mo  Mo244  1  0.08519185  0.90314532  0.90049782  1
  Mo  Mo245  1  0.69261674  0.50716084  0.29802637  1
  Mo  Mo246  1  0.40354571  0.60539061  0.00091879  1
  Mo  Mo247  1  0.09195112  0.69704424  0.29722829  1
  Mo  Mo248  1  0.78817088  0.78949079  0.00336294  1
  Mo  Mo249  1  0.10190623  0.69830809  0.89770322  1
