# generated using pymatgen
data_HfZrTaTiMo
_symmetry_space_group_name_H-M   'P 1'
_cell_length_a   16.88762332
_cell_length_b   16.87744725
_cell_length_c   16.87718822
_cell_angle_alpha   89.96860062
_cell_angle_beta   90.01301371
_cell_angle_gamma   90.02645035
_symmetry_Int_Tables_number   1
_chemical_formula_structural   HfZrTaTiMo
_chemical_formula_sum   'Hf50 Zr50 Ta50 Ti50 Mo50'
_cell_volume   4810.33435066
_cell_formula_units_Z   50
loop_
 _symmetry_equiv_pos_site_id
 _symmetry_equiv_pos_as_xyz
  1  'x, y, z'
loop_
 _atom_site_type_symbol
 _atom_site_label
 _atom_site_symmetry_multiplicity
 _atom_site_fract_x
 _atom_site_fract_y
 _atom_site_fract_z
 _atom_site_occupancy
  Hf  Hf0  1  0.50280335  0.30021820  0.69717914  1
  Hf  Hf1  1  0.10593142  0.89411945  0.30401732  1
  Hf  Hf2  1  0.09030944  0.08750980  0.90097401  1
  Hf  Hf3  1  0.69614166  0.70362378  0.10436135  1
  Hf  Hf4  1  0.49914979  0.90355529  0.69792402  1
  Hf  Hf5  1  0.79169623  0.59606694  0.00015088  1
  Hf  Hf6  1  0.01029680  0.61170084  0.80767712  1
  Hf  Hf7  1  -0.00182316  0.20108473  0.20101923  1
  Hf  Hf8  1  0.00598691  0.80135251  0.80150520  1
  Hf  Hf9  1  0.59650479  0.59730515  0.00193590  1
  Hf  Hf10  1  0.39647777  0.80027088  0.79827306  1
  Hf  Hf11  1  0.10692823  0.30022167  0.29631200  1
  Hf  Hf12  1  0.30061108  0.29948557  0.49882021  1
  Hf  Hf13  1  0.49993635  0.29623445  0.89548777  1
  Hf  Hf14  1  0.69461198  0.30192616  0.10733025  1
  Hf  Hf15  1  0.39691974  0.40266461  0.79518562  1
  Hf  Hf16  1  0.00788047  0.60373776  -0.00107532  1
  Hf  Hf17  1  0.31783717  0.49648485  0.50177572  1
  Hf  Hf18  1  0.79249041  0.19970717  0.20458562  1
  Hf  Hf19  1  0.90215115  0.10054390  0.90249424  1
  Hf  Hf20  1  0.59019406  0.01353237  0.81010994  1
  Hf  Hf21  1  0.70234317  0.30148485  0.69587798  1
  Hf  Hf22  1  0.89641865  0.30878223  0.50290274  1
  Hf  Hf23  1  0.19840005  0.41858396  0.40532024  1
  Hf  Hf24  1  0.91194827  0.89770743  0.50164914  1
  Hf  Hf25  1  0.48908631  0.69351609  0.10306970  1
  Hf  Hf26  1  0.69289336  0.90334626  0.70768917  1
  Hf  Hf27  1  0.79589552  0.40591744  0.79531791  1
  Hf  Hf28  1  0.29525102  0.89565227  0.90077178  1
  Hf  Hf29  1  0.00802341  0.39966301  0.80419609  1
  Hf  Hf30  1  0.30224321  0.30558796  0.30420567  1
  Hf  Hf31  1  0.28630979  0.69290688  0.71157536  1
  Hf  Hf32  1  0.11202567  0.51112284  0.70573082  1
  Hf  Hf33  1  0.21210986  0.18637267  0.80138660  1
  Hf  Hf34  1  0.00177667  0.19754305  0.39844451  1
  Hf  Hf35  1  0.20481883  0.00012917  0.19243788  1
  Hf  Hf36  1  0.90020048  0.50024006  0.90324813  1
  Hf  Hf37  1  0.08994117  0.10177411  0.09096891  1
  Hf  Hf38  1  0.59359411  0.59632330  0.20785186  1
  Hf  Hf39  1  0.30241776  0.70322972  0.10662238  1
  Hf  Hf40  1  0.09821315  0.30290642  0.09603153  1
  Hf  Hf41  1  0.30605775  0.29858765  0.90557636  1
  Hf  Hf42  1  0.89338424  0.10069384  0.30123687  1
  Hf  Hf43  1  0.50104087  0.90691425  0.30409165  1
  Hf  Hf44  1  0.79795805  0.59225684  0.21560252  1
  Hf  Hf45  1  0.80835042  0.80770237  0.80253201  1
  Hf  Hf46  1  0.59682384  0.40317109  -0.00017417  1
  Hf  Hf47  1  0.89778334  0.50477282  0.50772443  1
  Hf  Hf48  1  0.10861161  0.70018834  0.10836978  1
  Hf  Hf49  1  0.59862034  0.59625386  0.60495271  1
  Zr  Zr50  1  0.50062596  0.09611911  0.09887519  1
  Zr  Zr51  1  0.29984866  0.89585533  0.30030528  1
  Zr  Zr52  1  0.89890611  0.89658781  0.29422474  1
  Zr  Zr53  1  0.89601733  0.70458411  0.10159962  1
  Zr  Zr54  1  0.39519907  0.79710087  0.60382252  1
  Zr  Zr55  1  -0.00204354  0.78755741  0.39688727  1
  Zr  Zr56  1  0.19973772  -0.00915929  0.00419042  1
  Zr  Zr57  1  0.59744227  0.19372880  -0.00455008  1
  Zr  Zr58  1  0.40052367  0.60790569  0.39063546  1
  Zr  Zr59  1  0.69886904  0.10909434  0.70661515  1
  Zr  Zr60  1  0.80360942  0.78379406  0.39571471  1
  Zr  Zr61  1  0.49498012  0.49321508  0.30357634  1
  Zr  Zr62  1  0.10706569  0.29659723  0.49840701  1
  Zr  Zr63  1  0.79570605  0.41104674  0.38668515  1
  Zr  Zr64  1  0.00687954  0.20175201  0.79686477  1
  Zr  Zr65  1  0.00734600  0.00146654  0.20403691  1
  Zr  Zr66  1  0.68678634  0.89486596  0.48970749  1
  Zr  Zr67  1  0.49347767  0.08733178  0.48657805  1
  Zr  Zr68  1  0.90471334  0.49768765  0.69617648  1
  Zr  Zr69  1  0.69558097  0.09664392  0.48544318  1
  Zr  Zr70  1  0.69261750  0.69985508  0.71282793  1
  Zr  Zr71  1  0.48438346  0.31671820  0.49665677  1
  Zr  Zr72  1  0.59857115  0.20605001  0.57979217  1
  Zr  Zr73  1  0.40642757  0.19724235  0.38718570  1
  Zr  Zr74  1  0.89971433  0.29723759  0.90116688  1
  Zr  Zr75  1  0.49444677  0.90447207  0.90797403  1
  Zr  Zr76  1  0.60638080  0.39324953  0.39970023  1
  Zr  Zr77  1  0.90399483  0.90357819  0.09670506  1
  Zr  Zr78  1  0.30044125  0.50492095  0.89919901  1
  Zr  Zr79  1  0.20185656  0.18942044  0.60607805  1
  Zr  Zr80  1  0.79744668  -0.00438122  0.39369840  1
  Zr  Zr81  1  0.80322616  -0.00507613  0.60299545  1
  Zr  Zr82  1  0.01229770  0.80367771  -0.00954283  1
  Zr  Zr83  1  0.30196290  0.90608481  0.49621126  1
  Zr  Zr84  1  0.39031475  0.00902621  0.79700682  1
  Zr  Zr85  1  0.90195019  0.48710180  0.10721213  1
  Zr  Zr86  1  0.39571566  0.19828724  0.19264198  1
  Zr  Zr87  1  0.21571687  0.40278598  0.18407938  1
  Zr  Zr88  1  0.79740739  0.20201746  0.00550078  1
  Zr  Zr89  1  0.79084498  0.80900912  -0.00662487  1
  Zr  Zr90  1  0.21549795  0.19229476  0.00558876  1
  Zr  Zr91  1  -0.00819996  0.60339898  0.39464118  1
  Zr  Zr92  1  0.10566014  0.30320231  0.69943703  1
  Zr  Zr93  1  0.10085932  0.50134066  0.28350458  1
  Zr  Zr94  1  0.09948966  0.70233006  0.50701066  1
  Zr  Zr95  1  0.00164043  0.40944557  0.39785829  1
  Zr  Zr96  1  0.59432872  0.79497671  0.59920379  1
  Zr  Zr97  1  0.80520826  0.79506292  0.60053384  1
  Zr  Zr98  1  0.30236955  0.70064046  0.91081207  1
  Zr  Zr99  1  0.80206280  0.19893431  0.58938442  1
  Ta  Ta100  1  0.89848303  0.31173824  0.28847492  1
  Ta  Ta101  1  0.29821790  0.09687513  0.49351768  1
  Ta  Ta102  1  0.40194070  0.79381822  0.39715377  1
  Ta  Ta103  1  0.79400661  0.59944033  0.79871224  1
  Ta  Ta104  1  0.40662731  0.39856585  0.19204312  1
  Ta  Ta105  1  0.59552053  0.80607832  0.00569571  1
  Ta  Ta106  1  0.80572648  -0.00085339  0.80226351  1
  Ta  Ta107  1  0.19892913  0.59743235  0.00465859  1
  Ta  Ta108  1  0.89880635  0.30015778  0.69263861  1
  Ta  Ta109  1  0.49922072  0.69606219  0.49699907  1
  Ta  Ta110  1  0.90242032  0.69603459  0.70244542  1
  Ta  Ta111  1  0.20530140  0.19150821  0.19942510  1
  Ta  Ta112  1  0.69792403  0.29462476  0.88668824  1
  Ta  Ta113  1  0.59447976  0.00151822  0.59629967  1
  Ta  Ta114  1  0.20110847  -0.00338685  0.60596392  1
  Ta  Ta115  1  0.70469339  0.10374830  0.89527910  1
  Ta  Ta116  1  0.78895402  0.40040232  -0.00156487  1
  Ta  Ta117  1  0.20584026  0.78983163  0.40169510  1
  Ta  Ta118  1  0.19882851  0.80186476  0.60728611  1
  Ta  Ta119  1  -0.00484171  0.60301420  0.20441934  1
  Ta  Ta120  1  0.40041162  0.18978225  0.79975827  1
  Ta  Ta121  1  0.39774487  -0.00381330  0.19336610  1
  Ta  Ta122  1  0.00311396  0.00053830  0.60259595  1
  Ta  Ta123  1  0.60532985  -0.00467724  0.00434447  1
  Ta  Ta124  1  0.90309263  0.09933278  0.70467877  1
  Ta  Ta125  1  0.59817380  0.20596651  0.38178079  1
  Ta  Ta126  1  0.10321511  0.09382380  0.49912256  1
  Ta  Ta127  1  0.49461066  0.90188846  0.49277645  1
  Ta  Ta128  1  0.89995764  0.09696557  0.09321281  1
  Ta  Ta129  1  0.49582683  0.50409797  0.89910943  1
  Ta  Ta130  1  0.69762798  0.49282888  0.11007754  1
  Ta  Ta131  1  0.20871807  0.41100738  0.60429878  1
  Ta  Ta132  1  0.20432972  0.59854964  0.59705613  1
  Ta  Ta133  1  0.70248863  0.50278759  0.50289640  1
  Ta  Ta134  1  0.10334511  0.90130972  0.50342010  1
  Ta  Ta135  1  0.79482476  0.60051702  0.60558295  1
  Ta  Ta136  1  0.39485773  0.19242963  0.60426506  1
  Ta  Ta137  1  0.79169388  -0.00067464  -0.00055967  1
  Ta  Ta138  1  0.40142421  0.60041505  0.60781661  1
  Ta  Ta139  1  0.78725304  -0.00139754  0.19205027  1
  Ta  Ta140  1  0.40432426  0.39979499  0.01080694  1
  Ta  Ta141  1  0.49905441  0.50030982  0.70164071  1
  Ta  Ta142  1  0.30199536  0.69852122  0.50249315  1
  Ta  Ta143  1  0.09926719  0.89970610  0.70122418  1
  Ta  Ta144  1  0.68996868  0.89676235  0.29460577  1
  Ta  Ta145  1  0.69723409  0.68973285  0.49603349  1
  Ta  Ta146  1  0.20046055  -0.00481211  0.79489550  1
  Ta  Ta147  1  0.60147786  0.40737040  0.79704776  1
  Ta  Ta148  1  0.20262295  0.60272944  0.40095955  1
  Ta  Ta149  1  -0.00056059  0.19169144  0.59822134  1
  Ti  Ti150  1  0.50244159  0.10656367  0.69551387  1
  Ti  Ti151  1  0.30551693  0.30052412  0.69621413  1
  Ti  Ti152  1  0.40180410  0.59890896  0.79961512  1
  Ti  Ti153  1  0.69559922  0.09814993  0.10127160  1
  Ti  Ti154  1  0.69275615  0.50312015  0.89386814  1
  Ti  Ti155  1  0.69454430  0.90547694  0.89799421  1
  Ti  Ti156  1  0.01512897  0.40440808  0.59694354  1
  Ti  Ti157  1  0.78826338  0.21379730  0.39437148  1
  Ti  Ti158  1  0.89252783  0.69792439  0.90035963  1
  Ti  Ti159  1  0.39151963  0.00698532  0.00556541  1
  Ti  Ti160  1  0.00467268  0.79505266  0.20155169  1
  Ti  Ti161  1  0.30133736  0.09436802  0.30339782  1
  Ti  Ti162  1  0.00080736  0.79822001  0.60982021  1
  Ti  Ti163  1  0.60054886  0.39700959  0.20880784  1
  Ti  Ti164  1  0.40224666  0.81344026  0.01436364  1
  Ti  Ti165  1  0.59100220  0.80401293  0.19600577  1
  Ti  Ti166  1  0.19587075  0.80651254  0.00796697  1
  Ti  Ti167  1  0.49489540  0.69609170  0.90602483  1
  Ti  Ti168  1  0.40233851  0.79926828  0.20691466  1
  Ti  Ti169  1  0.91399380  0.91707406  0.89885489  1
  Ti  Ti170  1  0.00717898  0.00466310  0.39946192  1
  Ti  Ti171  1  0.20631705  0.40066049  0.79870649  1
  Ti  Ti172  1  0.19675577  0.00533566  0.39829341  1
  Ti  Ti173  1  0.21093870  0.60102910  0.20418823  1
  Ti  Ti174  1  0.50164874  0.29588744  0.10198775  1
  Ti  Ti175  1  0.09652132  0.09101199  0.70102446  1
  Ti  Ti176  1  0.90065062  0.30416125  0.10066534  1
  Ti  Ti177  1  0.59901001  -0.00515127  0.19432847  1
  Ti  Ti178  1  0.69293467  0.70225851  0.30026742  1
  Ti  Ti179  1  0.49853620  0.49969518  0.50290713  1
  Ti  Ti180  1  0.09824443  0.49880379  0.10100136  1
  Ti  Ti181  1  0.10638576  0.29710039  0.90933033  1
  Ti  Ti182  1  0.11125188  0.69981382  0.29521186  1
  Ti  Ti183  1  0.80167616  0.60265273  0.39744295  1
  Ti  Ti184  1  0.68632870  0.09565685  0.29514504  1
  Ti  Ti185  1  0.20917537  0.40393494  0.00461111  1
  Ti  Ti186  1  0.50149781  0.69428089  0.71004660  1
  Ti  Ti187  1  0.60164504  0.59845245  0.39721947  1
  Ti  Ti188  1  0.00369955  0.60712649  0.60385999  1
  Ti  Ti189  1  0.11107660  0.49909377  0.90397976  1
  Ti  Ti190  1  0.60736007  0.40736535  0.59922260  1
  Ti  Ti191  1  0.90315236  0.09728545  0.49754610  1
  Ti  Ti192  1  0.30618718  0.50285240  0.29530630  1
  Ti  Ti193  1  0.69135257  0.69982890  0.89845529  1
  Ti  Ti194  1  0.79184542  0.80343610  0.20217408  1
  Ti  Ti195  1  0.31778874  0.51323672  0.09856436  1
  Ti  Ti196  1  0.39288446  0.00389350  0.60560393  1
  Ti  Ti197  1  0.59138063  0.79907510  0.81260598  1
  Ti  Ti198  1  0.00387683  0.39906271  -0.00179489  1
  Ti  Ti199  1  0.59126982  0.78895826  0.39446206  1
  Mo  Mo200  1  0.49406282  0.10203018  0.90599307  1
  Mo  Mo201  1  0.69449848  0.49988298  0.69913327  1
  Mo  Mo202  1  -0.00175717  0.39908036  0.19582555  1
  Mo  Mo203  1  0.40291742  0.19818352  -0.00388180  1
  Mo  Mo204  1  0.30284984  0.09545589  0.90052918  1
  Mo  Mo205  1  0.20158001  0.80056688  0.20276862  1
  Mo  Mo206  1  0.30546110  0.30080518  0.09711124  1
  Mo  Mo207  1  0.59297433  0.59797461  0.80736137  1
  Mo  Mo208  1  0.29793088  0.69972690  0.29883897  1
  Mo  Mo209  1  0.49758113  0.89881791  0.10444408  1
  Mo  Mo210  1  0.20188907  0.18537800  0.39516307  1
  Mo  Mo211  1  0.70132851  0.30662711  0.49538506  1
  Mo  Mo212  1  0.79575251  0.39819980  0.19814585  1
  Mo  Mo213  1  0.39789295  0.59729758  0.20022430  1
  Mo  Mo214  1  0.30381119  0.09699335  0.10023678  1
  Mo  Mo215  1  0.19624853  0.60380746  0.80947860  1
  Mo  Mo216  1  0.90796348  0.90435546  0.70194509  1
  Mo  Mo217  1  0.11851579  0.70180336  0.90217779  1
  Mo  Mo218  1  0.29223161  0.89937777  0.69986100  1
  Mo  Mo219  1  0.10983074  0.10230074  0.30520163  1
  Mo  Mo220  1  0.50090938  0.70689355  0.29960952  1
  Mo  Mo221  1  0.39674784  -0.00015795  0.39033145  1
  Mo  Mo222  1  0.30679510  0.89526649  0.10252641  1
  Mo  Mo223  1  -0.00044497  -0.00456738  0.79324843  1
  Mo  Mo224  1  0.19203856  0.80242678  0.80193467  1
  Mo  Mo225  1  0.69313531  0.90056303  0.10299937  1
  Mo  Mo226  1  -0.00347660  0.20561117  0.00396626  1
  Mo  Mo227  1  0.90066599  0.50209546  0.29998491  1
  Mo  Mo228  1  0.89527920  0.69394277  0.51852945  1
  Mo  Mo229  1  0.30240283  0.50337988  0.70041556  1
  Mo  Mo230  1  0.10109148  0.70429699  0.69943685  1
  Mo  Mo231  1  0.70134693  0.29836711  0.29499351  1
  Mo  Mo232  1  0.39929977  0.40468211  0.61068716  1
  Mo  Mo233  1  0.50749854  0.09561524  0.29163021  1
  Mo  Mo234  1  0.59665420  -0.00151888  0.39166734  1
  Mo  Mo235  1  0.69480307  0.50303413  0.30368257  1
  Mo  Mo236  1  0.50411752  0.29926719  0.28650132  1
  Mo  Mo237  1  0.80163729  0.19952585  0.79384621  1
  Mo  Mo238  1  0.39663091  0.40070588  0.38858170  1
  Mo  Mo239  1  0.59650837  0.20222011  0.80090613  1
  Mo  Mo240  1  0.10550754  0.89814541  0.89370552  1
  Mo  Mo241  1  0.10415970  0.50793431  0.51172939  1
  Mo  Mo242  1  0.40328031  0.59488363  0.00108535  1
  Mo  Mo243  1  0.89483343  0.70025946  0.28731710  1
  Mo  Mo244  1  0.30130434  0.09543434  0.69439917  1
  Mo  Mo245  1  -0.00356927  -0.00503528  0.00088565  1
  Mo  Mo246  1  0.10387801  0.89001911  0.10835884  1
  Mo  Mo247  1  0.59697868  0.19648678  0.20391719  1
  Mo  Mo248  1  0.50162036  0.49442571  0.10148124  1
  Mo  Mo249  1  0.79086131  0.40544527  0.59728742  1
