# generated using pymatgen
data_HfZrTaTiMo
_symmetry_space_group_name_H-M   'P 1'
_cell_length_a   16.87915938
_cell_length_b   16.88855324
_cell_length_c   16.88551147
_cell_angle_alpha   89.97070092
_cell_angle_beta   89.94779281
_cell_angle_gamma   90.03471118
_symmetry_Int_Tables_number   1
_chemical_formula_structural   HfZrTaTiMo
_chemical_formula_sum   'Hf50 Zr50 Ta50 Ti50 Mo50'
_cell_volume   4813.45775478
_cell_formula_units_Z   50
loop_
 _symmetry_equiv_pos_site_id
 _symmetry_equiv_pos_as_xyz
  1  'x, y, z'
loop_
 _atom_site_type_symbol
 _atom_site_label
 _atom_site_symmetry_multiplicity
 _atom_site_fract_x
 _atom_site_fract_y
 _atom_site_fract_z
 _atom_site_occupancy
  Hf  Hf0  1  0.10606196  0.89474561  0.10591570  1
  Hf  Hf1  1  0.49039175  0.09888864  0.70374335  1
  Hf  Hf2  1  0.80582243  0.80615812  0.00424504  1
  Hf  Hf3  1  0.39839137  0.60850484  0.79698742  1
  Hf  Hf4  1  0.69368428  0.70650523  0.09855446  1
  Hf  Hf5  1  0.90828711  0.50178701  0.50307673  1
  Hf  Hf6  1  0.79495855  0.00915840  0.39879982  1
  Hf  Hf7  1  0.39957027  0.40484600  0.39853657  1
  Hf  Hf8  1  0.69769338  0.70695885  0.70127920  1
  Hf  Hf9  1  0.59902478  0.20130331  0.00224180  1
  Hf  Hf10  1  0.79655971  0.60140630  -0.00407958  1
  Hf  Hf11  1  0.69382940  0.71404806  0.89810237  1
  Hf  Hf12  1  0.79137653  0.80426517  0.20505613  1
  Hf  Hf13  1  0.59533754  0.60069577  0.21037725  1
  Hf  Hf14  1  0.49119603  0.49700354  0.10541220  1
  Hf  Hf15  1  0.09316229  0.89848569  0.69465631  1
  Hf  Hf16  1  0.10463647  0.89736803  0.49781703  1
  Hf  Hf17  1  0.49647120  0.28505926  0.49595382  1
  Hf  Hf18  1  0.30513842  0.10621951  0.11233138  1
  Hf  Hf19  1  0.20624756  0.00016902  0.60009769  1
  Hf  Hf20  1  0.59696746  0.59826631  -0.00303279  1
  Hf  Hf21  1  0.79944450  0.39691289  0.59649874  1
  Hf  Hf22  1  0.59790725  0.60031054  0.79507907  1
  Hf  Hf23  1  0.09759276  0.10553318  0.09823652  1
  Hf  Hf24  1  0.90506627  0.69678524  0.69401656  1
  Hf  Hf25  1  0.40555225  0.79572415  0.60803869  1
  Hf  Hf26  1  0.80442991  0.80980801  0.79825159  1
  Hf  Hf27  1  0.30052253  0.69851326  0.50562306  1
  Hf  Hf28  1  0.39574531  0.39112414  0.79810674  1
  Hf  Hf29  1  0.40130302  0.59216037  0.39691991  1
  Hf  Hf30  1  0.40073880  -0.00176038  0.59485483  1
  Hf  Hf31  1  0.09746861  0.49932899  0.50705134  1
  Hf  Hf32  1  0.89623733  0.49497428  0.09857690  1
  Hf  Hf33  1  0.69062154  0.28878418  0.49121553  1
  Hf  Hf34  1  0.20477228  0.60285718  0.39769895  1
  Hf  Hf35  1  0.00648670  0.39796774  0.79280810  1
  Hf  Hf36  1  0.79996716  0.39598227  0.39932921  1
  Hf  Hf37  1  0.90816182  0.90774335  0.90569579  1
  Hf  Hf38  1  0.29945095  0.90253632  0.30609702  1
  Hf  Hf39  1  0.88892335  0.49125505  0.89700337  1
  Hf  Hf40  1  0.59441100  0.40721267  0.40144553  1
  Hf  Hf41  1  0.20784979  0.20117847  -0.00733131  1
  Hf  Hf42  1  0.80844929  0.20257447  0.01443711  1
  Hf  Hf43  1  0.39130992  0.39354034  -0.00880403  1
  Hf  Hf44  1  0.29894455  0.89992384  0.71485790  1
  Hf  Hf45  1  0.20769305  0.39562767  0.40109099  1
  Hf  Hf46  1  0.00575067  0.00880671  0.39107065  1
  Hf  Hf47  1  0.39411258  0.81469020  0.01104144  1
  Hf  Hf48  1  0.79356944  0.59813348  0.39865973  1
  Hf  Hf49  1  0.38814711  0.60857007  0.00159509  1
  Zr  Zr50  1  0.49826909  0.72183423  0.89144487  1
  Zr  Zr51  1  0.40850628  0.19730830  -0.00907032  1
  Zr  Zr52  1  0.09658279  0.49864349  0.30082240  1
  Zr  Zr53  1  0.00559641  0.79732111  0.39317110  1
  Zr  Zr54  1  0.00298709  0.60468397  0.39130656  1
  Zr  Zr55  1  0.70072269  0.48967843  0.09764635  1
  Zr  Zr56  1  0.09739740  0.09876825  0.50414203  1
  Zr  Zr57  1  0.49090425  0.50319765  0.90022715  1
  Zr  Zr58  1  0.19982318  0.00566155  0.20932185  1
  Zr  Zr59  1  0.29427236  0.70354844  0.70833172  1
  Zr  Zr60  1  0.00131500  0.79654817  0.79817021  1
  Zr  Zr61  1  0.70208961  0.70441362  0.49963189  1
  Zr  Zr62  1  0.49995051  0.69829925  0.49861366  1
  Zr  Zr63  1  0.90759829  0.90799687  0.50831857  1
  Zr  Zr64  1  0.80738476  0.00066917  0.79926211  1
  Zr  Zr65  1  0.90413245  0.70332855  0.50600430  1
  Zr  Zr66  1  0.91534298  0.08929140  0.67682903  1
  Zr  Zr67  1  0.61048308  0.80102358  0.38668752  1
  Zr  Zr68  1  0.71306871  0.31567654  0.90034763  1
  Zr  Zr69  1  0.58640868  0.20606729  0.81054416  1
  Zr  Zr70  1  0.20191565  0.40059049  0.20445541  1
  Zr  Zr71  1  0.10709360  0.90166933  0.89817525  1
  Zr  Zr72  1  0.69691976  0.29895140  0.69595773  1
  Zr  Zr73  1  0.50194591  0.89615081  0.71442290  1
  Zr  Zr74  1  0.10200814  0.50369393  0.09272394  1
  Zr  Zr75  1  0.30196240  0.29862626  0.10857673  1
  Zr  Zr76  1  0.29893421  0.28410588  0.69198660  1
  Zr  Zr77  1  0.28699563  0.71130932  0.10651884  1
  Zr  Zr78  1  0.30267916  0.09252110  0.88690672  1
  Zr  Zr79  1  0.81237278  0.20126615  0.79208242  1
  Zr  Zr80  1  0.09999328  0.29320765  0.90005492  1
  Zr  Zr81  1  0.90117569  0.50311010  0.69965991  1
  Zr  Zr82  1  0.80028025  0.60469462  0.20193841  1
  Zr  Zr83  1  0.59391212  0.80697200  0.20149632  1
  Zr  Zr84  1  -0.00048081  0.39227666  0.00309252  1
  Zr  Zr85  1  0.59739255  0.59137968  0.59706751  1
  Zr  Zr86  1  -0.00257816  0.38998879  0.20376291  1
  Zr  Zr87  1  0.10707893  0.29072785  0.50436174  1
  Zr  Zr88  1  0.69486553  0.09711092  0.69653989  1
  Zr  Zr89  1  0.49419209  0.29661056  0.11651955  1
  Zr  Zr90  1  0.80580017  0.19356742  0.58607428  1
  Zr  Zr91  1  0.50253792  0.91258451  0.90222827  1
  Zr  Zr92  1  0.39996829  0.40017846  0.59246230  1
  Zr  Zr93  1  0.89894585  0.90345336  0.29493437  1
  Zr  Zr94  1  0.59003310  0.40305200  0.79385613  1
  Zr  Zr95  1  0.70174483  0.09645448  0.90746479  1
  Zr  Zr96  1  0.31465072  0.28904432  0.29181725  1
  Zr  Zr97  1  0.00355585  0.20297516  0.78572701  1
  Zr  Zr98  1  0.20300749  0.60388901  0.20330310  1
  Zr  Zr99  1  0.50303822  0.10086195  0.29619282  1
  Ta  Ta100  1  0.90013469  0.29974728  0.90304412  1
  Ta  Ta101  1  0.69835547  0.91365977  0.09894515  1
  Ta  Ta102  1  0.59651623  0.40602318  0.59317917  1
  Ta  Ta103  1  0.39554751  0.60420427  0.20972046  1
  Ta  Ta104  1  0.80519120  0.00646269  0.01029832  1
  Ta  Ta105  1  0.80137092  0.81060743  0.60521282  1
  Ta  Ta106  1  0.00394318  -0.00021804  0.00782971  1
  Ta  Ta107  1  0.59873864  0.80626106  0.60226111  1
  Ta  Ta108  1  0.00881298  0.59777452  0.80224928  1
  Ta  Ta109  1  0.69884402  0.30111765  0.10750551  1
  Ta  Ta110  1  0.20859471  -0.00216823  0.00386683  1
  Ta  Ta111  1  0.69860785  0.90164277  0.50157076  1
  Ta  Ta112  1  0.20130635  0.79216857  0.39970688  1
  Ta  Ta113  1  0.89789020  0.70352809  0.29630250  1
  Ta  Ta114  1  0.39753956  0.80438560  0.20324328  1
  Ta  Ta115  1  0.49906120  0.90065424  0.49073661  1
  Ta  Ta116  1  0.91410278  0.10382214  0.91033026  1
  Ta  Ta117  1  0.59769630  -0.00189857  0.59141065  1
  Ta  Ta118  1  0.59813967  0.39810343  0.20872821  1
  Ta  Ta119  1  0.29514420  0.50371741  0.70115265  1
  Ta  Ta120  1  0.19240301  0.59924129  0.60895390  1
  Ta  Ta121  1  0.70094799  0.49372891  0.29821721  1
  Ta  Ta122  1  0.90251742  0.90645565  0.10503249  1
  Ta  Ta123  1  0.40249110  0.00119124  0.00748195  1
  Ta  Ta124  1  0.79033575  0.59363319  0.59841227  1
  Ta  Ta125  1  0.49535184  0.90657319  0.30623760  1
  Ta  Ta126  1  -0.00079089  0.38802396  0.39903321  1
  Ta  Ta127  1  0.79858753  0.19719468  0.20261884  1
  Ta  Ta128  1  0.89599661  0.29250094  0.30228831  1
  Ta  Ta129  1  0.00511456  0.38903826  0.60735480  1
  Ta  Ta130  1  0.20374000  0.39755723  -0.00604243  1
  Ta  Ta131  1  0.10025903  0.29168552  0.10149800  1
  Ta  Ta132  1  0.09741455  0.09622145  0.90212184  1
  Ta  Ta133  1  0.28752020  0.50345561  0.89310552  1
  Ta  Ta134  1  0.19862934  0.39937012  0.60779064  1
  Ta  Ta135  1  0.19973587  0.18787907  0.39000238  1
  Ta  Ta136  1  0.30103645  0.89678715  0.49378191  1
  Ta  Ta137  1  0.50214579  0.29151867  0.30039095  1
  Ta  Ta138  1  0.59699897  0.39653357  -0.00199405  1
  Ta  Ta139  1  0.40266008  -0.00758349  0.19602545  1
  Ta  Ta140  1  0.19642223  0.79551519  0.60242728  1
  Ta  Ta141  1  0.39568850  0.18696597  0.39773525  1
  Ta  Ta142  1  -0.00112451  0.19833701  0.39415903  1
  Ta  Ta143  1  0.10324750  0.69961862  0.90175674  1
  Ta  Ta144  1  0.90406397  0.69551664  0.89925909  1
  Ta  Ta145  1  -0.00277531  0.61263212  0.19099576  1
  Ta  Ta146  1  -0.00109661  0.79346683  0.19264156  1
  Ta  Ta147  1  0.69719480  0.90594324  0.69767789  1
  Ta  Ta148  1  0.00021571  0.79410179  0.00682919  1
  Ta  Ta149  1  0.60622728  0.00314965  0.39936645  1
  Ti  Ti150  1  -0.00132506  0.20232466  0.20414376  1
  Ti  Ti151  1  0.00212401  0.00404448  0.79560675  1
  Ti  Ti152  1  0.19997621  0.80533659  0.00039831  1
  Ti  Ti153  1  0.29909685  0.28081399  0.50371533  1
  Ti  Ti154  1  0.19905262  0.60242144  -0.00258174  1
  Ti  Ti155  1  0.18898582  0.60106273  0.79751820  1
  Ti  Ti156  1  0.69377128  0.28869793  0.29813128  1
  Ti  Ti157  1  0.59431423  0.81690297  0.00992484  1
  Ti  Ti158  1  -0.00056832  0.60763717  0.00117975  1
  Ti  Ti159  1  0.10547521  0.70877465  0.28778849  1
  Ti  Ti160  1  0.28856347  0.71027423  0.89529195  1
  Ti  Ti161  1  0.29781112  0.09264049  0.48957681  1
  Ti  Ti162  1  0.10376352  0.10607536  0.68879782  1
  Ti  Ti163  1  0.19698564  0.19896308  0.79488261  1
  Ti  Ti164  1  0.79493276  0.00167739  0.59144622  1
  Ti  Ti165  1  0.40355815  0.20549710  0.80947342  1
  Ti  Ti166  1  0.90767600  0.29193406  0.49852822  1
  Ti  Ti167  1  0.80078788  0.38866602  0.20308256  1
  Ti  Ti168  1  0.69344899  0.10137236  0.10889675  1
  Ti  Ti169  1  0.49508732  0.70311313  0.10194432  1
  Ti  Ti170  1  0.29939771  0.50694862  0.51239989  1
  Ti  Ti171  1  0.49932074  0.09622540  0.49158804  1
  Ti  Ti172  1  0.90763866  0.09944611  0.10532770  1
  Ti  Ti173  1  0.59701766  0.18541403  0.59186405  1
  Ti  Ti174  1  0.89952408  0.49733459  0.29760229  1
  Ti  Ti175  1  0.79577452  0.80492412  0.39422165  1
  Ti  Ti176  1  0.48580831  0.50690375  0.68974977  1
  Ti  Ti177  1  0.79423364  0.00736784  0.20252391  1
  Ti  Ti178  1  0.30539019  0.10308184  0.69851103  1
  Ti  Ti179  1  0.79311602  0.59799738  0.80329164  1
  Ti  Ti180  1  0.19778016  0.39737144  0.79652094  1
  Ti  Ti181  1  0.00469838  0.00189153  0.20255922  1
  Ti  Ti182  1  0.79886208  0.19018629  0.39661975  1
  Ti  Ti183  1  0.09395263  0.69970288  0.51440006  1
  Ti  Ti184  1  0.30098656  0.49961880  0.10111623  1
  Ti  Ti185  1  0.10647911  0.89671161  0.29910640  1
  Ti  Ti186  1  0.39751820  0.79627799  0.39626047  1
  Ti  Ti187  1  0.49461955  0.28750847  0.68402606  1
  Ti  Ti188  1  0.60465097  -0.00301370  0.20593392  1
  Ti  Ti189  1  0.30151525  0.90090691  0.89418748  1
  Ti  Ti190  1  0.50885643  0.09385372  0.10414673  1
  Ti  Ti191  1  0.60065411  0.59111084  0.39789799  1
  Ti  Ti192  1  0.10301101  0.50234408  0.90046613  1
  Ti  Ti193  1  0.49579674  0.70235805  0.30136578  1
  Ti  Ti194  1  0.70572805  0.49321596  0.70694298  1
  Ti  Ti195  1  0.59950074  0.00642742  0.80491080  1
  Ti  Ti196  1  0.90000719  0.10448616  0.29384750  1
  Ti  Ti197  1  0.19042539  0.19846504  0.21341463  1
  Ti  Ti198  1  0.19339237  0.00706175  0.79645930  1
  Ti  Ti199  1  0.69488144  0.90731423  0.90551629  1
  Mo  Mo200  1  0.90076030  0.10395661  0.49058321  1
  Mo  Mo201  1  0.30456211  0.70800720  0.30377276  1
  Mo  Mo202  1  0.29471689  0.30290517  0.88720513  1
  Mo  Mo203  1  0.09670734  0.10397490  0.29794530  1
  Mo  Mo204  1  0.39141854  0.80290441  0.81037164  1
  Mo  Mo205  1  0.19631329  0.79794664  0.80722348  1
  Mo  Mo206  1  0.40330072  -0.00211765  0.40133400  1
  Mo  Mo207  1  0.10806697  0.29627900  0.69551177  1
  Mo  Mo208  1  0.50161908  0.90739895  0.10718675  1
  Mo  Mo209  1  0.90025210  0.70323785  0.09683003  1
  Mo  Mo210  1  0.40944729  0.18335430  0.20209063  1
  Mo  Mo211  1  0.59962337  0.19442203  0.39694621  1
  Mo  Mo212  1  0.40351115  0.41800281  0.21033142  1
  Mo  Mo213  1  0.50199420  0.70431508  0.69879527  1
  Mo  Mo214  1  0.49800950  0.09719612  0.90250572  1
  Mo  Mo215  1  0.69987895  0.49496412  0.49765427  1
  Mo  Mo216  1  0.30387486  0.50115514  0.29903513  1
  Mo  Mo217  1  0.60289442  0.00462609  0.01072899  1
  Mo  Mo218  1  0.09853285  0.70301006  0.09198433  1
  Mo  Mo219  1  0.60682591  0.20175103  0.20051196  1
  Mo  Mo220  1  0.69929358  0.10545685  0.29478198  1
  Mo  Mo221  1  0.39332657  0.59768014  0.60435660  1
  Mo  Mo222  1  0.61036623  0.81070065  0.79708136  1
  Mo  Mo223  1  0.70049435  0.49981942  0.89405885  1
  Mo  Mo224  1  0.19633347  0.80363921  0.20826879  1
  Mo  Mo225  1  0.09990524  0.69716009  0.70136815  1
  Mo  Mo226  1  0.00278233  0.20437657  0.59293343  1
  Mo  Mo227  1  0.29911959  0.90524901  0.10206657  1
  Mo  Mo228  1  0.50042885  0.50127563  0.50157387  1
  Mo  Mo229  1  0.50195278  0.50025605  0.29862673  1
  Mo  Mo230  1  -0.00096450  0.19522037  0.00575342  1
  Mo  Mo231  1  0.00808890  0.59670580  0.60997830  1
  Mo  Mo232  1  0.00841664  -0.00265269  0.59627862  1
  Mo  Mo233  1  0.20454033  -0.00303374  0.40097671  1
  Mo  Mo234  1  0.70280676  0.69125827  0.30277169  1
  Mo  Mo235  1  0.39880785  0.18526612  0.58629321  1
  Mo  Mo236  1  0.69797672  0.91378442  0.29815038  1
  Mo  Mo237  1  0.30207836  0.09569920  0.30466670  1
  Mo  Mo238  1  0.49969911  0.30275389  0.90446719  1
  Mo  Mo239  1  0.80707736  0.39933639  0.79532772  1
  Mo  Mo240  1  0.90386606  0.30304551  0.69434240  1
  Mo  Mo241  1  0.89666098  0.29502815  0.10871199  1
  Mo  Mo242  1  0.20872681  0.19144387  0.59569698  1
  Mo  Mo243  1  0.89965487  0.90323567  0.69383482  1
  Mo  Mo244  1  0.79859311  0.39517364  0.00501036  1
  Mo  Mo245  1  0.00182833  0.79697608  0.60042282  1
  Mo  Mo246  1  0.10562159  0.49811755  0.70337756  1
  Mo  Mo247  1  0.69256544  0.09684734  0.49490769  1
  Mo  Mo248  1  0.39982766  0.00397014  0.80261045  1
  Mo  Mo249  1  0.09684780  0.29177366  0.30242881  1
