# generated using pymatgen
data_HfZrTaTiMo
_symmetry_space_group_name_H-M   'P 1'
_cell_length_a   16.88959712
_cell_length_b   16.88593262
_cell_length_c   16.88957683
_cell_angle_alpha   90.05320571
_cell_angle_beta   89.96600565
_cell_angle_gamma   89.97045809
_symmetry_Int_Tables_number   1
_chemical_formula_structural   HfZrTaTiMo
_chemical_formula_sum   'Hf50 Zr50 Ta50 Ti50 Mo50'
_cell_volume   4816.84630444
_cell_formula_units_Z   50
loop_
 _symmetry_equiv_pos_site_id
 _symmetry_equiv_pos_as_xyz
  1  'x, y, z'
loop_
 _atom_site_type_symbol
 _atom_site_label
 _atom_site_symmetry_multiplicity
 _atom_site_fract_x
 _atom_site_fract_y
 _atom_site_fract_z
 _atom_site_occupancy
  Hf  Hf0  1  0.49254331  0.90256192  0.30740253  1
  Hf  Hf1  1  0.60157672  0.00043374  0.19666480  1
  Hf  Hf2  1  0.39109762  0.60351778  0.81005968  1
  Hf  Hf3  1  -0.00608018  0.80096988  0.19887953  1
  Hf  Hf4  1  0.60104498  0.80167199  0.00432403  1
  Hf  Hf5  1  0.59601929  0.40028697  0.79699392  1
  Hf  Hf6  1  0.00929472  0.59515020  0.39925717  1
  Hf  Hf7  1  0.08836691  0.90154094  0.09431494  1
  Hf  Hf8  1  0.60415827  0.39954158  0.60169734  1
  Hf  Hf9  1  0.59380743  0.40898267  0.01239035  1
  Hf  Hf10  1  0.10628609  0.30842722  0.90464645  1
  Hf  Hf11  1  0.19715910  0.39869436  0.21022768  1
  Hf  Hf12  1  0.39621059  0.79818670  -0.00450447  1
  Hf  Hf13  1  0.09806413  0.50131340  0.68913123  1
  Hf  Hf14  1  0.29693069  0.69092408  0.68884898  1
  Hf  Hf15  1  0.19692962  0.59492905  0.20551826  1
  Hf  Hf16  1  0.69750671  0.71166232  0.50375018  1
  Hf  Hf17  1  0.49485905  0.10563457  0.89883915  1
  Hf  Hf18  1  0.09292274  0.90004144  0.30659651  1
  Hf  Hf19  1  0.90814142  0.09683046  0.89648630  1
  Hf  Hf20  1  0.40316194  -0.00984445  0.58739290  1
  Hf  Hf21  1  0.59908883  0.20895195  0.79255579  1
  Hf  Hf22  1  0.20287920  0.60472077  -0.00405171  1
  Hf  Hf23  1  0.20112222  0.19920212  0.80133966  1
  Hf  Hf24  1  0.70054107  0.10750352  0.30905513  1
  Hf  Hf25  1  0.40761722  -0.00392156  0.00062363  1
  Hf  Hf26  1  0.80017916  -0.00358172  0.00022121  1
  Hf  Hf27  1  0.69599063  0.88717942  0.68300893  1
  Hf  Hf28  1  0.49519479  0.70304456  0.10859254  1
  Hf  Hf29  1  0.48609937  0.50277353  0.69393256  1
  Hf  Hf30  1  0.19135020  0.19153186  0.20462695  1
  Hf  Hf31  1  0.80129735  0.20241232  0.00496964  1
  Hf  Hf32  1  0.29793373  0.48659773  0.90434802  1
  Hf  Hf33  1  0.79377205  0.59412510  0.39950689  1
  Hf  Hf34  1  0.60522745  0.59248766  0.80032413  1
  Hf  Hf35  1  0.30417564  0.29455467  0.09451360  1
  Hf  Hf36  1  0.49980673  0.70064084  0.30801519  1
  Hf  Hf37  1  0.50635375  0.89693909  0.69928357  1
  Hf  Hf38  1  0.30711236  0.09875770  0.69945840  1
  Hf  Hf39  1  0.30493225  0.89910106  0.11425458  1
  Hf  Hf40  1  -0.00953113  0.21172263  0.59674727  1
  Hf  Hf41  1  0.90189761  0.70766859  0.50034977  1
  Hf  Hf42  1  0.90221130  0.30950803  0.10844197  1
  Hf  Hf43  1  0.41577543  0.40174872  0.19365315  1
  Hf  Hf44  1  0.20525267  0.39702967  0.79094997  1
  Hf  Hf45  1  0.61977538  -0.00637783  0.41179492  1
  Hf  Hf46  1  0.80346349  0.19641889  0.20513648  1
  Hf  Hf47  1  0.90076823  0.69569894  0.69515321  1
  Hf  Hf48  1  0.09667116  0.09902340  0.69970361  1
  Hf  Hf49  1  0.40366998  0.21018110  0.40925995  1
  Zr  Zr50  1  0.19324407  0.79473857  0.79853576  1
  Zr  Zr51  1  0.39218977  0.79586030  0.59253826  1
  Zr  Zr52  1  0.50328595  0.69890844  0.69647000  1
  Zr  Zr53  1  0.09762534  0.09789110  0.49978470  1
  Zr  Zr54  1  -0.00219278  0.40518212  0.79602361  1
  Zr  Zr55  1  0.31514687  0.09080682  0.30143355  1
  Zr  Zr56  1  -0.00651080  -0.01249741  0.60220944  1
  Zr  Zr57  1  0.89574425  0.69894705  0.09168258  1
  Zr  Zr58  1  0.69892594  0.30813255  0.90336633  1
  Zr  Zr59  1  0.10652399  0.49753704  0.09109009  1
  Zr  Zr60  1  0.19065517  0.00857278  0.20138074  1
  Zr  Zr61  1  -0.00332906  0.41091917  -0.00295531  1
  Zr  Zr62  1  0.91175456  0.09800320  0.10005953  1
  Zr  Zr63  1  0.09825438  0.70384652  0.30193367  1
  Zr  Zr64  1  0.89822000  0.30624900  0.30236408  1
  Zr  Zr65  1  0.20618325  0.21131033  0.60143078  1
  Zr  Zr66  1  0.60867369  0.00945451  0.78918323  1
  Zr  Zr67  1  0.79026874  0.00539151  0.59170501  1
  Zr  Zr68  1  0.09143383  0.89965808  0.90356230  1
  Zr  Zr69  1  0.80685207  -0.00472166  0.78917732  1
  Zr  Zr70  1  0.60482113  0.59602367  0.00395085  1
  Zr  Zr71  1  0.30897176  0.29888992  0.29869823  1
  Zr  Zr72  1  0.89157530  0.30758630  0.89596586  1
  Zr  Zr73  1  0.60617476  0.79823073  0.20200963  1
  Zr  Zr74  1  0.50256204  0.69201176  0.50000510  1
  Zr  Zr75  1  0.89630353  0.70157288  0.30439980  1
  Zr  Zr76  1  0.69637381  0.10580329  0.90547091  1
  Zr  Zr77  1  0.61070119  0.58817158  0.20129226  1
  Zr  Zr78  1  0.70050165  0.70166660  0.69945996  1
  Zr  Zr79  1  0.09675843  0.29694554  0.10036311  1
  Zr  Zr80  1  0.88909027  0.51186294  0.89766249  1
  Zr  Zr81  1  0.50061566  0.09815618  0.30738011  1
  Zr  Zr82  1  0.59848780  0.20222483  0.19573804  1
  Zr  Zr83  1  0.90557651  0.49276626  0.50013473  1
  Zr  Zr84  1  0.49580420  0.10157655  0.69212727  1
  Zr  Zr85  1  0.50994699  0.09948671  0.49924866  1
  Zr  Zr86  1  0.19161827  0.59934773  0.80186490  1
  Zr  Zr87  1  0.40052486  0.59136808  0.20315661  1
  Zr  Zr88  1  0.70006248  0.31110933  0.11077448  1
  Zr  Zr89  1  0.29286644  0.90267166  0.69714784  1
  Zr  Zr90  1  0.40323484  0.59728230  0.00299149  1
  Zr  Zr91  1  0.39061778  0.39019723  0.59286641  1
  Zr  Zr92  1  0.38961143  0.80017762  0.40547034  1
  Zr  Zr93  1  0.19982836  0.00535476  0.00163608  1
  Zr  Zr94  1  0.39400583  0.79935288  0.80666984  1
  Zr  Zr95  1  0.69730587  0.89283804  0.89399715  1
  Zr  Zr96  1  0.79638360  0.79868624  0.19545075  1
  Zr  Zr97  1  0.80146637  0.20091018  0.78496465  1
  Zr  Zr98  1  0.30126267  0.09882294  0.49890703  1
  Zr  Zr99  1  0.19904010  0.18622151  0.00061868  1
  Ta  Ta100  1  0.09972911  0.30469277  0.69453888  1
  Ta  Ta101  1  0.29805057  0.49824488  0.68837436  1
  Ta  Ta102  1  0.79654848  0.59358240  0.59766426  1
  Ta  Ta103  1  0.29675882  0.70530759  0.10928327  1
  Ta  Ta104  1  0.29848335  0.70032800  0.30028423  1
  Ta  Ta105  1  0.89943846  0.10327974  0.49542232  1
  Ta  Ta106  1  0.00149598  0.59437315  0.19879332  1
  Ta  Ta107  1  0.18912078  0.20306729  0.39187230  1
  Ta  Ta108  1  0.00019433  0.20569185  0.40064089  1
  Ta  Ta109  1  0.20163431  0.59842080  0.40493231  1
  Ta  Ta110  1  0.20324276  0.79678426  -0.00035049  1
  Ta  Ta111  1  0.49785113  0.50001071  0.49773828  1
  Ta  Ta112  1  0.09776025  0.70475293  0.09651752  1
  Ta  Ta113  1  0.70842557  0.70226130  0.90067214  1
  Ta  Ta114  1  0.51102136  0.30462722  0.30501596  1
  Ta  Ta115  1  0.59466170  -0.00225999  0.00807587  1
  Ta  Ta116  1  0.19538185  0.79417393  0.40567637  1
  Ta  Ta117  1  0.89621656  0.49933626  0.29701672  1
  Ta  Ta118  1  0.30213431  0.49828026  0.30887270  1
  Ta  Ta119  1  0.89797658  0.50265208  0.69534040  1
  Ta  Ta120  1  0.80197539  0.20743273  0.59435956  1
  Ta  Ta121  1  0.80218429  -0.00258453  0.20433303  1
  Ta  Ta122  1  0.60689894  0.59093648  0.40049481  1
  Ta  Ta123  1  0.00096601  0.60027661  -0.00165383  1
  Ta  Ta124  1  0.39894649  0.21126269  0.79808087  1
  Ta  Ta125  1  0.19783174  0.60189650  0.58672644  1
  Ta  Ta126  1  0.30755777  0.29889676  0.90297228  1
  Ta  Ta127  1  0.51149341  0.70465131  0.89514546  1
  Ta  Ta128  1  0.52063736  0.88948461  0.50258988  1
  Ta  Ta129  1  0.00613519  0.40947487  0.21063039  1
  Ta  Ta130  1  0.80246119  0.20409546  0.40738189  1
  Ta  Ta131  1  0.60707056  0.58920618  0.59673778  1
  Ta  Ta132  1  0.32127209  0.10044746  0.10433892  1
  Ta  Ta133  1  0.00007588  0.20677449  0.79331576  1
  Ta  Ta134  1  -0.00153561  -0.01233890  0.79146192  1
  Ta  Ta135  1  0.41233497  0.39126597  0.00154626  1
  Ta  Ta136  1  0.80348679  0.00154893  0.40232428  1
  Ta  Ta137  1  0.10390150  0.49254220  0.50259712  1
  Ta  Ta138  1  0.19858693  0.40114825  0.40048875  1
  Ta  Ta139  1  0.61289399  0.20156791  0.59942458  1
  Ta  Ta140  1  0.70624294  0.89956203  0.09725185  1
  Ta  Ta141  1  0.19486687  0.00064341  0.39640304  1
  Ta  Ta142  1  0.28316866  0.90155703  0.49572771  1
  Ta  Ta143  1  0.89223308  0.50462975  0.11079628  1
  Ta  Ta144  1  0.08835119  0.70430802  0.90544930  1
  Ta  Ta145  1  0.19519460  0.00163309  0.80069573  1
  Ta  Ta146  1  0.60395773  0.40469029  0.40257583  1
  Ta  Ta147  1  0.90021576  0.90293469  0.30756221  1
  Ta  Ta148  1  -0.00231669  0.79906496  0.79178339  1
  Ta  Ta149  1  0.80899165  0.79910324  0.79800113  1
  Ti  Ti150  1  0.70523051  0.89841957  0.30123992  1
  Ti  Ti151  1  0.40125906  0.40137519  0.40347150  1
  Ti  Ti152  1  0.70256096  0.49411913  0.50217053  1
  Ti  Ti153  1  0.89740252  0.70308839  0.90227967  1
  Ti  Ti154  1  0.79459246  0.41336602  0.01159116  1
  Ti  Ti155  1  0.90209113  0.09703905  0.30776992  1
  Ti  Ti156  1  -0.00189178  0.00449868  0.20405707  1
  Ti  Ti157  1  0.50449450  0.90108359  0.88788411  1
  Ti  Ti158  1  0.58219779  0.20624426  0.00920854  1
  Ti  Ti159  1  0.00964509  0.39649558  0.39528449  1
  Ti  Ti160  1  0.09546905  0.89327124  0.49596580  1
  Ti  Ti161  1  -0.00506272  0.39279705  0.59863166  1
  Ti  Ti162  1  0.90397401  0.89076644  0.90605399  1
  Ti  Ti163  1  0.70747325  0.49746161  0.89545594  1
  Ti  Ti164  1  0.18548542  0.79028436  0.59453926  1
  Ti  Ti165  1  -0.00348323  0.00113947  0.40273293  1
  Ti  Ti166  1  0.00307411  0.60289889  0.80294152  1
  Ti  Ti167  1  0.49293494  0.89835240  0.11425939  1
  Ti  Ti168  1  0.00926203  0.19687962  0.21423706  1
  Ti  Ti169  1  0.49078418  0.29913612  0.69421087  1
  Ti  Ti170  1  0.79577817  0.59827429  0.79287243  1
  Ti  Ti171  1  0.00902778  0.60733323  0.59463350  1
  Ti  Ti172  1  0.31038931  0.09795454  0.89623186  1
  Ti  Ti173  1  0.50920635  0.29964260  0.50056655  1
  Ti  Ti174  1  0.90099072  0.90020536  0.09229555  1
  Ti  Ti175  1  0.78874340  0.60176668  0.00961318  1
  Ti  Ti176  1  0.19005204  -0.00798363  0.60020949  1
  Ti  Ti177  1  0.29115508  0.30339874  0.49644327  1
  Ti  Ti178  1  0.30046600  0.90042003  0.30146614  1
  Ti  Ti179  1  0.50295457  0.49681046  0.30963203  1
  Ti  Ti180  1  0.69788930  0.30843063  0.30367339  1
  Ti  Ti181  1  0.30100750  0.49270533  0.09737439  1
  Ti  Ti182  1  0.70153212  0.30083815  0.49583287  1
  Ti  Ti183  1  0.38967078  0.59601335  0.40983296  1
  Ti  Ti184  1  0.90277717  0.10185194  0.69446975  1
  Ti  Ti185  1  0.08837260  0.09488044  0.89804677  1
  Ti  Ti186  1  0.79570547  0.80991862  0.40220119  1
  Ti  Ti187  1  0.89768074  0.89436506  0.49878306  1
  Ti  Ti188  1  0.80583183  0.39584469  0.60225805  1
  Ti  Ti189  1  0.70936048  0.30820383  0.69882358  1
  Ti  Ti190  1  0.29761334  0.90710106  0.89585321  1
  Ti  Ti191  1  0.19837663  0.80024378  0.20354631  1
  Ti  Ti192  1  0.79718851  0.40007131  0.40101768  1
  Ti  Ti193  1  0.10221457  0.30741043  0.50012809  1
  Ti  Ti194  1  0.00798060  0.79983488  0.60552759  1
  Ti  Ti195  1  0.70095112  0.69951055  0.30410333  1
  Ti  Ti196  1  0.41721809  0.20127926  0.19189837  1
  Ti  Ti197  1  0.69913797  0.09778263  0.09878486  1
  Ti  Ti198  1  0.00266516  0.19915557  -0.00346110  1
  Ti  Ti199  1  0.49303491  0.49375293  0.89663537  1
  Mo  Mo200  1  0.09870228  0.50904513  0.89598782  1
  Mo  Mo201  1  0.30172829  0.30184363  0.70368865  1
  Mo  Mo202  1  0.19792051  0.40213973  0.59433455  1
  Mo  Mo203  1  0.60416110  0.79408632  0.80352235  1
  Mo  Mo204  1  0.39249056  0.00053107  0.80713697  1
  Mo  Mo205  1  0.09849855  0.89707158  0.69801209  1
  Mo  Mo206  1  0.10116956  0.49781701  0.30809596  1
  Mo  Mo207  1  0.39162853  -0.01238752  0.40499458  1
  Mo  Mo208  1  0.70732243  0.49751077  0.69522132  1
  Mo  Mo209  1  0.39995010  0.39527116  0.79983665  1
  Mo  Mo210  1  0.70670367  0.11172945  0.49947443  1
  Mo  Mo211  1  0.79874808  0.40730685  0.20928384  1
  Mo  Mo212  1  0.90045656  0.30839163  0.69325650  1
  Mo  Mo213  1  0.29918613  0.49942213  0.49387836  1
  Mo  Mo214  1  0.09265222  0.69835768  0.69544961  1
  Mo  Mo215  1  0.28965204  0.69778570  0.49621509  1
  Mo  Mo216  1  0.81034053  0.79968962  0.59935425  1
  Mo  Mo217  1  0.70049038  0.11089562  0.68892589  1
  Mo  Mo218  1  0.50054298  0.29765313  0.10192025  1
  Mo  Mo219  1  -0.00477434  0.79548147  -0.00392285  1
  Mo  Mo220  1  0.50048259  0.09933584  0.09617331  1
  Mo  Mo221  1  0.59814413  0.79364437  0.59864233  1
  Mo  Mo222  1  0.08485582  0.09898695  0.10171215  1
  Mo  Mo223  1  0.80085525  0.79971993  -0.00650877  1
  Mo  Mo224  1  0.40474119  0.20976261  0.59912459  1
  Mo  Mo225  1  0.79508729  0.41031592  0.78463591  1
  Mo  Mo226  1  0.60993637  0.79877225  0.39665904  1
  Mo  Mo227  1  0.40521235  -0.00319783  0.19933761  1
  Mo  Mo228  1  0.60237299  0.00160006  0.59392027  1
  Mo  Mo229  1  0.89707251  0.30347026  0.49535304  1
  Mo  Mo230  1  0.29466772  0.70453287  0.90873608  1
  Mo  Mo231  1  0.70662550  0.89204975  0.49682715  1
  Mo  Mo232  1  0.50101617  0.49792468  0.10187105  1
  Mo  Mo233  1  0.39195463  0.59038116  0.58834496  1
  Mo  Mo234  1  0.49631285  0.30145467  0.90017586  1
  Mo  Mo235  1  0.40325583  0.19907295  -0.00493578  1
  Mo  Mo236  1  0.70372410  0.70066324  0.09473755  1
  Mo  Mo237  1  -0.00076543  0.80914971  0.40677318  1
  Mo  Mo238  1  0.79905918  0.59861080  0.20316968  1
  Mo  Mo239  1  0.70434702  0.49124631  0.30539196  1
  Mo  Mo240  1  -0.00470851  -0.00247103  -0.00774049  1
  Mo  Mo241  1  0.60718541  0.21621094  0.40659947  1
  Mo  Mo242  1  0.09711167  0.70069625  0.50271269  1
  Mo  Mo243  1  0.70925240  0.50244449  0.11060739  1
  Mo  Mo244  1  0.39058168  0.79901861  0.20698830  1
  Mo  Mo245  1  0.89889746  0.88909574  0.69545610  1
  Mo  Mo246  1  0.09666518  0.29996977  0.30700664  1
  Mo  Mo247  1  0.60106987  0.40294057  0.21164602  1
  Mo  Mo248  1  0.21120430  0.39791662  0.00009770  1
  Mo  Mo249  1  0.08586742  0.09898017  0.30653004  1
