# generated using pymatgen
data_HfZrTaTiMo
_symmetry_space_group_name_H-M   'P 1'
_cell_length_a   16.89062876
_cell_length_b   16.88812254
_cell_length_c   16.88730142
_cell_angle_alpha   89.99971475
_cell_angle_beta   90.03041526
_cell_angle_gamma   90.01357818
_symmetry_Int_Tables_number   1
_chemical_formula_structural   HfZrTaTiMo
_chemical_formula_sum   'Hf50 Zr50 Ta50 Ti50 Mo50'
_cell_volume   4817.11894323
_cell_formula_units_Z   50
loop_
 _symmetry_equiv_pos_site_id
 _symmetry_equiv_pos_as_xyz
  1  'x, y, z'
loop_
 _atom_site_type_symbol
 _atom_site_label
 _atom_site_symmetry_multiplicity
 _atom_site_fract_x
 _atom_site_fract_y
 _atom_site_fract_z
 _atom_site_occupancy
  Hf  Hf0  1  0.00068848  0.59688648  0.20114813  1
  Hf  Hf1  1  0.29846059  0.10617109  0.89481471  1
  Hf  Hf2  1  0.80506261  0.00580609  0.39643198  1
  Hf  Hf3  1  0.00431391  0.21102550  0.59517574  1
  Hf  Hf4  1  0.10506102  0.10637430  0.70555080  1
  Hf  Hf5  1  0.29647957  0.50757551  0.89856231  1
  Hf  Hf6  1  0.80193219  0.39404182  -0.00524539  1
  Hf  Hf7  1  0.59895812  0.00768746  -0.00584201  1
  Hf  Hf8  1  0.20077316  0.58985642  0.60687654  1
  Hf  Hf9  1  0.29549741  0.89649793  0.90081617  1
  Hf  Hf10  1  0.70406950  0.69909227  0.10251187  1
  Hf  Hf11  1  0.09910947  0.49279607  0.70626092  1
  Hf  Hf12  1  0.20451181  0.00387991  0.40475073  1
  Hf  Hf13  1  0.70361182  0.10452614  0.49793526  1
  Hf  Hf14  1  0.50273072  0.10414090  0.49817833  1
  Hf  Hf15  1  0.60500075  0.00661578  0.20871841  1
  Hf  Hf16  1  0.59913341  -0.00205876  0.79266479  1
  Hf  Hf17  1  0.40264714  0.59689955  0.19851520  1
  Hf  Hf18  1  0.90263670  0.29266781  0.10833299  1
  Hf  Hf19  1  0.79765388  0.59573809  0.60366341  1
  Hf  Hf20  1  0.69685318  0.49837356  0.89319312  1
  Hf  Hf21  1  0.20083661  0.59584860  0.40201200  1
  Hf  Hf22  1  0.21529941  0.21000211  0.20430442  1
  Hf  Hf23  1  0.70542418  0.09880815  0.69563882  1
  Hf  Hf24  1  0.39746680  0.39443902  0.00197428  1
  Hf  Hf25  1  0.49502825  0.11142551  0.89898409  1
  Hf  Hf26  1  0.60283396  -0.00463812  0.60300166  1
  Hf  Hf27  1  0.28937712  0.69824203  0.09644454  1
  Hf  Hf28  1  0.89671298  0.69786486  0.70118718  1
  Hf  Hf29  1  0.49912132  0.89716951  0.31175128  1
  Hf  Hf30  1  0.29070263  0.89436190  0.10269726  1
  Hf  Hf31  1  0.10342943  0.91010709  0.89594471  1
  Hf  Hf32  1  0.40701595  0.39254614  0.60669044  1
  Hf  Hf33  1  0.60498001  0.79389029  0.60384286  1
  Hf  Hf34  1  -0.00919199  -0.00085196  0.20573610  1
  Hf  Hf35  1  0.79829161  0.59519592  0.40323529  1
  Hf  Hf36  1  0.70164957  0.10593587  0.09414823  1
  Hf  Hf37  1  0.10539106  0.89513099  0.29327967  1
  Hf  Hf38  1  0.80345740  0.59616707  0.20816455  1
  Hf  Hf39  1  0.39510235  0.20942714  0.59288311  1
  Hf  Hf40  1  0.19363761  0.81082039  0.42116924  1
  Hf  Hf41  1  0.09766755  0.10571942  0.10466556  1
  Hf  Hf42  1  0.79659557  0.20154772  0.20978837  1
  Hf  Hf43  1  0.80741426  0.80236567  -0.01287567  1
  Hf  Hf44  1  0.89921024  0.70167406  0.50237825  1
  Hf  Hf45  1  0.50491674  0.69712775  0.31369555  1
  Hf  Hf46  1  0.79774094  0.80594216  0.39944296  1
  Hf  Hf47  1  0.80195116  0.20213528  -0.00892314  1
  Hf  Hf48  1  0.09668560  0.29617128  0.10683952  1
  Hf  Hf49  1  0.10288647  0.10688879  0.50271808  1
  Zr  Zr50  1  0.69370721  0.48791361  0.10391218  1
  Zr  Zr51  1  0.00022889  0.00287166  0.40197195  1
  Zr  Zr52  1  0.29338314  0.69534338  0.70539586  1
  Zr  Zr53  1  -0.00548675  0.80535801  0.80562148  1
  Zr  Zr54  1  0.10050704  0.70569873  0.29718505  1
  Zr  Zr55  1  0.79621916  0.60288805  -0.00787236  1
  Zr  Zr56  1  0.20817984  -0.00308430  0.59636434  1
  Zr  Zr57  1  0.09543531  0.29675553  0.30218649  1
  Zr  Zr58  1  0.50021669  0.89748756  0.49801531  1
  Zr  Zr59  1  0.88578154  0.30830673  0.49577764  1
  Zr  Zr60  1  0.00489692  0.81016676  0.60007027  1
  Zr  Zr61  1  -0.00079811  0.59893371  0.79725920  1
  Zr  Zr62  1  -0.00333835  0.40892038  0.20944582  1
  Zr  Zr63  1  -0.00544916  0.80050339  -0.00386450  1
  Zr  Zr64  1  0.60607302  0.20345226  0.79482782  1
  Zr  Zr65  1  0.30038666  0.50528574  0.09344052  1
  Zr  Zr66  1  -0.00265318  0.58633890  0.40090360  1
  Zr  Zr67  1  0.19997265  0.39170851  -0.00033728  1
  Zr  Zr68  1  0.40844800  0.59580347  0.60774365  1
  Zr  Zr69  1  0.00492297  0.40311425  -0.00320046  1
  Zr  Zr70  1  0.50232428  0.49402137  0.30154633  1
  Zr  Zr71  1  0.59417309  0.78599686  -0.00669156  1
  Zr  Zr72  1  0.50641576  0.29857866  0.91148675  1
  Zr  Zr73  1  0.80784697  0.19928932  0.60044002  1
  Zr  Zr74  1  0.39730602  0.39778612  0.79115356  1
  Zr  Zr75  1  0.60704692  0.80408324  0.20481198  1
  Zr  Zr76  1  0.40675600  0.78918675  0.79811253  1
  Zr  Zr77  1  0.79947147  -0.00044630  0.21413806  1
  Zr  Zr78  1  0.69993230  0.48718842  0.49976802  1
  Zr  Zr79  1  0.29271718  0.69109280  0.90370685  1
  Zr  Zr80  1  0.49672187  0.10444371  0.30502847  1
  Zr  Zr81  1  0.69641049  0.30216992  0.49862537  1
  Zr  Zr82  1  0.90596648  0.10010794  0.70116576  1
  Zr  Zr83  1  0.59394970  0.39812909  0.78588722  1
  Zr  Zr84  1  0.69246889  0.69677332  0.31220152  1
  Zr  Zr85  1  0.90175620  0.50460818  0.09089534  1
  Zr  Zr86  1  -0.00690594  0.00198503  -0.00581694  1
  Zr  Zr87  1  0.39737537  0.38842655  0.40637754  1
  Zr  Zr88  1  0.49809798  0.89380651  0.89392872  1
  Zr  Zr89  1  0.09969950  0.69605102  0.51049915  1
  Zr  Zr90  1  0.40497898  0.79473632  0.19626946  1
  Zr  Zr91  1  0.70799903  0.90547232  0.09108433  1
  Zr  Zr92  1  0.20184477  0.00606313  0.20198326  1
  Zr  Zr93  1  0.29751999  0.49366316  0.50393524  1
  Zr  Zr94  1  0.39490568  0.00349324  0.00154903  1
  Zr  Zr95  1  0.29303924  0.70514899  0.30146357  1
  Zr  Zr96  1  0.00174688  0.19633524  -0.01256628  1
  Zr  Zr97  1  0.39408821  0.00134331  0.78364731  1
  Zr  Zr98  1  0.49881813  0.90320892  0.09896011  1
  Zr  Zr99  1  0.70226982  0.89874929  0.89000895  1
  Ta  Ta100  1  0.90649866  0.30380649  0.88510523  1
  Ta  Ta101  1  0.59593198  0.59799412  -0.00003984  1
  Ta  Ta102  1  0.09452293  0.69500276  0.09528009  1
  Ta  Ta103  1  0.69124680  0.49321990  0.30159019  1
  Ta  Ta104  1  0.39311112  0.38638022  0.19727334  1
  Ta  Ta105  1  0.38796414  0.00171399  0.40668800  1
  Ta  Ta106  1  0.49903472  0.10850896  0.69160885  1
  Ta  Ta107  1  -0.00381521  0.39951718  0.40307756  1
  Ta  Ta108  1  0.90653120  0.30809580  0.70728948  1
  Ta  Ta109  1  0.29927542  0.49506844  0.30008798  1
  Ta  Ta110  1  0.60393715  0.59741568  0.60186763  1
  Ta  Ta111  1  0.10408397  0.70043560  0.70414608  1
  Ta  Ta112  1  0.10465636  0.90176069  0.69954910  1
  Ta  Ta113  1  0.20435344  0.20434843  -0.00351919  1
  Ta  Ta114  1  0.30676598  0.10657337  0.30327096  1
  Ta  Ta115  1  0.80797246  0.80527868  0.20686144  1
  Ta  Ta116  1  0.70182277  0.69634363  0.70809639  1
  Ta  Ta117  1  -0.00388461  0.81105845  0.40233191  1
  Ta  Ta118  1  0.79951626  0.20936858  0.79991827  1
  Ta  Ta119  1  0.60235293  0.20224154  0.20312998  1
  Ta  Ta120  1  0.89265405  0.90860239  0.69739863  1
  Ta  Ta121  1  0.18567565  0.79533773  -0.00436844  1
  Ta  Ta122  1  -0.00853486  0.80349666  0.19548633  1
  Ta  Ta123  1  0.39767945  0.00441096  0.20529362  1
  Ta  Ta124  1  0.70201347  0.90028984  0.50119582  1
  Ta  Ta125  1  0.40864124  0.58971086  0.79663502  1
  Ta  Ta126  1  0.69652898  0.30768255  0.30003187  1
  Ta  Ta127  1  0.59497763  0.59703535  0.19567959  1
  Ta  Ta128  1  0.30195990  0.89744546  0.30205918  1
  Ta  Ta129  1  0.30610493  0.10714640  0.10262644  1
  Ta  Ta130  1  -0.00082444  0.40098628  0.59959555  1
  Ta  Ta131  1  0.79412961  0.80318786  0.60323190  1
  Ta  Ta132  1  0.89476453  0.90796538  0.50710408  1
  Ta  Ta133  1  0.50561392  0.49998981  0.90068012  1
  Ta  Ta134  1  0.50878625  0.49632194  0.50165749  1
  Ta  Ta135  1  0.30219708  0.70209283  0.50715402  1
  Ta  Ta136  1  -0.00366394  0.20651812  0.40576596  1
  Ta  Ta137  1  0.20584714  0.40151050  0.19967484  1
  Ta  Ta138  1  0.19213067  0.59131270  0.19696371  1
  Ta  Ta139  1  0.49756346  0.11415728  0.10159548  1
  Ta  Ta140  1  0.39920067  0.59768284  0.40642845  1
  Ta  Ta141  1  0.90100390  0.49578930  0.88570380  1
  Ta  Ta142  1  0.90384595  0.70325393  0.30210627  1
  Ta  Ta143  1  0.10161593  0.50782676  0.90215134  1
  Ta  Ta144  1  0.39784755  0.21360189  0.78607760  1
  Ta  Ta145  1  0.20453953  0.39746778  0.80080889  1
  Ta  Ta146  1  0.40611948  0.79158669  0.60287474  1
  Ta  Ta147  1  0.69087293  0.30275819  0.10102402  1
  Ta  Ta148  1  0.49839453  0.29528769  0.29610128  1
  Ta  Ta149  1  0.20737221  0.20575224  0.40708614  1
  Ti  Ti150  1  0.39185710  0.20655633  0.40512423  1
  Ti  Ti151  1  0.69379958  0.30240324  0.90524111  1
  Ti  Ti152  1  0.19909960  0.00796492  0.00201265  1
  Ti  Ti153  1  0.89278134  0.90825889  0.09387649  1
  Ti  Ti154  1  0.39620997  0.00256696  0.59922367  1
  Ti  Ti155  1  0.51521405  0.69201164  0.71278114  1
  Ti  Ti156  1  0.49903903  0.89413232  0.69780166  1
  Ti  Ti157  1  0.41804063  0.60585919  0.00044338  1
  Ti  Ti158  1  0.89267840  0.48892200  0.50534587  1
  Ti  Ti159  1  0.89867858  0.10292230  0.88743455  1
  Ti  Ti160  1  0.19144069  0.79516008  0.80335262  1
  Ti  Ti161  1  0.09951690  0.48683957  0.50289073  1
  Ti  Ti162  1  0.90166966  0.69900426  0.09942731  1
  Ti  Ti163  1  0.70346966  0.10273611  0.89802661  1
  Ti  Ti164  1  0.20013658  0.38901669  0.40114104  1
  Ti  Ti165  1  0.00010101  0.00253481  0.59659335  1
  Ti  Ti166  1  0.20110578  0.38988641  0.60537390  1
  Ti  Ti167  1  0.79993643  0.80276195  0.79631623  1
  Ti  Ti168  1  0.39644638  0.79540418  0.40894072  1
  Ti  Ti169  1  0.50549839  0.48874841  0.09864765  1
  Ti  Ti170  1  -0.00275354  0.58851376  0.60187468  1
  Ti  Ti171  1  0.59214395  0.39168018  0.40084692  1
  Ti  Ti172  1  0.61349413  -0.00351380  0.39395265  1
  Ti  Ti173  1  0.09775830  0.30076303  0.70625819  1
  Ti  Ti174  1  0.69858107  0.50140225  0.70151849  1
  Ti  Ti175  1  0.90301451  0.11710029  0.30720277  1
  Ti  Ti176  1  0.70091876  0.30389625  0.68577977  1
  Ti  Ti177  1  0.09941447  0.11027622  0.30036733  1
  Ti  Ti178  1  0.20771392  0.21340418  0.80050885  1
  Ti  Ti179  1  0.50671183  0.29686508  0.10284424  1
  Ti  Ti180  1  0.09565988  0.30111676  0.88786806  1
  Ti  Ti181  1  0.60326864  0.20395290  0.39435453  1
  Ti  Ti182  1  0.29787161  0.11005764  0.69521721  1
  Ti  Ti183  1  0.79854338  0.39884116  0.79193648  1
  Ti  Ti184  1  -0.00053354  0.00031694  0.79789115  1
  Ti  Ti185  1  0.50874684  0.69381885  0.49590715  1
  Ti  Ti186  1  0.80441022  0.40017384  0.20892982  1
  Ti  Ti187  1  0.29525425  0.88664106  0.69530407  1
  Ti  Ti188  1  0.10597046  0.10439725  0.88940311  1
  Ti  Ti189  1  0.38916124  0.21048097  0.00562245  1
  Ti  Ti190  1  0.89719060  0.10127445  0.10032515  1
  Ti  Ti191  1  0.10854224  0.49343839  0.30337694  1
  Ti  Ti192  1  0.10107429  0.89679345  0.10044667  1
  Ti  Ti193  1  0.89618516  0.68845077  0.89400134  1
  Ti  Ti194  1  0.20582908  0.00035924  0.79191402  1
  Ti  Ti195  1  0.69156161  0.69325050  0.88167113  1
  Ti  Ti196  1  0.30750379  0.89243326  0.51061496  1
  Ti  Ti197  1  0.20552936  0.21230896  0.59306906  1
  Ti  Ti198  1  0.80080349  -0.00003068  0.79944143  1
  Ti  Ti199  1  0.40542458  0.78790565  0.00052581  1
  Mo  Mo200  1  0.70869586  0.89753802  0.69842373  1
  Mo  Mo201  1  0.79957884  0.20256692  0.39304609  1
  Mo  Mo202  1  0.28590671  0.29824743  0.69750117  1
  Mo  Mo203  1  0.60422462  0.79818719  0.41358202  1
  Mo  Mo204  1  -0.00249956  0.60358281  -0.00652644  1
  Mo  Mo205  1  0.20466889  0.80041788  0.60795486  1
  Mo  Mo206  1  0.90388565  0.89303957  0.30315858  1
  Mo  Mo207  1  0.69593754  0.70106763  0.50816749  1
  Mo  Mo208  1  0.89523966  0.50007293  0.30608949  1
  Mo  Mo209  1  0.70014688  0.90023716  0.30962835  1
  Mo  Mo210  1  0.30103115  0.29851452  0.10045566  1
  Mo  Mo211  1  0.80670341  0.00916894  -0.01409243  1
  Mo  Mo212  1  0.50701108  0.29714605  0.49269783  1
  Mo  Mo213  1  0.80248814  0.40288056  0.38159760  1
  Mo  Mo214  1  0.10368486  0.50421718  0.09815882  1
  Mo  Mo215  1  0.09366498  0.90785461  0.50685332  1
  Mo  Mo216  1  0.18821376  0.79768750  0.18537389  1
  Mo  Mo217  1  0.60019690  0.59613801  0.79913899  1
  Mo  Mo218  1  0.30351076  0.10513135  0.49803779  1
  Mo  Mo219  1  0.29169779  0.30188817  0.50127769  1
  Mo  Mo220  1  0.30286892  0.30230363  0.30250010  1
  Mo  Mo221  1  0.50333803  0.69028232  0.09862049  1
  Mo  Mo222  1  0.59170051  0.39400578  0.20147072  1
  Mo  Mo223  1  0.59854053  0.40105457  0.60003278  1
  Mo  Mo224  1  0.09778965  0.69698942  0.90067550  1
  Mo  Mo225  1  -0.00462886  0.19305092  0.20946391  1
  Mo  Mo226  1  0.80165964  0.40306050  0.61930033  1
  Mo  Mo227  1  0.60341032  0.79461085  0.79195009  1
  Mo  Mo228  1  0.79823235  0.59674817  0.79692311  1
  Mo  Mo229  1  0.18204445  0.60005251  0.00164358  1
  Mo  Mo230  1  0.50153387  0.68777417  0.89804654  1
  Mo  Mo231  1  0.80163911  -0.00294467  0.59634984  1
  Mo  Mo232  1  0.69660878  0.11234041  0.30722033  1
  Mo  Mo233  1  0.59710617  0.59409653  0.40814918  1
  Mo  Mo234  1  0.29616513  0.49332034  0.70623806  1
  Mo  Mo235  1  0.89478969  0.91365138  0.88869998  1
  Mo  Mo236  1  0.00741101  0.39917545  0.79972763  1
  Mo  Mo237  1  0.89909834  0.49314115  0.69844893  1
  Mo  Mo238  1  0.90509188  0.10173070  0.49628344  1
  Mo  Mo239  1  0.59735105  0.40094247  0.00422829  1
  Mo  Mo240  1  0.40499681  0.20154726  0.19842401  1
  Mo  Mo241  1  0.29897752  0.29558454  0.89602380  1
  Mo  Mo242  1  0.50811827  0.50234815  0.69702360  1
  Mo  Mo243  1  0.51141741  0.29415631  0.68575498  1
  Mo  Mo244  1  0.60497956  0.20155122  0.00510500  1
  Mo  Mo245  1  0.10048882  0.30782797  0.49909757  1
  Mo  Mo246  1  0.89595578  0.30262229  0.30510772  1
  Mo  Mo247  1  0.19586661  0.59557735  0.80152456  1
  Mo  Mo248  1  0.00390533  0.20314320  0.79781026  1
  Mo  Mo249  1  0.59671022  0.20295361  0.59694509  1
