# generated using pymatgen
data_HfZrTaTiMo
_symmetry_space_group_name_H-M   'P 1'
_cell_length_a   16.88985014
_cell_length_b   16.89673868
_cell_length_c   16.88748689
_cell_angle_alpha   89.98085440
_cell_angle_beta   89.98439743
_cell_angle_gamma   89.95095130
_symmetry_Int_Tables_number   1
_chemical_formula_structural   HfZrTaTiMo
_chemical_formula_sum   'Hf50 Zr50 Ta50 Ti50 Mo50'
_cell_volume   4819.40594676
_cell_formula_units_Z   50
loop_
 _symmetry_equiv_pos_site_id
 _symmetry_equiv_pos_as_xyz
  1  'x, y, z'
loop_
 _atom_site_type_symbol
 _atom_site_label
 _atom_site_symmetry_multiplicity
 _atom_site_fract_x
 _atom_site_fract_y
 _atom_site_fract_z
 _atom_site_occupancy
  Hf  Hf0  1  0.70656366  0.51066600  0.70347896  1
  Hf  Hf1  1  0.79392527  0.80680607  0.60478324  1
  Hf  Hf2  1  0.79773477  0.61213375  0.00626783  1
  Hf  Hf3  1  0.59765467  0.80487401  0.40235236  1
  Hf  Hf4  1  0.19099571  0.59399081  0.59955279  1
  Hf  Hf5  1  0.90262479  0.08868081  0.89724825  1
  Hf  Hf6  1  0.50791543  0.09499396  0.29473261  1
  Hf  Hf7  1  0.58486468  0.59562411  0.80362887  1
  Hf  Hf8  1  0.59629295  0.39488041  -0.00137134  1
  Hf  Hf9  1  0.40112553  0.39343342  0.00047991  1
  Hf  Hf10  1  0.40759771  0.40102270  0.79524874  1
  Hf  Hf11  1  0.50841485  0.70682106  0.09537166  1
  Hf  Hf12  1  0.11347814  0.89670546  0.31231616  1
  Hf  Hf13  1  0.70010673  0.50239363  0.30592896  1
  Hf  Hf14  1  0.00513979  0.60222487  -0.00226674  1
  Hf  Hf15  1  0.58935174  0.19343224  0.00794323  1
  Hf  Hf16  1  0.30244372  0.89701319  0.08838812  1
  Hf  Hf17  1  0.10112005  0.10546729  0.30874574  1
  Hf  Hf18  1  0.90282420  0.29733348  0.89579262  1
  Hf  Hf19  1  0.89731368  0.70326255  0.70722780  1
  Hf  Hf20  1  0.00415009  0.59774907  0.79706151  1
  Hf  Hf21  1  0.10425410  0.70628159  0.70298379  1
  Hf  Hf22  1  0.50000491  0.50029825  0.10226296  1
  Hf  Hf23  1  0.40085009  0.80194860  0.21062547  1
  Hf  Hf24  1  0.49678321  0.50292559  0.49637723  1
  Hf  Hf25  1  0.00225702  0.18863299  -0.00361225  1
  Hf  Hf26  1  0.60490049  0.39357458  0.19635187  1
  Hf  Hf27  1  0.79893779  0.00407181  0.60518863  1
  Hf  Hf28  1  0.10522328  0.30629665  0.09725423  1
  Hf  Hf29  1  0.78961259  0.82207440  0.80459776  1
  Hf  Hf30  1  0.79495945  0.60791027  0.19726674  1
  Hf  Hf31  1  0.20389283  0.19947100  -0.00538001  1
  Hf  Hf32  1  0.29817874  0.70059715  0.09759468  1
  Hf  Hf33  1  0.39863763  0.39475403  0.61127235  1
  Hf  Hf34  1  0.40836528  -0.00958699  0.79316771  1
  Hf  Hf35  1  0.50153263  0.90559069  0.30566803  1
  Hf  Hf36  1  0.29638545  0.30122940  0.89301754  1
  Hf  Hf37  1  0.30129177  0.09665683  0.09089204  1
  Hf  Hf38  1  0.50192716  0.49930526  0.30018097  1
  Hf  Hf39  1  0.90616049  0.29404365  0.69472186  1
  Hf  Hf40  1  0.89352526  0.90051104  0.30086576  1
  Hf  Hf41  1  0.90396102  0.70514411  0.29843482  1
  Hf  Hf42  1  0.69839272  0.91398182  0.28836274  1
  Hf  Hf43  1  0.59546338  0.60675412  0.60114317  1
  Hf  Hf44  1  0.00124878  0.40260958  0.20548072  1
  Hf  Hf45  1  0.89492347  0.50526695  0.30806189  1
  Hf  Hf46  1  0.19153439  0.00147873  -0.01977644  1
  Hf  Hf47  1  0.39886363  -0.00147262  0.19799988  1
  Hf  Hf48  1  -0.00664371  0.19768905  0.19510434  1
  Hf  Hf49  1  0.29788816  0.49352497  0.29627600  1
  Zr  Zr50  1  0.09624443  0.28784270  0.49808320  1
  Zr  Zr51  1  0.39897797  0.60539152  0.20357943  1
  Zr  Zr52  1  0.29458267  0.71428208  0.50561485  1
  Zr  Zr53  1  0.90516099  0.90274523  0.50409342  1
  Zr  Zr54  1  0.18958001  0.79783840  -0.00286543  1
  Zr  Zr55  1  0.70173623  0.10358890  0.29226095  1
  Zr  Zr56  1  0.11702138  0.49536084  0.89563994  1
  Zr  Zr57  1  0.00042777  -0.00700617  0.19782879  1
  Zr  Zr58  1  0.00319478  0.40033086  0.40367707  1
  Zr  Zr59  1  0.00355060  0.40598024  0.78780463  1
  Zr  Zr60  1  0.39868085  0.59935408  0.60587806  1
  Zr  Zr61  1  0.60264657  0.19802958  0.59770370  1
  Zr  Zr62  1  0.10029529  0.29849783  0.89327974  1
  Zr  Zr63  1  0.39936183  0.61071835  0.39865804  1
  Zr  Zr64  1  0.59170046  0.39781512  0.79691787  1
  Zr  Zr65  1  0.01458870  0.00400355  0.79864995  1
  Zr  Zr66  1  0.69884623  0.50552353  0.49568076  1
  Zr  Zr67  1  0.79980242  0.39865227  0.79854595  1
  Zr  Zr68  1  0.10009342  0.09354606  0.09784040  1
  Zr  Zr69  1  0.28489286  0.71612666  0.30872601  1
  Zr  Zr70  1  0.60617287  0.38285794  0.40926359  1
  Zr  Zr71  1  0.39177310  0.19516350  0.39829443  1
  Zr  Zr72  1  0.70525551  0.09419010  0.89974486  1
  Zr  Zr73  1  0.70110092  0.08871073  0.11142775  1
  Zr  Zr74  1  0.79841386  0.39964664  0.00715011  1
  Zr  Zr75  1  0.89093204  0.09640491  0.29673133  1
  Zr  Zr76  1  0.69781658  0.71800277  0.29238703  1
  Zr  Zr77  1  0.50200755  0.29524526  0.28923284  1
  Zr  Zr78  1  0.18413856  0.59397753  0.40407623  1
  Zr  Zr79  1  0.01549967  0.00632032  0.60326439  1
  Zr  Zr80  1  0.39812957  -0.00486875  0.60513854  1
  Zr  Zr81  1  0.28653342  0.50610496  0.71202709  1
  Zr  Zr82  1  0.29986027  0.89161671  0.88110194  1
  Zr  Zr83  1  0.90409855  0.50606059  0.10416586  1
  Zr  Zr84  1  0.69943491  0.69979809  0.89562907  1
  Zr  Zr85  1  0.60959149  -0.01716717  0.80287133  1
  Zr  Zr86  1  0.40215781  0.20233037  0.18500308  1
  Zr  Zr87  1  0.29683019  0.70136327  0.89141127  1
  Zr  Zr88  1  0.69931342  0.50583208  0.90379617  1
  Zr  Zr89  1  0.39517942  0.39048474  0.40278572  1
  Zr  Zr90  1  0.40576176  0.59267011  -0.01206704  1
  Zr  Zr91  1  0.20579791  -0.00727599  0.20352716  1
  Zr  Zr92  1  0.00689376  0.80077545  0.40506498  1
  Zr  Zr93  1  0.60690584  0.19895502  0.40916720  1
  Zr  Zr94  1  0.80020889  0.39246365  0.59365160  1
  Zr  Zr95  1  0.89860268  0.50172942  0.49968080  1
  Zr  Zr96  1  0.29531954  0.71841526  0.70812499  1
  Zr  Zr97  1  0.59127858  0.39372639  0.60699829  1
  Zr  Zr98  1  0.80855536  0.19358996  0.00945272  1
  Zr  Zr99  1  0.90620712  0.70143726  0.50521711  1
  Ta  Ta100  1  0.79232255  0.00371686  0.41405222  1
  Ta  Ta101  1  0.19990877  0.59850882  0.00173335  1
  Ta  Ta102  1  0.79614773  0.39411514  0.20489634  1
  Ta  Ta103  1  0.80049993  0.80324129  0.00322417  1
  Ta  Ta104  1  0.79652541  0.20318959  0.40887820  1
  Ta  Ta105  1  0.00622486  0.59014419  0.60133762  1
  Ta  Ta106  1  0.10084070  0.29451161  0.30107363  1
  Ta  Ta107  1  0.69174768  0.70948028  0.70376567  1
  Ta  Ta108  1  0.50376090  0.89967154  0.09990423  1
  Ta  Ta109  1  0.70172630  0.09671468  0.70409690  1
  Ta  Ta110  1  0.40048138  0.19651908  0.79350152  1
  Ta  Ta111  1  0.50411196  0.10077080  0.69848988  1
  Ta  Ta112  1  0.19000701  0.39653731  0.59980990  1
  Ta  Ta113  1  0.40885775  0.00114641  -0.00955477  1
  Ta  Ta114  1  0.40479963  0.59936177  0.80106139  1
  Ta  Ta115  1  0.90165880  0.70751290  0.89964433  1
  Ta  Ta116  1  -0.00068564  0.40567940  -0.00101734  1
  Ta  Ta117  1  0.19626018  0.18877244  0.79241733  1
  Ta  Ta118  1  0.00614449  0.00447973  0.40723421  1
  Ta  Ta119  1  0.79242969  0.80730902  0.40836050  1
  Ta  Ta120  1  0.60113443  0.61100096  0.19960966  1
  Ta  Ta121  1  0.91145846  0.71051409  0.09969719  1
  Ta  Ta122  1  0.59391279  -0.00558294  -0.00152767  1
  Ta  Ta123  1  0.89575727  0.50903998  0.89662702  1
  Ta  Ta124  1  0.80094568  0.19525605  0.59694700  1
  Ta  Ta125  1  0.20548330  0.20166337  0.20388246  1
  Ta  Ta126  1  0.89833767  0.29386985  0.30420643  1
  Ta  Ta127  1  0.09785719  0.69794528  0.10460191  1
  Ta  Ta128  1  0.50024565  0.71126435  0.70189300  1
  Ta  Ta129  1  0.79911784  0.60943817  0.60220212  1
  Ta  Ta130  1  0.49462879  0.71656787  0.50357052  1
  Ta  Ta131  1  0.29352315  0.48972652  0.50144018  1
  Ta  Ta132  1  0.10769382  0.49923983  0.10071803  1
  Ta  Ta133  1  0.49188838  0.09334305  0.50306288  1
  Ta  Ta134  1  0.29768826  0.90079117  0.49566458  1
  Ta  Ta135  1  0.19527204  0.39652625  0.40039773  1
  Ta  Ta136  1  0.49949965  0.29070855  0.89570763  1
  Ta  Ta137  1  0.40251245  0.19654474  -0.00636134  1
  Ta  Ta138  1  0.69890725  0.28905211  0.89946891  1
  Ta  Ta139  1  0.60308592  0.00411720  0.41451525  1
  Ta  Ta140  1  0.60581197  0.80598898  -0.00573437  1
  Ta  Ta141  1  0.69420951  0.89737524  0.10350598  1
  Ta  Ta142  1  0.80172855  0.19457296  0.79639719  1
  Ta  Ta143  1  0.00028565  0.19272656  0.59633287  1
  Ta  Ta144  1  0.79377067  0.61901772  0.40516145  1
  Ta  Ta145  1  0.70136427  0.28913210  0.70453338  1
  Ta  Ta146  1  0.69950095  0.28766948  0.10751516  1
  Ta  Ta147  1  0.30311930  0.09745145  0.88835623  1
  Ta  Ta148  1  0.29197535  0.29413439  0.50928581  1
  Ta  Ta149  1  0.90434840  0.10464787  0.49556741  1
  Ti  Ti150  1  0.00139066  0.80697038  0.80022969  1
  Ti  Ti151  1  0.19744792  0.80506431  0.19652284  1
  Ti  Ti152  1  0.80206709  0.80348231  0.18680957  1
  Ti  Ti153  1  0.40927543  0.80740577  -0.01061913  1
  Ti  Ti154  1  0.29675215  0.30340566  0.29450187  1
  Ti  Ti155  1  0.29376580  0.49663637  0.89763119  1
  Ti  Ti156  1  0.48139929  0.28419371  0.51185432  1
  Ti  Ti157  1  0.10148700  0.71121241  0.50889014  1
  Ti  Ti158  1  0.69278447  0.50697068  0.09998750  1
  Ti  Ti159  1  0.89891897  0.30301844  0.10339086  1
  Ti  Ti160  1  0.19727697  -0.00164994  0.78540074  1
  Ti  Ti161  1  0.49393880  0.90166774  0.50013600  1
  Ti  Ti162  1  0.20332459  0.00620241  0.41114085  1
  Ti  Ti163  1  0.01056556  0.59861076  0.20744808  1
  Ti  Ti164  1  0.19563426  0.40020809  0.20503934  1
  Ti  Ti165  1  0.69176503  0.90117753  0.50865525  1
  Ti  Ti166  1  0.09860946  0.70345215  0.89622227  1
  Ti  Ti167  1  0.00972972  0.59880499  0.40433498  1
  Ti  Ti168  1  0.49899798  0.09931701  0.89269383  1
  Ti  Ti169  1  0.39772145  0.81159211  0.60679141  1
  Ti  Ti170  1  0.30065572  0.09878655  0.50586376  1
  Ti  Ti171  1  0.50351822  0.71136300  0.89605673  1
  Ti  Ti172  1  0.80154396  -0.01145972  0.00344994  1
  Ti  Ti173  1  0.60134836  0.00032505  0.60016383  1
  Ti  Ti174  1  0.59937210  0.19777330  0.79850964  1
  Ti  Ti175  1  0.29996437  0.09342107  0.30390955  1
  Ti  Ti176  1  0.90226204  0.90834262  0.70694749  1
  Ti  Ti177  1  0.00726590  0.80250696  0.19773072  1
  Ti  Ti178  1  0.29800150  0.28547412  0.69166884  1
  Ti  Ti179  1  0.90354885  0.10297250  0.70414783  1
  Ti  Ti180  1  0.09457617  0.28877482  0.69394553  1
  Ti  Ti181  1  0.90599612  0.90075275  0.90541681  1
  Ti  Ti182  1  0.00552407  0.80957229  0.60879238  1
  Ti  Ti183  1  0.51609189  0.88819659  0.69680585  1
  Ti  Ti184  1  0.09220516  0.89558517  0.89800725  1
  Ti  Ti185  1  0.59643106  0.61666049  0.39596686  1
  Ti  Ti186  1  0.19319763  0.59764426  0.20096121  1
  Ti  Ti187  1  0.89772331  0.50461872  0.69569229  1
  Ti  Ti188  1  0.79682816  0.38441107  0.40112581  1
  Ti  Ti189  1  0.19709946  0.38844045  0.78292229  1
  Ti  Ti190  1  0.69395712  0.70662870  0.50587287  1
  Ti  Ti191  1  0.20600585  0.19968942  0.39965440  1
  Ti  Ti192  1  0.19431804  0.18587523  0.60034471  1
  Ti  Ti193  1  0.11305027  0.90279361  0.50806271  1
  Ti  Ti194  1  0.09223939  0.89634552  0.08990743  1
  Ti  Ti195  1  0.10227010  0.70445634  0.29864371  1
  Ti  Ti196  1  0.90767226  0.89724963  0.09178370  1
  Ti  Ti197  1  0.29447588  0.49317988  0.10174320  1
  Ti  Ti198  1  0.29799012  0.30822441  0.10270480  1
  Ti  Ti199  1  0.29915817  0.09675400  0.69736187  1
  Mo  Mo200  1  0.50575447  0.70510529  0.30468440  1
  Mo  Mo201  1  0.10609887  0.10057026  0.49664188  1
  Mo  Mo202  1  0.19579450  0.81403386  0.60246219  1
  Mo  Mo203  1  0.10613234  0.09933730  0.88989915  1
  Mo  Mo204  1  0.09788295  0.48937032  0.50306664  1
  Mo  Mo205  1  0.49781364  0.09271957  0.09349844  1
  Mo  Mo206  1  0.59606409  0.80521104  0.19559762  1
  Mo  Mo207  1  0.00062267  -0.01011153  -0.00328399  1
  Mo  Mo208  1  0.60293379  0.79864991  0.80028248  1
  Mo  Mo209  1  0.09852579  0.49655471  0.69652324  1
  Mo  Mo210  1  0.00449745  0.39918411  0.60037297  1
  Mo  Mo211  1  0.39736057  0.00259536  0.40539258  1
  Mo  Mo212  1  0.70993718  0.29658824  0.29672148  1
  Mo  Mo213  1  0.20643513  0.40465465  0.00889656  1
  Mo  Mo214  1  0.50320452  0.89462924  0.90333621  1
  Mo  Mo215  1  0.80722111  -0.00018650  0.79461204  1
  Mo  Mo216  1  0.10119114  0.49832277  0.29569924  1
  Mo  Mo217  1  0.70905415  0.29582154  0.50708424  1
  Mo  Mo218  1  0.40018523  0.81099112  0.40576073  1
  Mo  Mo219  1  0.50012446  0.28123512  0.70445762  1
  Mo  Mo220  1  -0.00276544  0.79704148  -0.00382976  1
  Mo  Mo221  1  -0.00648193  0.19806320  0.39896579  1
  Mo  Mo222  1  0.80334244  0.20846454  0.20286121  1
  Mo  Mo223  1  0.10546712  0.89820471  0.70001745  1
  Mo  Mo224  1  0.00195798  0.19441306  0.79075420  1
  Mo  Mo225  1  0.80828028  -0.01194302  0.18373499  1
  Mo  Mo226  1  0.69744193  0.70828824  0.09736512  1
  Mo  Mo227  1  0.50054468  0.29730150  0.09442700  1
  Mo  Mo228  1  0.59943916  0.60579781  0.00377625  1
  Mo  Mo229  1  0.10679908  0.10359610  0.69450512  1
  Mo  Mo230  1  0.20606545  0.00293188  0.59900474  1
  Mo  Mo231  1  0.59146325  0.00028156  0.19102834  1
  Mo  Mo232  1  0.59669032  0.80280322  0.59645183  1
  Mo  Mo233  1  0.60039084  0.20048923  0.19488392  1
  Mo  Mo234  1  0.41744528  0.80301617  0.79644683  1
  Mo  Mo235  1  0.89835286  0.08366745  0.09628083  1
  Mo  Mo236  1  0.49460110  0.51359089  0.69911073  1
  Mo  Mo237  1  0.39251232  0.39822150  0.19324506  1
  Mo  Mo238  1  0.49488131  0.49409232  0.90144723  1
  Mo  Mo239  1  0.70514117  0.90242884  0.91471989  1
  Mo  Mo240  1  0.69442271  0.90334064  0.69104306  1
  Mo  Mo241  1  0.80837047  0.60729307  0.79653670  1
  Mo  Mo242  1  0.70280315  0.09607823  0.50660041  1
  Mo  Mo243  1  0.17979845  0.80936471  0.80036768  1
  Mo  Mo244  1  0.30359248  0.90562702  0.31866575  1
  Mo  Mo245  1  0.29057754  0.90030300  0.69377495  1
  Mo  Mo246  1  0.19927250  0.60785719  0.80687113  1
  Mo  Mo247  1  0.90143696  0.29058611  0.49709334  1
  Mo  Mo248  1  0.19620898  0.80442061  0.40908258  1
  Mo  Mo249  1  0.39302819  0.19261951  0.60446899  1
