# generated using pymatgen
data_HfZrTaTiMo
_symmetry_space_group_name_H-M   'P 1'
_cell_length_a   16.88797677
_cell_length_b   16.88577545
_cell_length_c   16.89892969
_cell_angle_alpha   89.99926905
_cell_angle_beta   90.01812160
_cell_angle_gamma   89.99241963
_symmetry_Int_Tables_number   1
_chemical_formula_structural   HfZrTaTiMo
_chemical_formula_sum   'Hf50 Zr50 Ta50 Ti50 Mo50'
_cell_volume   4819.00976115
_cell_formula_units_Z   50
loop_
 _symmetry_equiv_pos_site_id
 _symmetry_equiv_pos_as_xyz
  1  'x, y, z'
loop_
 _atom_site_type_symbol
 _atom_site_label
 _atom_site_symmetry_multiplicity
 _atom_site_fract_x
 _atom_site_fract_y
 _atom_site_fract_z
 _atom_site_occupancy
  Hf  Hf0  1  0.00770186  0.19412873  0.40203799  1
  Hf  Hf1  1  0.58722745  0.19929615  0.20076027  1
  Hf  Hf2  1  0.00827362  -0.00460832  0.00961860  1
  Hf  Hf3  1  0.30500850  0.09601409  0.89734319  1
  Hf  Hf4  1  0.09747460  0.30560630  0.89974575  1
  Hf  Hf5  1  0.69932950  0.10301716  0.50718692  1
  Hf  Hf6  1  0.79625497  0.19804584  0.19828280  1
  Hf  Hf7  1  0.48888081  0.08926479  0.29674462  1
  Hf  Hf8  1  0.09340336  0.10081204  0.88484213  1
  Hf  Hf9  1  0.80284774  0.59678854  0.19890883  1
  Hf  Hf10  1  0.69022395  0.88913281  0.69177157  1
  Hf  Hf11  1  0.80034450  0.19292075  0.39880140  1
  Hf  Hf12  1  0.59396283  -0.00390260  0.79761367  1
  Hf  Hf13  1  0.39203863  0.80116295  0.39090496  1
  Hf  Hf14  1  0.11164362  0.30028967  0.50201241  1
  Hf  Hf15  1  0.90408760  0.10039692  0.89081505  1
  Hf  Hf16  1  0.51706466  0.69952976  0.68332110  1
  Hf  Hf17  1  -0.00163523  0.41062357  0.20438637  1
  Hf  Hf18  1  0.80423664  0.79492511  0.60218464  1
  Hf  Hf19  1  0.50010381  0.30577731  0.09972341  1
  Hf  Hf20  1  0.10451531  0.50338930  0.10478722  1
  Hf  Hf21  1  0.00476229  0.41056532  0.40209568  1
  Hf  Hf22  1  0.00030363  0.20705749  0.59997215  1
  Hf  Hf23  1  0.70285876  0.30301891  0.50320756  1
  Hf  Hf24  1  0.69813826  0.69209914  0.51090939  1
  Hf  Hf25  1  0.50541646  0.70560456  0.29908647  1
  Hf  Hf26  1  0.91092311  0.30139545  0.09820265  1
  Hf  Hf27  1  0.50326174  0.30573422  0.69924330  1
  Hf  Hf28  1  0.80264918  0.40847686  0.79123425  1
  Hf  Hf29  1  0.00539431  0.00176562  0.39876789  1
  Hf  Hf30  1  0.69066657  0.29905755  0.09075828  1
  Hf  Hf31  1  0.39924253  0.19088323  0.01352697  1
  Hf  Hf32  1  0.69875946  0.30619375  0.30330855  1
  Hf  Hf33  1  0.89296087  0.30414975  0.50316782  1
  Hf  Hf34  1  0.89111471  0.70274739  0.91247209  1
  Hf  Hf35  1  0.70336877  0.69765091  0.91827252  1
  Hf  Hf36  1  0.90121952  0.30176153  0.30302211  1
  Hf  Hf37  1  0.80302251  0.60287588  0.79155934  1
  Hf  Hf38  1  0.29059373  0.89999622  0.68690751  1
  Hf  Hf39  1  0.20280888  0.19306181  0.00987066  1
  Hf  Hf40  1  0.79876982  -0.00595939  0.79674908  1
  Hf  Hf41  1  0.90225439  0.69219633  0.49785837  1
  Hf  Hf42  1  0.58723407  0.20300520  0.39906050  1
  Hf  Hf43  1  0.49181468  0.50117566  0.49938460  1
  Hf  Hf44  1  0.80267251  -0.00251969  0.59653317  1
  Hf  Hf45  1  0.38826194  0.60026235  0.80710481  1
  Hf  Hf46  1  0.39207414  0.81079345  0.19532652  1
  Hf  Hf47  1  0.19508473  0.00752235  0.39271572  1
  Hf  Hf48  1  0.10420094  0.69738146  0.29766657  1
  Hf  Hf49  1  0.50471537  0.70353895  0.90615067  1
  Zr  Zr50  1  0.20171979  -0.00919406  0.80404345  1
  Zr  Zr51  1  0.69628845  0.08754001  0.29616149  1
  Zr  Zr52  1  0.80407065  0.40401403  0.00220128  1
  Zr  Zr53  1  0.27667471  0.68396770  0.68886506  1
  Zr  Zr54  1  0.29513730  0.09859067  0.50902930  1
  Zr  Zr55  1  0.10503704  0.88707302  0.50408880  1
  Zr  Zr56  1  0.10458315  0.09928985  0.69584507  1
  Zr  Zr57  1  0.39653281  0.79373210  0.79667964  1
  Zr  Zr58  1  0.39921429  0.20452670  0.60417449  1
  Zr  Zr59  1  0.70188408  0.89568062  0.90598851  1
  Zr  Zr60  1  0.11302533  0.51383290  0.69731270  1
  Zr  Zr61  1  0.89251369  0.90364271  0.29863195  1
  Zr  Zr62  1  0.80338823  0.41034082  0.19525720  1
  Zr  Zr63  1  0.90309389  0.11192949  0.70515878  1
  Zr  Zr64  1  0.49870345  0.50517532  0.69201699  1
  Zr  Zr65  1  0.10121040  0.89273953  0.69080257  1
  Zr  Zr66  1  0.49376727  0.50103951  0.30107530  1
  Zr  Zr67  1  0.20534313  0.80029772  0.00976928  1
  Zr  Zr68  1  0.20833996  0.40045494  0.20819314  1
  Zr  Zr69  1  0.50963158  0.70437513  0.10151450  1
  Zr  Zr70  1  0.10356222  0.30421410  0.70507600  1
  Zr  Zr71  1  0.90405535  0.10129418  0.10858994  1
  Zr  Zr72  1  -0.00220324  0.79345273  0.39332302  1
  Zr  Zr73  1  0.70354330  0.49621642  0.30939530  1
  Zr  Zr74  1  0.50706299  0.29569223  0.90007044  1
  Zr  Zr75  1  0.60872280  0.60192139  0.79650841  1
  Zr  Zr76  1  0.19550099  0.78013314  0.81133090  1
  Zr  Zr77  1  0.00857383  0.60682148  0.80151280  1
  Zr  Zr78  1  0.90391483  0.29680713  0.88948571  1
  Zr  Zr79  1  0.69379367  0.89638394  0.29597857  1
  Zr  Zr80  1  0.20416579  0.39846137  0.00273712  1
  Zr  Zr81  1  0.39668095  0.79319170  0.59392833  1
  Zr  Zr82  1  0.00298954  0.60040876  0.00552343  1
  Zr  Zr83  1  0.71057563  0.29323521  0.69490036  1
  Zr  Zr84  1  0.39337768  0.60443165  -0.00077659  1
  Zr  Zr85  1  0.00297210  0.78740057  0.80115332  1
  Zr  Zr86  1  0.29187599  0.90042612  0.50059922  1
  Zr  Zr87  1  0.59093400  -0.00099475  0.60034314  1
  Zr  Zr88  1  0.91427259  0.90246281  0.69823956  1
  Zr  Zr89  1  0.00978880  0.19450178  0.00672887  1
  Zr  Zr90  1  0.20033457  -0.00005283  0.01767154  1
  Zr  Zr91  1  0.79875971  0.00004540  0.00695673  1
  Zr  Zr92  1  0.50144698  0.09836544  0.90295294  1
  Zr  Zr93  1  0.69695014  0.11082795  0.90051369  1
  Zr  Zr94  1  0.39673880  0.40679192  0.80306720  1
  Zr  Zr95  1  0.89465973  0.70100390  0.10097591  1
  Zr  Zr96  1  0.39138470  0.61125614  0.20375644  1
  Zr  Zr97  1  0.39652837  0.40735601  -0.00360791  1
  Zr  Zr98  1  0.59137215  -0.00805151  0.40591363  1
  Zr  Zr99  1  0.60051083  0.59911568  0.40231217  1
  Ta  Ta100  1  0.80009880  0.79669338  0.20023001  1
  Ta  Ta101  1  0.20292109  0.19865223  0.39635623  1
  Ta  Ta102  1  0.20678087  0.80496394  0.20061234  1
  Ta  Ta103  1  0.50393875  0.50195594  0.10237156  1
  Ta  Ta104  1  0.30762666  0.89904079  0.90607226  1
  Ta  Ta105  1  0.20432647  0.60712948  -0.00098286  1
  Ta  Ta106  1  0.90514422  0.49873547  0.90473455  1
  Ta  Ta107  1  0.60203941  0.40440371  0.59567726  1
  Ta  Ta108  1  0.59421505  0.39725989  0.40517653  1
  Ta  Ta109  1  0.29151322  0.69447782  0.48874623  1
  Ta  Ta110  1  0.48558873  0.09734007  0.50045164  1
  Ta  Ta111  1  0.39398902  0.19794429  0.20328478  1
  Ta  Ta112  1  0.69999553  0.29977952  0.89490572  1
  Ta  Ta113  1  0.90155471  0.89239066  0.90449611  1
  Ta  Ta114  1  0.90407058  0.09582415  0.29764870  1
  Ta  Ta115  1  0.00278943  0.40946176  0.59745727  1
  Ta  Ta116  1  0.29904377  0.09654315  0.69813123  1
  Ta  Ta117  1  0.90054413  0.10036028  0.50162004  1
  Ta  Ta118  1  0.60233181  0.79792953  0.80203128  1
  Ta  Ta119  1  0.20982430  0.40752972  0.80239531  1
  Ta  Ta120  1  0.40126204  -0.00563871  0.01633494  1
  Ta  Ta121  1  0.10374277  0.29557007  0.29722560  1
  Ta  Ta122  1  0.10543884  0.69762974  0.11236603  1
  Ta  Ta123  1  0.70362353  0.50392463  0.90612760  1
  Ta  Ta124  1  0.10045025  0.29431047  0.11403747  1
  Ta  Ta125  1  0.30265806  0.50051211  0.49278007  1
  Ta  Ta126  1  0.10104352  0.49834135  0.90063497  1
  Ta  Ta127  1  0.70030901  0.70547586  0.29978876  1
  Ta  Ta128  1  0.20338306  0.40239385  0.39723411  1
  Ta  Ta129  1  0.59846937  0.80995728  0.00775381  1
  Ta  Ta130  1  0.68661457  0.10123915  0.09469501  1
  Ta  Ta131  1  0.00740548  0.80204211  0.00973606  1
  Ta  Ta132  1  0.39795091  0.39724108  0.20275414  1
  Ta  Ta133  1  0.00162836  0.80317067  0.19811518  1
  Ta  Ta134  1  0.20580752  0.40554292  0.59551474  1
  Ta  Ta135  1  0.40156332  -0.00712200  0.79515996  1
  Ta  Ta136  1  0.29993003  0.29430525  0.89603884  1
  Ta  Ta137  1  0.79804021  0.79197202  0.79334255  1
  Ta  Ta138  1  0.70345243  0.10818009  0.69865074  1
  Ta  Ta139  1  0.29989546  0.50624311  0.10676839  1
  Ta  Ta140  1  0.19782591  0.59525163  0.39616271  1
  Ta  Ta141  1  0.09550466  0.89666517  0.90292925  1
  Ta  Ta142  1  0.49316367  0.30445269  0.50003245  1
  Ta  Ta143  1  0.60832184  0.60170981  0.19863426  1
  Ta  Ta144  1  0.39558944  0.20098364  0.39470658  1
  Ta  Ta145  1  0.30038713  0.30371825  0.49717171  1
  Ta  Ta146  1  0.61048640  0.40774907  0.79797803  1
  Ta  Ta147  1  0.59434977  0.80156703  0.40703874  1
  Ta  Ta148  1  0.49511391  0.89715172  0.90508492  1
  Ta  Ta149  1  0.01263717  -0.00484042  0.19891680  1
  Ti  Ti150  1  0.48854179  0.90291599  0.50473831  1
  Ti  Ti151  1  0.29419813  0.50519578  0.69464995  1
  Ti  Ti152  1  0.30014684  0.29922072  0.10544106  1
  Ti  Ti153  1  0.10096346  0.10543479  0.28781417  1
  Ti  Ti154  1  0.59022103  -0.00235340  0.00778214  1
  Ti  Ti155  1  0.39322266  0.40066410  0.60112668  1
  Ti  Ti156  1  0.10553911  0.50573124  0.29657653  1
  Ti  Ti157  1  -0.01182568  0.59948613  0.21001944  1
  Ti  Ti158  1  0.69009005  0.50635788  0.09165526  1
  Ti  Ti159  1  0.69704454  0.89595985  0.10564197  1
  Ti  Ti160  1  0.49735625  0.89217500  0.69532951  1
  Ti  Ti161  1  0.79935664  0.20084997  -0.00072236  1
  Ti  Ti162  1  0.90792817  0.69312715  0.68657445  1
  Ti  Ti163  1  0.69969715  0.51272055  0.68174282  1
  Ti  Ti164  1  0.49674703  0.69468746  0.49806768  1
  Ti  Ti165  1  0.39820075  0.19901636  0.79620955  1
  Ti  Ti166  1  0.89366999  0.50353422  0.49907662  1
  Ti  Ti167  1  0.49981513  0.89960492  0.29141856  1
  Ti  Ti168  1  0.59222493  0.20057198  0.59754197  1
  Ti  Ti169  1  0.80859425  0.60028412  0.39127984  1
  Ti  Ti170  1  0.39490330  0.80263598  0.00818658  1
  Ti  Ti171  1  0.80615142  0.40750267  0.60357102  1
  Ti  Ti172  1  0.58448176  -0.00586060  0.18393084  1
  Ti  Ti173  1  0.80180589  -0.00314559  0.40679026  1
  Ti  Ti174  1  0.01290220  0.59761800  0.58532136  1
  Ti  Ti175  1  0.70862440  0.49945487  0.50173307  1
  Ti  Ti176  1  -0.00225981  0.40669606  0.79063804  1
  Ti  Ti177  1  0.30227520  0.50897304  0.30450441  1
  Ti  Ti178  1  0.10876300  0.89578574  0.29667095  1
  Ti  Ti179  1  0.70077828  0.70237048  0.09807545  1
  Ti  Ti180  1  0.69754437  0.89153905  0.49967496  1
  Ti  Ti181  1  0.90681995  0.50818204  0.68866564  1
  Ti  Ti182  1  0.38875825  -0.00496553  0.39032254  1
  Ti  Ti183  1  0.00100556  0.59380297  0.39542200  1
  Ti  Ti184  1  0.60049805  0.20046503  0.79347200  1
  Ti  Ti185  1  0.29398234  0.29911665  0.69773162  1
  Ti  Ti186  1  0.39768905  0.39285535  0.39220870  1
  Ti  Ti187  1  0.59364034  0.40362797  0.20551376  1
  Ti  Ti188  1  0.60053449  0.40490101  -0.00813750  1
  Ti  Ti189  1  0.00722897  0.00807553  0.58648984  1
  Ti  Ti190  1  0.20550217  0.20334564  0.79856089  1
  Ti  Ti191  1  0.39218657  0.60088578  0.59292651  1
  Ti  Ti192  1  0.51263201  0.50804834  0.90472332  1
  Ti  Ti193  1  0.49387103  0.09805324  0.69712499  1
  Ti  Ti194  1  0.89763569  0.89569673  0.10054424  1
  Ti  Ti195  1  0.79886632  -0.00055183  0.19405195  1
  Ti  Ti196  1  0.79828089  0.79613779  0.39883329  1
  Ti  Ti197  1  0.20789945  0.18930516  0.20075169  1
  Ti  Ti198  1  0.29830081  0.29436547  0.30141953  1
  Ti  Ti199  1  0.90632703  0.89549905  0.50124378  1
  Mo  Mo200  1  0.30235048  0.70337407  0.90764594  1
  Mo  Mo201  1  0.30179245  0.90412033  0.10369703  1
  Mo  Mo202  1  0.19909134  0.59626420  0.82072014  1
  Mo  Mo203  1  0.59391693  0.80135427  0.58702882  1
  Mo  Mo204  1  0.79946073  0.58951199  0.00531308  1
  Mo  Mo205  1  0.39195865  0.60451170  0.40089000  1
  Mo  Mo206  1  -0.00024015  -0.01574288  0.81071376  1
  Mo  Mo207  1  0.20628554  0.20892320  0.60199006  1
  Mo  Mo208  1  0.40093787  0.00092152  0.60965487  1
  Mo  Mo209  1  0.10060992  0.68940319  0.49079076  1
  Mo  Mo210  1  0.29951345  0.10331391  0.30111882  1
  Mo  Mo211  1  0.89648237  0.69990555  0.30012328  1
  Mo  Mo212  1  0.79836192  0.20555953  0.79752170  1
  Mo  Mo213  1  0.70318141  0.70179309  0.69737830  1
  Mo  Mo214  1  0.80612053  0.59398116  0.60086816  1
  Mo  Mo215  1  0.10102425  0.89512174  0.11069684  1
  Mo  Mo216  1  0.49957895  0.90051490  0.09883748  1
  Mo  Mo217  1  0.60674281  0.80094486  0.19967729  1
  Mo  Mo218  1  0.90938805  0.50161730  0.09606990  1
  Mo  Mo219  1  0.20233412  -0.00123396  0.20643340  1
  Mo  Mo220  1  0.19418652  0.01306933  0.59773552  1
  Mo  Mo221  1  0.80011400  0.40749464  0.40815407  1
  Mo  Mo222  1  0.20448118  0.60237336  0.20080953  1
  Mo  Mo223  1  0.30258537  0.09614786  0.11441735  1
  Mo  Mo224  1  0.49802823  0.09699585  0.10390299  1
  Mo  Mo225  1  0.10665160  0.09924875  0.11861322  1
  Mo  Mo226  1  0.90238412  0.50682915  0.30938755  1
  Mo  Mo227  1  0.20113438  0.79388418  0.39226384  1
  Mo  Mo228  1  0.60406314  0.59511313  0.59263936  1
  Mo  Mo229  1  0.00679387  0.19927473  0.20778920  1
  Mo  Mo230  1  0.29084364  0.50189083  0.90300614  1
  Mo  Mo231  1  0.19781989  0.59036413  0.57569133  1
  Mo  Mo232  1  0.79764729  0.80796658  0.01126894  1
  Mo  Mo233  1  0.60128825  0.59762195  0.00603999  1
  Mo  Mo234  1  0.29328186  0.90695909  0.29797419  1
  Mo  Mo235  1  0.10123693  0.10563730  0.50039156  1
  Mo  Mo236  1  0.59949249  0.20341323  0.00168530  1
  Mo  Mo237  1  0.09550297  0.69823761  0.67520787  1
  Mo  Mo238  1  0.10424609  0.49737057  0.49448629  1
  Mo  Mo239  1  0.90474419  0.31524798  0.69449560  1
  Mo  Mo240  1  0.00081856  0.21638692  0.79430410  1
  Mo  Mo241  1  0.19205618  0.77900365  0.58806120  1
  Mo  Mo242  1  -0.00092151  0.78418298  0.59455702  1
  Mo  Mo243  1  0.29455460  0.70239098  0.10441464  1
  Mo  Mo244  1  0.29154149  0.70354980  0.30265864  1
  Mo  Mo245  1  0.09959803  0.69919172  0.92057574  1
  Mo  Mo246  1  0.39191679  -0.00043959  0.19979088  1
  Mo  Mo247  1  0.80487676  0.19597657  0.59913378  1
  Mo  Mo248  1  0.49100662  0.30457621  0.30165388  1
  Mo  Mo249  1  0.00484689  0.40589256  0.00576247  1
