# generated using pymatgen
data_HfZrTaTiMo
_symmetry_space_group_name_H-M   'P 1'
_cell_length_a   16.89637690
_cell_length_b   16.88168868
_cell_length_c   16.88803075
_cell_angle_alpha   90.05663059
_cell_angle_beta   90.01530673
_cell_angle_gamma   89.99743002
_symmetry_Int_Tables_number   1
_chemical_formula_structural   HfZrTaTiMo
_chemical_formula_sum   'Hf50 Zr50 Ta50 Ti50 Mo50'
_cell_volume   4817.12879966
_cell_formula_units_Z   50
loop_
 _symmetry_equiv_pos_site_id
 _symmetry_equiv_pos_as_xyz
  1  'x, y, z'
loop_
 _atom_site_type_symbol
 _atom_site_label
 _atom_site_symmetry_multiplicity
 _atom_site_fract_x
 _atom_site_fract_y
 _atom_site_fract_z
 _atom_site_occupancy
  Hf  Hf0  1  0.69399384  0.29814334  0.70125270  1
  Hf  Hf1  1  0.30293915  0.09702305  0.09227825  1
  Hf  Hf2  1  0.41250985  0.80068222  -0.00210019  1
  Hf  Hf3  1  0.39945383  0.40594966  0.39650319  1
  Hf  Hf4  1  0.49299405  0.91080419  0.71438463  1
  Hf  Hf5  1  0.41312411  0.19829565  0.18981473  1
  Hf  Hf6  1  0.89223400  0.90000821  0.69678246  1
  Hf  Hf7  1  0.20669545  0.60316544  0.40562229  1
  Hf  Hf8  1  0.80062932  0.59576829  -0.00483342  1
  Hf  Hf9  1  0.30690894  0.09890464  0.28687091  1
  Hf  Hf10  1  0.00116432  0.60492484  -0.00204344  1
  Hf  Hf11  1  0.51083395  0.10466266  0.50372749  1
  Hf  Hf12  1  0.50135986  0.50092235  0.50211799  1
  Hf  Hf13  1  0.09355697  0.89985840  0.30389290  1
  Hf  Hf14  1  0.49658066  0.69734816  0.50372074  1
  Hf  Hf15  1  0.30077019  0.29582106  0.29273885  1
  Hf  Hf16  1  0.40494961  0.59888489  0.00468800  1
  Hf  Hf17  1  0.09865062  0.69938241  0.29835963  1
  Hf  Hf18  1  0.89599281  0.89917578  0.49570118  1
  Hf  Hf19  1  0.10263926  0.49784771  0.10062040  1
  Hf  Hf20  1  0.50311507  0.29947089  0.50717349  1
  Hf  Hf21  1  0.79728236  0.40463734  0.61000371  1
  Hf  Hf22  1  0.89201419  0.89768791  0.90142058  1
  Hf  Hf23  1  0.28946472  0.49229580  0.69811790  1
  Hf  Hf24  1  0.40810586  0.40498578  0.19253133  1
  Hf  Hf25  1  0.11310498  0.49833776  0.51502467  1
  Hf  Hf26  1  0.61216904  -0.00303032  0.18549947  1
  Hf  Hf27  1  -0.01378791  0.79804200  0.20248491  1
  Hf  Hf28  1  -0.00388481  0.00667162  0.60067398  1
  Hf  Hf29  1  0.29077173  0.50596189  0.28376193  1
  Hf  Hf30  1  0.69986012  0.10208105  0.70154220  1
  Hf  Hf31  1  0.70439611  0.69874036  0.28550450  1
  Hf  Hf32  1  0.50377749  0.49236955  0.70143123  1
  Hf  Hf33  1  0.20074595  0.00414384  0.39809895  1
  Hf  Hf34  1  0.00115633  0.80063467  -0.00311832  1
  Hf  Hf35  1  0.31267711  0.91371810  0.89790101  1
  Hf  Hf36  1  0.00277231  0.79079397  0.59472263  1
  Hf  Hf37  1  0.10449126  0.89386789  0.10968307  1
  Hf  Hf38  1  0.30314976  0.90021254  0.70245896  1
  Hf  Hf39  1  0.61080167  0.40152897  0.39730974  1
  Hf  Hf40  1  0.30578945  0.90998297  0.10568339  1
  Hf  Hf41  1  0.40067956  0.00243982  0.39878047  1
  Hf  Hf42  1  0.69282850  0.70309467  0.09749380  1
  Hf  Hf43  1  0.60930360  -0.00705934  0.60599366  1
  Hf  Hf44  1  0.50160948  0.10820628  0.70658552  1
  Hf  Hf45  1  0.60515141  0.80229550  0.39961458  1
  Hf  Hf46  1  0.40304699  0.39732383  -0.00137634  1
  Hf  Hf47  1  0.80063889  0.40319312  0.19461312  1
  Hf  Hf48  1  0.10430413  0.49388475  0.70235377  1
  Hf  Hf49  1  0.18886381  0.80082960  0.80592033  1
  Zr  Zr50  1  0.49818038  0.29728827  0.69680538  1
  Zr  Zr51  1  -0.00247947  0.00715829  0.19543023  1
  Zr  Zr52  1  0.70804666  0.09761305  0.50254743  1
  Zr  Zr53  1  0.19513884  0.20055114  0.38990800  1
  Zr  Zr54  1  0.60492446  0.81283857  0.81034785  1
  Zr  Zr55  1  -0.00218596  0.00259528  0.00101496  1
  Zr  Zr56  1  0.09926783  0.29969257  0.50910524  1
  Zr  Zr57  1  0.29328861  0.49552381  0.90631495  1
  Zr  Zr58  1  0.09434348  0.90725467  0.70100392  1
  Zr  Zr59  1  0.89096350  0.69893666  0.49760932  1
  Zr  Zr60  1  0.90463753  0.29751119  0.49982978  1
  Zr  Zr61  1  0.69663420  0.50536476  0.09610405  1
  Zr  Zr62  1  0.69484969  0.09703886  0.90306399  1
  Zr  Zr63  1  0.89500738  0.50885914  0.50043612  1
  Zr  Zr64  1  0.19992504  0.39985482  0.39792434  1
  Zr  Zr65  1  0.50605034  0.69742037  0.29107974  1
  Zr  Zr66  1  0.50885722  0.29300920  0.29616819  1
  Zr  Zr67  1  0.71099028  0.69461368  0.50370911  1
  Zr  Zr68  1  0.49685598  0.89686705  0.50066568  1
  Zr  Zr69  1  0.60513272  0.58780631  0.38788435  1
  Zr  Zr70  1  0.70392065  0.29217171  0.28958266  1
  Zr  Zr71  1  0.29517414  0.69487467  0.10462119  1
  Zr  Zr72  1  0.60674125  0.80217983  0.60836983  1
  Zr  Zr73  1  0.09390904  0.29239812  0.70063811  1
  Zr  Zr74  1  0.30196418  0.70039280  0.89711037  1
  Zr  Zr75  1  0.20058206  0.38164013  0.81155742  1
  Zr  Zr76  1  0.39010358  0.79643510  0.38884861  1
  Zr  Zr77  1  0.39359723  0.00844900  0.59876611  1
  Zr  Zr78  1  0.60282059  -0.01334353  -0.00551218  1
  Zr  Zr79  1  0.29322672  0.29626292  0.09344031  1
  Zr  Zr80  1  0.19229693  0.80037466  -0.00612393  1
  Zr  Zr81  1  0.80575244  0.20894429  0.80789409  1
  Zr  Zr82  1  0.88922063  0.69662774  0.69435873  1
  Zr  Zr83  1  0.51570993  0.09493734  0.30220956  1
  Zr  Zr84  1  0.49172627  0.09171311  0.89684356  1
  Zr  Zr85  1  -0.00380802  0.59767821  0.79919026  1
  Zr  Zr86  1  0.09297817  0.11008634  0.50607359  1
  Zr  Zr87  1  0.18531130  0.00677358  -0.00614581  1
  Zr  Zr88  1  0.40240867  0.59446568  0.80436761  1
  Zr  Zr89  1  0.19606537  0.79532662  0.59952933  1
  Zr  Zr90  1  0.89745601  0.29605543  0.29163805  1
  Zr  Zr91  1  0.79212766  0.20499309  -0.00159640  1
  Zr  Zr92  1  -0.01470990  0.40206680  0.61384216  1
  Zr  Zr93  1  0.70901281  0.10201370  0.29707434  1
  Zr  Zr94  1  0.70275944  0.90614098  0.30398767  1
  Zr  Zr95  1  0.09418031  0.90056916  0.49177191  1
  Zr  Zr96  1  0.38838110  0.59441945  0.59752117  1
  Zr  Zr97  1  0.50161171  0.69788905  0.70114322  1
  Zr  Zr98  1  0.88702059  0.70401099  0.09798664  1
  Zr  Zr99  1  0.00312515  0.60480912  0.40136409  1
  Ta  Ta100  1  0.30417757  0.10518654  0.90086013  1
  Ta  Ta101  1  0.21127832  0.79680136  0.21456278  1
  Ta  Ta102  1  0.40236857  0.39023326  0.80971955  1
  Ta  Ta103  1  0.71606392  0.90062168  0.50313446  1
  Ta  Ta104  1  0.40382425  0.59863068  0.19845553  1
  Ta  Ta105  1  0.19366491  0.00881820  0.80341664  1
  Ta  Ta106  1  0.09875835  0.50284619  0.29003160  1
  Ta  Ta107  1  0.20209640  0.00992036  0.60393991  1
  Ta  Ta108  1  0.20202215  0.79574863  0.39943499  1
  Ta  Ta109  1  0.79827480  0.40105821  0.80493328  1
  Ta  Ta110  1  -0.00355562  0.19877370  0.81159728  1
  Ta  Ta111  1  -0.00033044  0.39997168  0.19839127  1
  Ta  Ta112  1  0.29804333  0.89659691  0.50352273  1
  Ta  Ta113  1  0.90008260  0.49215152  0.90385606  1
  Ta  Ta114  1  0.08826276  0.29944955  0.09203034  1
  Ta  Ta115  1  0.79243502  -0.00446480  0.80055657  1
  Ta  Ta116  1  0.89429324  0.10571132  0.29411838  1
  Ta  Ta117  1  0.40138145  0.20029758  0.40363887  1
  Ta  Ta118  1  0.79598993  0.58904751  0.80204545  1
  Ta  Ta119  1  0.30073227  0.70211787  0.50494624  1
  Ta  Ta120  1  0.30296324  0.10394261  0.71405607  1
  Ta  Ta121  1  0.00420935  0.40068452  0.38979782  1
  Ta  Ta122  1  0.90263539  0.29999945  0.09521539  1
  Ta  Ta123  1  0.40097328  0.79795939  0.19969679  1
  Ta  Ta124  1  0.19591022  0.19675853  0.81099855  1
  Ta  Ta125  1  0.89034075  0.70324068  0.89541735  1
  Ta  Ta126  1  0.70421625  0.69650915  0.70552170  1
  Ta  Ta127  1  0.79874490  0.40513780  0.39656217  1
  Ta  Ta128  1  0.60015642  0.20746948  0.81330101  1
  Ta  Ta129  1  0.00255952  0.20041533  0.38495559  1
  Ta  Ta130  1  0.09246336  0.49118368  0.90292530  1
  Ta  Ta131  1  0.60117520  0.41167101  0.20385775  1
  Ta  Ta132  1  0.20787743  0.19660592  0.61105994  1
  Ta  Ta133  1  0.30018625  0.29858376  0.50545412  1
  Ta  Ta134  1  0.89827162  0.90518183  0.30365439  1
  Ta  Ta135  1  0.89793850  0.10060531  0.70446171  1
  Ta  Ta136  1  0.90323823  0.50275973  0.29882738  1
  Ta  Ta137  1  0.50364645  0.90299301  0.29141497  1
  Ta  Ta138  1  0.50009264  0.89695184  0.10419670  1
  Ta  Ta139  1  0.61204192  0.40394839  0.59562897  1
  Ta  Ta140  1  0.19230462  0.60303538  0.80421024  1
  Ta  Ta141  1  0.61159296  0.20646940  0.41142466  1
  Ta  Ta142  1  0.18320010  0.19599015  0.19371970  1
  Ta  Ta143  1  0.51157459  0.50580304  0.09687867  1
  Ta  Ta144  1  0.80627555  0.20567685  0.60348719  1
  Ta  Ta145  1  0.18858514  0.60227719  -0.00521874  1
  Ta  Ta146  1  0.70315102  0.69980696  0.90125469  1
  Ta  Ta147  1  0.00099474  0.79554284  0.80420128  1
  Ta  Ta148  1  0.60137226  0.39933357  0.80767335  1
  Ta  Ta149  1  0.89337945  0.10805291  0.10037287  1
  Ti  Ti150  1  0.51537520  0.30225828  0.09493928  1
  Ti  Ti151  1  0.40661632  0.79708262  0.80551677  1
  Ti  Ti152  1  -0.00720764  0.59919278  0.19837845  1
  Ti  Ti153  1  0.90377058  0.31122046  0.91356338  1
  Ti  Ti154  1  0.00082629  0.19583335  -0.00551319  1
  Ti  Ti155  1  0.79455260  -0.00969459  0.00999323  1
  Ti  Ti156  1  0.51215890  0.69850263  0.10220083  1
  Ti  Ti157  1  0.19276511  0.38915350  -0.00496925  1
  Ti  Ti158  1  0.29750869  0.10690227  0.50002209  1
  Ti  Ti159  1  0.39112124  0.40004830  0.59814576  1
  Ti  Ti160  1  0.00230627  0.59983255  0.60160938  1
  Ti  Ti161  1  0.18959395  0.38871226  0.19826992  1
  Ti  Ti162  1  0.18662168  0.20107405  -0.00848794  1
  Ti  Ti163  1  -0.00966287  0.39259872  0.80368758  1
  Ti  Ti164  1  0.09576245  0.10497263  0.70490942  1
  Ti  Ti165  1  0.80879338  0.79381829  0.38617437  1
  Ti  Ti166  1  0.80279078  -0.00077987  0.18795779  1
  Ti  Ti167  1  0.69912711  0.49474129  0.90433911  1
  Ti  Ti168  1  0.51377351  0.69401123  0.90401182  1
  Ti  Ti169  1  0.80659493  0.59448777  0.20196250  1
  Ti  Ti170  1  0.39340975  0.19920412  0.59937508  1
  Ti  Ti171  1  0.60846070  0.59332575  0.80424441  1
  Ti  Ti172  1  0.30000710  0.70144796  0.69966976  1
  Ti  Ti173  1  0.80161603  0.20552576  0.40642192  1
  Ti  Ti174  1  0.79912007  0.81627497  0.19093502  1
  Ti  Ti175  1  0.10424094  0.69770884  0.11030989  1
  Ti  Ti176  1  0.28969291  0.50073856  0.09846797  1
  Ti  Ti177  1  -0.00480699  0.01606101  0.39404968  1
  Ti  Ti178  1  0.50940276  0.49975360  0.90487114  1
  Ti  Ti179  1  0.60470382  0.80607576  -0.00213913  1
  Ti  Ti180  1  0.10241202  0.69152017  0.69747714  1
  Ti  Ti181  1  0.39481920  0.59437854  0.39470085  1
  Ti  Ti182  1  0.90526568  0.49128879  0.09282487  1
  Ti  Ti183  1  0.80771158  0.00702119  0.40053589  1
  Ti  Ti184  1  0.00092194  0.00365833  0.80821483  1
  Ti  Ti185  1  0.79321568  0.80179328  0.79991718  1
  Ti  Ti186  1  0.89436680  0.09375250  0.90234090  1
  Ti  Ti187  1  0.50257820  0.29570351  0.90391960  1
  Ti  Ti188  1  0.90032035  0.10728212  0.50338478  1
  Ti  Ti189  1  0.61347816  0.59132223  0.60631540  1
  Ti  Ti190  1  0.49972851  0.09216083  0.08922754  1
  Ti  Ti191  1  0.30278301  0.90872287  0.29196723  1
  Ti  Ti192  1  0.00434432  0.19941985  0.19715437  1
  Ti  Ti193  1  0.18741634  0.01219716  0.20090464  1
  Ti  Ti194  1  0.71172744  0.50761244  0.49693201  1
  Ti  Ti195  1  0.61097874  0.19065200  0.17700413  1
  Ti  Ti196  1  0.30453436  0.29366462  0.70566311  1
  Ti  Ti197  1  0.69881444  0.30342817  0.09377480  1
  Ti  Ti198  1  0.40632521  0.20487080  -0.00143908  1
  Ti  Ti199  1  0.60371574  0.39555885  -0.00424998  1
  Mo  Mo200  1  0.21345305  0.38595179  0.60428850  1
  Mo  Mo201  1  0.39189402  0.79493108  0.60450541  1
  Mo  Mo202  1  0.80164690  0.59670720  0.37992308  1
  Mo  Mo203  1  0.19839203  0.60766702  0.60587620  1
  Mo  Mo204  1  0.09252722  0.10102864  0.29627958  1
  Mo  Mo205  1  0.89505117  0.49808056  0.71247031  1
  Mo  Mo206  1  0.49918815  0.89725021  0.90383845  1
  Mo  Mo207  1  0.70785255  0.90146394  0.70175576  1
  Mo  Mo208  1  0.39440652  0.00663010  0.80216689  1
  Mo  Mo209  1  0.60624744  0.00213046  0.80024452  1
  Mo  Mo210  1  0.70660794  0.30273644  0.50232994  1
  Mo  Mo211  1  0.80145838  0.39921299  -0.00159269  1
  Mo  Mo212  1  0.40584201  -0.00066659  0.00351469  1
  Mo  Mo213  1  0.70451020  0.09823488  0.09637280  1
  Mo  Mo214  1  0.09409057  0.11158498  0.09636435  1
  Mo  Mo215  1  0.80192257  0.19946860  0.18527185  1
  Mo  Mo216  1  0.89532784  0.69956691  0.29483517  1
  Mo  Mo217  1  0.09491028  0.30441692  0.28778311  1
  Mo  Mo218  1  0.41177651  -0.00236865  0.19749077  1
  Mo  Mo219  1  0.69225266  0.30860224  0.90266391  1
  Mo  Mo220  1  0.79027584  0.59076994  0.61769800  1
  Mo  Mo221  1  0.30468819  0.28873970  0.90472995  1
  Mo  Mo222  1  0.59451744  0.20538480  0.00500983  1
  Mo  Mo223  1  0.30279233  0.69646576  0.30053712  1
  Mo  Mo224  1  -0.00893853  0.19533383  0.61642535  1
  Mo  Mo225  1  0.39614887  0.20710678  0.80725817  1
  Mo  Mo226  1  0.71036740  0.50110908  0.29439050  1
  Mo  Mo227  1  0.80563658  0.00576530  0.60280616  1
  Mo  Mo228  1  0.89209564  0.90472644  0.10042473  1
  Mo  Mo229  1  0.70297102  0.89352493  0.09772832  1
  Mo  Mo230  1  0.30268192  0.49663436  0.50311458  1
  Mo  Mo231  1  0.09489777  0.10446468  0.89615027  1
  Mo  Mo232  1  0.79378980  0.80223396  -0.00573325  1
  Mo  Mo233  1  0.08954405  0.90444960  0.89136710  1
  Mo  Mo234  1  0.60617441  -0.00523211  0.40549980  1
  Mo  Mo235  1  0.61005372  0.20695926  0.59862614  1
  Mo  Mo236  1  -0.00496297  0.79908850  0.39433539  1
  Mo  Mo237  1  0.79510141  0.80514295  0.60707906  1
  Mo  Mo238  1  0.09188167  0.69453155  0.89525821  1
  Mo  Mo239  1  0.59951734  0.60226822  -0.00951819  1
  Mo  Mo240  1  0.10503664  0.69658532  0.49980016  1
  Mo  Mo241  1  0.89571014  0.29628996  0.71259774  1
  Mo  Mo242  1  0.69447703  0.49895677  0.71050433  1
  Mo  Mo243  1  0.70723404  0.89639506  0.90029834  1
  Mo  Mo244  1  0.08759606  0.29742097  0.90582494  1
  Mo  Mo245  1  0.49591808  0.50105395  0.29169240  1
  Mo  Mo246  1  0.59624593  0.59899206  0.19307631  1
  Mo  Mo247  1  0.59659399  0.80348451  0.19473101  1
  Mo  Mo248  1  -0.00260145  0.40159210  0.00368601  1
  Mo  Mo249  1  0.19729455  0.60286172  0.19523969  1
