# generated using pymatgen
data_HfZrTaTiMo
_symmetry_space_group_name_H-M   'P 1'
_cell_length_a   16.88238578
_cell_length_b   16.88366167
_cell_length_c   16.88347783
_cell_angle_alpha   90.00874804
_cell_angle_beta   90.00846110
_cell_angle_gamma   90.04630420
_symmetry_Int_Tables_number   1
_chemical_formula_structural   HfZrTaTiMo
_chemical_formula_sum   'Hf50 Zr50 Ta50 Ti50 Mo50'
_cell_volume   4812.40557554
_cell_formula_units_Z   50
loop_
 _symmetry_equiv_pos_site_id
 _symmetry_equiv_pos_as_xyz
  1  'x, y, z'
loop_
 _atom_site_type_symbol
 _atom_site_label
 _atom_site_symmetry_multiplicity
 _atom_site_fract_x
 _atom_site_fract_y
 _atom_site_fract_z
 _atom_site_occupancy
  Hf  Hf0  1  0.50465305  0.30419824  0.50435423  1
  Hf  Hf1  1  0.90045455  0.10368699  0.30892176  1
  Hf  Hf2  1  0.90311803  0.49618645  0.29999816  1
  Hf  Hf3  1  0.71399586  0.70188319  0.89846785  1
  Hf  Hf4  1  0.09755126  0.89646100  0.50117725  1
  Hf  Hf5  1  0.31291958  0.69474257  0.48840685  1
  Hf  Hf6  1  0.00192747  0.39803566  0.41063037  1
  Hf  Hf7  1  0.50689337  0.90175248  0.10596218  1
  Hf  Hf8  1  0.90620208  0.49183254  0.10939929  1
  Hf  Hf9  1  0.50368394  0.09735276  0.49945076  1
  Hf  Hf10  1  0.89994718  0.88538368  0.71224162  1
  Hf  Hf11  1  0.00963385  0.60159199  0.00663957  1
  Hf  Hf12  1  0.19077412  0.60165827  0.39813107  1
  Hf  Hf13  1  0.68939309  0.30871129  0.68538883  1
  Hf  Hf14  1  0.51485098  0.90058990  0.30856273  1
  Hf  Hf15  1  0.19005387  -0.00367936  0.20829730  1
  Hf  Hf16  1  0.20153864  0.00220099  0.79781364  1
  Hf  Hf17  1  -0.00781093  0.78866095  0.58940715  1
  Hf  Hf18  1  0.50618074  0.09566424  0.10380797  1
  Hf  Hf19  1  0.39787271  0.60597454  0.19730284  1
  Hf  Hf20  1  0.59214293  0.39896286  -0.00991416  1
  Hf  Hf21  1  0.60217506  0.80915086  -0.00878117  1
  Hf  Hf22  1  0.28077673  0.11528137  0.30180583  1
  Hf  Hf23  1  0.79424088  0.60399852  0.20102694  1
  Hf  Hf24  1  0.30594339  0.10544473  0.89432878  1
  Hf  Hf25  1  0.00049170  0.21091853  0.59898557  1
  Hf  Hf26  1  0.30958080  0.89981868  0.49322161  1
  Hf  Hf27  1  0.19378582  0.20424721  0.80118051  1
  Hf  Hf28  1  0.20115709  0.78999272  0.59483373  1
  Hf  Hf29  1  0.80482515  0.20532009  0.79093743  1
  Hf  Hf30  1  0.41038012  0.79376676  0.59551544  1
  Hf  Hf31  1  0.50705483  0.69141674  0.69756206  1
  Hf  Hf32  1  0.30976190  0.90737718  0.69557069  1
  Hf  Hf33  1  0.70623798  0.49903301  0.89968232  1
  Hf  Hf34  1  0.89633702  0.10416718  0.90852295  1
  Hf  Hf35  1  0.70589657  0.30093751  0.89657500  1
  Hf  Hf36  1  -0.00006979  -0.00284907  0.20292252  1
  Hf  Hf37  1  0.39611402  0.00292979  0.21260293  1
  Hf  Hf38  1  0.30270505  0.70053110  0.30477230  1
  Hf  Hf39  1  0.49415323  0.10034409  0.69992096  1
  Hf  Hf40  1  0.01184744  0.61202600  0.19914594  1
  Hf  Hf41  1  0.39199491  0.40665887  0.59344792  1
  Hf  Hf42  1  0.09600529  0.89226800  0.69982848  1
  Hf  Hf43  1  0.19927832  0.39637984  0.59517254  1
  Hf  Hf44  1  0.60739499  -0.00097858  0.59834415  1
  Hf  Hf45  1  0.19648785  -0.00766549  0.39267879  1
  Hf  Hf46  1  0.79587954  -0.00883743  0.40217983  1
  Hf  Hf47  1  0.49712696  0.90876021  0.70144226  1
  Hf  Hf48  1  0.49500603  0.49904897  0.10038163  1
  Hf  Hf49  1  0.69623474  0.30070610  0.10306156  1
  Zr  Zr50  1  0.68974162  0.89291121  0.49212325  1
  Zr  Zr51  1  0.69349482  0.10907923  0.69721174  1
  Zr  Zr52  1  0.59786543  0.19729427  -0.00324562  1
  Zr  Zr53  1  0.40445623  0.19888592  0.39496253  1
  Zr  Zr54  1  0.40133565  0.20244331  0.20414804  1
  Zr  Zr55  1  0.80459065  0.59937775  0.41144314  1
  Zr  Zr56  1  0.09718960  0.09780584  0.49552173  1
  Zr  Zr57  1  0.19943694  0.40645602  -0.00390955  1
  Zr  Zr58  1  -0.00398035  0.59336995  0.80053525  1
  Zr  Zr59  1  0.89397458  0.70830448  0.10041622  1
  Zr  Zr60  1  0.09836958  0.49422861  0.70464591  1
  Zr  Zr61  1  0.09556533  0.89446192  0.09060896  1
  Zr  Zr62  1  0.61028189  0.80761814  0.79815182  1
  Zr  Zr63  1  0.09166242  0.88623315  0.89707969  1
  Zr  Zr64  1  0.60279812  0.59772616  0.00125383  1
  Zr  Zr65  1  0.40559177  0.20782436  -0.00607640  1
  Zr  Zr66  1  0.81203083  0.40337952  0.78314581  1
  Zr  Zr67  1  0.20735159  0.59527062  0.60090016  1
  Zr  Zr68  1  0.30326636  0.30248862  0.70717124  1
  Zr  Zr69  1  0.59734222  0.60241379  0.20268590  1
  Zr  Zr70  1  0.79208916  -0.01131448  0.80516484  1
  Zr  Zr71  1  0.59230178  0.60232961  0.40565606  1
  Zr  Zr72  1  0.10244259  0.48890997  0.28276218  1
  Zr  Zr73  1  0.69655285  0.49422277  0.30354971  1
  Zr  Zr74  1  0.30082755  0.50275818  0.09601815  1
  Zr  Zr75  1  0.90366018  0.29937474  0.10088662  1
  Zr  Zr76  1  -0.00668978  0.59750343  0.59260454  1
  Zr  Zr77  1  0.89626377  0.50198390  0.90491841  1
  Zr  Zr78  1  0.19871696  -0.00124202  -0.01057724  1
  Zr  Zr79  1  0.10581140  0.30346018  0.10373727  1
  Zr  Zr80  1  0.49642511  0.30817608  0.10713104  1
  Zr  Zr81  1  0.20807582  0.40323764  0.40384793  1
  Zr  Zr82  1  0.80096075  -0.00654928  0.59945849  1
  Zr  Zr83  1  0.89874642  0.29848801  0.30081337  1
  Zr  Zr84  1  0.79076989  0.19359112  0.20121857  1
  Zr  Zr85  1  0.89903870  0.10392182  0.49475173  1
  Zr  Zr86  1  0.69449083  0.72059035  0.30219311  1
  Zr  Zr87  1  0.11017199  0.29561372  0.29211317  1
  Zr  Zr88  1  0.60465939  0.59429135  0.79883379  1
  Zr  Zr89  1  0.21150169  0.79362257  0.80116392  1
  Zr  Zr90  1  -0.00518791  0.00341942  0.80791017  1
  Zr  Zr91  1  0.09764748  0.09791367  0.69501609  1
  Zr  Zr92  1  0.39710868  0.80332373  0.20449636  1
  Zr  Zr93  1  0.29186723  0.10799256  0.09445843  1
  Zr  Zr94  1  -0.00230927  0.21026702  0.79923681  1
  Zr  Zr95  1  0.39892946  0.79899702  -0.00178153  1
  Zr  Zr96  1  0.29594295  0.89988191  0.09465984  1
  Zr  Zr97  1  0.80001598  -0.00302288  0.19547823  1
  Zr  Zr98  1  0.19106717  0.79343018  0.20341768  1
  Zr  Zr99  1  0.69227885  0.49175697  0.51406337  1
  Ta  Ta100  1  0.30383725  0.29541529  0.49565017  1
  Ta  Ta101  1  0.40505547  0.79697214  0.80401347  1
  Ta  Ta102  1  0.00523575  0.19062429  0.20196411  1
  Ta  Ta103  1  0.10280330  0.69985988  0.90098050  1
  Ta  Ta104  1  0.29939179  0.30535284  0.89810322  1
  Ta  Ta105  1  0.39741453  0.59890586  0.79981064  1
  Ta  Ta106  1  0.20233816  0.20191138  0.59797772  1
  Ta  Ta107  1  0.50186740  0.70337620  0.09746333  1
  Ta  Ta108  1  0.60419933  0.20158566  0.40023189  1
  Ta  Ta109  1  0.80092668  0.20633267  0.59621463  1
  Ta  Ta110  1  0.59165564  0.39967664  0.79912496  1
  Ta  Ta111  1  0.89926210  0.70359662  0.30153156  1
  Ta  Ta112  1  0.61366685  0.00395213  0.20593252  1
  Ta  Ta113  1  0.40254293  0.59390090  0.59653179  1
  Ta  Ta114  1  0.39712669  0.19990450  0.59974555  1
  Ta  Ta115  1  0.80199010  0.81622843  -0.00320916  1
  Ta  Ta116  1  0.90016972  0.70891304  0.89515905  1
  Ta  Ta117  1  0.00950763  0.40417597  -0.00304494  1
  Ta  Ta118  1  -0.00016285  0.80127211  0.20416707  1
  Ta  Ta119  1  0.69997101  0.09928847  0.31409421  1
  Ta  Ta120  1  0.49018134  0.49208532  0.30532725  1
  Ta  Ta121  1  0.90392749  0.30600379  0.90522950  1
  Ta  Ta122  1  0.49652507  0.69528540  0.90054370  1
  Ta  Ta123  1  0.70092749  0.10233804  0.90082089  1
  Ta  Ta124  1  0.30168062  0.09826793  0.50267038  1
  Ta  Ta125  1  0.60739763  0.00016823  -0.00369022  1
  Ta  Ta126  1  0.69644225  0.69599336  0.51348384  1
  Ta  Ta127  1  0.90473127  0.10096903  0.09421127  1
  Ta  Ta128  1  0.79698100  0.39143748  0.40732438  1
  Ta  Ta129  1  0.19169137  0.79892637  0.39458272  1
  Ta  Ta130  1  0.30274017  0.68978304  0.90627665  1
  Ta  Ta131  1  0.49918321  0.30285123  0.69680036  1
  Ta  Ta132  1  0.50008452  0.49578808  0.69561366  1
  Ta  Ta133  1  0.59286496  0.20565037  0.80328378  1
  Ta  Ta134  1  0.50291797  0.30763160  0.30466867  1
  Ta  Ta135  1  0.00104705  0.79067798  0.39993505  1
  Ta  Ta136  1  0.00095701  0.60502455  0.40378847  1
  Ta  Ta137  1  0.60197317  0.19580512  0.21235108  1
  Ta  Ta138  1  0.80035173  0.79689535  0.59898293  1
  Ta  Ta139  1  0.20218451  0.00118533  0.59769910  1
  Ta  Ta140  1  0.41038848  -0.00331923  -0.00885984  1
  Ta  Ta141  1  0.89859153  0.89127909  0.30350349  1
  Ta  Ta142  1  0.69714400  0.71330314  0.09970335  1
  Ta  Ta143  1  0.09660336  0.69950132  0.70803319  1
  Ta  Ta144  1  0.09919485  0.10661461  0.09501209  1
  Ta  Ta145  1  0.89473590  0.69887581  0.70396807  1
  Ta  Ta146  1  0.80746610  0.79719960  0.41012389  1
  Ta  Ta147  1  -0.00747952  -0.00890693  0.59648638  1
  Ta  Ta148  1  0.09807244  0.49946798  0.50176055  1
  Ta  Ta149  1  0.60254120  -0.00180761  0.80783356  1
  Ti  Ti150  1  0.79692591  -0.00404011  0.00472766  1
  Ti  Ti151  1  0.40660157  0.20824154  0.80103167  1
  Ti  Ti152  1  0.79970225  0.60324935  0.00901569  1
  Ti  Ti153  1  0.48677375  0.50238690  0.89435967  1
  Ti  Ti154  1  0.69689854  0.89936266  0.10411288  1
  Ti  Ti155  1  0.49918567  0.09415601  0.89173157  1
  Ti  Ti156  1  0.00549818  0.20799041  -0.00096684  1
  Ti  Ti157  1  0.79256109  0.39549231  0.20719067  1
  Ti  Ti158  1  0.80266072  0.59614202  0.78816058  1
  Ti  Ti159  1  0.19712068  0.60517306  0.19008931  1
  Ti  Ti160  1  0.29670296  0.30326739  0.29780845  1
  Ti  Ti161  1  -0.00781416  0.39925072  0.59988990  1
  Ti  Ti162  1  0.79882597  0.81091919  0.20060050  1
  Ti  Ti163  1  0.19856322  0.60570758  0.00519913  1
  Ti  Ti164  1  0.09888612  0.10901461  0.91080593  1
  Ti  Ti165  1  0.39978101  0.00366869  0.39096737  1
  Ti  Ti166  1  0.19252934  0.20558059  0.41181332  1
  Ti  Ti167  1  0.80101407  0.39950370  0.00514691  1
  Ti  Ti168  1  0.30646853  0.69501765  0.70225277  1
  Ti  Ti169  1  0.69521205  0.29601809  0.50393007  1
  Ti  Ti170  1  0.70572723  0.69977614  0.69434827  1
  Ti  Ti171  1  0.20577890  0.59890986  0.80464173  1
  Ti  Ti172  1  0.09514401  0.31005309  0.70359881  1
  Ti  Ti173  1  0.79605979  0.19751783  0.00494559  1
  Ti  Ti174  1  0.60242610  0.39535270  0.39988382  1
  Ti  Ti175  1  0.01034024  0.20634009  0.40060238  1
  Ti  Ti176  1  0.29377221  0.30012239  0.09987070  1
  Ti  Ti177  1  0.30540095  0.50276019  0.30389600  1
  Ti  Ti178  1  0.30809133  0.89967261  0.89548005  1
  Ti  Ti179  1  -0.01046810  -0.00685989  0.00135935  1
  Ti  Ti180  1  0.70019422  0.49574782  0.10187560  1
  Ti  Ti181  1  0.60122211  0.79937925  0.60113510  1
  Ti  Ti182  1  0.58780300  0.79116636  0.41412902  1
  Ti  Ti183  1  0.80743509  0.59521188  0.60205483  1
  Ti  Ti184  1  -0.00769585  0.79872453  0.00083849  1
  Ti  Ti185  1  0.81431736  0.40191058  0.59512751  1
  Ti  Ti186  1  0.30506010  0.49666195  0.71321967  1
  Ti  Ti187  1  0.49424260  0.70363082  0.30703444  1
  Ti  Ti188  1  0.30843836  0.09746113  0.69696294  1
  Ti  Ti189  1  0.69338854  0.49880711  0.69095901  1
  Ti  Ti190  1  0.19917115  0.40128694  0.80827796  1
  Ti  Ti191  1  0.00065595  -0.01180181  0.39561467  1
  Ti  Ti192  1  0.60211138  0.39716206  0.20748067  1
  Ti  Ti193  1  0.10276421  0.50185109  0.89768558  1
  Ti  Ti194  1  0.49661904  0.90686211  0.49681814  1
  Ti  Ti195  1  0.89641465  0.29701863  0.49678621  1
  Ti  Ti196  1  0.39203141  0.39988095  0.20704083  1
  Ti  Ti197  1  0.39590211  0.40299436  -0.01426062  1
  Ti  Ti198  1  0.49560944  0.50059989  0.49649525  1
  Ti  Ti199  1  0.89976388  0.09846065  0.69550057  1
  Mo  Mo200  1  0.70079940  0.89866402  0.30089618  1
  Mo  Mo201  1  0.30690622  0.89565720  0.31077956  1
  Mo  Mo202  1  0.21927963  0.39893968  0.19826959  1
  Mo  Mo203  1  0.51284970  0.09774341  0.30351126  1
  Mo  Mo204  1  0.50415686  0.69446125  0.50538852  1
  Mo  Mo205  1  0.20327144  0.78475280  -0.00213518  1
  Mo  Mo206  1  0.39889496  0.40055015  0.39724074  1
  Mo  Mo207  1  0.80007949  0.79380655  0.79905765  1
  Mo  Mo208  1  0.10137282  0.69550734  0.49635107  1
  Mo  Mo209  1  -0.00125284  0.78831903  0.80254533  1
  Mo  Mo210  1  0.10431225  0.30158514  0.50547639  1
  Mo  Mo211  1  0.19674673  0.20548521  -0.00595123  1
  Mo  Mo212  1  0.10411218  0.50200990  0.09922692  1
  Mo  Mo213  1  0.29587859  0.69664801  0.09298294  1
  Mo  Mo214  1  0.89328964  0.69647860  0.50057613  1
  Mo  Mo215  1  0.69886298  0.89073878  0.69592919  1
  Mo  Mo216  1  0.08803815  0.89415290  0.30541656  1
  Mo  Mo217  1  0.40249932  0.60204566  -0.00400735  1
  Mo  Mo218  1  0.59727742  0.20326820  0.59858259  1
  Mo  Mo219  1  0.89896277  0.90234551  0.09997567  1
  Mo  Mo220  1  0.60089551  0.00499979  0.39951804  1
  Mo  Mo221  1  0.19764945  0.19993104  0.19402577  1
  Mo  Mo222  1  0.70252178  0.90616973  0.90331363  1
  Mo  Mo223  1  0.58934158  0.40283190  0.60043784  1
  Mo  Mo224  1  0.50045521  0.90402923  0.89679081  1
  Mo  Mo225  1  0.59796144  0.59824475  0.60218629  1
  Mo  Mo226  1  0.10306943  0.70414706  0.09070960  1
  Mo  Mo227  1  0.89798124  0.89764495  0.90763112  1
  Mo  Mo228  1  0.40242468  0.59395003  0.39830057  1
  Mo  Mo229  1  0.90228663  0.89401020  0.49579218  1
  Mo  Mo230  1  0.30350872  0.50169110  0.49306678  1
  Mo  Mo231  1  0.89760846  0.50086866  0.69199671  1
  Mo  Mo232  1  0.00473079  0.39732511  0.80646632  1
  Mo  Mo233  1  0.29846802  0.50556339  0.89468608  1
  Mo  Mo234  1  0.60150232  0.80436536  0.19357344  1
  Mo  Mo235  1  0.89992310  0.49342844  0.49970089  1
  Mo  Mo236  1  0.40272770  -0.00116935  0.80558643  1
  Mo  Mo237  1  0.78865926  0.20566211  0.40897889  1
  Mo  Mo238  1  -0.00014867  0.39740851  0.19537011  1
  Mo  Mo239  1  0.41085558  0.79904784  0.40076902  1
  Mo  Mo240  1  0.49165725  0.30793634  0.88756887  1
  Mo  Mo241  1  0.40064140  0.40675065  0.80032976  1
  Mo  Mo242  1  0.70096115  0.09643630  0.09401960  1
  Mo  Mo243  1  0.09829172  0.30700436  0.89873272  1
  Mo  Mo244  1  0.90203756  0.30551724  0.68931211  1
  Mo  Mo245  1  0.69377117  0.29945110  0.30616740  1
  Mo  Mo246  1  0.39813623  0.00462581  0.59455718  1
  Mo  Mo247  1  0.09452398  0.10265995  0.30138932  1
  Mo  Mo248  1  0.09702588  0.69961473  0.30008850  1
  Mo  Mo249  1  0.70020417  0.11116336  0.49834972  1
