# generated using pymatgen
data_HfZrTaTiMo
_symmetry_space_group_name_H-M   'P 1'
_cell_length_a   16.88475304
_cell_length_b   16.87836628
_cell_length_c   16.88172697
_cell_angle_alpha   89.99759382
_cell_angle_beta   89.97565612
_cell_angle_gamma   90.01437321
_symmetry_Int_Tables_number   1
_chemical_formula_structural   HfZrTaTiMo
_chemical_formula_sum   'Hf50 Zr50 Ta50 Ti50 Mo50'
_cell_volume   4811.07291554
_cell_formula_units_Z   50
loop_
 _symmetry_equiv_pos_site_id
 _symmetry_equiv_pos_as_xyz
  1  'x, y, z'
loop_
 _atom_site_type_symbol
 _atom_site_label
 _atom_site_symmetry_multiplicity
 _atom_site_fract_x
 _atom_site_fract_y
 _atom_site_fract_z
 _atom_site_occupancy
  Hf  Hf0  1  0.71880194  0.50253873  0.68447677  1
  Hf  Hf1  1  0.90386361  0.69072229  0.29938119  1
  Hf  Hf2  1  0.40454004  0.80503690  0.40490922  1
  Hf  Hf3  1  0.59114406  0.59966506  0.59732569  1
  Hf  Hf4  1  0.70783859  0.69262835  0.50750870  1
  Hf  Hf5  1  0.38592515  0.38760329  0.19963364  1
  Hf  Hf6  1  0.81620567  0.39819775  0.80287573  1
  Hf  Hf7  1  0.01213796  0.40243997  0.20970922  1
  Hf  Hf8  1  0.29236951  0.09829615  0.88994294  1
  Hf  Hf9  1  0.71193283  0.29385499  0.69280232  1
  Hf  Hf10  1  0.71141949  0.30389328  0.50435041  1
  Hf  Hf11  1  0.29500086  0.90520951  0.89124614  1
  Hf  Hf12  1  0.39243541  0.38905360  0.40126317  1
  Hf  Hf13  1  -0.01278472  0.21347013  0.80481480  1
  Hf  Hf14  1  0.00104018  0.00479229  0.20357484  1
  Hf  Hf15  1  0.70242396  0.29823141  0.31755598  1
  Hf  Hf16  1  0.59072906  0.40273565  0.59642622  1
  Hf  Hf17  1  0.40091602  0.18894748  0.00097087  1
  Hf  Hf18  1  0.19857704  0.80894781  0.00358669  1
  Hf  Hf19  1  0.40102093  0.81276561  0.00808493  1
  Hf  Hf20  1  0.19593339  0.79645102  0.39399138  1
  Hf  Hf21  1  0.30547934  0.90696947  0.30056296  1
  Hf  Hf22  1  0.90238740  0.29986703  0.10113559  1
  Hf  Hf23  1  0.49441562  0.30579886  0.88804500  1
  Hf  Hf24  1  0.89970219  0.90478331  0.49610519  1
  Hf  Hf25  1  0.89650868  0.69290709  0.69787627  1
  Hf  Hf26  1  0.69800038  0.10704257  0.50433412  1
  Hf  Hf27  1  0.10900712  0.50677776  0.90117370  1
  Hf  Hf28  1  0.70412143  0.50350427  0.10212979  1
  Hf  Hf29  1  0.40087007  -0.00129400  0.18654527  1
  Hf  Hf30  1  0.90979304  0.51130319  0.10561687  1
  Hf  Hf31  1  0.49384891  0.49928078  0.29680475  1
  Hf  Hf32  1  0.39466376  0.19670799  0.39860402  1
  Hf  Hf33  1  0.10059436  0.10101145  0.10198544  1
  Hf  Hf34  1  0.69693350  0.89690708  0.09239470  1
  Hf  Hf35  1  0.70443910  0.10249776  0.88982981  1
  Hf  Hf36  1  0.10470600  0.10356247  0.50176772  1
  Hf  Hf37  1  0.19152303  0.60183978  0.39433132  1
  Hf  Hf38  1  0.70772850  0.50158535  0.31071436  1
  Hf  Hf39  1  0.29394740  0.69406386  0.89674978  1
  Hf  Hf40  1  0.00486453  0.00273333  0.60748175  1
  Hf  Hf41  1  0.41018163  0.79655775  0.59797080  1
  Hf  Hf42  1  0.90030912  0.89237069  0.09445317  1
  Hf  Hf43  1  0.79165394  0.00790443  0.20335211  1
  Hf  Hf44  1  0.80081491  0.39872065  0.20171649  1
  Hf  Hf45  1  0.29517160  0.50218792  0.49825279  1
  Hf  Hf46  1  0.70553070  0.70070036  0.70410782  1
  Hf  Hf47  1  0.89616192  0.90243127  0.30222946  1
  Hf  Hf48  1  0.70098957  0.89898759  0.50190306  1
  Hf  Hf49  1  0.00567998  0.39685323  -0.00242247  1
  Zr  Zr50  1  0.79327460  0.19849229  0.19714583  1
  Zr  Zr51  1  0.28725192  0.50556983  0.09951916  1
  Zr  Zr52  1  0.10148619  0.10185835  0.88864459  1
  Zr  Zr53  1  0.49871549  0.08999404  0.29735075  1
  Zr  Zr54  1  0.40230605  -0.00132693  0.60002767  1
  Zr  Zr55  1  0.90256631  0.69931573  0.09490651  1
  Zr  Zr56  1  0.00969602  0.79683502  0.20676693  1
  Zr  Zr57  1  0.59660430  0.79196441  0.19904176  1
  Zr  Zr58  1  0.09945175  0.90823275  0.88861306  1
  Zr  Zr59  1  0.29273263  0.69669526  0.09677066  1
  Zr  Zr60  1  0.09641770  0.29336317  0.69213748  1
  Zr  Zr61  1  0.50183186  0.69679026  0.89939768  1
  Zr  Zr62  1  0.90063957  0.30263488  0.31223719  1
  Zr  Zr63  1  0.48794721  0.50071391  0.71645577  1
  Zr  Zr64  1  0.59854971  0.19513228  -0.00125022  1
  Zr  Zr65  1  0.59430443  0.19446162  0.78980973  1
  Zr  Zr66  1  0.19607620  0.00333360  0.39628178  1
  Zr  Zr67  1  0.80056288  -0.00325624  -0.00831385  1
  Zr  Zr68  1  0.49376469  0.50389044  0.90110232  1
  Zr  Zr69  1  0.00101374  0.40994650  0.78990760  1
  Zr  Zr70  1  0.70644154  0.71027240  0.90351940  1
  Zr  Zr71  1  0.19836199  0.39817803  0.60151358  1
  Zr  Zr72  1  0.60424917  0.39504403  0.19800781  1
  Zr  Zr73  1  0.70799606  0.29799152  0.89754364  1
  Zr  Zr74  1  0.58936544  0.39847619  0.41286536  1
  Zr  Zr75  1  0.29252913  0.90060557  0.69768053  1
  Zr  Zr76  1  0.50301653  0.29752372  0.10029811  1
  Zr  Zr77  1  0.81015010  0.59217701  0.80917529  1
  Zr  Zr78  1  0.79500847  0.00561685  0.60478760  1
  Zr  Zr79  1  0.61208577  0.40643784  0.79816536  1
  Zr  Zr80  1  0.00133469  0.20158539  -0.00162408  1
  Zr  Zr81  1  0.09260209  0.69029982  0.09235019  1
  Zr  Zr82  1  0.39216231  0.39459504  0.60231251  1
  Zr  Zr83  1  0.29344887  0.50042601  0.29583069  1
  Zr  Zr84  1  0.69176958  0.90467846  0.29900307  1
  Zr  Zr85  1  0.40597727  0.80209827  0.79697460  1
  Zr  Zr86  1  0.00329969  0.79518809  0.40307465  1
  Zr  Zr87  1  0.09939007  0.69719187  0.89983165  1
  Zr  Zr88  1  0.30149175  0.69703900  0.49626007  1
  Zr  Zr89  1  -0.00303069  0.80448605  0.80119038  1
  Zr  Zr90  1  0.59550144  0.79763364  0.40908712  1
  Zr  Zr91  1  0.39627284  0.40014950  0.00493445  1
  Zr  Zr92  1  0.60084327  0.00177681  0.79136688  1
  Zr  Zr93  1  0.89751177  0.90154249  0.70695372  1
  Zr  Zr94  1  0.60616078  0.18816152  0.19977739  1
  Zr  Zr95  1  0.00071598  0.79717868  0.59942303  1
  Zr  Zr96  1  0.30049702  0.29932280  0.88928363  1
  Zr  Zr97  1  0.39506099  0.60612996  0.61186987  1
  Zr  Zr98  1  0.60025712  0.60012811  0.40590555  1
  Zr  Zr99  1  0.49181994  0.69379969  0.30344690  1
  Ta  Ta100  1  0.60840209  0.40445026  0.00010032  1
  Ta  Ta101  1  0.40665478  0.00704035  0.79669250  1
  Ta  Ta102  1  0.79311731  0.79183077  0.20462223  1
  Ta  Ta103  1  0.59505035  0.00294556  0.40809335  1
  Ta  Ta104  1  0.19477029  0.79720287  0.60157488  1
  Ta  Ta105  1  0.79999016  0.59941141  -0.00092971  1
  Ta  Ta106  1  0.60802891  0.81199359  0.79800710  1
  Ta  Ta107  1  0.29940847  0.50455050  0.89151761  1
  Ta  Ta108  1  0.19533296  0.39424748  0.39666155  1
  Ta  Ta109  1  0.20806939  0.18927613  0.60534598  1
  Ta  Ta110  1  0.59923164  -0.00047684  0.60296406  1
  Ta  Ta111  1  0.20243623  0.20347169  0.00379162  1
  Ta  Ta112  1  0.90212589  0.09995188  0.10012955  1
  Ta  Ta113  1  0.59534477  0.19545803  0.40451687  1
  Ta  Ta114  1  0.09651357  0.90269689  0.09699061  1
  Ta  Ta115  1  0.00494763  0.20055444  0.20600407  1
  Ta  Ta116  1  0.29610399  0.90600681  0.50138570  1
  Ta  Ta117  1  0.20265541  0.40606599  0.78901196  1
  Ta  Ta118  1  0.90450802  0.49717959  0.50293276  1
  Ta  Ta119  1  0.20006915  0.39566935  0.00206272  1
  Ta  Ta120  1  0.09773737  0.69268826  0.50703680  1
  Ta  Ta121  1  0.90165840  0.10424305  0.30341835  1
  Ta  Ta122  1  0.39583097  0.60786293  0.19876549  1
  Ta  Ta123  1  0.11108038  0.30172087  0.89276169  1
  Ta  Ta124  1  0.20541621  0.20402245  0.20257371  1
  Ta  Ta125  1  0.19416847  0.59676533  0.60690768  1
  Ta  Ta126  1  0.29719605  0.10032291  0.29931809  1
  Ta  Ta127  1  0.79756485  0.01091596  0.40033325  1
  Ta  Ta128  1  0.60514878  0.59703327  0.00351173  1
  Ta  Ta129  1  0.10262607  0.50488110  0.10235309  1
  Ta  Ta130  1  0.30060096  0.09591044  0.50019147  1
  Ta  Ta131  1  0.10220150  0.69684590  0.70479258  1
  Ta  Ta132  1  0.10618617  0.90375283  0.50565509  1
  Ta  Ta133  1  0.90416766  0.50288250  0.30906234  1
  Ta  Ta134  1  0.09485180  0.49779365  0.50242962  1
  Ta  Ta135  1  0.80074205  0.78992920  0.39980704  1
  Ta  Ta136  1  0.79475705  -0.00557929  0.79873201  1
  Ta  Ta137  1  0.39352646  0.19755687  0.19690473  1
  Ta  Ta138  1  0.29581329  0.09888071  0.10161509  1
  Ta  Ta139  1  0.80221053  0.79771298  0.59856272  1
  Ta  Ta140  1  0.00168051  0.19918604  0.40322868  1
  Ta  Ta141  1  0.20145714  0.80241350  0.20326025  1
  Ta  Ta142  1  0.59801560  0.80185809  0.60494513  1
  Ta  Ta143  1  0.49784880  0.29144181  0.30088825  1
  Ta  Ta144  1  0.39468800  0.80265668  0.19498190  1
  Ta  Ta145  1  0.10696535  0.29502227  0.30571615  1
  Ta  Ta146  1  0.80576692  0.20039321  -0.00288295  1
  Ta  Ta147  1  0.20159097  0.00183039  0.00601294  1
  Ta  Ta148  1  -0.00338870  -0.00180100  -0.00668503  1
  Ta  Ta149  1  0.89793314  0.10435783  0.70741053  1
  Ti  Ti150  1  0.51118197  0.90776956  0.10088692  1
  Ti  Ti151  1  0.49468105  0.09820547  0.50111727  1
  Ti  Ti152  1  0.50086376  0.50550971  0.10486729  1
  Ti  Ti153  1  0.28886137  0.28630812  0.49838390  1
  Ti  Ti154  1  0.49196077  0.10675542  0.68941400  1
  Ti  Ti155  1  -0.00792346  0.19640918  0.59154348  1
  Ti  Ti156  1  0.39884795  0.18985645  0.79290747  1
  Ti  Ti157  1  0.10105755  0.29470717  0.49913553  1
  Ti  Ti158  1  0.18829402  0.60885472  0.21222778  1
  Ti  Ti159  1  0.90235779  0.30800418  0.50204413  1
  Ti  Ti160  1  0.00032589  0.59227894  0.60274820  1
  Ti  Ti161  1  0.69630191  0.09373294  0.09201420  1
  Ti  Ti162  1  0.30180636  0.28772323  0.70271806  1
  Ti  Ti163  1  -0.00151860  0.00968087  0.40093630  1
  Ti  Ti164  1  0.00769115  0.39988422  0.40385645  1
  Ti  Ti165  1  0.50026619  0.69677456  0.09762977  1
  Ti  Ti166  1  0.40056034  0.59974619  0.00390974  1
  Ti  Ti167  1  0.90531987  0.50288412  0.91266663  1
  Ti  Ti168  1  0.50752070  0.69544763  0.71343298  1
  Ti  Ti169  1  0.59206056  0.00556959  -0.00699975  1
  Ti  Ti170  1  0.00608048  0.59714275  0.40027877  1
  Ti  Ti171  1  0.90148832  0.71179426  0.91017359  1
  Ti  Ti172  1  0.10315614  0.10781943  0.30129269  1
  Ti  Ti173  1  0.10879318  0.30208189  0.10569385  1
  Ti  Ti174  1  0.28924446  0.69867104  0.71086410  1
  Ti  Ti175  1  0.09953028  0.90550151  0.30071075  1
  Ti  Ti176  1  0.20007995  -0.00271981  0.19593718  1
  Ti  Ti177  1  0.80929963  0.60220872  0.40772833  1
  Ti  Ti178  1  0.09548119  0.10605098  0.70218133  1
  Ti  Ti179  1  0.19453317  0.00673805  0.77604821  1
  Ti  Ti180  1  0.49210902  0.28456119  0.50841463  1
  Ti  Ti181  1  0.59716880  0.80313482  -0.00497189  1
  Ti  Ti182  1  0.49954964  0.90610254  0.29931198  1
  Ti  Ti183  1  0.71768626  0.49389457  0.50182080  1
  Ti  Ti184  1  0.80009370  0.39974537  -0.00000598  1
  Ti  Ti185  1  0.79400792  0.60646621  0.20439188  1
  Ti  Ti186  1  -0.00135385  0.59516253  0.79728944  1
  Ti  Ti187  1  0.47909481  0.51488964  0.49179774  1
  Ti  Ti188  1  0.60297050  0.60564516  0.19942142  1
  Ti  Ti189  1  0.40060768  0.00137822  -0.00115793  1
  Ti  Ti190  1  0.81219209  0.19483585  0.59808555  1
  Ti  Ti191  1  0.50244507  0.90596558  0.89899023  1
  Ti  Ti192  1  0.59608959  0.19751481  0.60210204  1
  Ti  Ti193  1  0.70260361  0.70279819  0.09481610  1
  Ti  Ti194  1  0.48866577  0.29842495  0.69938145  1
  Ti  Ti195  1  0.89995783  0.30388601  0.68519636  1
  Ti  Ti196  1  0.89937303  0.09583563  0.89238368  1
  Ti  Ti197  1  0.80920355  0.19196601  0.40810572  1
  Ti  Ti198  1  0.61343056  0.59395172  0.80911973  1
  Ti  Ti199  1  0.50435313  0.90076457  0.69858609  1
  Mo  Mo200  1  -0.00363694  0.59598032  -0.00784669  1
  Mo  Mo201  1  0.29888363  0.70607564  0.29167757  1
  Mo  Mo202  1  0.80018656  0.79727521  -0.00007218  1
  Mo  Mo203  1  0.90942014  0.50006705  0.68942188  1
  Mo  Mo204  1  0.70711201  0.30299997  0.08767479  1
  Mo  Mo205  1  0.69644783  0.90022249  0.89823968  1
  Mo  Mo206  1  0.49804497  0.08911726  0.09471456  1
  Mo  Mo207  1  0.59824426  -0.00152683  0.19466320  1
  Mo  Mo208  1  0.70627183  0.50120609  0.91135980  1
  Mo  Mo209  1  0.39587754  0.19786593  0.59689724  1
  Mo  Mo210  1  0.81283505  0.60002878  0.59254106  1
  Mo  Mo211  1  0.29349606  0.50497511  0.70634402  1
  Mo  Mo212  1  0.19950057  0.59163850  -0.00352419  1
  Mo  Mo213  1  0.19965848  0.20099916  0.40256879  1
  Mo  Mo214  1  0.29487573  0.29312020  0.30073300  1
  Mo  Mo215  1  0.29189544  0.29214988  0.09985231  1
  Mo  Mo216  1  0.39310385  0.60114505  0.39229287  1
  Mo  Mo217  1  0.89643724  0.89877735  0.89964554  1
  Mo  Mo218  1  0.90282435  0.69083178  0.49892119  1
  Mo  Mo219  1  0.70882417  0.69347200  0.30206230  1
  Mo  Mo220  1  0.90090226  0.30523888  0.90726621  1
  Mo  Mo221  1  0.09880271  0.50736091  0.69675790  1
  Mo  Mo222  1  0.01038455  0.59307417  0.21387901  1
  Mo  Mo223  1  0.38621611  0.39803595  0.79342882  1
  Mo  Mo224  1  0.19836418  0.20191935  0.79108820  1
  Mo  Mo225  1  0.00211495  0.39860765  0.59016205  1
  Mo  Mo226  1  0.19398767  0.39162568  0.19923533  1
  Mo  Mo227  1  0.09774194  0.49524157  0.30525475  1
  Mo  Mo228  1  0.50460872  0.90536015  0.50493872  1
  Mo  Mo229  1  0.69965016  0.89455903  0.69795735  1
  Mo  Mo230  1  0.49241566  0.09224500  0.89618748  1
  Mo  Mo231  1  0.81344944  0.39912276  0.59853098  1
  Mo  Mo232  1  0.80912830  0.19971801  0.79659862  1
  Mo  Mo233  1  0.19891187  0.59830229  0.79234222  1
  Mo  Mo234  1  0.40075313  -0.00010084  0.40462732  1
  Mo  Mo235  1  0.19618138  0.79878211  0.79103328  1
  Mo  Mo236  1  0.10012413  0.69666724  0.30268036  1
  Mo  Mo237  1  0.69970826  0.10124566  0.31517614  1
  Mo  Mo238  1  0.39176931  0.60415194  0.80157916  1
  Mo  Mo239  1  0.10302490  0.89919854  0.69722071  1
  Mo  Mo240  1  -0.00191662  0.80983962  -0.00487807  1
  Mo  Mo241  1  0.70608109  0.10437633  0.69536762  1
  Mo  Mo242  1  0.90528738  0.10334014  0.49953709  1
  Mo  Mo243  1  0.81000320  0.40682989  0.40625143  1
  Mo  Mo244  1  0.19700410  0.00100565  0.59964574  1
  Mo  Mo245  1  0.30093307  0.10208474  0.69806111  1
  Mo  Mo246  1  0.50169555  0.70087985  0.50587034  1
  Mo  Mo247  1  -0.00529191  0.00981975  0.79867520  1
  Mo  Mo248  1  0.79941802  0.80786390  0.80530629  1
  Mo  Mo249  1  0.29200437  0.90542084  0.10199566  1
