# generated using pymatgen
data_HfZrTaTiMo
_symmetry_space_group_name_H-M   'P 1'
_cell_length_a   16.87601933
_cell_length_b   16.88214432
_cell_length_c   16.88879683
_cell_angle_alpha   89.96124067
_cell_angle_beta   90.04653568
_cell_angle_gamma   90.01146816
_symmetry_Int_Tables_number   1
_chemical_formula_structural   HfZrTaTiMo
_chemical_formula_sum   'Hf50 Zr50 Ta50 Ti50 Mo50'
_cell_volume   4811.67275356
_cell_formula_units_Z   50
loop_
 _symmetry_equiv_pos_site_id
 _symmetry_equiv_pos_as_xyz
  1  'x, y, z'
loop_
 _atom_site_type_symbol
 _atom_site_label
 _atom_site_symmetry_multiplicity
 _atom_site_fract_x
 _atom_site_fract_y
 _atom_site_fract_z
 _atom_site_occupancy
  Hf  Hf0  1  0.30701871  0.10087440  0.50722178  1
  Hf  Hf1  1  0.30097061  0.49350716  0.49714080  1
  Hf  Hf2  1  0.00891896  0.00542190  0.02208309  1
  Hf  Hf3  1  0.69789693  0.50182861  0.09918402  1
  Hf  Hf4  1  0.08907449  0.29256360  0.30134443  1
  Hf  Hf5  1  0.19490183  0.59769161  0.60528935  1
  Hf  Hf6  1  0.09270126  0.10542648  0.49928540  1
  Hf  Hf7  1  0.09791382  0.49693247  0.09840663  1
  Hf  Hf8  1  0.30500323  0.50550124  0.10349401  1
  Hf  Hf9  1  0.69633312  0.91749827  0.70300604  1
  Hf  Hf10  1  -0.00807210  0.00452436  0.60020587  1
  Hf  Hf11  1  0.89831647  0.90254389  0.29725295  1
  Hf  Hf12  1  -0.00384340  0.20326309  0.79537550  1
  Hf  Hf13  1  0.61542889  0.19883760  0.59836692  1
  Hf  Hf14  1  0.89397456  0.30706673  0.88915966  1
  Hf  Hf15  1  0.89451710  0.50188004  0.49967410  1
  Hf  Hf16  1  0.70832589  0.49688654  0.71131555  1
  Hf  Hf17  1  0.59937407  0.40367468  0.20564026  1
  Hf  Hf18  1  0.71149770  0.49999177  0.49996350  1
  Hf  Hf19  1  0.69752678  0.89919785  0.10059964  1
  Hf  Hf20  1  0.59184553  0.79575486  0.00280081  1
  Hf  Hf21  1  0.59250179  0.59904103  -0.00210418  1
  Hf  Hf22  1  0.70883385  0.11510317  0.29987860  1
  Hf  Hf23  1  0.20181378  0.39114480  0.20140641  1
  Hf  Hf24  1  0.29155372  0.09811304  0.29246339  1
  Hf  Hf25  1  -0.00665089  0.60862804  -0.00186947  1
  Hf  Hf26  1  0.29447944  0.09961791  0.09104117  1
  Hf  Hf27  1  0.10414278  0.29667067  0.70147886  1
  Hf  Hf28  1  0.90035672  0.10413890  0.30020013  1
  Hf  Hf29  1  -0.00349927  0.60315303  0.20444093  1
  Hf  Hf30  1  0.89275856  0.69426619  0.70058068  1
  Hf  Hf31  1  0.30318356  0.29323261  0.90075893  1
  Hf  Hf32  1  0.70269735  0.69730443  0.10521178  1
  Hf  Hf33  1  0.69929284  0.10357397  0.89016252  1
  Hf  Hf34  1  0.69552874  0.10163531  0.09465074  1
  Hf  Hf35  1  0.30896516  0.29291080  0.70212464  1
  Hf  Hf36  1  0.49923940  0.71007989  0.49420773  1
  Hf  Hf37  1  0.30509136  0.70802557  0.50534182  1
  Hf  Hf38  1  0.00045933  0.80456118  0.80306125  1
  Hf  Hf39  1  0.19084054  0.60967556  0.40378957  1
  Hf  Hf40  1  0.30512387  0.29582364  0.49851016  1
  Hf  Hf41  1  0.79530120  0.80369933  0.59963177  1
  Hf  Hf42  1  0.19374100  0.80953529  0.41320775  1
  Hf  Hf43  1  0.60000545  0.59469687  0.39367842  1
  Hf  Hf44  1  0.10248383  0.71333765  0.90789622  1
  Hf  Hf45  1  0.70222389  0.69772262  0.49979376  1
  Hf  Hf46  1  0.69754802  0.91351707  0.89708613  1
  Hf  Hf47  1  0.80499561  0.39588495  0.19125521  1
  Hf  Hf48  1  0.79866979  -0.00146377  0.19985666  1
  Hf  Hf49  1  0.30391487  0.70332955  0.70082985  1
  Zr  Zr50  1  0.10184390  0.10280390  0.69691232  1
  Zr  Zr51  1  0.50404017  0.30437571  0.09327475  1
  Zr  Zr52  1  0.10340058  0.10398096  0.90632528  1
  Zr  Zr53  1  0.10013047  0.48253212  0.48344354  1
  Zr  Zr54  1  0.80854236  0.20598188  0.00395332  1
  Zr  Zr55  1  0.19887888  -0.00262789  0.79935715  1
  Zr  Zr56  1  0.90052392  0.09942111  0.89902265  1
  Zr  Zr57  1  0.40545310  0.19199081  0.20042190  1
  Zr  Zr58  1  0.60517695  0.00584378  0.39615305  1
  Zr  Zr59  1  0.90536995  0.90416711  0.90471598  1
  Zr  Zr60  1  0.19962110  0.39906551  0.60417058  1
  Zr  Zr61  1  0.20494309  0.60884887  -0.00106300  1
  Zr  Zr62  1  0.50576157  0.29334726  0.30649681  1
  Zr  Zr63  1  0.00378419  0.80224810  0.40568868  1
  Zr  Zr64  1  0.80801315  0.79877817  -0.00323531  1
  Zr  Zr65  1  -0.00050584  0.80035337  0.19883893  1
  Zr  Zr66  1  0.39988960  0.00162895  0.39667030  1
  Zr  Zr67  1  0.01260380  0.60042137  0.59544897  1
  Zr  Zr68  1  0.88931655  0.50297148  0.88995483  1
  Zr  Zr69  1  0.89658509  0.28295897  0.29798264  1
  Zr  Zr70  1  0.49932431  0.10208524  0.50759767  1
  Zr  Zr71  1  0.88921224  0.90896741  0.70357534  1
  Zr  Zr72  1  0.30614513  0.49893147  0.90498523  1
  Zr  Zr73  1  0.30463730  0.89754484  0.90519028  1
  Zr  Zr74  1  0.30048393  0.29588585  0.09427978  1
  Zr  Zr75  1  0.89920717  0.49064046  0.30816213  1
  Zr  Zr76  1  0.60427008  0.39144928  0.59913397  1
  Zr  Zr77  1  0.20019463  0.80402727  0.79994527  1
  Zr  Zr78  1  0.59023814  0.00392731  0.20413724  1
  Zr  Zr79  1  0.59524331  0.80155453  0.79625603  1
  Zr  Zr80  1  0.70478344  0.29526837  0.29955254  1
  Zr  Zr81  1  0.59462166  0.59419169  0.80606371  1
  Zr  Zr82  1  0.50871995  0.09857690  0.70153478  1
  Zr  Zr83  1  0.09763283  0.49175053  0.30148005  1
  Zr  Zr84  1  0.79654427  0.80463885  0.39306189  1
  Zr  Zr85  1  0.59567368  0.59802383  0.59728292  1
  Zr  Zr86  1  0.40052940  0.00315826  0.80165292  1
  Zr  Zr87  1  0.19328222  -0.00541123  0.40518520  1
  Zr  Zr88  1  0.30645635  0.70414395  0.29899294  1
  Zr  Zr89  1  0.40214259  0.79687506  0.17780282  1
  Zr  Zr90  1  0.01155255  0.60264775  0.79881546  1
  Zr  Zr91  1  0.40320237  0.59487707  0.39965256  1
  Zr  Zr92  1  0.49409413  0.88882963  0.30584463  1
  Zr  Zr93  1  0.89282167  0.49888814  0.69942173  1
  Zr  Zr94  1  0.08798751  0.10101138  0.29037425  1
  Zr  Zr95  1  0.49754816  0.49550842  0.70450457  1
  Zr  Zr96  1  0.70692576  0.69196330  0.89432223  1
  Zr  Zr97  1  -0.00391672  0.39003621  0.60438324  1
  Zr  Zr98  1  0.49176239  0.50561022  0.10129866  1
  Zr  Zr99  1  0.29710224  0.89697104  0.29295890  1
  Ta  Ta100  1  0.09192023  0.29847620  0.09382011  1
  Ta  Ta101  1  0.30532674  0.90281623  0.69196385  1
  Ta  Ta102  1  -0.00438268  -0.00353401  0.40487198  1
  Ta  Ta103  1  0.70613883  0.29258903  0.71385682  1
  Ta  Ta104  1  0.70623036  0.50045549  0.30344456  1
  Ta  Ta105  1  0.59960034  0.79862589  0.20082153  1
  Ta  Ta106  1  0.29577758  0.49737861  0.30173402  1
  Ta  Ta107  1  0.49572611  0.70189230  0.70120181  1
  Ta  Ta108  1  0.20088737  0.20233986  0.39726408  1
  Ta  Ta109  1  0.59767091  0.20006818  -0.00567403  1
  Ta  Ta110  1  0.69413863  0.30475060  0.89517578  1
  Ta  Ta111  1  0.60040953  0.39996852  0.40461767  1
  Ta  Ta112  1  -0.00044846  0.61484859  0.39817924  1
  Ta  Ta113  1  0.40417916  0.39814306  0.80117263  1
  Ta  Ta114  1  0.80586232  0.60137802  0.20436474  1
  Ta  Ta115  1  0.69538338  0.90837624  0.50346013  1
  Ta  Ta116  1  0.00533362  -0.00265094  0.80113887  1
  Ta  Ta117  1  0.40497869  0.39598435  0.60231784  1
  Ta  Ta118  1  0.79386065  0.40308750  -0.00291077  1
  Ta  Ta119  1  0.70025090  0.70019775  0.29310588  1
  Ta  Ta120  1  0.20315992  -0.00566554  0.59568504  1
  Ta  Ta121  1  0.39547946  0.39762423  0.21107301  1
  Ta  Ta122  1  0.50226516  0.90454578  0.90249270  1
  Ta  Ta123  1  0.69691292  0.29950898  0.09512366  1
  Ta  Ta124  1  0.50628242  0.30033933  0.89447238  1
  Ta  Ta125  1  0.80434292  0.00294569  0.00603662  1
  Ta  Ta126  1  0.30127394  0.10464403  0.90590323  1
  Ta  Ta127  1  0.40196569  0.39547826  0.39614854  1
  Ta  Ta128  1  0.09613091  0.28897624  0.49761891  1
  Ta  Ta129  1  0.39558857  0.60163826  0.80647934  1
  Ta  Ta130  1  0.19430251  0.39611591  -0.00237909  1
  Ta  Ta131  1  0.80085277  0.38149916  0.60134434  1
  Ta  Ta132  1  0.20157130  0.60829512  0.19889759  1
  Ta  Ta133  1  0.48627656  0.70238575  0.90109179  1
  Ta  Ta134  1  0.10454535  0.70750247  0.29589941  1
  Ta  Ta135  1  0.50340580  0.90401271  0.50684594  1
  Ta  Ta136  1  0.59967433  0.80434528  0.60259336  1
  Ta  Ta137  1  0.49616494  0.29448413  0.50186833  1
  Ta  Ta138  1  0.89310153  0.90498622  0.50176369  1
  Ta  Ta139  1  0.50059033  0.69978916  0.29488583  1
  Ta  Ta140  1  0.89554047  0.70365832  0.10191031  1
  Ta  Ta141  1  0.40675424  0.80790981  0.60319043  1
  Ta  Ta142  1  0.89753979  0.69914123  0.50347858  1
  Ta  Ta143  1  0.18734633  -0.00620722  0.18060188  1
  Ta  Ta144  1  0.20325285  0.19756542  0.59832463  1
  Ta  Ta145  1  0.40071101  0.00059795  0.18848789  1
  Ta  Ta146  1  0.40437689  0.00198093  0.00274253  1
  Ta  Ta147  1  0.70261860  0.69370327  0.69821732  1
  Ta  Ta148  1  0.30383508  0.49800557  0.70516766  1
  Ta  Ta149  1  0.20256201  0.60063994  0.80106603  1
  Ti  Ti150  1  0.80701517  0.60923187  0.39059371  1
  Ti  Ti151  1  0.19657782  0.80979188  0.59452390  1
  Ti  Ti152  1  0.30780862  0.10170313  0.69551228  1
  Ti  Ti153  1  0.20411169  0.19630919  0.80083393  1
  Ti  Ti154  1  0.80194994  0.79720656  0.80337114  1
  Ti  Ti155  1  0.59343557  0.19497275  0.19433530  1
  Ti  Ti156  1  0.49726010  0.49089826  0.49955928  1
  Ti  Ti157  1  0.60642165  0.80385074  0.39599132  1
  Ti  Ti158  1  0.49422182  0.50105236  0.29680244  1
  Ti  Ti159  1  0.80285476  0.59853055  -0.00292282  1
  Ti  Ti160  1  0.89909774  0.50107018  0.09610382  1
  Ti  Ti161  1  0.59540211  0.60318341  0.20288965  1
  Ti  Ti162  1  -0.00660738  0.39336668  0.19125860  1
  Ti  Ti163  1  -0.01117877  0.19167473  0.16806448  1
  Ti  Ti164  1  0.19051220  0.20377416  0.00183364  1
  Ti  Ti165  1  0.20287974  0.80225901  0.18669747  1
  Ti  Ti166  1  0.90232587  0.89819306  0.10430482  1
  Ti  Ti167  1  0.19525012  0.20156931  0.19640171  1
  Ti  Ti168  1  0.79440654  0.01497216  0.59195754  1
  Ti  Ti169  1  0.50213392  0.90873002  0.69761218  1
  Ti  Ti170  1  0.40734813  0.19633226  0.80464654  1
  Ti  Ti171  1  0.51048861  0.09595694  0.89993294  1
  Ti  Ti172  1  0.60758532  0.20057503  0.40963573  1
  Ti  Ti173  1  0.41272645  0.19116235  -0.00274153  1
  Ti  Ti174  1  0.40248542  0.80190417  0.79869871  1
  Ti  Ti175  1  0.79774464  0.38038923  0.41149580  1
  Ti  Ti176  1  0.80469408  0.20130305  0.59445223  1
  Ti  Ti177  1  0.40174030  0.59682210  0.60277785  1
  Ti  Ti178  1  0.10371593  0.70886117  0.69662492  1
  Ti  Ti179  1  0.00224835  0.80364834  0.59523719  1
  Ti  Ti180  1  0.39595717  0.79466435  0.00323820  1
  Ti  Ti181  1  0.20099576  0.40253785  0.80498633  1
  Ti  Ti182  1  0.09718958  0.30201333  0.90165421  1
  Ti  Ti183  1  0.50285105  0.90663114  0.09123503  1
  Ti  Ti184  1  0.19618797  -0.00851034  0.00221679  1
  Ti  Ti185  1  0.49966311  0.49169916  0.90337981  1
  Ti  Ti186  1  0.20607742  0.80577774  0.00961236  1
  Ti  Ti187  1  0.00481759  0.40207978  0.79482355  1
  Ti  Ti188  1  0.09645208  0.90405704  0.28932773  1
  Ti  Ti189  1  0.09936054  0.70581440  0.09975882  1
  Ti  Ti190  1  0.09987562  0.90145836  0.69382705  1
  Ti  Ti191  1  0.50554411  0.29358105  0.70607997  1
  Ti  Ti192  1  0.10077292  0.49592309  0.90030764  1
  Ti  Ti193  1  0.70357742  0.10046245  0.70874933  1
  Ti  Ti194  1  -0.00529252  0.39717994  -0.00114347  1
  Ti  Ti195  1  -0.01371379  0.38138557  0.40764552  1
  Ti  Ti196  1  0.79765983  0.00415325  0.40479583  1
  Ti  Ti197  1  0.40148658  0.39657561  -0.00204755  1
  Ti  Ti198  1  0.89010689  0.10613866  0.70269496  1
  Ti  Ti199  1  0.39915241  0.19741930  0.39149347  1
  Mo  Mo200  1  0.60477944  -0.00027694  0.60011815  1
  Mo  Mo201  1  -0.00836553  0.19938078  0.60225950  1
  Mo  Mo202  1  0.59786383  0.39492292  0.80401106  1
  Mo  Mo203  1  0.60310453  0.39940121  -0.00579733  1
  Mo  Mo204  1  0.79778702  0.79789999  0.19872746  1
  Mo  Mo205  1  0.79829414  0.60174833  0.80251880  1
  Mo  Mo206  1  0.79399270  0.39599814  0.80051144  1
  Mo  Mo207  1  0.00034353  -0.00172446  0.20102667  1
  Mo  Mo208  1  0.59438548  0.00362712  -0.00307587  1
  Mo  Mo209  1  0.00319771  0.80326174  0.00671596  1
  Mo  Mo210  1  0.80342699  0.19975560  0.18187712  1
  Mo  Mo211  1  0.60068776  0.20153576  0.80068364  1
  Mo  Mo212  1  0.90173553  0.70158218  0.90317426  1
  Mo  Mo213  1  0.90301668  0.30827051  0.08983874  1
  Mo  Mo214  1  0.69928306  0.89377924  0.30155445  1
  Mo  Mo215  1  0.30609548  0.70423203  0.90013267  1
  Mo  Mo216  1  0.00360303  0.20774057  -0.00362172  1
  Mo  Mo217  1  0.79863338  0.60442316  0.59848918  1
  Mo  Mo218  1  0.09645547  0.70910233  0.50578410  1
  Mo  Mo219  1  0.40430030  0.80427310  0.41123590  1
  Mo  Mo220  1  0.49847483  0.69718607  0.09944533  1
  Mo  Mo221  1  0.30826783  0.89985254  0.50929310  1
  Mo  Mo222  1  0.89572068  0.09849169  0.49827750  1
  Mo  Mo223  1  0.10477319  0.11037346  0.09907411  1
  Mo  Mo224  1  -0.00432097  0.19536307  0.41163475  1
  Mo  Mo225  1  0.09973075  0.90127144  0.91095133  1
  Mo  Mo226  1  0.10328653  0.88929393  0.09798444  1
  Mo  Mo227  1  0.69817252  0.49209048  0.90607378  1
  Mo  Mo228  1  0.70453332  0.10046433  0.50063910  1
  Mo  Mo229  1  0.40087809  0.61141195  -0.00059288  1
  Mo  Mo230  1  0.29919057  0.90382469  0.09342522  1
  Mo  Mo231  1  0.79959301  0.19424492  0.42148488  1
  Mo  Mo232  1  0.79979344  0.20110698  0.79469777  1
  Mo  Mo233  1  0.59703637  0.00317560  0.79922194  1
  Mo  Mo234  1  0.39775494  0.59860268  0.20314421  1
  Mo  Mo235  1  0.11059031  0.49373381  0.71857418  1
  Mo  Mo236  1  0.90023457  0.28848468  0.50358555  1
  Mo  Mo237  1  0.70051878  0.29748305  0.49998082  1
  Mo  Mo238  1  0.39973339  -0.00506451  0.60329574  1
  Mo  Mo239  1  0.89591356  0.09726175  0.10135729  1
  Mo  Mo240  1  0.20802564  0.38373919  0.39316902  1
  Mo  Mo241  1  0.80446789  0.00853297  0.80121382  1
  Mo  Mo242  1  0.29730052  0.29641150  0.30351500  1
  Mo  Mo243  1  0.08920885  0.90487929  0.51363973  1
  Mo  Mo244  1  0.89866976  0.69863692  0.29973546  1
  Mo  Mo245  1  0.29925391  0.69955040  0.09758278  1
  Mo  Mo246  1  0.40256079  0.20509160  0.60760846  1
  Mo  Mo247  1  0.50087641  0.09926517  0.09065946  1
  Mo  Mo248  1  0.50139704  0.10590479  0.29869063  1
  Mo  Mo249  1  0.89607995  0.29493698  0.69903028  1
