# generated using pymatgen
data_HfZrTaTiMo
_symmetry_space_group_name_H-M   'P 1'
_cell_length_a   16.88614616
_cell_length_b   16.87924308
_cell_length_c   16.88401013
_cell_angle_alpha   89.98061292
_cell_angle_beta   90.02551018
_cell_angle_gamma   89.98987744
_symmetry_Int_Tables_number   1
_chemical_formula_structural   HfZrTaTiMo
_chemical_formula_sum   'Hf50 Zr50 Ta50 Ti50 Mo50'
_cell_volume   4812.37033357
_cell_formula_units_Z   50
loop_
 _symmetry_equiv_pos_site_id
 _symmetry_equiv_pos_as_xyz
  1  'x, y, z'
loop_
 _atom_site_type_symbol
 _atom_site_label
 _atom_site_symmetry_multiplicity
 _atom_site_fract_x
 _atom_site_fract_y
 _atom_site_fract_z
 _atom_site_occupancy
  Hf  Hf0  1  0.49744849  0.70322227  0.89555907  1
  Hf  Hf1  1  0.91214791  0.50822431  0.68876060  1
  Hf  Hf2  1  0.09805023  0.90280371  0.90409367  1
  Hf  Hf3  1  0.69403442  0.30779375  0.10208975  1
  Hf  Hf4  1  0.10287989  0.08116875  0.08813901  1
  Hf  Hf5  1  -0.00096958  -0.00811151  0.20091463  1
  Hf  Hf6  1  0.69129509  0.49978164  0.51169722  1
  Hf  Hf7  1  0.00307947  -0.00064824  0.40081021  1
  Hf  Hf8  1  0.69487518  0.50625208  0.90193562  1
  Hf  Hf9  1  0.90525322  0.50224575  0.29320209  1
  Hf  Hf10  1  0.89870998  0.09657623  0.89353966  1
  Hf  Hf11  1  0.59739654  0.20160718  -0.00742359  1
  Hf  Hf12  1  0.80849488  0.19805549  0.40420376  1
  Hf  Hf13  1  0.29855108  0.69871011  0.50691607  1
  Hf  Hf14  1  0.20758316  0.19391063  0.78992467  1
  Hf  Hf15  1  0.49504650  0.89476101  0.88737876  1
  Hf  Hf16  1  0.89850837  0.89286752  0.30691008  1
  Hf  Hf17  1  0.70144412  0.29847249  0.70058240  1
  Hf  Hf18  1  0.29082345  0.69576231  0.89971260  1
  Hf  Hf19  1  0.40495349  0.19310250  0.79465632  1
  Hf  Hf20  1  0.69468919  0.30165051  0.50282464  1
  Hf  Hf21  1  0.80163070  0.60864736  0.79267329  1
  Hf  Hf22  1  0.59395779  0.79988034  0.20628139  1
  Hf  Hf23  1  0.90153539  0.70411626  0.51023014  1
  Hf  Hf24  1  0.70202631  0.90052244  0.10448990  1
  Hf  Hf25  1  0.30751518  0.29857236  0.89472949  1
  Hf  Hf26  1  0.00570293  0.61411502  -0.00177283  1
  Hf  Hf27  1  0.29884400  0.09625897  0.30594101  1
  Hf  Hf28  1  0.09178524  0.49382678  0.30667194  1
  Hf  Hf29  1  0.70381344  0.09481720  0.70612085  1
  Hf  Hf30  1  0.90798822  0.49958809  0.50048856  1
  Hf  Hf31  1  0.09683730  0.69315923  0.69253197  1
  Hf  Hf32  1  0.90424559  0.30747930  0.10595685  1
  Hf  Hf33  1  0.09804097  0.08693945  0.89808569  1
  Hf  Hf34  1  0.20761179  0.19214884  -0.00458724  1
  Hf  Hf35  1  0.09654949  0.29874002  0.30415268  1
  Hf  Hf36  1  0.49798872  0.69604133  0.09329701  1
  Hf  Hf37  1  0.41756467  0.17928825  0.20309564  1
  Hf  Hf38  1  0.89823525  0.90590027  0.51366130  1
  Hf  Hf39  1  0.69780068  0.69691685  0.10020659  1
  Hf  Hf40  1  0.70627268  0.08902801  0.31236520  1
  Hf  Hf41  1  0.30755769  0.29825076  0.49725153  1
  Hf  Hf42  1  0.19437916  -0.00921245  0.40762103  1
  Hf  Hf43  1  0.31514357  0.29026555  0.10361226  1
  Hf  Hf44  1  0.19833643  0.80103803  0.79461630  1
  Hf  Hf45  1  0.30677223  0.31045359  0.68786851  1
  Hf  Hf46  1  0.59950892  0.39724447  0.80501574  1
  Hf  Hf47  1  0.81231929  0.59318747  0.00783879  1
  Hf  Hf48  1  0.39885015  0.59722302  0.79353727  1
  Hf  Hf49  1  0.80335051  0.39775014  0.79969730  1
  Zr  Zr50  1  0.39262717  0.79442498  0.19957014  1
  Zr  Zr51  1  0.19714187  0.39218476  0.00899852  1
  Zr  Zr52  1  0.89636472  0.70302276  0.11345188  1
  Zr  Zr53  1  -0.01004504  0.20684790  0.78937786  1
  Zr  Zr54  1  0.60186889  0.00547515  -0.00482918  1
  Zr  Zr55  1  0.40091277  0.59725042  0.39017278  1
  Zr  Zr56  1  0.20669395  0.39640982  0.20214467  1
  Zr  Zr57  1  0.80758457  0.19915213  0.21433668  1
  Zr  Zr58  1  0.40638589  0.40373693  0.00245661  1
  Zr  Zr59  1  0.40554709  0.19263059  0.60072332  1
  Zr  Zr60  1  0.57630143  0.59507106  0.21324584  1
  Zr  Zr61  1  0.70615080  0.09882961  0.10206521  1
  Zr  Zr62  1  0.49035749  0.89842281  0.30638656  1
  Zr  Zr63  1  0.79678547  0.39862150  0.39999528  1
  Zr  Zr64  1  -0.00613070  0.40904016  0.00033350  1
  Zr  Zr65  1  0.49852028  0.08895378  0.88616174  1
  Zr  Zr66  1  0.09390678  0.09652617  0.69489840  1
  Zr  Zr67  1  0.09599247  0.50419661  0.10812035  1
  Zr  Zr68  1  0.09897428  0.49814230  0.51996879  1
  Zr  Zr69  1  0.59858502  0.19642157  0.20689119  1
  Zr  Zr70  1  0.49117003  0.70151837  0.50919110  1
  Zr  Zr71  1  0.60203842  -0.01335632  0.41594404  1
  Zr  Zr72  1  0.00177319  0.40678040  0.79370575  1
  Zr  Zr73  1  0.68278461  0.50497838  0.10034541  1
  Zr  Zr74  1  0.60234152  0.80917187  0.59776061  1
  Zr  Zr75  1  0.10763173  0.30502889  0.88737013  1
  Zr  Zr76  1  0.60056521  0.18954688  0.59930238  1
  Zr  Zr77  1  0.00969147  0.21134784  -0.00110856  1
  Zr  Zr78  1  0.31164634  0.29099614  0.30343193  1
  Zr  Zr79  1  0.10281836  0.70179800  0.50694343  1
  Zr  Zr80  1  0.50630680  0.49601265  0.68591926  1
  Zr  Zr81  1  0.10843121  0.51727752  0.89744551  1
  Zr  Zr82  1  0.29605073  0.50450946  0.90348498  1
  Zr  Zr83  1  0.60059515  0.79419428  0.40429578  1
  Zr  Zr84  1  0.79561290  0.60208756  0.40165720  1
  Zr  Zr85  1  0.00132751  0.19069456  0.20632391  1
  Zr  Zr86  1  0.90327858  0.09398666  0.08967622  1
  Zr  Zr87  1  0.70959559  0.69569803  0.29271723  1
  Zr  Zr88  1  0.49029483  0.90300052  0.09290808  1
  Zr  Zr89  1  0.69786431  0.70114970  0.90252270  1
  Zr  Zr90  1  0.29924805  0.08954530  0.09796393  1
  Zr  Zr91  1  0.58414138  0.01137940  0.20435162  1
  Zr  Zr92  1  0.20616248  0.40304911  0.40224215  1
  Zr  Zr93  1  0.79803729  0.40792339  0.19902470  1
  Zr  Zr94  1  0.09300607  0.90514901  0.69757181  1
  Zr  Zr95  1  0.00556569  0.61401012  0.39646885  1
  Zr  Zr96  1  0.10176756  0.31099421  0.68063024  1
  Zr  Zr97  1  0.79103271  0.20603525  -0.01538987  1
  Zr  Zr98  1  0.20228004  0.60620467  0.21147599  1
  Zr  Zr99  1  0.69647426  0.90499323  0.88856690  1
  Ta  Ta100  1  0.20230289  0.81085817  0.59867913  1
  Ta  Ta101  1  0.20056197  0.80336024  0.40361106  1
  Ta  Ta102  1  0.49890999  0.30468824  0.49773321  1
  Ta  Ta103  1  0.38805024  0.00073563  -0.01087401  1
  Ta  Ta104  1  0.20227995  -0.00376625  0.59693499  1
  Ta  Ta105  1  0.39640172  -0.00365034  0.40456314  1
  Ta  Ta106  1  0.38970694  0.80154878  -0.00505969  1
  Ta  Ta107  1  0.30097021  0.70351633  0.69454153  1
  Ta  Ta108  1  0.80576685  0.39672679  0.60403547  1
  Ta  Ta109  1  0.80341971  -0.00689813  -0.00373996  1
  Ta  Ta110  1  0.59885697  0.80213941  -0.00300622  1
  Ta  Ta111  1  0.90103077  0.09506682  0.50604500  1
  Ta  Ta112  1  0.60525379  0.19887959  0.80482094  1
  Ta  Ta113  1  0.81072503  -0.00262524  0.20570466  1
  Ta  Ta114  1  0.79956018  0.40369433  -0.00447508  1
  Ta  Ta115  1  0.59521672  -0.00431261  0.60066005  1
  Ta  Ta116  1  0.80391143  0.80635175  -0.00098230  1
  Ta  Ta117  1  0.50488970  0.50899445  0.90318136  1
  Ta  Ta118  1  -0.00303707  0.80146962  0.00023596  1
  Ta  Ta119  1  0.30023094  0.09764687  0.49958941  1
  Ta  Ta120  1  0.09694624  0.10016819  0.50590127  1
  Ta  Ta121  1  0.20661237  0.59952577  0.40007693  1
  Ta  Ta122  1  0.29441416  0.89855798  0.29866497  1
  Ta  Ta123  1  0.59542576  0.19565718  0.40277277  1
  Ta  Ta124  1  0.80485897  0.80096287  0.79112056  1
  Ta  Ta125  1  0.60438956  0.79792157  0.78500004  1
  Ta  Ta126  1  0.40388412  0.40623584  0.79503162  1
  Ta  Ta127  1  0.89521610  0.09175616  0.69210065  1
  Ta  Ta128  1  0.80867784  0.20115028  0.60075734  1
  Ta  Ta129  1  0.30359538  0.49789316  0.51064360  1
  Ta  Ta130  1  0.69945875  0.50084157  0.69494085  1
  Ta  Ta131  1  0.29423374  0.70132446  0.09636759  1
  Ta  Ta132  1  0.50228448  0.30329420  0.10663445  1
  Ta  Ta133  1  0.19369031  0.19622978  0.19550180  1
  Ta  Ta134  1  -0.00268844  0.19391283  0.40433405  1
  Ta  Ta135  1  0.50413378  0.30388070  0.69458817  1
  Ta  Ta136  1  0.30112734  0.51024338  0.10430808  1
  Ta  Ta137  1  0.20750205  0.41447698  0.78282733  1
  Ta  Ta138  1  0.21138476  -0.00165993  0.79805277  1
  Ta  Ta139  1  0.49948303  0.30125909  0.30535194  1
  Ta  Ta140  1  0.49077842  0.90725639  0.70307019  1
  Ta  Ta141  1  0.79417152  0.80459580  0.40960218  1
  Ta  Ta142  1  0.30822029  0.08551865  0.69291902  1
  Ta  Ta143  1  0.20277297  0.19532001  0.59408437  1
  Ta  Ta144  1  0.39854607  0.60001205  0.00416572  1
  Ta  Ta145  1  0.60025565  0.60626934  0.79023577  1
  Ta  Ta146  1  0.59342085  0.40502088  0.39740126  1
  Ta  Ta147  1  -0.00743008  0.79556384  0.80192152  1
  Ta  Ta148  1  0.49449886  0.09271181  0.50036765  1
  Ta  Ta149  1  0.59258388  0.59724039  0.40193643  1
  Ti  Ti150  1  0.39670930  0.59726484  0.20551253  1
  Ti  Ti151  1  0.39410240  0.81292520  0.60699722  1
  Ti  Ti152  1  0.89877480  0.70579687  0.90087643  1
  Ti  Ti153  1  0.19700698  -0.00628089  0.20281613  1
  Ti  Ti154  1  0.90253884  0.50600592  0.89469802  1
  Ti  Ti155  1  0.70579656  0.90243891  0.30485008  1
  Ti  Ti156  1  0.30359712  0.90163808  0.50349343  1
  Ti  Ti157  1  0.69326463  0.50065573  0.29761375  1
  Ti  Ti158  1  0.00357269  0.80403473  0.19507113  1
  Ti  Ti159  1  0.00008662  0.61074992  0.79975909  1
  Ti  Ti160  1  0.10888937  0.70992390  0.10116062  1
  Ti  Ti161  1  0.10410471  0.09801846  0.30278577  1
  Ti  Ti162  1  0.39926873  -0.00066855  0.20060155  1
  Ti  Ti163  1  0.20204177  0.59779371  0.78258322  1
  Ti  Ti164  1  0.29449422  0.70996514  0.30263617  1
  Ti  Ti165  1  0.10477338  0.71399371  0.29839705  1
  Ti  Ti166  1  0.90066909  0.89856327  0.90143191  1
  Ti  Ti167  1  0.70197345  0.70095296  0.50533204  1
  Ti  Ti168  1  0.00805857  0.80656449  0.40714709  1
  Ti  Ti169  1  0.80347253  -0.00538457  0.79808693  1
  Ti  Ti170  1  0.49609911  0.29932148  0.89903396  1
  Ti  Ti171  1  0.50034227  0.49562894  0.50497814  1
  Ti  Ti172  1  0.30315150  0.89828773  0.89104854  1
  Ti  Ti173  1  0.10342345  0.89791912  0.09354248  1
  Ti  Ti174  1  0.19738843  0.79872176  -0.00344058  1
  Ti  Ti175  1  0.49198058  0.71053974  0.70077303  1
  Ti  Ti176  1  0.10589621  0.88891353  0.29555196  1
  Ti  Ti177  1  0.28844413  0.89811825  0.09783499  1
  Ti  Ti178  1  0.79755147  0.80014131  0.61080236  1
  Ti  Ti179  1  0.80133928  0.80722242  0.20129347  1
  Ti  Ti180  1  0.89832386  0.70692603  0.30061119  1
  Ti  Ti181  1  0.39654221  0.59579126  0.60575034  1
  Ti  Ti182  1  0.89608907  0.30033913  0.89507583  1
  Ti  Ti183  1  0.39556645  0.80164611  0.40324946  1
  Ti  Ti184  1  0.00076128  0.60938341  0.20069527  1
  Ti  Ti185  1  0.71092829  0.08769799  0.50561847  1
  Ti  Ti186  1  0.70348219  0.90675980  0.69558071  1
  Ti  Ti187  1  0.40930741  0.41395948  0.20417535  1
  Ti  Ti188  1  -0.00541136  0.20118921  0.59512745  1
  Ti  Ti189  1  0.90935781  0.30493634  0.50266898  1
  Ti  Ti190  1  0.69059812  0.30374400  0.30267870  1
  Ti  Ti191  1  0.60262269  0.61389761  0.60668066  1
  Ti  Ti192  1  0.19430051  0.19507820  0.40513170  1
  Ti  Ti193  1  0.40276676  0.40919561  0.39720706  1
  Ti  Ti194  1  -0.01241959  -0.00957262  0.79416653  1
  Ti  Ti195  1  0.79797356  0.60767715  0.60737799  1
  Ti  Ti196  1  0.91335595  0.31159068  0.30568219  1
  Ti  Ti197  1  -0.00399271  0.80492685  0.60998720  1
  Ti  Ti198  1  0.59467618  0.39976081  -0.00214314  1
  Ti  Ti199  1  0.09646966  0.30118340  0.49895740  1
  Mo  Mo200  1  0.39838094  -0.00457685  0.59689033  1
  Mo  Mo201  1  -0.00288971  0.60749333  0.60143469  1
  Mo  Mo202  1  0.20947810  0.59772488  0.60406856  1
  Mo  Mo203  1  0.39473103  -0.00548296  0.79369790  1
  Mo  Mo204  1  0.69694853  0.30544486  0.89925751  1
  Mo  Mo205  1  0.80258321  -0.00254456  0.40463015  1
  Mo  Mo206  1  0.60327433  0.39502451  0.59611833  1
  Mo  Mo207  1  0.49620642  0.49261342  0.30408105  1
  Mo  Mo208  1  0.30026273  0.89845799  0.69799833  1
  Mo  Mo209  1  0.09670704  0.70795968  0.89656242  1
  Mo  Mo210  1  0.89814830  0.89516318  0.10124394  1
  Mo  Mo211  1  0.89626888  0.90009207  0.70501205  1
  Mo  Mo212  1  0.48864942  0.10313344  0.07984524  1
  Mo  Mo213  1  0.40923424  0.19199730  0.40266278  1
  Mo  Mo214  1  0.71426572  0.89971008  0.50909002  1
  Mo  Mo215  1  0.10116441  0.29432106  0.11003572  1
  Mo  Mo216  1  0.90198143  0.08974492  0.31279427  1
  Mo  Mo217  1  0.89722625  0.29747005  0.69172307  1
  Mo  Mo218  1  0.19591308  0.80390004  0.20110163  1
  Mo  Mo219  1  0.59023927  0.39718651  0.20809843  1
  Mo  Mo220  1  0.49804494  0.09580511  0.32215679  1
  Mo  Mo221  1  0.09711533  0.89811318  0.50481656  1
  Mo  Mo222  1  -0.00399035  0.39373729  0.59619881  1
  Mo  Mo223  1  0.70106204  0.70009358  0.69644211  1
  Mo  Mo224  1  0.20469814  0.39937468  0.59532871  1
  Mo  Mo225  1  0.20924372  -0.01501552  -0.00776843  1
  Mo  Mo226  1  0.40781429  0.19575691  -0.00112215  1
  Mo  Mo227  1  0.79900912  0.19922010  0.79656687  1
  Mo  Mo228  1  0.80571691  0.59873867  0.20226598  1
  Mo  Mo229  1  0.90451545  0.50340654  0.10361534  1
  Mo  Mo230  1  0.30337675  0.50306773  0.69245646  1
  Mo  Mo231  1  0.00113492  0.39494683  0.20126778  1
  Mo  Mo232  1  0.49068133  0.69940589  0.30681047  1
  Mo  Mo233  1  0.30346178  0.50176675  0.30034012  1
  Mo  Mo234  1  0.49147605  0.49777655  0.09981586  1
  Mo  Mo235  1  0.70637279  0.09993025  0.88678756  1
  Mo  Mo236  1  0.79649868  0.00131747  0.60185198  1
  Mo  Mo237  1  0.59911399  -0.00460491  0.78634735  1
  Mo  Mo238  1  0.30117250  0.09301001  0.89133252  1
  Mo  Mo239  1  0.39678415  0.79718640  0.79420264  1
  Mo  Mo240  1  0.58989235  0.60271317  -0.00329749  1
  Mo  Mo241  1  0.10363949  0.50796600  0.69849937  1
  Mo  Mo242  1  -0.00182092  0.00328809  0.59965643  1
  Mo  Mo243  1  0.40699266  0.40106032  0.59289869  1
  Mo  Mo244  1  -0.00776410  -0.01560866  -0.00264678  1
  Mo  Mo245  1  0.48173968  0.90005522  0.50861135  1
  Mo  Mo246  1  0.50527492  0.09183977  0.69761913  1
  Mo  Mo247  1  -0.00021716  0.38887328  0.40535188  1
  Mo  Mo248  1  0.20073573  0.61174608  0.01161302  1
  Mo  Mo249  1  0.90136441  0.70529647  0.69988837  1
