# generated using pymatgen
data_HfZrTaTiMo
_symmetry_space_group_name_H-M   'P 1'
_cell_length_a   16.87459653
_cell_length_b   16.88237537
_cell_length_c   16.88526105
_cell_angle_alpha   90.02666810
_cell_angle_beta   90.01302141
_cell_angle_gamma   90.07402398
_symmetry_Int_Tables_number   1
_chemical_formula_structural   HfZrTaTiMo
_chemical_formula_sum   'Hf50 Zr50 Ta50 Ti50 Mo50'
_cell_volume   4810.32377051
_cell_formula_units_Z   50
loop_
 _symmetry_equiv_pos_site_id
 _symmetry_equiv_pos_as_xyz
  1  'x, y, z'
loop_
 _atom_site_type_symbol
 _atom_site_label
 _atom_site_symmetry_multiplicity
 _atom_site_fract_x
 _atom_site_fract_y
 _atom_site_fract_z
 _atom_site_occupancy
  Hf  Hf0  1  0.49616972  0.29623046  0.09745619  1
  Hf  Hf1  1  0.00456153  0.41136429  0.80059901  1
  Hf  Hf2  1  0.39293396  0.61885620  0.40030151  1
  Hf  Hf3  1  0.90008569  0.89612692  0.69750430  1
  Hf  Hf4  1  0.00989245  0.00027167  0.59926995  1
  Hf  Hf5  1  0.70321274  0.49991605  0.70487475  1
  Hf  Hf6  1  0.59268366  0.60985378  0.39705150  1
  Hf  Hf7  1  0.20255799  0.39792744  0.00204100  1
  Hf  Hf8  1  0.30794191  0.10368126  0.70062880  1
  Hf  Hf9  1  0.59331797  0.40841490  0.60460008  1
  Hf  Hf10  1  0.00149524  0.19401354  0.79847586  1
  Hf  Hf11  1  0.79920513  0.80559315  0.40106164  1
  Hf  Hf12  1  0.49262217  0.10239746  0.10225757  1
  Hf  Hf13  1  0.49353251  0.90096904  0.89338043  1
  Hf  Hf14  1  0.60223477  0.60513001  -0.00519857  1
  Hf  Hf15  1  0.49661564  0.29800961  0.49870885  1
  Hf  Hf16  1  0.89810738  0.29990355  0.09710748  1
  Hf  Hf17  1  0.30633855  0.49925532  0.09876109  1
  Hf  Hf18  1  0.77596093  -0.02217704  0.59986103  1
  Hf  Hf19  1  0.90086591  0.49846996  0.29186007  1
  Hf  Hf20  1  0.20251011  0.40122723  0.40270353  1
  Hf  Hf21  1  0.81085198  0.01565367  0.20337986  1
  Hf  Hf22  1  0.90644883  0.90720269  0.10064929  1
  Hf  Hf23  1  0.59463492  0.80451144  0.19506702  1
  Hf  Hf24  1  0.30944046  0.50124555  0.30242569  1
  Hf  Hf25  1  0.19918901  0.00170281  0.79963825  1
  Hf  Hf26  1  0.29877023  0.89177903  0.69235292  1
  Hf  Hf27  1  0.10101981  0.89294907  0.69806667  1
  Hf  Hf28  1  0.21157091  0.60851554  0.19825789  1
  Hf  Hf29  1  0.09828799  0.29148381  0.10224662  1
  Hf  Hf30  1  0.49616421  0.30736258  0.71210945  1
  Hf  Hf31  1  0.00584385  0.39768366  0.40754773  1
  Hf  Hf32  1  0.79754105  0.80361707  0.80617138  1
  Hf  Hf33  1  0.30026870  0.30147446  0.70224588  1
  Hf  Hf34  1  0.30917855  0.10497370  0.50997300  1
  Hf  Hf35  1  0.00139916  -0.00423277  -0.00630951  1
  Hf  Hf36  1  0.11787403  0.69951946  0.08181834  1
  Hf  Hf37  1  0.30056301  0.29591683  0.29571883  1
  Hf  Hf38  1  0.90491006  0.70037895  0.29390138  1
  Hf  Hf39  1  0.70521295  0.50057769  0.09811284  1
  Hf  Hf40  1  0.30334501  0.88672681  0.30721633  1
  Hf  Hf41  1  0.39703314  0.79505126  0.00288692  1
  Hf  Hf42  1  0.39941879  0.78760986  0.79001149  1
  Hf  Hf43  1  0.40832928  0.60431662  0.01092740  1
  Hf  Hf44  1  0.79880841  0.60537482  0.39967787  1
  Hf  Hf45  1  0.29891907  0.10092383  0.10309681  1
  Hf  Hf46  1  0.40491714  0.39217122  0.20292660  1
  Hf  Hf47  1  0.69845434  0.10341838  0.10007802  1
  Hf  Hf48  1  0.90305642  0.29696907  0.29754465  1
  Hf  Hf49  1  0.69707084  0.30505345  0.71010841  1
  Zr  Zr50  1  0.00463212  0.60628390  0.40619770  1
  Zr  Zr51  1  0.00558924  0.60447361  0.59785597  1
  Zr  Zr52  1  0.48671645  0.50125627  0.49037121  1
  Zr  Zr53  1  0.89709299  0.49594017  0.50434866  1
  Zr  Zr54  1  0.79696572  0.80414109  0.19637036  1
  Zr  Zr55  1  0.69082898  0.10226636  0.49972706  1
  Zr  Zr56  1  0.89676805  0.30548493  0.70155932  1
  Zr  Zr57  1  0.70502846  0.70318150  0.69920126  1
  Zr  Zr58  1  0.41946165  -0.00500663  0.61216775  1
  Zr  Zr59  1  0.39032589  0.19625715  -0.01520023  1
  Zr  Zr60  1  0.30072179  0.49999357  0.70933393  1
  Zr  Zr61  1  0.01998818  0.80261064  0.19336753  1
  Zr  Zr62  1  0.60308788  0.39963891  0.00603866  1
  Zr  Zr63  1  0.19484255  0.18789199  0.40251650  1
  Zr  Zr64  1  0.59328113  0.59874565  0.80090522  1
  Zr  Zr65  1  0.79135100  0.39461435  0.39587428  1
  Zr  Zr66  1  0.69228463  0.29294609  0.50118796  1
  Zr  Zr67  1  0.30466791  0.29912372  0.51158573  1
  Zr  Zr68  1  0.90017966  0.29284431  0.50260148  1
  Zr  Zr69  1  0.50508246  0.10571329  0.50264765  1
  Zr  Zr70  1  0.28889364  0.68671361  0.90565251  1
  Zr  Zr71  1  0.80035804  0.19694289  0.80865171  1
  Zr  Zr72  1  0.21063097  0.19814695  0.81786320  1
  Zr  Zr73  1  0.00561871  0.59744743  0.79885082  1
  Zr  Zr74  1  0.69441262  0.09481279  0.70731011  1
  Zr  Zr75  1  0.09129669  0.28948580  0.29437576  1
  Zr  Zr76  1  0.40634655  0.20058742  0.38575790  1
  Zr  Zr77  1  0.00943025  0.79426039  0.41211970  1
  Zr  Zr78  1  0.58660269  0.60530481  0.60359037  1
  Zr  Zr79  1  0.00935796  0.19064026  0.60751846  1
  Zr  Zr80  1  0.10782347  0.29184266  0.51150032  1
  Zr  Zr81  1  0.59624593  0.00289580  0.00474001  1
  Zr  Zr82  1  0.09915101  0.09578329  0.10467389  1
  Zr  Zr83  1  0.79257911  0.80373450  -0.00702441  1
  Zr  Zr84  1  0.91451175  0.90954546  0.30233937  1
  Zr  Zr85  1  0.60448739  0.82457787  0.60724881  1
  Zr  Zr86  1  0.00408762  0.80291577  -0.00860183  1
  Zr  Zr87  1  0.20114460  -0.00202258  -0.00268891  1
  Zr  Zr88  1  0.20295333  0.61184610  0.40831926  1
  Zr  Zr89  1  0.20104104  -0.00493772  0.40597998  1
  Zr  Zr90  1  0.58946602  0.61096757  0.19007607  1
  Zr  Zr91  1  0.89596048  0.09593394  0.50168648  1
  Zr  Zr92  1  0.69341069  0.71122272  0.49818675  1
  Zr  Zr93  1  0.68479009  0.90950375  0.89451732  1
  Zr  Zr94  1  0.10144354  0.50146823  0.29528049  1
  Zr  Zr95  1  -0.01178745  0.19200223  -0.00295434  1
  Zr  Zr96  1  0.09991584  0.30357029  0.90444228  1
  Zr  Zr97  1  0.89973751  0.70305945  0.69540048  1
  Zr  Zr98  1  0.90018778  0.69330301  0.09065366  1
  Zr  Zr99  1  0.69039665  0.50029386  0.29271365  1
  Ta  Ta100  1  0.60179573  0.20116895  -0.00667695  1
  Ta  Ta101  1  0.89564328  0.08745638  0.70200589  1
  Ta  Ta102  1  0.39767051  0.79247890  0.19650998  1
  Ta  Ta103  1  0.59967724  0.20565998  0.19810557  1
  Ta  Ta104  1  0.39939535  -0.00779256  0.20314764  1
  Ta  Ta105  1  0.80301054  0.00154394  -0.00585210  1
  Ta  Ta106  1  0.00563139  0.59887601  0.18808650  1
  Ta  Ta107  1  0.29707237  0.89538473  0.09936835  1
  Ta  Ta108  1  0.00258310  0.58909374  -0.00351581  1
  Ta  Ta109  1  0.59423979  -0.00191976  0.39356489  1
  Ta  Ta110  1  0.69929120  0.30497242  0.90193108  1
  Ta  Ta111  1  0.49797314  0.89889450  0.49344806  1
  Ta  Ta112  1  0.19984646  0.79103077  0.79834055  1
  Ta  Ta113  1  0.69292446  0.10139380  0.29872014  1
  Ta  Ta114  1  0.59511349  0.79307859  0.79819202  1
  Ta  Ta115  1  -0.02163588  0.17474944  0.20029979  1
  Ta  Ta116  1  0.30412792  0.49844172  0.89911627  1
  Ta  Ta117  1  0.69598212  0.90581447  0.29669127  1
  Ta  Ta118  1  0.59292545  -0.00122135  0.20375357  1
  Ta  Ta119  1  0.59041405  0.39420838  0.39065290  1
  Ta  Ta120  1  0.79413570  0.39388805  0.19203697  1
  Ta  Ta121  1  0.40236744  0.40963415  0.60700848  1
  Ta  Ta122  1  0.11385256  0.30421237  0.70507674  1
  Ta  Ta123  1  0.69829787  0.70500736  0.29347909  1
  Ta  Ta124  1  0.89839334  0.69318039  0.90083171  1
  Ta  Ta125  1  0.20496505  0.60767868  0.60149980  1
  Ta  Ta126  1  0.29824137  0.29220075  0.10048614  1
  Ta  Ta127  1  0.50108275  0.30623248  0.89826052  1
  Ta  Ta128  1  0.00243157  0.79897687  0.80473007  1
  Ta  Ta129  1  0.79614655  0.20179661  0.19947339  1
  Ta  Ta130  1  0.49530355  0.49926467  0.29652517  1
  Ta  Ta131  1  0.19813874  -0.01012347  0.20328303  1
  Ta  Ta132  1  0.48955647  0.48961325  0.89811229  1
  Ta  Ta133  1  0.49327369  0.89976166  0.10005294  1
  Ta  Ta134  1  0.19638711  0.00627188  0.59817952  1
  Ta  Ta135  1  0.20035441  0.39785044  0.19686794  1
  Ta  Ta136  1  0.49972597  0.09410281  0.88894535  1
  Ta  Ta137  1  0.79762273  0.19378405  0.38806146  1
  Ta  Ta138  1  0.08918442  0.09076133  0.30091376  1
  Ta  Ta139  1  0.80294012  0.59845737  0.19298246  1
  Ta  Ta140  1  0.90091840  0.89452241  0.50698176  1
  Ta  Ta141  1  0.39535631  -0.00339716  -0.00245973  1
  Ta  Ta142  1  0.79794281  0.60209027  0.59187871  1
  Ta  Ta143  1  0.69312537  0.49970547  0.49759225  1
  Ta  Ta144  1  0.00927402  0.40735694  0.61086812  1
  Ta  Ta145  1  0.29964401  0.89477649  0.89560286  1
  Ta  Ta146  1  0.00326237  -0.00007725  0.80361962  1
  Ta  Ta147  1  0.89530475  0.30901544  0.90393893  1
  Ta  Ta148  1  0.79424316  -0.00225754  0.39988732  1
  Ta  Ta149  1  0.40637057  -0.00242584  0.39262903  1
  Ti  Ti150  1  0.10554429  0.10395500  0.90536569  1
  Ti  Ti151  1  0.30455279  0.50017918  0.50373580  1
  Ti  Ti152  1  0.49087259  0.70665288  0.29666685  1
  Ti  Ti153  1  0.40274870  0.19685707  0.80462828  1
  Ti  Ti154  1  0.11162392  0.70692115  0.30160089  1
  Ti  Ti155  1  0.49869286  0.49414330  0.10471577  1
  Ti  Ti156  1  0.10605598  0.50277006  0.50722815  1
  Ti  Ti157  1  0.11114567  0.88586142  0.50858225  1
  Ti  Ti158  1  0.10536947  0.50295975  0.09620888  1
  Ti  Ti159  1  0.79404581  0.19962164  -0.00103542  1
  Ti  Ti160  1  0.31019570  0.31783352  0.89910242  1
  Ti  Ti161  1  0.10853678  0.89074445  0.89719646  1
  Ti  Ti162  1  0.50231990  0.10469928  0.29308919  1
  Ti  Ti163  1  0.80362916  -0.00647212  0.80553965  1
  Ti  Ti164  1  0.89256440  0.50397467  0.69943427  1
  Ti  Ti165  1  0.39640017  0.61223079  0.60879328  1
  Ti  Ti166  1  0.11662370  0.50437210  0.89903254  1
  Ti  Ti167  1  0.20756682  0.79822039  0.19599472  1
  Ti  Ti168  1  0.89489445  0.09462986  0.89743921  1
  Ti  Ti169  1  0.29896700  0.72190090  0.50743055  1
  Ti  Ti170  1  0.70130314  0.49771461  0.90015477  1
  Ti  Ti171  1  0.69843487  0.90705060  0.10063175  1
  Ti  Ti172  1  0.89078667  0.50475366  0.90873464  1
  Ti  Ti173  1  0.80279076  0.40532914  0.80820642  1
  Ti  Ti174  1  0.50018986  0.69962247  0.89886526  1
  Ti  Ti175  1  0.59819122  0.79376611  0.00105214  1
  Ti  Ti176  1  0.69433727  0.09773640  0.89746605  1
  Ti  Ti177  1  0.10521147  0.70888485  0.68981529  1
  Ti  Ti178  1  0.70522745  0.69788537  0.09447477  1
  Ti  Ti179  1  0.10412594  0.69516216  0.90120618  1
  Ti  Ti180  1  0.30802552  0.89493304  0.50191612  1
  Ti  Ti181  1  -0.00061477  0.40871462  0.18715713  1
  Ti  Ti182  1  0.57865845  -0.00683591  0.76967306  1
  Ti  Ti183  1  0.59684210  0.20102911  0.80829224  1
  Ti  Ti184  1  0.10529095  0.89916137  0.30276560  1
  Ti  Ti185  1  0.79665703  0.60316118  0.81002416  1
  Ti  Ti186  1  0.59137645  0.80838166  0.38876249  1
  Ti  Ti187  1  0.79659233  0.40332511  0.59857829  1
  Ti  Ti188  1  0.79715251  0.19563443  0.60675549  1
  Ti  Ti189  1  0.19468968  0.60119319  0.78982036  1
  Ti  Ti190  1  0.80079855  0.40070690  0.00225106  1
  Ti  Ti191  1  0.40625914  0.60167917  0.79290141  1
  Ti  Ti192  1  0.19860495  0.41246202  0.60675811  1
  Ti  Ti193  1  0.19820755  0.19246965  0.20387322  1
  Ti  Ti194  1  0.00635668  0.00129098  0.41093926  1
  Ti  Ti195  1  0.69098717  0.29785785  0.29425812  1
  Ti  Ti196  1  0.49150088  0.71855346  0.50414930  1
  Ti  Ti197  1  0.59104114  0.19700229  0.61820880  1
  Ti  Ti198  1  0.30147456  0.09455697  0.29370930  1
  Ti  Ti199  1  -0.00269802  0.41120976  0.00139561  1
  Mo  Mo200  1  0.40490582  0.60385222  0.20163499  1
  Mo  Mo201  1  0.10974572  0.50017810  0.69832855  1
  Mo  Mo202  1  0.60226395  0.40254765  0.80897421  1
  Mo  Mo203  1  0.20566470  0.20327908  0.00303819  1
  Mo  Mo204  1  0.11005599  0.89772367  0.10277383  1
  Mo  Mo205  1  0.30879079  0.08645620  0.89741448  1
  Mo  Mo206  1  0.39939526  -0.00343212  0.80244466  1
  Mo  Mo207  1  0.50512001  0.30154406  0.29521844  1
  Mo  Mo208  1  0.49541414  0.69975438  0.69400307  1
  Mo  Mo209  1  0.40297052  0.80252154  0.40218355  1
  Mo  Mo210  1  0.49875495  0.11372460  0.70755157  1
  Mo  Mo211  1  0.29683808  0.69366579  0.69899666  1
  Mo  Mo212  1  0.11339220  0.70819081  0.51024611  1
  Mo  Mo213  1  0.90272171  0.49564855  0.09696509  1
  Mo  Mo214  1  0.40674452  0.20660922  0.61145732  1
  Mo  Mo215  1  0.60229589  0.20147130  0.38210703  1
  Mo  Mo216  1  0.49715302  0.90028170  0.29742478  1
  Mo  Mo217  1  0.70259214  0.29648557  0.09859277  1
  Mo  Mo218  1  0.30302456  0.70528807  0.29779902  1
  Mo  Mo219  1  0.49444932  0.88802787  0.70108368  1
  Mo  Mo220  1  0.10280729  0.09486191  0.49780275  1
  Mo  Mo221  1  0.69110364  0.90327449  0.47895663  1
  Mo  Mo222  1  0.40049563  0.40201409  0.80374616  1
  Mo  Mo223  1  0.20232199  0.40316756  0.80548439  1
  Mo  Mo224  1  0.40209718  0.79850587  0.59695165  1
  Mo  Mo225  1  0.90021837  0.09954595  0.31385234  1
  Mo  Mo226  1  0.50114477  0.70883419  0.09672489  1
  Mo  Mo227  1  0.20407903  0.80124006  0.40455353  1
  Mo  Mo228  1  -0.00456263  0.19048901  0.39580874  1
  Mo  Mo229  1  0.00400986  0.80171536  0.60050747  1
  Mo  Mo230  1  0.59574156  -0.00030577  0.59581378  1
  Mo  Mo231  1  0.20513290  0.80075268  0.60045755  1
  Mo  Mo232  1  0.40021695  0.40131166  0.40092806  1
  Mo  Mo233  1  0.40021972  0.19300169  0.20001754  1
  Mo  Mo234  1  0.49181995  0.50303350  0.70726585  1
  Mo  Mo235  1  0.89150447  0.09939753  0.08868054  1
  Mo  Mo236  1  0.40045866  0.40008607  0.00054018  1
  Mo  Mo237  1  0.90550997  0.90327790  0.89365996  1
  Mo  Mo238  1  0.30207629  0.70225664  0.10269257  1
  Mo  Mo239  1  0.79998319  0.59672620  -0.00612973  1
  Mo  Mo240  1  0.89227861  0.70836167  0.50685048  1
  Mo  Mo241  1  0.10469815  0.09847450  0.70420208  1
  Mo  Mo242  1  0.80123098  0.80003795  0.59381741  1
  Mo  Mo243  1  0.69791062  0.69874577  0.90197844  1
  Mo  Mo244  1  0.59817475  0.39651951  0.20197843  1
  Mo  Mo245  1  0.00686316  -0.00112774  0.20257277  1
  Mo  Mo246  1  0.20368117  0.80409644  -0.00830018  1
  Mo  Mo247  1  0.69576916  0.90135166  0.71615622  1
  Mo  Mo248  1  0.19984894  0.59042739  -0.00233336  1
  Mo  Mo249  1  0.19843651  0.18887175  0.61175173  1
