# generated using pymatgen
data_HfZrTaTiMo
_symmetry_space_group_name_H-M   'P 1'
_cell_length_a   16.88306039
_cell_length_b   16.88025293
_cell_length_c   16.88277927
_cell_angle_alpha   90.00989096
_cell_angle_beta   89.96881516
_cell_angle_gamma   90.00250347
_symmetry_Int_Tables_number   1
_chemical_formula_structural   HfZrTaTiMo
_chemical_formula_sum   'Hf50 Zr50 Ta50 Ti50 Mo50'
_cell_volume   4811.42804132
_cell_formula_units_Z   50
loop_
 _symmetry_equiv_pos_site_id
 _symmetry_equiv_pos_as_xyz
  1  'x, y, z'
loop_
 _atom_site_type_symbol
 _atom_site_label
 _atom_site_symmetry_multiplicity
 _atom_site_fract_x
 _atom_site_fract_y
 _atom_site_fract_z
 _atom_site_occupancy
  Hf  Hf0  1  0.10023879  0.89046923  0.49561325  1
  Hf  Hf1  1  0.60165452  -0.00864064  0.40521973  1
  Hf  Hf2  1  0.29409909  0.30438603  0.89534681  1
  Hf  Hf3  1  0.61138616  0.21029744  -0.00738604  1
  Hf  Hf4  1  0.80185931  0.60728905  0.00855456  1
  Hf  Hf5  1  0.70029924  0.50974629  0.90653415  1
  Hf  Hf6  1  0.38839856  0.20513174  0.19732299  1
  Hf  Hf7  1  0.20547563  0.40134534  0.00915346  1
  Hf  Hf8  1  0.79736235  0.40822417  0.19971669  1
  Hf  Hf9  1  0.48831104  0.08739776  0.50134306  1
  Hf  Hf10  1  0.08841647  0.08952535  0.10006773  1
  Hf  Hf11  1  0.50654257  0.89385980  0.10095008  1
  Hf  Hf12  1  0.60642815  0.59963900  0.39849019  1
  Hf  Hf13  1  0.40898151  0.79208286  0.00054432  1
  Hf  Hf14  1  0.09983180  0.49774034  0.49033537  1
  Hf  Hf15  1  0.50413516  0.09293004  0.89939797  1
  Hf  Hf16  1  0.89787996  0.49808935  0.68872338  1
  Hf  Hf17  1  0.29113617  0.50286812  0.48317698  1
  Hf  Hf18  1  0.70639410  0.10167700  0.29975652  1
  Hf  Hf19  1  0.90978502  0.89594295  0.29865061  1
  Hf  Hf20  1  0.70274591  0.30309752  0.50363872  1
  Hf  Hf21  1  0.39364834  0.19159258  0.79559988  1
  Hf  Hf22  1  0.79688284  0.40011619  0.80368392  1
  Hf  Hf23  1  0.70549557  0.29765200  0.29724388  1
  Hf  Hf24  1  0.29213226  0.30439264  0.69581369  1
  Hf  Hf25  1  0.20040030  0.19031316  0.79157696  1
  Hf  Hf26  1  0.49004484  0.29891425  0.50091127  1
  Hf  Hf27  1  0.70454284  0.88545510  0.90097831  1
  Hf  Hf28  1  0.29369777  0.09965685  0.31078118  1
  Hf  Hf29  1  0.49288449  0.50300003  0.49384571  1
  Hf  Hf30  1  0.50026689  0.89624246  0.70161792  1
  Hf  Hf31  1  0.00319780  -0.00308731  0.59402806  1
  Hf  Hf32  1  0.90862677  0.31120821  0.50299711  1
  Hf  Hf33  1  0.30487711  0.70229705  0.71017401  1
  Hf  Hf34  1  0.61293705  0.61804788  0.80780987  1
  Hf  Hf35  1  0.60392534  0.40493498  0.39577917  1
  Hf  Hf36  1  0.80428104  0.18861291  0.59537306  1
  Hf  Hf37  1  0.20078590  0.20278624  0.19362364  1
  Hf  Hf38  1  0.29638294  0.70322242  0.48849399  1
  Hf  Hf39  1  0.10227149  0.30304399  0.89847634  1
  Hf  Hf40  1  0.49880516  0.51147042  0.90169313  1
  Hf  Hf41  1  0.89860816  0.88343523  0.49319619  1
  Hf  Hf42  1  0.49893399  0.51037223  0.70755905  1
  Hf  Hf43  1  0.51117175  0.09880732  0.09921911  1
  Hf  Hf44  1  0.90165065  0.09570004  0.29255173  1
  Hf  Hf45  1  0.28994709  0.89163356  0.09902657  1
  Hf  Hf46  1  0.60436263  0.20561501  0.79955539  1
  Hf  Hf47  1  0.92052848  0.49401267  0.09903774  1
  Hf  Hf48  1  0.09961336  0.30142365  0.68438439  1
  Hf  Hf49  1  0.59856534  0.40965691  0.59951957  1
  Zr  Zr50  1  0.38453038  0.19604288  0.00852514  1
  Zr  Zr51  1  0.40933231  0.59879100  0.19371108  1
  Zr  Zr52  1  0.10292745  0.70510335  0.90755980  1
  Zr  Zr53  1  0.71385045  0.10109655  0.09677811  1
  Zr  Zr54  1  0.60840991  -0.00855781  0.20728980  1
  Zr  Zr55  1  0.49727724  0.10177925  0.30603703  1
  Zr  Zr56  1  0.09126413  0.31344017  0.10585175  1
  Zr  Zr57  1  0.39292721  0.59872573  0.60046498  1
  Zr  Zr58  1  0.49799648  0.30388533  0.30133643  1
  Zr  Zr59  1  0.09441458  0.49959471  0.91587070  1
  Zr  Zr60  1  0.79360402  0.40262618  0.00319795  1
  Zr  Zr61  1  0.89653076  0.88869094  0.69841735  1
  Zr  Zr62  1  0.48253090  0.89545411  0.31773568  1
  Zr  Zr63  1  0.01294303  0.61309583  0.20284195  1
  Zr  Zr64  1  0.49935414  0.08904428  0.69165134  1
  Zr  Zr65  1  0.39947097  -0.00340878  -0.00115133  1
  Zr  Zr66  1  0.49761669  0.70469068  0.70774463  1
  Zr  Zr67  1  0.70492467  0.50769354  0.69835580  1
  Zr  Zr68  1  0.49775144  0.70873021  0.49083132  1
  Zr  Zr69  1  0.19089910  -0.00594033  0.20246632  1
  Zr  Zr70  1  0.69301547  0.08781616  0.69338935  1
  Zr  Zr71  1  0.60524046  0.79568794  0.20215679  1
  Zr  Zr72  1  -0.00633494  0.61025874  0.79937694  1
  Zr  Zr73  1  0.89887305  0.09417805  0.90287386  1
  Zr  Zr74  1  0.90965602  0.49916035  0.29731129  1
  Zr  Zr75  1  0.20154300  0.00082083  0.60045888  1
  Zr  Zr76  1  0.90297121  0.09204081  0.70133960  1
  Zr  Zr77  1  0.70752346  0.89600754  0.50702655  1
  Zr  Zr78  1  -0.00069065  0.20026265  0.79755004  1
  Zr  Zr79  1  0.00143110  0.61027208  0.39658077  1
  Zr  Zr80  1  0.28775514  0.30422785  0.49820831  1
  Zr  Zr81  1  0.39136416  0.00439747  0.19516097  1
  Zr  Zr82  1  0.90547974  0.90100433  0.10434823  1
  Zr  Zr83  1  0.19280708  -0.00859366  0.79381922  1
  Zr  Zr84  1  0.89606751  0.29354609  0.10639979  1
  Zr  Zr85  1  -0.00042278  0.19693837  0.00140864  1
  Zr  Zr86  1  0.31159181  0.90351503  0.49077475  1
  Zr  Zr87  1  0.29797925  0.88805129  0.89957099  1
  Zr  Zr88  1  0.19438542  0.58821904  0.79224561  1
  Zr  Zr89  1  0.80765146  0.19416393  0.40762523  1
  Zr  Zr90  1  0.29068394  0.69908290  0.09892261  1
  Zr  Zr91  1  0.49281822  0.30695275  0.89968067  1
  Zr  Zr92  1  0.39681963  0.41284967  0.01115335  1
  Zr  Zr93  1  0.00094749  0.60420573  0.59817863  1
  Zr  Zr94  1  0.79290078  0.20452721  0.80687522  1
  Zr  Zr95  1  0.89880615  0.30642766  0.68790062  1
  Zr  Zr96  1  0.49832750  0.30688889  0.10595728  1
  Zr  Zr97  1  0.49494097  0.30342537  0.69491560  1
  Zr  Zr98  1  0.50280169  0.70060610  0.29911405  1
  Zr  Zr99  1  0.00697079  0.41004044  0.79331710  1
  Ta  Ta100  1  0.29786989  0.69691087  0.90037104  1
  Ta  Ta101  1  0.70397017  0.51058130  0.29570407  1
  Ta  Ta102  1  0.10088111  0.09157412  0.89998940  1
  Ta  Ta103  1  0.60228493  0.78629818  -0.00622650  1
  Ta  Ta104  1  0.70091864  0.30587100  0.69135290  1
  Ta  Ta105  1  0.60532285  0.39835771  0.80724547  1
  Ta  Ta106  1  0.19198979  -0.00000487  0.40093785  1
  Ta  Ta107  1  0.09922321  0.70586469  0.69611692  1
  Ta  Ta108  1  0.90184464  0.50487675  0.90458939  1
  Ta  Ta109  1  0.60384350  0.80157523  0.60172480  1
  Ta  Ta110  1  0.80702453  0.60402720  0.40098633  1
  Ta  Ta111  1  0.90500602  0.71099776  0.10529458  1
  Ta  Ta112  1  0.60788143  0.61047171  0.59485374  1
  Ta  Ta113  1  0.39801904  -0.00458240  0.80064939  1
  Ta  Ta114  1  0.19687122  0.41866283  0.60659027  1
  Ta  Ta115  1  0.60260053  0.41228057  0.19308066  1
  Ta  Ta116  1  0.09895965  0.09951768  0.69364154  1
  Ta  Ta117  1  0.29609327  0.89425870  0.30329932  1
  Ta  Ta118  1  0.09880247  0.10205840  0.30409306  1
  Ta  Ta119  1  0.38898884  0.41403417  0.79680706  1
  Ta  Ta120  1  0.30708821  0.89623422  0.69907509  1
  Ta  Ta121  1  0.80532313  -0.01012886  -0.00498310  1
  Ta  Ta122  1  0.79656525  -0.01295861  0.80200195  1
  Ta  Ta123  1  0.00478045  0.00279093  0.40163978  1
  Ta  Ta124  1  0.90130798  0.30796833  0.90980640  1
  Ta  Ta125  1  0.80032608  0.40799863  0.39831670  1
  Ta  Ta126  1  0.40197941  0.80406068  0.59536968  1
  Ta  Ta127  1  0.19343526  0.80175651  0.79497492  1
  Ta  Ta128  1  0.29232810  0.49963488  0.12027137  1
  Ta  Ta129  1  0.70266151  0.09036347  0.90203918  1
  Ta  Ta130  1  0.89993128  0.49710465  0.49933522  1
  Ta  Ta131  1  0.71023712  0.69914876  0.30079553  1
  Ta  Ta132  1  0.60485311  0.20332954  0.20028927  1
  Ta  Ta133  1  0.00211415  0.20006132  0.20935953  1
  Ta  Ta134  1  0.38284218  0.18904471  0.60105919  1
  Ta  Ta135  1  0.60307509  -0.01520415  0.80228680  1
  Ta  Ta136  1  0.18783070  0.79714522  0.20676143  1
  Ta  Ta137  1  0.19721785  0.60374879  0.59974683  1
  Ta  Ta138  1  0.11780443  0.49746326  0.29738971  1
  Ta  Ta139  1  0.80252936  0.60977989  0.59139793  1
  Ta  Ta140  1  0.29151600  0.09171874  0.90003178  1
  Ta  Ta141  1  0.38880098  0.20241430  0.40338704  1
  Ta  Ta142  1  0.70330780  0.29789376  0.10348583  1
  Ta  Ta143  1  0.70700260  0.89155216  0.09268336  1
  Ta  Ta144  1  0.20168030  0.80036386  0.60461871  1
  Ta  Ta145  1  0.10635543  0.70374636  0.49453743  1
  Ta  Ta146  1  0.90478643  0.30028151  0.30027075  1
  Ta  Ta147  1  0.70822329  0.70657680  0.49529781  1
  Ta  Ta148  1  0.00475998  0.19603222  0.40408634  1
  Ta  Ta149  1  0.60370103  0.40797188  0.00602265  1
  Ti  Ti150  1  0.28885752  0.31155322  0.30052461  1
  Ti  Ti151  1  0.39523658  0.59888877  0.38531064  1
  Ti  Ti152  1  0.09836098  0.89499669  0.90500309  1
  Ti  Ti153  1  0.19504680  0.79992345  0.38925463  1
  Ti  Ti154  1  0.00321296  -0.01272813  0.79963797  1
  Ti  Ti155  1  0.60473574  -0.01163892  -0.00579606  1
  Ti  Ti156  1  0.10691668  0.29858059  0.49885605  1
  Ti  Ti157  1  0.49434842  0.70288309  0.89362563  1
  Ti  Ti158  1  0.39511885  0.79331881  0.20078620  1
  Ti  Ti159  1  0.79939032  -0.00679720  0.19759961  1
  Ti  Ti160  1  0.10029701  0.70951672  0.09854079  1
  Ti  Ti161  1  0.09118221  0.89391983  0.10232767  1
  Ti  Ti162  1  0.80191564  -0.00408469  0.60000222  1
  Ti  Ti163  1  0.00232437  0.79346244  0.59718751  1
  Ti  Ti164  1  0.00580821  0.39545094  0.39353663  1
  Ti  Ti165  1  0.89420047  0.71153621  0.90698800  1
  Ti  Ti166  1  0.39326186  0.40430175  0.38652589  1
  Ti  Ti167  1  0.29183886  0.10209729  0.49869935  1
  Ti  Ti168  1  0.59825194  0.19833098  0.40419121  1
  Ti  Ti169  1  0.39166930  0.40907440  0.60328773  1
  Ti  Ti170  1  0.80693536  0.00397429  0.40934375  1
  Ti  Ti171  1  0.50156475  0.49887493  0.29103569  1
  Ti  Ti172  1  0.19496443  -0.00334841  -0.00014715  1
  Ti  Ti173  1  0.28924618  0.69274507  0.29745872  1
  Ti  Ti174  1  0.70508246  0.71168268  0.69685217  1
  Ti  Ti175  1  0.40105698  0.60274126  0.00667119  1
  Ti  Ti176  1  0.80057152  0.79709749  0.19883989  1
  Ti  Ti177  1  -0.00198477  0.60957192  0.00431914  1
  Ti  Ti178  1  0.80463609  0.61088937  0.80316512  1
  Ti  Ti179  1  0.80323487  0.60415272  0.19845013  1
  Ti  Ti180  1  0.70116213  0.70049125  0.10393175  1
  Ti  Ti181  1  0.59673965  0.19946183  0.59657250  1
  Ti  Ti182  1  0.19858378  0.59723409  0.00884323  1
  Ti  Ti183  1  0.89551046  0.70587454  0.69430514  1
  Ti  Ti184  1  0.10572504  0.30160021  0.30582924  1
  Ti  Ti185  1  0.10266775  0.49890350  0.11189075  1
  Ti  Ti186  1  0.29834180  0.50782821  0.89912137  1
  Ti  Ti187  1  0.71979599  0.89127417  0.30949520  1
  Ti  Ti188  1  0.70872973  0.50449570  0.50032337  1
  Ti  Ti189  1  -0.00364364  -0.00951013  -0.00859857  1
  Ti  Ti190  1  0.60746277  0.80320875  0.40187564  1
  Ti  Ti191  1  0.00384554  0.18786902  0.58541341  1
  Ti  Ti192  1  0.90195230  0.71248521  0.30031559  1
  Ti  Ti193  1  -0.00533909  0.80434665  -0.00231166  1
  Ti  Ti194  1  0.00142600  0.80383427  0.80080128  1
  Ti  Ti195  1  0.59507287  0.60679143  0.01466109  1
  Ti  Ti196  1  0.69192798  0.09239871  0.50543069  1
  Ti  Ti197  1  0.79789425  0.79444785  0.80147298  1
  Ti  Ti198  1  0.89879650  0.09660458  0.10389729  1
  Ti  Ti199  1  0.20120961  0.19601388  0.00465662  1
  Mo  Mo200  1  0.60821008  0.59937906  0.19824280  1
  Mo  Mo201  1  0.39675485  0.80019887  0.80514698  1
  Mo  Mo202  1  0.60200180  0.79873165  0.80204718  1
  Mo  Mo203  1  0.18880589  0.80168995  0.00155503  1
  Mo  Mo204  1  0.29783163  0.50254032  0.70174654  1
  Mo  Mo205  1  0.19766467  0.60235316  0.20079832  1
  Mo  Mo206  1  0.09648630  0.89058248  0.69805178  1
  Mo  Mo207  1  0.50245497  0.89695674  0.50674767  1
  Mo  Mo208  1  0.29989008  0.09079657  0.69821497  1
  Mo  Mo209  1  0.90189642  0.89213395  0.89581135  1
  Mo  Mo210  1  0.90163848  0.70073343  0.49862803  1
  Mo  Mo211  1  0.10212439  0.10369030  0.49680906  1
  Mo  Mo212  1  0.20431277  0.40538647  0.79638314  1
  Mo  Mo213  1  0.29439074  0.30648950  0.10660343  1
  Mo  Mo214  1  0.39100995  0.00461778  0.40152941  1
  Mo  Mo215  1  0.90505201  0.08942441  0.49658076  1
  Mo  Mo216  1  0.80522250  0.79242808  0.39523692  1
  Mo  Mo217  1  0.38775027  0.79287435  0.39252388  1
  Mo  Mo218  1  0.19657413  0.39561810  0.39775113  1
  Mo  Mo219  1  0.59796061  -0.01186870  0.59909864  1
  Mo  Mo220  1  0.80501939  0.20151859  0.20068944  1
  Mo  Mo221  1  0.39585144  -0.00257765  0.60206274  1
  Mo  Mo222  1  0.19434052  0.20124305  0.40096804  1
  Mo  Mo223  1  0.00804137  0.40524321  0.58930403  1
  Mo  Mo224  1  0.19862514  0.60315875  0.39352658  1
  Mo  Mo225  1  0.79535728  0.40955136  0.59141506  1
  Mo  Mo226  1  0.50818340  0.89251297  0.89623888  1
  Mo  Mo227  1  0.09890493  0.50585245  0.69064849  1
  Mo  Mo228  1  0.80045761  0.78968895  0.60237875  1
  Mo  Mo229  1  0.00821854  0.80126784  0.20029554  1
  Mo  Mo230  1  0.80201605  0.79502972  0.00656380  1
  Mo  Mo231  1  0.00195246  0.00338459  0.20317740  1
  Mo  Mo232  1  0.70055030  0.89228584  0.70343499  1
  Mo  Mo233  1  0.30137171  0.49873088  0.29846873  1
  Mo  Mo234  1  0.20267768  0.39898761  0.20586273  1
  Mo  Mo235  1  0.70646027  0.70090875  0.90568382  1
  Mo  Mo236  1  0.09799430  0.90024007  0.30404324  1
  Mo  Mo237  1  0.00528943  0.79780517  0.39502567  1
  Mo  Mo238  1  0.50504480  0.70031615  0.09626927  1
  Mo  Mo239  1  0.69459679  0.51008560  0.10461898  1
  Mo  Mo240  1  0.10569320  0.70440716  0.30360701  1
  Mo  Mo241  1  0.00822406  0.39592422  0.21263440  1
  Mo  Mo242  1  0.39456703  0.60087962  0.81397637  1
  Mo  Mo243  1  0.50194735  0.50522606  0.09958128  1
  Mo  Mo244  1  0.70182636  0.30434935  0.90414566  1
  Mo  Mo245  1  0.28429507  0.09596420  0.09036800  1
  Mo  Mo246  1  -0.00006208  0.40359829  -0.00123465  1
  Mo  Mo247  1  0.80071831  0.19395683  0.00148924  1
  Mo  Mo248  1  0.19512910  0.19206426  0.59540662  1
  Mo  Mo249  1  0.39748164  0.40430621  0.20852346  1
