# generated using pymatgen
data_HfZrTaTiMo
_symmetry_space_group_name_H-M   'P 1'
_cell_length_a   16.88670911
_cell_length_b   16.88484633
_cell_length_c   16.88586871
_cell_angle_alpha   89.99716414
_cell_angle_beta   89.95931782
_cell_angle_gamma   90.01209083
_symmetry_Int_Tables_number   1
_chemical_formula_structural   HfZrTaTiMo
_chemical_formula_sum   'Hf50 Zr50 Ta50 Ti50 Mo50'
_cell_volume   4814.65777996
_cell_formula_units_Z   50
loop_
 _symmetry_equiv_pos_site_id
 _symmetry_equiv_pos_as_xyz
  1  'x, y, z'
loop_
 _atom_site_type_symbol
 _atom_site_label
 _atom_site_symmetry_multiplicity
 _atom_site_fract_x
 _atom_site_fract_y
 _atom_site_fract_z
 _atom_site_occupancy
  Hf  Hf0  1  0.10678687  0.69472400  0.30125767  1
  Hf  Hf1  1  0.20172446  0.19834064  0.39057338  1
  Hf  Hf2  1  0.68584076  0.10874905  0.89538872  1
  Hf  Hf3  1  0.79666742  0.00189868  -0.00112773  1
  Hf  Hf4  1  0.29787258  0.89670678  0.28965488  1
  Hf  Hf5  1  0.80756920  0.19751738  0.00753897  1
  Hf  Hf6  1  0.59345929  0.39794001  0.00336586  1
  Hf  Hf7  1  0.00277040  0.40084986  0.80117332  1
  Hf  Hf8  1  0.49704910  0.51410893  0.90401181  1
  Hf  Hf9  1  0.59711496  -0.01460848  0.38849089  1
  Hf  Hf10  1  -0.00815201  0.59305889  0.79600176  1
  Hf  Hf11  1  0.90159224  0.49756429  0.30101277  1
  Hf  Hf12  1  0.60711443  0.40191739  0.40430700  1
  Hf  Hf13  1  0.49393298  0.10013469  0.09039189  1
  Hf  Hf14  1  0.69692307  0.30237288  0.10525955  1
  Hf  Hf15  1  0.30095306  0.49596329  0.69525803  1
  Hf  Hf16  1  0.49554704  0.10342815  0.89913229  1
  Hf  Hf17  1  0.00218726  -0.00060620  0.19851673  1
  Hf  Hf18  1  0.40743092  0.80103066  0.39469205  1
  Hf  Hf19  1  0.30405951  0.30237790  0.69946306  1
  Hf  Hf20  1  0.29508673  0.50417975  0.50231376  1
  Hf  Hf21  1  0.18995078  0.81076502  0.00470476  1
  Hf  Hf22  1  0.51168548  0.30854644  0.29574697  1
  Hf  Hf23  1  0.80420299  0.17894405  0.61735649  1
  Hf  Hf24  1  0.79731476  0.80276782  0.79899482  1
  Hf  Hf25  1  0.78997110  0.60020391  0.59899858  1
  Hf  Hf26  1  0.59947822  0.80764407  -0.00150009  1
  Hf  Hf27  1  0.30291475  0.70527224  0.10764609  1
  Hf  Hf28  1  0.39550926  0.61694398  0.59902186  1
  Hf  Hf29  1  0.69708966  0.70461431  0.10086640  1
  Hf  Hf30  1  -0.00106467  0.00007645  0.60330545  1
  Hf  Hf31  1  0.49878076  0.69455820  0.09127473  1
  Hf  Hf32  1  0.20165559  0.80004810  0.59758529  1
  Hf  Hf33  1  0.09073320  0.49428016  0.11628641  1
  Hf  Hf34  1  0.09838335  0.69880126  0.10431786  1
  Hf  Hf35  1  0.50763772  0.71227668  0.50512604  1
  Hf  Hf36  1  0.78931994  0.60180454  0.40957976  1
  Hf  Hf37  1  0.80433238  0.59752513  0.19008050  1
  Hf  Hf38  1  0.20187651  0.39801519  0.00085650  1
  Hf  Hf39  1  -0.00281942  0.00101543  0.00222237  1
  Hf  Hf40  1  0.20458146  0.59529842  0.00751003  1
  Hf  Hf41  1  0.00640167  0.80797082  0.59533724  1
  Hf  Hf42  1  0.90868129  0.28899194  0.50308123  1
  Hf  Hf43  1  0.20898405  0.18902569  0.58953309  1
  Hf  Hf44  1  0.89910342  0.29488839  0.70039710  1
  Hf  Hf45  1  0.88984773  0.70969219  0.30237282  1
  Hf  Hf46  1  0.69096105  0.90616479  0.88624126  1
  Hf  Hf47  1  0.00412408  0.40447783  0.40093347  1
  Hf  Hf48  1  0.30368014  0.90524970  0.49359760  1
  Hf  Hf49  1  0.60402534  0.39527092  0.60499230  1
  Zr  Zr50  1  0.48972470  0.49761088  0.50656080  1
  Zr  Zr51  1  0.59727681  0.58886380  0.19783296  1
  Zr  Zr52  1  0.19200282  0.20736850  -0.00618948  1
  Zr  Zr53  1  0.39840058  0.19846494  0.20268365  1
  Zr  Zr54  1  0.01283757  0.19719435  0.38471457  1
  Zr  Zr55  1  0.20058330  0.80103018  0.40323508  1
  Zr  Zr56  1  0.08431314  0.50252303  0.91968964  1
  Zr  Zr57  1  0.70482107  0.28618459  0.50594619  1
  Zr  Zr58  1  0.41344547  0.40684710  0.19552998  1
  Zr  Zr59  1  0.60220753  0.60055045  0.40259130  1
  Zr  Zr60  1  0.79601828  0.00486084  0.18648583  1
  Zr  Zr61  1  0.29436684  0.50319559  0.30378877  1
  Zr  Zr62  1  -0.01544292  0.38938402  0.01110270  1
  Zr  Zr63  1  0.30259991  0.89880762  0.71322200  1
  Zr  Zr64  1  0.00148791  0.19708242  0.80698544  1
  Zr  Zr65  1  0.39716445  0.00646139  0.60262380  1
  Zr  Zr66  1  0.71056272  0.88723307  0.29567407  1
  Zr  Zr67  1  0.49378330  0.49829199  0.70378205  1
  Zr  Zr68  1  0.89380662  0.09253212  0.30781173  1
  Zr  Zr69  1  0.00417915  0.40856080  0.60275041  1
  Zr  Zr70  1  0.89463156  0.70520315  0.69856685  1
  Zr  Zr71  1  0.80078765  0.59738496  0.00071638  1
  Zr  Zr72  1  0.39151206  0.19386568  0.39562094  1
  Zr  Zr73  1  0.70141583  0.08973325  0.49502740  1
  Zr  Zr74  1  0.30156134  0.90751169  0.89808448  1
  Zr  Zr75  1  0.89246906  0.89906216  0.30820450  1
  Zr  Zr76  1  0.10501894  0.09949603  0.09624533  1
  Zr  Zr77  1  0.20238133  0.20150357  0.20237589  1
  Zr  Zr78  1  0.70043288  0.49496242  0.89717721  1
  Zr  Zr79  1  0.30270203  0.90756598  0.10287296  1
  Zr  Zr80  1  0.10366693  0.69850883  0.70065482  1
  Zr  Zr81  1  0.30515076  0.70361804  0.71435235  1
  Zr  Zr82  1  0.00206784  0.80381561  0.19718149  1
  Zr  Zr83  1  0.39394120  0.19029408  0.60054620  1
  Zr  Zr84  1  0.69932565  0.48786349  0.29312014  1
  Zr  Zr85  1  0.08999166  0.69711088  0.90516336  1
  Zr  Zr86  1  0.19938711  -0.00148169  0.59813900  1
  Zr  Zr87  1  0.49523106  0.29670031  0.50417982  1
  Zr  Zr88  1  0.50971147  0.09522883  0.49906094  1
  Zr  Zr89  1  0.90147947  0.09379807  0.49378796  1
  Zr  Zr90  1  0.10478206  0.29189459  0.68895894  1
  Zr  Zr91  1  0.80428614  0.01155303  0.78996411  1
  Zr  Zr92  1  0.60216676  0.19836000  0.20118296  1
  Zr  Zr93  1  0.19363262  0.39692063  0.80863839  1
  Zr  Zr94  1  0.60562060  0.60651023  0.79050830  1
  Zr  Zr95  1  -0.00349686  0.59769835  0.59863626  1
  Zr  Zr96  1  -0.00755701  0.20029898  0.19055124  1
  Zr  Zr97  1  0.19381828  0.58852454  0.80287973  1
  Zr  Zr98  1  0.31107496  0.69776644  0.90156531  1
  Zr  Zr99  1  0.60984573  0.60353923  0.59786431  1
  Ta  Ta100  1  0.10184875  0.09654582  0.49458392  1
  Ta  Ta101  1  0.40482667  0.39643847  0.80463737  1
  Ta  Ta102  1  0.89837106  0.30326338  0.29613159  1
  Ta  Ta103  1  0.69943210  0.29389326  0.71219726  1
  Ta  Ta104  1  -0.00155781  0.80601375  0.80371402  1
  Ta  Ta105  1  0.39991603  0.60869946  0.39646603  1
  Ta  Ta106  1  0.40485015  0.80595496  -0.00245537  1
  Ta  Ta107  1  0.30434115  0.10243548  0.90392807  1
  Ta  Ta108  1  0.11075845  0.50636473  0.49503582  1
  Ta  Ta109  1  0.31362724  0.30061511  0.09143287  1
  Ta  Ta110  1  0.20307751  0.59521951  0.20203151  1
  Ta  Ta111  1  0.69298471  0.70133520  0.90002328  1
  Ta  Ta112  1  0.90050323  0.90175424  0.89704852  1
  Ta  Ta113  1  0.89288564  0.90075841  0.49693073  1
  Ta  Ta114  1  0.49995193  0.70184256  0.89628766  1
  Ta  Ta115  1  0.31153408  0.29644925  0.90106587  1
  Ta  Ta116  1  0.60133975  0.19526147  0.61202999  1
  Ta  Ta117  1  0.40120032  0.40448378  0.39574218  1
  Ta  Ta118  1  0.00148042  0.60107421  0.40035698  1
  Ta  Ta119  1  0.10138257  0.09749871  0.70399525  1
  Ta  Ta120  1  0.50563013  0.70156931  0.29580188  1
  Ta  Ta121  1  0.50629967  0.90106415  0.50877452  1
  Ta  Ta122  1  0.89376297  0.89505057  0.09736640  1
  Ta  Ta123  1  -0.00519760  0.59935024  0.20392705  1
  Ta  Ta124  1  0.30538707  0.09586514  0.09123479  1
  Ta  Ta125  1  0.50421903  0.10048963  0.71105282  1
  Ta  Ta126  1  0.49826406  0.29202563  0.70808807  1
  Ta  Ta127  1  0.80390448  0.39663266  0.19361590  1
  Ta  Ta128  1  0.79608360  -0.00785421  0.60507609  1
  Ta  Ta129  1  0.31613409  0.49865976  0.90346848  1
  Ta  Ta130  1  0.49650771  0.90587000  0.09662991  1
  Ta  Ta131  1  -0.00638713  0.80438968  -0.00092290  1
  Ta  Ta132  1  0.40478022  -0.00258087  0.39004342  1
  Ta  Ta133  1  0.49825829  0.90489462  0.89405379  1
  Ta  Ta134  1  0.70260502  0.09509737  0.30212875  1
  Ta  Ta135  1  0.79963515  0.80256124  -0.00257682  1
  Ta  Ta136  1  0.79961118  0.39673965  0.59941785  1
  Ta  Ta137  1  0.88995609  0.30192735  0.89756753  1
  Ta  Ta138  1  0.70558487  0.48479863  0.70692642  1
  Ta  Ta139  1  0.10799413  0.69115295  0.49830779  1
  Ta  Ta140  1  0.29773346  0.31444323  0.49990234  1
  Ta  Ta141  1  0.90173795  0.90171359  0.70136252  1
  Ta  Ta142  1  0.80008648  0.39332837  0.40361327  1
  Ta  Ta143  1  0.00396620  0.79960329  0.40752495  1
  Ta  Ta144  1  0.10020517  0.32192069  0.28815610  1
  Ta  Ta145  1  0.40388007  0.59884155  0.20646055  1
  Ta  Ta146  1  0.10730870  0.30033080  0.49824209  1
  Ta  Ta147  1  0.89614863  0.49876516  0.49787338  1
  Ta  Ta148  1  0.60089000  -0.00526859  0.19496488  1
  Ta  Ta149  1  0.51203312  0.90272338  0.70393800  1
  Ti  Ti150  1  0.50688174  0.09852331  0.29924347  1
  Ti  Ti151  1  0.69009352  0.72253298  0.69653509  1
  Ti  Ti152  1  0.79607869  0.20489610  0.38930967  1
  Ti  Ti153  1  0.10873731  0.89718011  0.29822022  1
  Ti  Ti154  1  0.70472134  0.29922869  0.89604764  1
  Ti  Ti155  1  0.19612951  -0.00156528  -0.00217445  1
  Ti  Ti156  1  0.60781844  0.20127479  0.39303082  1
  Ti  Ti157  1  0.30036459  0.31063832  0.29797192  1
  Ti  Ti158  1  0.69195148  0.10323440  0.09749371  1
  Ti  Ti159  1  0.68249796  0.09208466  0.70643420  1
  Ti  Ti160  1  -0.02213615  0.60229032  0.01654403  1
  Ti  Ti161  1  0.69467871  0.89551293  0.50726652  1
  Ti  Ti162  1  0.19047881  0.80276508  0.80887752  1
  Ti  Ti163  1  0.49914351  0.71624773  0.70940044  1
  Ti  Ti164  1  0.09739801  0.30479819  0.10678414  1
  Ti  Ti165  1  0.60315449  0.80110303  0.39847915  1
  Ti  Ti166  1  0.29937753  0.70183073  0.29625333  1
  Ti  Ti167  1  0.19657436  0.20384644  0.80846138  1
  Ti  Ti168  1  0.59643564  0.80997140  0.19788540  1
  Ti  Ti169  1  -0.00479165  0.20300012  -0.00057975  1
  Ti  Ti170  1  0.29513692  0.10203354  0.72333834  1
  Ti  Ti171  1  0.41180947  0.80073466  0.20134673  1
  Ti  Ti172  1  0.88948363  0.49348253  0.89648957  1
  Ti  Ti173  1  0.09312818  0.90972628  0.89421253  1
  Ti  Ti174  1  0.89644824  0.70325550  0.90149807  1
  Ti  Ti175  1  0.41076027  -0.00015331  0.20505591  1
  Ti  Ti176  1  0.80130423  0.19884908  0.19929576  1
  Ti  Ti177  1  0.60011577  -0.00352190  0.00388740  1
  Ti  Ti178  1  0.59552407  0.39097823  0.80495269  1
  Ti  Ti179  1  0.19628606  0.40187895  0.39620749  1
  Ti  Ti180  1  0.40255901  0.00259550  0.79974623  1
  Ti  Ti181  1  0.79551298  0.60405037  0.79757511  1
  Ti  Ti182  1  0.59400243  0.21104475  0.00123126  1
  Ti  Ti183  1  0.01585145  -0.01092595  0.40067561  1
  Ti  Ti184  1  0.19033314  -0.00457942  0.19535004  1
  Ti  Ti185  1  0.88486086  0.49381108  0.70384774  1
  Ti  Ti186  1  0.09956921  0.90915163  0.71584470  1
  Ti  Ti187  1  0.31421279  0.50131100  0.09452134  1
  Ti  Ti188  1  0.10387542  0.09246924  0.89274192  1
  Ti  Ti189  1  0.49988327  0.50494253  0.08952227  1
  Ti  Ti190  1  0.79534182  0.80535216  0.59781270  1
  Ti  Ti191  1  0.70173975  0.70759433  0.29719916  1
  Ti  Ti192  1  0.90419558  0.09850490  0.89812202  1
  Ti  Ti193  1  0.49122420  0.29290159  0.90153689  1
  Ti  Ti194  1  0.79949554  0.40166980  0.00838814  1
  Ti  Ti195  1  0.80160699  0.19467198  0.80071991  1
  Ti  Ti196  1  0.89703740  0.70555403  0.49751738  1
  Ti  Ti197  1  0.40006246  0.80493186  0.60232479  1
  Ti  Ti198  1  0.29179299  0.08260018  0.29547430  1
  Ti  Ti199  1  0.20924674  0.40301072  0.19393541  1
  Mo  Mo200  1  0.78831896  -0.00856182  0.40847134  1
  Mo  Mo201  1  0.09731153  0.89983231  0.09587882  1
  Mo  Mo202  1  0.40079419  0.00065545  -0.00207796  1
  Mo  Mo203  1  0.09668267  0.90032897  0.49560354  1
  Mo  Mo204  1  0.10102143  0.50345309  0.30071290  1
  Mo  Mo205  1  0.60006806  0.80277408  0.79903363  1
  Mo  Mo206  1  0.29739577  0.09200459  0.47745264  1
  Mo  Mo207  1  0.89184151  0.29625272  0.10153692  1
  Mo  Mo208  1  0.40033869  0.60356331  0.00603425  1
  Mo  Mo209  1  0.69849300  0.49289273  0.09751729  1
  Mo  Mo210  1  0.49686118  0.50559433  0.30714454  1
  Mo  Mo211  1  0.60353568  0.40309786  0.19179927  1
  Mo  Mo212  1  0.00217146  -0.00180118  0.80186728  1
  Mo  Mo213  1  0.20192252  0.60105349  0.59568927  1
  Mo  Mo214  1  0.69949661  0.71928415  0.50243938  1
  Mo  Mo215  1  0.70932085  0.48653246  0.50724706  1
  Mo  Mo216  1  0.39877071  0.39201649  0.60330856  1
  Mo  Mo217  1  0.50189002  0.89505785  0.28961700  1
  Mo  Mo218  1  0.80146138  0.39258801  0.79951892  1
  Mo  Mo219  1  0.50009304  0.29859243  0.09556595  1
  Mo  Mo220  1  0.19950923  0.79803723  0.20128115  1
  Mo  Mo221  1  0.19972187  0.00040840  0.39351754  1
  Mo  Mo222  1  0.60058151  0.80689367  0.60473326  1
  Mo  Mo223  1  0.89715100  0.49827267  0.10532449  1
  Mo  Mo224  1  0.60299247  -0.00196923  0.60672004  1
  Mo  Mo225  1  0.89950684  0.09952412  0.09512860  1
  Mo  Mo226  1  0.59474120  0.00265871  0.79893242  1
  Mo  Mo227  1  0.11388383  0.50116249  0.68145886  1
  Mo  Mo228  1  0.41282760  0.80477787  0.80377817  1
  Mo  Mo229  1  0.79684962  0.79638280  0.41806229  1
  Mo  Mo230  1  0.39845839  0.20180900  0.00011391  1
  Mo  Mo231  1  0.59817027  0.20635557  0.80389719  1
  Mo  Mo232  1  0.69457294  0.89940801  0.09395353  1
  Mo  Mo233  1  0.60138936  0.60439129  -0.00302718  1
  Mo  Mo234  1  0.79870765  0.79566638  0.18431753  1
  Mo  Mo235  1  0.91186791  0.09657796  0.70105131  1
  Mo  Mo236  1  0.19764793  0.00970178  0.80557931  1
  Mo  Mo237  1  0.69993249  0.90261493  0.69387305  1
  Mo  Mo238  1  0.40459486  0.60150981  0.79894937  1
  Mo  Mo239  1  0.40360578  0.39957343  -0.00205120  1
  Mo  Mo240  1  0.01164543  0.18990845  0.59539350  1
  Mo  Mo241  1  0.39745609  0.19981543  0.80235826  1
  Mo  Mo242  1  0.30392577  0.70261360  0.49730036  1
  Mo  Mo243  1  0.70874998  0.29539046  0.29845169  1
  Mo  Mo244  1  -0.00692342  0.39943488  0.20401629  1
  Mo  Mo245  1  0.89913350  0.70583175  0.09794636  1
  Mo  Mo246  1  0.20301530  0.60375830  0.39810883  1
  Mo  Mo247  1  0.09196529  0.29659950  0.90690399  1
  Mo  Mo248  1  0.19886379  0.40064292  0.59271366  1
  Mo  Mo249  1  0.10784961  0.08306867  0.30000091  1
