# generated using pymatgen
data_HfZrTaTiMo
_symmetry_space_group_name_H-M   'P 1'
_cell_length_a   16.88826140
_cell_length_b   16.88098709
_cell_length_c   16.88307429
_cell_angle_alpha   90.06576665
_cell_angle_beta   89.98520995
_cell_angle_gamma   90.03661611
_symmetry_Int_Tables_number   1
_chemical_formula_structural   HfZrTaTiMo
_chemical_formula_sum   'Hf50 Zr50 Ta50 Ti50 Mo50'
_cell_volume   4813.20016010
_cell_formula_units_Z   50
loop_
 _symmetry_equiv_pos_site_id
 _symmetry_equiv_pos_as_xyz
  1  'x, y, z'
loop_
 _atom_site_type_symbol
 _atom_site_label
 _atom_site_symmetry_multiplicity
 _atom_site_fract_x
 _atom_site_fract_y
 _atom_site_fract_z
 _atom_site_occupancy
  Hf  Hf0  1  0.70202517  0.70545686  0.10477466  1
  Hf  Hf1  1  0.60193964  0.20874085  0.39767609  1
  Hf  Hf2  1  0.10087209  0.90168573  0.69974229  1
  Hf  Hf3  1  0.80124276  0.79507559  0.59355173  1
  Hf  Hf4  1  0.90682634  0.50853463  0.50879873  1
  Hf  Hf5  1  0.40192532  -0.01200279  0.19813368  1
  Hf  Hf6  1  0.49884532  0.29387515  0.88316323  1
  Hf  Hf7  1  0.08497341  0.69381132  0.29795596  1
  Hf  Hf8  1  0.19078557  0.39848010  0.40517394  1
  Hf  Hf9  1  0.80514128  0.40075935  0.40729920  1
  Hf  Hf10  1  0.09888201  0.70758349  0.90171772  1
  Hf  Hf11  1  0.20314054  0.80047593  0.19697332  1
  Hf  Hf12  1  0.29860904  0.10856333  0.29227405  1
  Hf  Hf13  1  0.90203790  0.69135674  0.69520180  1
  Hf  Hf14  1  0.80194025  0.80273654  -0.00051356  1
  Hf  Hf15  1  0.60022241  0.21146642  0.19086988  1
  Hf  Hf16  1  0.89782303  0.91838189  0.69687254  1
  Hf  Hf17  1  0.30613803  0.11386241  0.50633276  1
  Hf  Hf18  1  0.81190608  0.00172412  0.39734546  1
  Hf  Hf19  1  0.50714793  0.48816322  0.69772580  1
  Hf  Hf20  1  0.29556978  0.69953600  0.70086759  1
  Hf  Hf21  1  0.09917079  0.70056911  0.69343854  1
  Hf  Hf22  1  0.39761909  0.61344838  0.20563423  1
  Hf  Hf23  1  0.70626344  0.90668071  0.50215714  1
  Hf  Hf24  1  0.30351913  0.09949316  0.70253889  1
  Hf  Hf25  1  0.30216615  0.09476369  0.89338283  1
  Hf  Hf26  1  0.19620575  -0.00159326  0.19624075  1
  Hf  Hf27  1  0.20318465  0.79086618  0.39512730  1
  Hf  Hf28  1  0.79531219  0.59562876  -0.00613519  1
  Hf  Hf29  1  0.70911748  0.10418064  0.50220663  1
  Hf  Hf30  1  0.79838707  0.39853944  0.19606514  1
  Hf  Hf31  1  0.00052754  0.19997664  0.18708237  1
  Hf  Hf32  1  0.31799605  0.49944697  0.48525478  1
  Hf  Hf33  1  0.90528691  0.49584880  0.69643310  1
  Hf  Hf34  1  0.19912193  0.58557256  0.59349991  1
  Hf  Hf35  1  -0.01234776  0.79391645  0.40154718  1
  Hf  Hf36  1  0.09405148  0.49596023  0.10117941  1
  Hf  Hf37  1  0.20320357  -0.00302436  0.59330489  1
  Hf  Hf38  1  0.59192658  0.80565772  0.20941599  1
  Hf  Hf39  1  0.71459663  0.10704960  0.29830376  1
  Hf  Hf40  1  0.40329688  0.60505355  0.80314989  1
  Hf  Hf41  1  0.19761507  0.60434481  0.20308342  1
  Hf  Hf42  1  0.60052804  0.39721024  0.20042645  1
  Hf  Hf43  1  0.80000645  0.39348318  0.80074538  1
  Hf  Hf44  1  0.89341790  0.28907537  0.31095579  1
  Hf  Hf45  1  0.19787138  0.20059218  0.81085236  1
  Hf  Hf46  1  0.80247762  0.20887462  0.18224067  1
  Hf  Hf47  1  0.28245286  0.29776409  0.09666104  1
  Hf  Hf48  1  0.19363056  0.00269454  0.40405947  1
  Hf  Hf49  1  0.49657174  0.10485089  0.29752344  1
  Zr  Zr50  1  0.90217443  0.70140680  0.90288986  1
  Zr  Zr51  1  0.19695418  0.20840589  0.39895511  1
  Zr  Zr52  1  0.39803516  0.39875077  0.60283546  1
  Zr  Zr53  1  0.30234378  0.70129940  0.09280368  1
  Zr  Zr54  1  0.40617040  0.38468331  0.19962554  1
  Zr  Zr55  1  0.49126131  0.50712749  0.09587601  1
  Zr  Zr56  1  0.09720101  0.48734433  0.70565617  1
  Zr  Zr57  1  0.69958494  0.50257139  0.51140941  1
  Zr  Zr58  1  0.09048101  0.89809504  0.30073425  1
  Zr  Zr59  1  0.60641154  0.59652958  0.80134617  1
  Zr  Zr60  1  0.29779966  0.69767262  0.49954075  1
  Zr  Zr61  1  0.20315013  0.39293097  0.59445200  1
  Zr  Zr62  1  0.49709500  0.31142977  0.50216016  1
  Zr  Zr63  1  0.60500006  0.21000861  0.61129024  1
  Zr  Zr64  1  0.58799332  0.60411424  0.21027657  1
  Zr  Zr65  1  0.70444416  0.08947961  0.08997311  1
  Zr  Zr66  1  0.49046603  0.11189213  0.50501737  1
  Zr  Zr67  1  0.71563125  0.09144618  0.70494485  1
  Zr  Zr68  1  0.48815658  0.49449195  0.32043811  1
  Zr  Zr69  1  0.09885111  0.10084883  0.70550736  1
  Zr  Zr70  1  0.39504066  0.38994967  -0.00160890  1
  Zr  Zr71  1  0.00500118  0.00909518  0.58448656  1
  Zr  Zr72  1  0.70697903  0.70056774  0.29630976  1
  Zr  Zr73  1  0.90427568  0.09131528  0.08540640  1
  Zr  Zr74  1  0.29406297  0.49387834  0.90211235  1
  Zr  Zr75  1  0.40074087  0.20148356  -0.00156701  1
  Zr  Zr76  1  0.60395043  0.59909561  -0.00760883  1
  Zr  Zr77  1  0.19420971  0.60104971  -0.00014863  1
  Zr  Zr78  1  0.59901109  -0.00513963  0.39478678  1
  Zr  Zr79  1  0.70027199  0.90453480  0.70890362  1
  Zr  Zr80  1  0.18609180  0.00362554  0.00224565  1
  Zr  Zr81  1  0.40306253  0.80377431  0.80354375  1
  Zr  Zr82  1  0.00624087  0.59899646  0.80505000  1
  Zr  Zr83  1  0.40229282  -0.00768860  -0.00786465  1
  Zr  Zr84  1  0.29552313  0.50019126  0.30078829  1
  Zr  Zr85  1  0.79997215  0.61150662  0.40859706  1
  Zr  Zr86  1  0.50268045  0.09485542  0.09324263  1
  Zr  Zr87  1  -0.00629367  0.39278514  0.20173216  1
  Zr  Zr88  1  0.80416972  0.80362233  0.80304307  1
  Zr  Zr89  1  0.40238509  0.80097411  -0.00705505  1
  Zr  Zr90  1  0.49958628  0.48514549  0.88894007  1
  Zr  Zr91  1  -0.00131042  0.20048364  0.41216156  1
  Zr  Zr92  1  0.60186667  -0.00593418  0.20459012  1
  Zr  Zr93  1  0.90848480  0.48956365  0.89971428  1
  Zr  Zr94  1  0.39556299  -0.00487844  0.40015241  1
  Zr  Zr95  1  0.79564270  0.39463063  0.00358193  1
  Zr  Zr96  1  0.59086174  0.00494265  0.60394079  1
  Zr  Zr97  1  0.60060869  0.79759919  0.59697545  1
  Zr  Zr98  1  0.60653569  0.39454984  0.00478088  1
  Zr  Zr99  1  0.09733315  0.29132438  0.69481199  1
  Ta  Ta100  1  0.40013434  -0.00688512  0.60418142  1
  Ta  Ta101  1  0.80474453  0.20254035  0.80266759  1
  Ta  Ta102  1  0.51383558  0.89495054  0.08482249  1
  Ta  Ta103  1  0.60834632  0.20066253  -0.00665704  1
  Ta  Ta104  1  0.09285594  0.68819933  0.49782402  1
  Ta  Ta105  1  0.90290616  0.90216713  0.49853507  1
  Ta  Ta106  1  0.60232799  0.40381519  0.40315075  1
  Ta  Ta107  1  0.29841439  0.90340277  0.70459685  1
  Ta  Ta108  1  0.28756230  0.90356753  0.89017260  1
  Ta  Ta109  1  0.09943199  0.48426941  0.90558258  1
  Ta  Ta110  1  0.00008944  0.00270815  0.19566506  1
  Ta  Ta111  1  0.08547428  0.70759746  0.10188618  1
  Ta  Ta112  1  -0.00084522  0.80866743  0.79939026  1
  Ta  Ta113  1  0.29356068  0.49499344  0.09985988  1
  Ta  Ta114  1  0.70371286  0.89993029  0.09844339  1
  Ta  Ta115  1  0.68868263  0.90595056  0.90176441  1
  Ta  Ta116  1  0.80096501  0.39104001  0.60591685  1
  Ta  Ta117  1  0.19396082  0.80884340  0.00066317  1
  Ta  Ta118  1  0.50778631  0.09461651  0.88944255  1
  Ta  Ta119  1  0.59720693  0.60203840  0.59761629  1
  Ta  Ta120  1  0.80389501  0.20633818  -0.01189646  1
  Ta  Ta121  1  0.59958053  0.79834195  0.40022101  1
  Ta  Ta122  1  0.90919154  0.29884391  0.70387829  1
  Ta  Ta123  1  0.79323428  0.59303206  0.80127965  1
  Ta  Ta124  1  0.29585546  0.10375537  0.10174591  1
  Ta  Ta125  1  0.50557117  0.70446683  0.70046147  1
  Ta  Ta126  1  0.80855247  0.20919820  0.60365918  1
  Ta  Ta127  1  0.90162362  0.51174167  0.29843394  1
  Ta  Ta128  1  0.90370262  0.10555586  0.70414862  1
  Ta  Ta129  1  0.39968952  0.80156591  0.60375903  1
  Ta  Ta130  1  0.80211690  0.80006107  0.40228387  1
  Ta  Ta131  1  0.70404165  0.30365955  0.30570970  1
  Ta  Ta132  1  0.70317840  0.50263975  0.30399835  1
  Ta  Ta133  1  0.30391298  0.49653139  0.70867343  1
  Ta  Ta134  1  0.49305694  0.89355681  0.50009092  1
  Ta  Ta135  1  0.89651401  0.89981156  0.10590159  1
  Ta  Ta136  1  0.49931701  0.90266788  0.70762399  1
  Ta  Ta137  1  0.40879362  0.60095633  0.60221980  1
  Ta  Ta138  1  0.70211051  0.69364060  0.69651112  1
  Ta  Ta139  1  0.28913149  0.70620367  0.89674217  1
  Ta  Ta140  1  0.09709464  0.88660441  0.49799239  1
  Ta  Ta141  1  0.09018752  0.50705190  0.30715478  1
  Ta  Ta142  1  -0.00151541  0.59909017  0.00552427  1
  Ta  Ta143  1  0.90300271  0.09876739  0.89861767  1
  Ta  Ta144  1  0.40550848  0.80100821  0.20986668  1
  Ta  Ta145  1  0.00071841  0.39996456  0.40558255  1
  Ta  Ta146  1  0.89955224  0.50666262  0.10491190  1
  Ta  Ta147  1  0.09363567  0.10085030  0.29631669  1
  Ta  Ta148  1  0.89918316  0.89850415  0.29190098  1
  Ta  Ta149  1  0.59539424  0.60622188  0.40982406  1
  Ti  Ti150  1  0.09614257  0.30418653  0.90717787  1
  Ti  Ti151  1  0.70169351  0.09239146  0.89419088  1
  Ti  Ti152  1  0.40066005  0.60532133  -0.00972246  1
  Ti  Ti153  1  0.69844051  0.49303623  0.69699542  1
  Ti  Ti154  1  0.19494225  0.80403697  0.80042696  1
  Ti  Ti155  1  0.70416144  0.30248343  0.50352963  1
  Ti  Ti156  1  0.40249241  0.62066796  0.39598704  1
  Ti  Ti157  1  0.30269981  0.89296907  0.50089734  1
  Ti  Ti158  1  0.40621375  0.20929526  0.19273003  1
  Ti  Ti159  1  0.09819525  0.29946064  0.08999797  1
  Ti  Ti160  1  0.10904140  0.12493564  0.51598066  1
  Ti  Ti161  1  0.20604181  0.38766048  0.80675760  1
  Ti  Ti162  1  0.00266164  0.39010791  0.58663341  1
  Ti  Ti163  1  0.51507514  0.71597459  0.89797519  1
  Ti  Ti164  1  0.48864046  0.10293337  0.71175314  1
  Ti  Ti165  1  0.90595424  0.90972884  0.90276386  1
  Ti  Ti166  1  0.50028981  0.30189668  0.70674724  1
  Ti  Ti167  1  0.89725402  0.69973675  0.28542374  1
  Ti  Ti168  1  0.29489700  0.30142010  0.29389781  1
  Ti  Ti169  1  0.20006419  0.80084283  0.59602185  1
  Ti  Ti170  1  -0.00072250  0.20362225  0.81484911  1
  Ti  Ti171  1  0.00165129  0.00501807  0.40081816  1
  Ti  Ti172  1  0.09517368  0.29835557  0.29935330  1
  Ti  Ti173  1  0.70280453  0.51244406  0.11333561  1
  Ti  Ti174  1  0.69543269  0.71172976  0.89345748  1
  Ti  Ti175  1  -0.00139187  0.80089941  0.59885054  1
  Ti  Ti176  1  0.19699533  0.59607242  0.80159434  1
  Ti  Ti177  1  0.18677348  0.19593795  0.19415699  1
  Ti  Ti178  1  0.30544809  0.29074930  0.50523690  1
  Ti  Ti179  1  0.09611266  0.90428183  0.89802418  1
  Ti  Ti180  1  0.50327666  0.70682683  0.09245808  1
  Ti  Ti181  1  0.18776726  0.19441063  -0.00328956  1
  Ti  Ti182  1  0.80086769  -0.00492079  -0.00923224  1
  Ti  Ti183  1  0.19101705  0.39861188  0.20210835  1
  Ti  Ti184  1  0.30287675  0.89890652  0.09406409  1
  Ti  Ti185  1  0.89462090  0.10706800  0.50574192  1
  Ti  Ti186  1  0.90538021  0.69203042  0.51059546  1
  Ti  Ti187  1  -0.00384981  0.80488013  0.00061130  1
  Ti  Ti188  1  0.08415183  0.89822035  0.09941451  1
  Ti  Ti189  1  0.69531484  0.29777124  0.89095934  1
  Ti  Ti190  1  0.00373579  0.00421765  0.81024100  1
  Ti  Ti191  1  0.30369547  0.89378065  0.30462999  1
  Ti  Ti192  1  0.71657428  0.89729482  0.29271993  1
  Ti  Ti193  1  0.49673133  0.70322318  0.50155215  1
  Ti  Ti194  1  -0.00768195  0.38886840  0.00330254  1
  Ti  Ti195  1  0.90177369  0.09865490  0.29498054  1
  Ti  Ti196  1  0.31129624  0.28952342  0.70873831  1
  Ti  Ti197  1  0.90089340  0.69946325  0.11081915  1
  Ti  Ti198  1  0.60886973  0.19635385  0.79512836  1
  Ti  Ti199  1  0.40245111  0.21845065  0.38466256  1
  Mo  Mo200  1  0.80252248  0.59811110  0.19900002  1
  Mo  Mo201  1  0.09998227  0.10205685  0.10070038  1
  Mo  Mo202  1  0.61391557  0.38966839  0.79223019  1
  Mo  Mo203  1  0.19149310  0.39374665  0.00359199  1
  Mo  Mo204  1  0.60186257  0.80026949  0.79972348  1
  Mo  Mo205  1  0.80578544  0.00618442  0.81409638  1
  Mo  Mo206  1  0.70610912  0.29683980  0.70177573  1
  Mo  Mo207  1  -0.00413438  0.60072240  0.19704934  1
  Mo  Mo208  1  0.90478779  0.29216233  0.89821627  1
  Mo  Mo209  1  -0.00826003  0.20253334  0.60186637  1
  Mo  Mo210  1  0.00613271  0.59719992  0.59794760  1
  Mo  Mo211  1  0.69635209  0.70336444  0.50132432  1
  Mo  Mo212  1  -0.00771994  0.80150837  0.19487307  1
  Mo  Mo213  1  0.80632828  -0.00323988  0.20109144  1
  Mo  Mo214  1  0.30045614  0.70458888  0.30016357  1
  Mo  Mo215  1  0.40136683  0.79932167  0.40306729  1
  Mo  Mo216  1  -0.00199566  -0.00632514  -0.00143482  1
  Mo  Mo217  1  -0.00681969  0.60131574  0.39890014  1
  Mo  Mo218  1  0.40303090  -0.00288998  0.79737733  1
  Mo  Mo219  1  0.00378651  0.38728847  0.80875999  1
  Mo  Mo220  1  0.40283186  0.19814352  0.80079093  1
  Mo  Mo221  1  0.40395432  0.20240728  0.61365779  1
  Mo  Mo222  1  0.51383673  0.90545488  0.89272634  1
  Mo  Mo223  1  0.81237624  0.00738565  0.59403062  1
  Mo  Mo224  1  0.70228936  0.29424146  0.09287255  1
  Mo  Mo225  1  0.00404777  0.19994645  -0.00593004  1
  Mo  Mo226  1  0.60601527  0.80230366  -0.00177865  1
  Mo  Mo227  1  0.09432386  0.50042105  0.49430609  1
  Mo  Mo228  1  0.90104371  0.30056397  0.08772435  1
  Mo  Mo229  1  0.79587946  0.59972653  0.60924163  1
  Mo  Mo230  1  0.60702415  0.40124386  0.60169849  1
  Mo  Mo231  1  0.19433918  -0.00393848  0.80241792  1
  Mo  Mo232  1  0.49443040  0.89567910  0.31018652  1
  Mo  Mo233  1  0.08939864  0.09987877  0.90489317  1
  Mo  Mo234  1  0.80224381  0.80309785  0.19964521  1
  Mo  Mo235  1  0.09660823  0.30103585  0.50195886  1
  Mo  Mo236  1  0.89996575  0.30389987  0.50770725  1
  Mo  Mo237  1  0.29110402  0.29398920  0.89897055  1
  Mo  Mo238  1  0.50299182  0.50859350  0.50217936  1
  Mo  Mo239  1  0.50710200  0.29430410  0.09147854  1
  Mo  Mo240  1  0.70133592  0.49259159  0.88905600  1
  Mo  Mo241  1  0.49805255  0.70610407  0.31291799  1
  Mo  Mo242  1  0.39462554  0.38510620  0.39915710  1
  Mo  Mo243  1  0.60491505  0.00056715  -0.00710440  1
  Mo  Mo244  1  0.59689619  0.00340466  0.80136230  1
  Mo  Mo245  1  0.20944217  0.20473273  0.60471791  1
  Mo  Mo246  1  0.38637940  0.39133118  0.79657438  1
  Mo  Mo247  1  0.79954287  0.20221639  0.40832910  1
  Mo  Mo248  1  0.19003887  0.59611021  0.40014722  1
  Mo  Mo249  1  0.50618003  0.30120801  0.30294634  1
