# generated using pymatgen
data_HfZrTaTiMo
_symmetry_space_group_name_H-M   'P 1'
_cell_length_a   16.89388346
_cell_length_b   16.88702889
_cell_length_c   16.88363829
_cell_angle_alpha   90.02728422
_cell_angle_beta   90.00330693
_cell_angle_gamma   90.02357189
_symmetry_Int_Tables_number   1
_chemical_formula_structural   HfZrTaTiMo
_chemical_formula_sum   'Hf50 Zr50 Ta50 Ti50 Mo50'
_cell_volume   4816.68996487
_cell_formula_units_Z   50
loop_
 _symmetry_equiv_pos_site_id
 _symmetry_equiv_pos_as_xyz
  1  'x, y, z'
loop_
 _atom_site_type_symbol
 _atom_site_label
 _atom_site_symmetry_multiplicity
 _atom_site_fract_x
 _atom_site_fract_y
 _atom_site_fract_z
 _atom_site_occupancy
  Hf  Hf0  1  0.00078441  0.60082107  0.20500166  1
  Hf  Hf1  1  0.68741418  0.29937696  0.68770556  1
  Hf  Hf2  1  0.49169824  0.89105998  0.69565781  1
  Hf  Hf3  1  0.91121701  0.50433506  0.89704273  1
  Hf  Hf4  1  0.90252150  0.09849223  0.30672981  1
  Hf  Hf5  1  0.90513097  0.68985315  0.70186207  1
  Hf  Hf6  1  0.70937122  0.90239158  0.89715212  1
  Hf  Hf7  1  0.70175159  0.09532740  0.90276287  1
  Hf  Hf8  1  0.69629798  0.69431362  0.69648350  1
  Hf  Hf9  1  0.80972769  0.20103463  0.00593386  1
  Hf  Hf10  1  0.28425831  0.09822901  0.70616730  1
  Hf  Hf11  1  0.70885385  0.89920738  0.31583133  1
  Hf  Hf12  1  0.80450891  0.19127804  0.79179494  1
  Hf  Hf13  1  0.20765271  0.40877786  0.00400375  1
  Hf  Hf14  1  0.29547106  0.10458170  0.30385462  1
  Hf  Hf15  1  0.90977562  0.10412223  0.10690490  1
  Hf  Hf16  1  0.90966926  0.30705590  0.90336148  1
  Hf  Hf17  1  0.59839087  0.40436273  0.80758301  1
  Hf  Hf18  1  0.01616772  -0.01166909  0.40269572  1
  Hf  Hf19  1  0.38773784  -0.00747120  0.00647154  1
  Hf  Hf20  1  0.80868104  0.79582899  -0.00025139  1
  Hf  Hf21  1  0.28904217  0.30878176  0.30974893  1
  Hf  Hf22  1  0.00704226  0.79278831  0.39637058  1
  Hf  Hf23  1  0.39996460  0.00943593  0.59091018  1
  Hf  Hf24  1  0.39856317  0.40520532  0.79677645  1
  Hf  Hf25  1  0.40296821  0.19742788  0.58824773  1
  Hf  Hf26  1  0.49902604  0.69933474  0.69914572  1
  Hf  Hf27  1  0.00723489  -0.00451526  0.20322990  1
  Hf  Hf28  1  0.80266922  0.20172911  0.59745864  1
  Hf  Hf29  1  0.20016660  0.40977763  0.60394541  1
  Hf  Hf30  1  0.90330931  0.08927011  0.89749828  1
  Hf  Hf31  1  0.40386719  0.60054674  0.40307885  1
  Hf  Hf32  1  0.91006857  0.50315660  0.49907320  1
  Hf  Hf33  1  0.69850115  0.89628734  0.70271051  1
  Hf  Hf34  1  0.39753503  0.79362293  -0.00231008  1
  Hf  Hf35  1  0.70010657  0.89248850  0.10217602  1
  Hf  Hf36  1  0.19271334  0.80159611  0.40312639  1
  Hf  Hf37  1  0.29850778  0.30392158  0.49359674  1
  Hf  Hf38  1  0.80455121  0.40032859  0.20217212  1
  Hf  Hf39  1  0.20072379  0.40972162  0.79888555  1
  Hf  Hf40  1  0.90409597  0.90033378  0.89255793  1
  Hf  Hf41  1  0.69694587  0.29469781  0.90631781  1
  Hf  Hf42  1  0.10292091  0.30012237  0.90289114  1
  Hf  Hf43  1  0.59266393  0.00338699  0.59063387  1
  Hf  Hf44  1  0.30004671  0.89634592  0.69996431  1
  Hf  Hf45  1  0.59208898  0.59162967  0.40344143  1
  Hf  Hf46  1  0.69237673  0.29957946  0.10278577  1
  Hf  Hf47  1  0.59713566  0.19694787  0.39984608  1
  Hf  Hf48  1  0.00210121  0.21160248  0.39634873  1
  Hf  Hf49  1  0.91032829  0.30197863  0.69673157  1
  Zr  Zr50  1  0.10569332  0.10229841  0.10519090  1
  Zr  Zr51  1  0.79676122  0.40934276  0.79575377  1
  Zr  Zr52  1  0.79724783  0.40634095  0.00156991  1
  Zr  Zr53  1  0.20121472  -0.00470179  0.39814614  1
  Zr  Zr54  1  0.79903193  0.00090215  0.20317443  1
  Zr  Zr55  1  0.29941330  0.09913819  0.10530652  1
  Zr  Zr56  1  0.49026261  0.10745203  0.91624853  1
  Zr  Zr57  1  0.59657193  0.00246929  0.21317328  1
  Zr  Zr58  1  0.00876087  0.80276185  0.59363147  1
  Zr  Zr59  1  0.30114762  0.30006055  0.69473298  1
  Zr  Zr60  1  0.39474374  0.60376387  0.00221263  1
  Zr  Zr61  1  0.80158437  0.00379389  0.61330367  1
  Zr  Zr62  1  0.09850998  0.90131510  0.89250678  1
  Zr  Zr63  1  0.01345426  0.40298513  0.60032948  1
  Zr  Zr64  1  0.59129042  0.00459180  0.79620796  1
  Zr  Zr65  1  0.70686953  0.09811224  0.49224918  1
  Zr  Zr66  1  0.30044082  0.89610138  0.50445914  1
  Zr  Zr67  1  0.59825086  0.78628666  0.81386751  1
  Zr  Zr68  1  0.39662997  0.59518796  0.59666751  1
  Zr  Zr69  1  0.28783861  0.69663445  0.10949397  1
  Zr  Zr70  1  0.49479585  0.49567057  0.09657634  1
  Zr  Zr71  1  0.49568729  0.70966346  0.30125250  1
  Zr  Zr72  1  0.91090099  0.10059085  0.50408279  1
  Zr  Zr73  1  0.89321262  0.90475009  0.49750300  1
  Zr  Zr74  1  0.89706967  0.68804908  0.10175523  1
  Zr  Zr75  1  0.59164686  0.20385959  0.80521731  1
  Zr  Zr76  1  0.48839055  0.89431794  0.11777014  1
  Zr  Zr77  1  0.29200000  0.49872561  0.49470062  1
  Zr  Zr78  1  0.00607362  0.19454983  0.79230061  1
  Zr  Zr79  1  0.40354511  0.20110122  0.79801588  1
  Zr  Zr80  1  0.69570715  0.31009680  0.30762787  1
  Zr  Zr81  1  0.50200046  0.49667878  0.69011402  1
  Zr  Zr82  1  0.39953447  0.21137667  0.20196891  1
  Zr  Zr83  1  0.78886563  0.59176700  0.59451032  1
  Zr  Zr84  1  0.09526993  0.30694246  0.10444425  1
  Zr  Zr85  1  0.79776571  0.40204929  0.59405045  1
  Zr  Zr86  1  0.39853090  0.59431494  0.20515235  1
  Zr  Zr87  1  0.00346117  0.40171420  0.39651498  1
  Zr  Zr88  1  0.59109946  -0.01012041  0.00252204  1
  Zr  Zr89  1  0.30101494  0.29551688  0.90373609  1
  Zr  Zr90  1  0.69893061  0.69754472  0.10607378  1
  Zr  Zr91  1  0.90320194  0.69152952  0.50277413  1
  Zr  Zr92  1  0.20013500  0.79882836  -0.00279069  1
  Zr  Zr93  1  0.70248427  0.69584890  0.30340496  1
  Zr  Zr94  1  0.48497025  0.89144425  0.88923004  1
  Zr  Zr95  1  0.00189605  0.79211665  0.20247805  1
  Zr  Zr96  1  0.59960761  0.60604884  -0.00423297  1
  Zr  Zr97  1  0.69352859  0.10407418  0.09629606  1
  Zr  Zr98  1  0.10415786  0.90840829  0.69864217  1
  Zr  Zr99  1  0.59069389  0.00017848  0.39929261  1
  Ta  Ta100  1  0.40772113  0.40872421  0.39504276  1
  Ta  Ta101  1  0.91379743  0.30329520  0.10759467  1
  Ta  Ta102  1  0.19334514  0.19873885  0.59784032  1
  Ta  Ta103  1  0.50192035  0.30605910  0.68088757  1
  Ta  Ta104  1  0.49574456  0.10358885  0.10659078  1
  Ta  Ta105  1  0.29553269  0.90008154  0.88429272  1
  Ta  Ta106  1  0.59615194  0.20082279  0.20684869  1
  Ta  Ta107  1  0.59859271  0.59360311  0.20629964  1
  Ta  Ta108  1  0.29077596  0.09869819  0.90010008  1
  Ta  Ta109  1  0.49931213  0.30700722  0.30204668  1
  Ta  Ta110  1  0.79821640  0.79849061  0.60139021  1
  Ta  Ta111  1  0.10546515  0.89469145  0.10106077  1
  Ta  Ta112  1  0.00406902  0.79350302  -0.00085233  1
  Ta  Ta113  1  0.00796659  0.59944042  -0.00287157  1
  Ta  Ta114  1  0.29289280  0.70273198  0.30092775  1
  Ta  Ta115  1  0.11046258  0.09741384  0.89601007  1
  Ta  Ta116  1  0.59212841  0.40472237  0.20221302  1
  Ta  Ta117  1  0.19699486  0.79189629  0.79167883  1
  Ta  Ta118  1  0.29796133  0.51094959  0.90013324  1
  Ta  Ta119  1  0.10255100  0.68999464  0.89192326  1
  Ta  Ta120  1  0.89834317  0.89664593  0.30546516  1
  Ta  Ta121  1  0.10437796  0.51766443  0.70341257  1
  Ta  Ta122  1  0.80215418  0.20479641  0.20971233  1
  Ta  Ta123  1  0.49197017  0.49922293  0.90368122  1
  Ta  Ta124  1  0.28867897  0.50322439  0.30111534  1
  Ta  Ta125  1  0.80333441  0.20930150  0.39824210  1
  Ta  Ta126  1  0.49355142  0.89217853  0.49798720  1
  Ta  Ta127  1  0.10564087  0.49870733  0.29829441  1
  Ta  Ta128  1  0.00545664  0.19585748  -0.00043111  1
  Ta  Ta129  1  0.01342511  0.40888204  0.79880197  1
  Ta  Ta130  1  0.90658479  0.69392567  0.89432390  1
  Ta  Ta131  1  0.89986994  0.50291942  0.29720675  1
  Ta  Ta132  1  0.10541393  0.11349581  0.29830667  1
  Ta  Ta133  1  0.59874221  0.59518417  0.80944066  1
  Ta  Ta134  1  0.29033196  0.69517639  0.49661505  1
  Ta  Ta135  1  0.90246304  0.90197889  0.70545722  1
  Ta  Ta136  1  0.39327920  0.40018326  0.19628543  1
  Ta  Ta137  1  0.79809437  0.59173081  0.39756133  1
  Ta  Ta138  1  0.80536471  0.79393340  0.79633629  1
  Ta  Ta139  1  0.80716111  0.79459838  0.20836288  1
  Ta  Ta140  1  0.91188362  0.49456290  0.09981198  1
  Ta  Ta141  1  0.09909054  0.10552675  0.50076421  1
  Ta  Ta142  1  0.29584234  0.69803706  0.88864764  1
  Ta  Ta143  1  0.20093374  -0.00677318  0.00052093  1
  Ta  Ta144  1  0.50951402  0.30928564  0.49819251  1
  Ta  Ta145  1  0.59795567  0.40408026  0.00259142  1
  Ta  Ta146  1  0.80197534  0.59297486  -0.00360593  1
  Ta  Ta147  1  0.00767549  -0.00367882  0.00408804  1
  Ta  Ta148  1  0.60009904  0.80350111  0.21283755  1
  Ta  Ta149  1  0.10155469  0.50476618  0.10097665  1
  Ti  Ti150  1  0.68839815  0.48128711  0.49139192  1
  Ti  Ti151  1  0.39883245  0.60104730  0.79885071  1
  Ti  Ti152  1  0.20280676  0.21171493  0.19669578  1
  Ti  Ti153  1  0.10666627  0.51919632  0.49644812  1
  Ti  Ti154  1  0.29108715  0.10770627  0.49110690  1
  Ti  Ti155  1  0.11044277  0.89199855  0.28713552  1
  Ti  Ti156  1  0.19160584  0.00447444  0.59191757  1
  Ti  Ti157  1  0.70038480  0.49875898  0.30017614  1
  Ti  Ti158  1  0.59373908  0.80005151  0.40660100  1
  Ti  Ti159  1  0.90728886  0.89597915  0.10253718  1
  Ti  Ti160  1  0.20574697  0.40687998  0.19415918  1
  Ti  Ti161  1  0.39653961  0.78687391  0.59277157  1
  Ti  Ti162  1  0.00358321  0.00851709  0.78788597  1
  Ti  Ti163  1  0.39642942  0.21293772  0.01550433  1
  Ti  Ti164  1  0.49467737  0.30757786  0.91966448  1
  Ti  Ti165  1  0.40635724  0.20148795  0.40260369  1
  Ti  Ti166  1  0.59243097  0.79224320  -0.00210328  1
  Ti  Ti167  1  0.39501818  0.80244434  0.39898862  1
  Ti  Ti168  1  0.90569020  0.30119517  0.50300648  1
  Ti  Ti169  1  0.80590918  0.39783981  0.40149659  1
  Ti  Ti170  1  0.70216031  0.50563218  0.10674111  1
  Ti  Ti171  1  0.59913467  0.79670954  0.58763044  1
  Ti  Ti172  1  0.19410522  0.79084953  0.59593805  1
  Ti  Ti173  1  0.29494045  0.89222233  0.12014001  1
  Ti  Ti174  1  0.10594537  0.29368747  0.70079977  1
  Ti  Ti175  1  0.00405087  0.60607003  0.39411470  1
  Ti  Ti176  1  0.20408954  -0.00488251  0.20368403  1
  Ti  Ti177  1  0.48676524  0.09853530  0.29745672  1
  Ti  Ti178  1  0.50019614  0.70543101  0.11165149  1
  Ti  Ti179  1  0.59353353  0.59888673  0.58377579  1
  Ti  Ti180  1  0.79304155  0.59396315  0.80230100  1
  Ti  Ti181  1  0.91358705  0.50876862  0.70025195  1
  Ti  Ti182  1  0.69852044  0.70178963  0.49708360  1
  Ti  Ti183  1  0.11597591  0.68844707  0.29688861  1
  Ti  Ti184  1  0.40009252  -0.00470641  0.39566408  1
  Ti  Ti185  1  0.11058563  0.29917303  0.49561165  1
  Ti  Ti186  1  0.10569340  0.69528799  0.09904735  1
  Ti  Ti187  1  0.80836232  -0.00340980  0.00806405  1
  Ti  Ti188  1  0.68781877  0.50122382  0.69517408  1
  Ti  Ti189  1  0.29214410  0.69194604  0.69741234  1
  Ti  Ti190  1  0.10017951  0.69016502  0.69622238  1
  Ti  Ti191  1  0.50525033  0.11115931  0.68960059  1
  Ti  Ti192  1  0.20271901  0.20066383  0.00520154  1
  Ti  Ti193  1  0.80827226  0.78828457  0.40190124  1
  Ti  Ti194  1  0.10235558  0.30632891  0.29395023  1
  Ti  Ti195  1  0.39885740  0.00849473  0.79661539  1
  Ti  Ti196  1  0.71152966  0.69534434  0.89991626  1
  Ti  Ti197  1  0.00364145  0.79283157  0.79741663  1
  Ti  Ti198  1  0.69084492  0.10406684  0.69809251  1
  Ti  Ti199  1  0.70424073  0.89615308  0.49803180  1
  Mo  Mo200  1  0.70236772  0.30216027  0.49557104  1
  Mo  Mo201  1  0.89453317  0.69366333  0.30556091  1
  Mo  Mo202  1  0.29868195  0.30457568  0.10355845  1
  Mo  Mo203  1  0.01018113  0.20525185  0.59522617  1
  Mo  Mo204  1  0.10376235  0.50487530  0.90193751  1
  Mo  Mo205  1  0.10198757  0.90333409  0.50694232  1
  Mo  Mo206  1  0.00050482  0.20733638  0.20744721  1
  Mo  Mo207  1  0.00714606  0.60056916  0.80047156  1
  Mo  Mo208  1  0.19771388  0.60310557  0.39722643  1
  Mo  Mo209  1  0.30474321  0.89723995  0.29480550  1
  Mo  Mo210  1  0.39355793  -0.00223321  0.20973567  1
  Mo  Mo211  1  0.19790479  0.79683763  0.20337654  1
  Mo  Mo212  1  0.20141215  -0.00064113  0.80299839  1
  Mo  Mo213  1  0.91100304  0.09486259  0.69727991  1
  Mo  Mo214  1  0.19175496  0.20471167  0.40211287  1
  Mo  Mo215  1  0.39302097  0.80017984  0.20871049  1
  Mo  Mo216  1  0.59702936  0.40252597  0.39615159  1
  Mo  Mo217  1  0.20391004  0.60216982  0.79662926  1
  Mo  Mo218  1  0.19511340  0.59868141  -0.00490880  1
  Mo  Mo219  1  0.10128272  0.10126420  0.69243925  1
  Mo  Mo220  1  0.59784394  0.20090313  0.59117676  1
  Mo  Mo221  1  0.38727178  0.78782842  0.79244532  1
  Mo  Mo222  1  0.50083933  0.30240446  0.10412508  1
  Mo  Mo223  1  0.00948805  0.60046400  0.60021086  1
  Mo  Mo224  1  0.19212198  0.40496716  0.39787903  1
  Mo  Mo225  1  0.00315155  0.40598520  0.20208807  1
  Mo  Mo226  1  0.49990693  0.49057645  0.49866560  1
  Mo  Mo227  1  0.49207035  0.89724598  0.31089456  1
  Mo  Mo228  1  0.48806607  0.69093265  0.89278364  1
  Mo  Mo229  1  0.19612135  0.59546216  0.20073751  1
  Mo  Mo230  1  0.00512573  0.00642239  0.60464893  1
  Mo  Mo231  1  0.70848344  0.10923668  0.30051745  1
  Mo  Mo232  1  0.58686199  0.20905795  0.01236744  1
  Mo  Mo233  1  0.89841900  0.30482779  0.29830948  1
  Mo  Mo234  1  0.60188151  0.40180165  0.59072507  1
  Mo  Mo235  1  0.00655580  0.40501968  0.00072667  1
  Mo  Mo236  1  0.29455176  0.49843147  0.10271321  1
  Mo  Mo237  1  0.10435251  0.69100216  0.50045041  1
  Mo  Mo238  1  0.40196196  0.39798271  0.59037257  1
  Mo  Mo239  1  0.49753086  0.49565259  0.29710593  1
  Mo  Mo240  1  0.79816990  0.58866022  0.20254740  1
  Mo  Mo241  1  0.49062456  0.10283790  0.49084757  1
  Mo  Mo242  1  0.29771725  0.50816046  0.70405199  1
  Mo  Mo243  1  0.49701662  0.71022494  0.50028835  1
  Mo  Mo244  1  0.20022342  0.60646541  0.60007738  1
  Mo  Mo245  1  0.39801095  0.40204188  0.00021840  1
  Mo  Mo246  1  0.19553450  0.19666379  0.79772721  1
  Mo  Mo247  1  0.80389214  -0.00280295  0.79524931  1
  Mo  Mo248  1  0.80193025  -0.00014730  0.39902918  1
  Mo  Mo249  1  0.69578629  0.50423510  0.90305141  1
