# generated using pymatgen
data_HfZrTaTiMo
_symmetry_space_group_name_H-M   'P 1'
_cell_length_a   16.89368396
_cell_length_b   16.89079485
_cell_length_c   16.89088971
_cell_angle_alpha   89.92206613
_cell_angle_beta   89.98411894
_cell_angle_gamma   90.02365702
_symmetry_Int_Tables_number   1
_chemical_formula_structural   HfZrTaTiMo
_chemical_formula_sum   'Hf50 Zr50 Ta50 Ti50 Mo50'
_cell_volume   4819.77231798
_cell_formula_units_Z   50
loop_
 _symmetry_equiv_pos_site_id
 _symmetry_equiv_pos_as_xyz
  1  'x, y, z'
loop_
 _atom_site_type_symbol
 _atom_site_label
 _atom_site_symmetry_multiplicity
 _atom_site_fract_x
 _atom_site_fract_y
 _atom_site_fract_z
 _atom_site_occupancy
  Hf  Hf0  1  0.69691700  0.49637763  0.89775915  1
  Hf  Hf1  1  0.40029419  0.80586290  0.40562809  1
  Hf  Hf2  1  0.90070440  0.89915177  0.09656445  1
  Hf  Hf3  1  0.40764596  0.60232564  0.00686388  1
  Hf  Hf4  1  -0.00707895  0.59760459  0.59683920  1
  Hf  Hf5  1  0.09106151  0.29289697  0.90729427  1
  Hf  Hf6  1  0.69555183  0.29639371  0.29954985  1
  Hf  Hf7  1  0.89307590  0.49391759  0.68638097  1
  Hf  Hf8  1  0.79773288  0.79551881  0.40173758  1
  Hf  Hf9  1  0.70208580  0.70659315  0.10778781  1
  Hf  Hf10  1  0.80100575  0.00696201  0.80084970  1
  Hf  Hf11  1  0.80064606  0.59582169  0.00678397  1
  Hf  Hf12  1  0.09703919  0.50447866  0.30298372  1
  Hf  Hf13  1  0.90429719  0.89247593  0.90074810  1
  Hf  Hf14  1  0.50284814  0.30725572  0.68708652  1
  Hf  Hf15  1  0.00876673  0.01056396  0.79797936  1
  Hf  Hf16  1  0.51203641  0.70376356  0.10917086  1
  Hf  Hf17  1  0.10548626  0.49383691  0.70051758  1
  Hf  Hf18  1  0.29655259  0.50156293  0.10967528  1
  Hf  Hf19  1  0.70085373  0.30398809  0.68922022  1
  Hf  Hf20  1  0.79672472  0.00592188  0.59462888  1
  Hf  Hf21  1  0.50451796  0.50039297  0.89929392  1
  Hf  Hf22  1  0.29773455  0.49778823  0.90697537  1
  Hf  Hf23  1  -0.00939716  0.40399937  0.19437203  1
  Hf  Hf24  1  0.49534339  0.09269074  0.89757363  1
  Hf  Hf25  1  0.90226311  0.90178117  0.50049748  1
  Hf  Hf26  1  0.29949299  0.30335338  0.68908040  1
  Hf  Hf27  1  0.19945523  0.59559606  0.59324811  1
  Hf  Hf28  1  0.50274344  0.69868422  0.70158066  1
  Hf  Hf29  1  -0.00372713  0.39462319  0.80240691  1
  Hf  Hf30  1  0.79749452  0.41106999  0.19186869  1
  Hf  Hf31  1  0.40355995  0.19441529  0.21199116  1
  Hf  Hf32  1  0.19285189  0.19498378  0.40211134  1
  Hf  Hf33  1  0.09392399  0.70655165  0.50063950  1
  Hf  Hf34  1  0.30098548  0.09538994  0.49729796  1
  Hf  Hf35  1  0.80241248  0.39243979  0.80374399  1
  Hf  Hf36  1  -0.00414657  0.60395146  -0.00178378  1
  Hf  Hf37  1  0.79772242  0.59041753  0.40929099  1
  Hf  Hf38  1  0.01640474  0.40338054  0.57363623  1
  Hf  Hf39  1  0.39718570  0.40200504  0.39469124  1
  Hf  Hf40  1  -0.01296319  0.59956520  0.19471894  1
  Hf  Hf41  1  0.50255558  0.29720037  0.10462158  1
  Hf  Hf42  1  0.30287703  0.49567255  0.69644669  1
  Hf  Hf43  1  0.59821252  0.80216404  0.60009080  1
  Hf  Hf44  1  0.69618198  0.90366438  0.30638901  1
  Hf  Hf45  1  0.89822618  0.30783251  0.07586132  1
  Hf  Hf46  1  -0.00685651  0.60002328  0.80633478  1
  Hf  Hf47  1  0.40047984  0.39644304  0.80289942  1
  Hf  Hf48  1  0.20368743  0.80246415  0.79899484  1
  Hf  Hf49  1  0.09806701  0.70834272  0.69141971  1
  Zr  Zr50  1  -0.00455367  0.80499450  0.38786487  1
  Zr  Zr51  1  0.40618189  0.59458778  0.20281847  1
  Zr  Zr52  1  0.29247923  0.69836388  0.29429094  1
  Zr  Zr53  1  0.50887621  0.10509166  0.09643722  1
  Zr  Zr54  1  0.90416556  0.10331541  0.30636109  1
  Zr  Zr55  1  0.89506958  0.11665262  0.69815783  1
  Zr  Zr56  1  0.19622349  0.60272117  0.80380450  1
  Zr  Zr57  1  0.00909357  0.00226606  -0.00080041  1
  Zr  Zr58  1  0.80927327  0.59743221  0.80015527  1
  Zr  Zr59  1  0.50298038  0.69375840  0.50012546  1
  Zr  Zr60  1  0.50086552  0.30200515  0.90693295  1
  Zr  Zr61  1  0.10227629  0.69771744  0.29230800  1
  Zr  Zr62  1  -0.00185446  0.20179716  0.19955139  1
  Zr  Zr63  1  0.09612177  0.89989542  0.50810668  1
  Zr  Zr64  1  0.49735538  0.29644495  0.49572349  1
  Zr  Zr65  1  0.39871081  0.80592358  0.19798159  1
  Zr  Zr66  1  0.59672090  0.20243753  0.79444749  1
  Zr  Zr67  1  0.50788660  0.49817094  0.69720204  1
  Zr  Zr68  1  0.80902770  0.79783911  0.21445839  1
  Zr  Zr69  1  0.09788085  0.89653529  0.69337661  1
  Zr  Zr70  1  0.20333718  0.00887095  0.79557831  1
  Zr  Zr71  1  0.90562009  0.12628702  0.90252445  1
  Zr  Zr72  1  0.20128732  0.80948576  0.40159370  1
  Zr  Zr73  1  0.59224302  0.41045157  0.20045226  1
  Zr  Zr74  1  0.10507212  0.50196308  0.10220077  1
  Zr  Zr75  1  0.30094248  0.70250586  0.90194576  1
  Zr  Zr76  1  0.39452217  0.59674922  0.40271582  1
  Zr  Zr77  1  0.90526830  0.89547929  0.69613885  1
  Zr  Zr78  1  0.39290526  0.18967602  0.79118931  1
  Zr  Zr79  1  0.10416238  0.29904806  0.69234646  1
  Zr  Zr80  1  0.52179223  0.90014081  0.11360206  1
  Zr  Zr81  1  0.90086355  0.30073191  0.48925259  1
  Zr  Zr82  1  0.78913971  0.00424849  -0.00593883  1
  Zr  Zr83  1  0.60176226  0.40731906  0.40092358  1
  Zr  Zr84  1  0.89585734  0.29663128  0.68588554  1
  Zr  Zr85  1  0.20299679  0.18934702  -0.00109745  1
  Zr  Zr86  1  0.40301546  -0.00004010  0.39936112  1
  Zr  Zr87  1  0.20454343  0.38932959  0.00743865  1
  Zr  Zr88  1  0.89760933  0.10524577  0.09616241  1
  Zr  Zr89  1  0.39878946  0.80089437  0.00275240  1
  Zr  Zr90  1  0.60566165  0.02421682  0.21715399  1
  Zr  Zr91  1  0.29883434  0.09177005  0.10931311  1
  Zr  Zr92  1  0.08762381  0.30282644  0.30874950  1
  Zr  Zr93  1  0.69980734  0.89257293  0.70287522  1
  Zr  Zr94  1  0.18895912  0.40164854  0.41733289  1
  Zr  Zr95  1  0.60326991  -0.00458973  0.80162084  1
  Zr  Zr96  1  0.70324897  0.89979992  0.10515421  1
  Zr  Zr97  1  0.60031388  0.80400189  -0.01520014  1
  Zr  Zr98  1  0.29165916  0.90577914  0.29010925  1
  Zr  Zr99  1  0.39924026  -0.01171932  0.00823400  1
  Ta  Ta100  1  0.90230058  0.70928518  0.09690533  1
  Ta  Ta101  1  0.69895915  0.69477551  0.50227787  1
  Ta  Ta102  1  0.80013936  0.01019592  0.20722325  1
  Ta  Ta103  1  0.20086791  0.19311218  0.79674570  1
  Ta  Ta104  1  0.60234627  0.40890850  0.01039578  1
  Ta  Ta105  1  0.19781671  -0.00533083  -0.00074242  1
  Ta  Ta106  1  0.20143216  0.39119432  0.80658786  1
  Ta  Ta107  1  0.29838578  0.70691618  0.50757812  1
  Ta  Ta108  1  0.20073943  0.59809568  0.40717999  1
  Ta  Ta109  1  0.30093204  0.29759137  0.50273063  1
  Ta  Ta110  1  0.79236395  0.19532230  0.40187580  1
  Ta  Ta111  1  0.30222861  0.29462208  0.90235855  1
  Ta  Ta112  1  0.19818075  0.80973657  0.00772436  1
  Ta  Ta113  1  0.40959265  0.00243885  0.20959005  1
  Ta  Ta114  1  0.09944066  0.49329641  0.90626081  1
  Ta  Ta115  1  0.79392661  0.20143996  0.20025919  1
  Ta  Ta116  1  0.59978102  0.19300647  0.59039207  1
  Ta  Ta117  1  0.30636243  0.70330207  0.69343668  1
  Ta  Ta118  1  0.89168029  0.30354764  0.30674485  1
  Ta  Ta119  1  0.30118378  0.90301187  0.89641005  1
  Ta  Ta120  1  0.79843517  0.78994932  0.59979078  1
  Ta  Ta121  1  0.49888620  0.08997893  0.69012449  1
  Ta  Ta122  1  0.69728288  0.90041234  0.49773650  1
  Ta  Ta123  1  0.69802143  0.69934411  0.89193633  1
  Ta  Ta124  1  0.70092316  0.69353365  0.69887329  1
  Ta  Ta125  1  0.00508161  -0.00283495  0.20525072  1
  Ta  Ta126  1  0.60287441  0.59821839  0.00702732  1
  Ta  Ta127  1  0.50235252  0.49709131  0.50910649  1
  Ta  Ta128  1  0.10022836  0.89423493  0.90064773  1
  Ta  Ta129  1  0.79479890  0.01042300  0.40493925  1
  Ta  Ta130  1  0.69662661  0.29911877  0.09847342  1
  Ta  Ta131  1  0.18428891  0.00314552  0.39595570  1
  Ta  Ta132  1  0.40130840  0.80462132  0.79425022  1
  Ta  Ta133  1  0.69676292  0.30516710  0.90223232  1
  Ta  Ta134  1  0.40013222  0.81155296  0.59799356  1
  Ta  Ta135  1  0.00392552  0.80833968  0.19692101  1
  Ta  Ta136  1  0.60866282  0.59768314  0.20550957  1
  Ta  Ta137  1  0.69674354  0.30038923  0.49511566  1
  Ta  Ta138  1  0.29967203  0.29624439  0.30595766  1
  Ta  Ta139  1  0.19723232  0.19743498  0.20715982  1
  Ta  Ta140  1  0.40043911  0.39878184  0.20827735  1
  Ta  Ta141  1  0.90189195  0.47679969  0.92269143  1
  Ta  Ta142  1  0.51186985  0.90041009  0.30680862  1
  Ta  Ta143  1  0.10025467  0.09927807  0.10349148  1
  Ta  Ta144  1  0.00046137  0.01850032  0.59368724  1
  Ta  Ta145  1  0.19941409  0.19096043  0.59854007  1
  Ta  Ta146  1  0.40063226  0.19075575  0.59573082  1
  Ta  Ta147  1  0.69857430  0.10805119  0.69578871  1
  Ta  Ta148  1  0.89708192  0.69548698  0.50292074  1
  Ta  Ta149  1  -0.00458369  0.78724170  0.80443546  1
  Ti  Ti150  1  0.79324277  0.41518981  0.57383132  1
  Ti  Ti151  1  0.70479759  0.88673681  0.88869958  1
  Ti  Ti152  1  0.30590200  0.29590622  0.10861283  1
  Ti  Ti153  1  0.39630834  0.19842566  0.00225249  1
  Ti  Ti154  1  0.90194924  0.68985133  0.30585908  1
  Ti  Ti155  1  0.90009523  0.91352120  0.30327603  1
  Ti  Ti156  1  0.30637105  0.09206375  0.89860057  1
  Ti  Ti157  1  0.49511122  0.89984693  0.88699676  1
  Ti  Ti158  1  0.51026295  0.90646148  0.49532819  1
  Ti  Ti159  1  0.50461913  0.10138409  0.49002132  1
  Ti  Ti160  1  0.69772322  0.49394073  0.69370164  1
  Ti  Ti161  1  0.70048304  0.11255977  0.89243861  1
  Ti  Ti162  1  0.51194991  0.70114452  0.30284365  1
  Ti  Ti163  1  0.19603507  0.60738376  0.00330770  1
  Ti  Ti164  1  0.80244630  0.79180325  -0.00916950  1
  Ti  Ti165  1  0.00492829  0.18552956  0.41006359  1
  Ti  Ti166  1  0.40389558  0.40197259  0.01228929  1
  Ti  Ti167  1  0.50664655  0.70039788  0.89132139  1
  Ti  Ti168  1  0.40111627  -0.00330813  0.59693359  1
  Ti  Ti169  1  0.50395233  0.50931923  0.30819248  1
  Ti  Ti170  1  0.28640802  0.70180183  0.10846575  1
  Ti  Ti171  1  0.69922410  0.11003895  0.10193718  1
  Ti  Ti172  1  0.01097866  0.19403716  0.58807760  1
  Ti  Ti173  1  0.39849217  0.60246303  0.80061324  1
  Ti  Ti174  1  0.60274481  0.00486484  0.59418151  1
  Ti  Ti175  1  0.60865172  -0.00119978  -0.00835064  1
  Ti  Ti176  1  0.90007864  0.49344988  0.31379308  1
  Ti  Ti177  1  0.10016837  0.70835422  0.10164077  1
  Ti  Ti178  1  0.61110114  0.59208520  0.59489552  1
  Ti  Ti179  1  0.09709418  0.29413105  0.09914043  1
  Ti  Ti180  1  0.60499808  0.20220793  -0.00112921  1
  Ti  Ti181  1  0.49819155  0.90405980  0.70254474  1
  Ti  Ti182  1  0.60485511  0.79216310  0.40119816  1
  Ti  Ti183  1  0.20136649  0.38626250  0.20476754  1
  Ti  Ti184  1  0.39849278  0.60047641  0.59829050  1
  Ti  Ti185  1  0.18729665  -0.00368236  0.19894183  1
  Ti  Ti186  1  0.80885924  0.78602891  0.79627848  1
  Ti  Ti187  1  0.19897745  0.00535023  0.60048300  1
  Ti  Ti188  1  0.28750623  0.49814719  0.29582852  1
  Ti  Ti189  1  0.80044689  0.59773019  0.20157526  1
  Ti  Ti190  1  0.70191472  0.50402696  0.30471660  1
  Ti  Ti191  1  0.29725122  0.09892899  0.30286034  1
  Ti  Ti192  1  0.30287788  0.49109274  0.50968026  1
  Ti  Ti193  1  0.01164579  0.19755315  0.79455666  1
  Ti  Ti194  1  0.60611675  0.59990483  0.79816614  1
  Ti  Ti195  1  0.09690270  0.70860143  0.90923781  1
  Ti  Ti196  1  0.30537276  0.90483525  0.69650943  1
  Ti  Ti197  1  0.78986016  0.20792247  -0.00574163  1
  Ti  Ti198  1  0.79286463  0.19209054  0.58178210  1
  Ti  Ti199  1  0.50300936  0.28577335  0.30753011  1
  Mo  Mo200  1  0.69823869  0.50632384  0.10327017  1
  Mo  Mo201  1  0.10168325  0.28447621  0.49935980  1
  Mo  Mo202  1  0.89968864  0.49978077  0.49170447  1
  Mo  Mo203  1  0.70325773  0.10653477  0.30793551  1
  Mo  Mo204  1  0.19168960  0.80613177  0.18814519  1
  Mo  Mo205  1  -0.00636207  0.40593101  0.39702578  1
  Mo  Mo206  1  0.79652329  0.39871468  0.39520252  1
  Mo  Mo207  1  0.30430531  0.09643899  0.68868508  1
  Mo  Mo208  1  0.09504817  0.90472092  0.29472249  1
  Mo  Mo209  1  0.39575756  0.19878398  0.40080352  1
  Mo  Mo210  1  0.89523112  0.70388281  0.90357515  1
  Mo  Mo211  1  0.50284828  0.10621156  0.31251802  1
  Mo  Mo212  1  0.89606269  0.50460055  0.09815281  1
  Mo  Mo213  1  -0.00160555  0.00232630  0.39974494  1
  Mo  Mo214  1  0.89534268  0.69710974  0.69838690  1
  Mo  Mo215  1  0.69483701  0.50097851  0.50045767  1
  Mo  Mo216  1  0.40034010  0.40069027  0.59184863  1
  Mo  Mo217  1  0.09962303  0.09609247  0.29741230  1
  Mo  Mo218  1  -0.00592577  0.59944654  0.40078918  1
  Mo  Mo219  1  0.60722032  0.39938539  0.59524736  1
  Mo  Mo220  1  0.20312437  0.39643623  0.59585678  1
  Mo  Mo221  1  0.40072362  -0.00824780  0.79131460  1
  Mo  Mo222  1  0.10676208  0.10067282  0.89873635  1
  Mo  Mo223  1  0.59429603  0.79266456  0.79758800  1
  Mo  Mo224  1  0.69894547  0.69124982  0.30522391  1
  Mo  Mo225  1  0.50123028  0.50062178  0.10330544  1
  Mo  Mo226  1  0.10370773  0.10435574  0.69496852  1
  Mo  Mo227  1  -0.01881986  0.79144714  0.60434695  1
  Mo  Mo228  1  0.09562525  0.51572592  0.49187659  1
  Mo  Mo229  1  0.09887556  0.90140008  0.10025823  1
  Mo  Mo230  1  0.60042546  0.19291916  0.40049787  1
  Mo  Mo231  1  0.28817204  0.90274486  0.10047846  1
  Mo  Mo232  1  0.00532560  0.79642940  0.00043210  1
  Mo  Mo233  1  0.79266317  0.59852167  0.59920920  1
  Mo  Mo234  1  0.60538745  0.78916638  0.22239091  1
  Mo  Mo235  1  0.60519981  0.40319241  0.79778309  1
  Mo  Mo236  1  0.78710119  0.39899612  0.00112398  1
  Mo  Mo237  1  0.19768298  0.60594530  0.19910903  1
  Mo  Mo238  1  0.29830672  0.90420283  0.51008992  1
  Mo  Mo239  1  0.60347155  0.20481750  0.20267075  1
  Mo  Mo240  1  0.21740774  0.80467923  0.60137156  1
  Mo  Mo241  1  0.01006188  0.19934840  0.00423698  1
  Mo  Mo242  1  0.89602073  0.29801682  0.90022721  1
  Mo  Mo243  1  0.00774070  0.39918328  0.00295459  1
  Mo  Mo244  1  0.90037630  0.10252898  0.49735944  1
  Mo  Mo245  1  0.60158855  0.00277074  0.41057564  1
  Mo  Mo246  1  0.10065265  0.09428897  0.49924056  1
  Mo  Mo247  1  0.60265411  0.59793599  0.39883935  1
  Mo  Mo248  1  0.78889888  0.20580067  0.80370368  1
  Mo  Mo249  1  0.69540229  0.10042846  0.50004594  1
