# generated using pymatgen
data_HfZrTaTiMo
_symmetry_space_group_name_H-M   'P 1'
_cell_length_a   16.88398378
_cell_length_b   16.87578502
_cell_length_c   16.87826807
_cell_angle_alpha   90.03009686
_cell_angle_beta   89.96794369
_cell_angle_gamma   90.02452898
_symmetry_Int_Tables_number   1
_chemical_formula_structural   HfZrTaTiMo
_chemical_formula_sum   'Hf50 Zr50 Ta50 Ti50 Mo50'
_cell_volume   4809.13117634
_cell_formula_units_Z   50
loop_
 _symmetry_equiv_pos_site_id
 _symmetry_equiv_pos_as_xyz
  1  'x, y, z'
loop_
 _atom_site_type_symbol
 _atom_site_label
 _atom_site_symmetry_multiplicity
 _atom_site_fract_x
 _atom_site_fract_y
 _atom_site_fract_z
 _atom_site_occupancy
  Hf  Hf0  1  0.89168345  0.69086422  0.49633290  1
  Hf  Hf1  1  0.29477425  0.89970508  0.69577135  1
  Hf  Hf2  1  0.39010143  0.59949382  0.20917569  1
  Hf  Hf3  1  0.50909945  0.89666922  0.69978814  1
  Hf  Hf4  1  0.69613628  0.09304802  0.50124861  1
  Hf  Hf5  1  0.20932082  0.20681593  0.40052848  1
  Hf  Hf6  1  0.79368775  0.79510818  0.79532607  1
  Hf  Hf7  1  0.00251119  0.80247888  0.20453370  1
  Hf  Hf8  1  0.40477081  -0.00307843  0.59181751  1
  Hf  Hf9  1  0.39738254  0.60555511  0.79786940  1
  Hf  Hf10  1  0.00555425  0.40573339  0.58862776  1
  Hf  Hf11  1  0.41001017  -0.00783526  0.39566467  1
  Hf  Hf12  1  0.50644609  0.69921544  0.10359784  1
  Hf  Hf13  1  0.19468345  0.40788383  0.20714024  1
  Hf  Hf14  1  0.89456545  0.09632274  0.10596768  1
  Hf  Hf15  1  0.60648239  0.20927396  0.60251979  1
  Hf  Hf16  1  0.40364270  0.40060719  0.80258138  1
  Hf  Hf17  1  0.51388662  0.29799496  0.10252159  1
  Hf  Hf18  1  0.51429362  0.70376366  0.30475947  1
  Hf  Hf19  1  -0.00727593  0.20157079  0.20749979  1
  Hf  Hf20  1  0.08938145  0.31089209  0.30905115  1
  Hf  Hf21  1  -0.01019305  0.79865530  0.39069235  1
  Hf  Hf22  1  -0.00850612  0.20092969  0.80845111  1
  Hf  Hf23  1  -0.01048842  0.00119000  0.80670897  1
  Hf  Hf24  1  0.61147357  0.60623614  0.60225514  1
  Hf  Hf25  1  0.60669026  0.40908490  0.39407079  1
  Hf  Hf26  1  0.11035376  0.09351768  0.50015465  1
  Hf  Hf27  1  -0.00856361  0.80277512  0.59301838  1
  Hf  Hf28  1  0.89797691  0.70115805  0.10296629  1
  Hf  Hf29  1  0.38598215  0.39667999  0.20576195  1
  Hf  Hf30  1  0.10607400  0.89934150  0.89781641  1
  Hf  Hf31  1  0.28757313  0.50130348  0.09915035  1
  Hf  Hf32  1  0.30224253  0.70028575  0.49206658  1
  Hf  Hf33  1  0.79159682  0.00798989  0.00038447  1
  Hf  Hf34  1  0.29505974  0.30421532  0.90579330  1
  Hf  Hf35  1  0.30011523  0.30513083  0.68692954  1
  Hf  Hf36  1  0.49762389  0.30644637  0.49396189  1
  Hf  Hf37  1  0.30545699  0.49514582  0.49823408  1
  Hf  Hf38  1  0.10534863  0.29960292  0.90595959  1
  Hf  Hf39  1  -0.01011583  0.19929524  -0.00180408  1
  Hf  Hf40  1  0.10788367  0.09632689  0.90619406  1
  Hf  Hf41  1  0.78750727  0.40066385  0.60522201  1
  Hf  Hf42  1  0.29435148  0.49793704  0.90042337  1
  Hf  Hf43  1  0.39594495  0.60872920  -0.00337251  1
  Hf  Hf44  1  0.70190583  0.29977766  0.48860373  1
  Hf  Hf45  1  0.19778110  0.59214237  0.59535557  1
  Hf  Hf46  1  0.79400925  0.59649440  0.79564786  1
  Hf  Hf47  1  0.50309870  0.29908576  0.29843398  1
  Hf  Hf48  1  0.70553183  0.29515869  0.90847088  1
  Hf  Hf49  1  0.50150350  0.90505242  0.90821461  1
  Zr  Zr50  1  0.10687467  0.69895670  0.48184049  1
  Zr  Zr51  1  0.39490558  0.79877518  0.80508077  1
  Zr  Zr52  1  0.60391808  0.19867267  0.80365677  1
  Zr  Zr53  1  0.49652118  0.11126412  0.49539597  1
  Zr  Zr54  1  0.50315342  0.50692899  0.69237674  1
  Zr  Zr55  1  0.29912407  0.69899830  0.69457662  1
  Zr  Zr56  1  0.40333582  0.19359122  0.80166456  1
  Zr  Zr57  1  -0.01771336  -0.00351103  0.39709126  1
  Zr  Zr58  1  0.11125811  0.90224208  0.49163259  1
  Zr  Zr59  1  0.19139225  0.60617834  0.00589321  1
  Zr  Zr60  1  0.80678835  0.39673966  0.81021259  1
  Zr  Zr61  1  0.51260375  0.70638012  0.89794989  1
  Zr  Zr62  1  0.00304147  0.59390686  0.58836166  1
  Zr  Zr63  1  0.90530146  0.29428459  0.69413575  1
  Zr  Zr64  1  0.69154042  0.89447316  0.30484906  1
  Zr  Zr65  1  0.10310009  0.09158354  0.30346600  1
  Zr  Zr66  1  0.20786738  0.19476792  0.79576677  1
  Zr  Zr67  1  0.40247523  0.80573282  0.20575516  1
  Zr  Zr68  1  0.10607071  0.90327119  0.69980675  1
  Zr  Zr69  1  -0.00444480  0.19672340  0.40304548  1
  Zr  Zr70  1  0.10209219  0.70940770  0.89751764  1
  Zr  Zr71  1  -0.00567383  0.59529928  0.80350070  1
  Zr  Zr72  1  0.20885553  0.21419478  0.20091725  1
  Zr  Zr73  1  0.60742718  0.40451016  0.00100743  1
  Zr  Zr74  1  0.50964971  0.50645190  0.89743246  1
  Zr  Zr75  1  0.69352506  0.90105847  0.69150631  1
  Zr  Zr76  1  -0.00362039  0.59605679  0.00848887  1
  Zr  Zr77  1  0.89316681  0.89648390  0.90528265  1
  Zr  Zr78  1  0.40374135  0.59771782  0.39708328  1
  Zr  Zr79  1  0.20641870  -0.00973114  0.19225591  1
  Zr  Zr80  1  0.39184927  0.20118635  0.19374557  1
  Zr  Zr81  1  0.29586149  0.89726112  0.49313087  1
  Zr  Zr82  1  0.39953866  0.00774472  0.80441564  1
  Zr  Zr83  1  0.30629756  0.09652115  0.30828729  1
  Zr  Zr84  1  0.50532505  0.50260034  0.10889306  1
  Zr  Zr85  1  0.69093697  0.89836835  0.90012990  1
  Zr  Zr86  1  0.09916325  0.10032612  0.10361424  1
  Zr  Zr87  1  0.10376246  0.49470304  0.90295183  1
  Zr  Zr88  1  -0.01285805  -0.00611072  0.58956710  1
  Zr  Zr89  1  0.89470410  0.10197954  0.69422539  1
  Zr  Zr90  1  0.39843019  0.19722168  0.00432100  1
  Zr  Zr91  1  0.79891046  0.79473989  0.20499383  1
  Zr  Zr92  1  0.89765039  0.30104190  0.49487179  1
  Zr  Zr93  1  0.49969313  0.30353563  0.69312093  1
  Zr  Zr94  1  0.79694459  0.59037808  0.00264855  1
  Zr  Zr95  1  0.10058305  0.10005487  0.69109004  1
  Zr  Zr96  1  0.10013125  0.70410546  0.70327541  1
  Zr  Zr97  1  0.90087417  0.50060546  0.69367037  1
  Zr  Zr98  1  0.88700720  0.30402564  0.10136961  1
  Zr  Zr99  1  0.29125150  0.70645788  0.10652562  1
  Ta  Ta100  1  0.79305064  0.20186419  0.60252905  1
  Ta  Ta101  1  0.79830613  -0.00341006  0.40188004  1
  Ta  Ta102  1  0.69591648  0.69845326  0.89835978  1
  Ta  Ta103  1  0.89572740  0.70246225  0.90241354  1
  Ta  Ta104  1  0.31255049  0.30174401  0.49809870  1
  Ta  Ta105  1  0.89883618  0.49978864  0.30023405  1
  Ta  Ta106  1  0.59696439  -0.00339802  0.39723030  1
  Ta  Ta107  1  0.40876045  0.79504931  0.59580397  1
  Ta  Ta108  1  0.60427525  0.19671194  0.38958141  1
  Ta  Ta109  1  0.89081294  0.30742770  0.29980367  1
  Ta  Ta110  1  0.59905844  0.00081466  0.19986424  1
  Ta  Ta111  1  0.69948687  0.09709675  0.69777036  1
  Ta  Ta112  1  0.29897006  0.49733155  0.69252800  1
  Ta  Ta113  1  0.69691131  0.90532808  0.10102635  1
  Ta  Ta114  1  0.61414923  0.40077429  0.78903251  1
  Ta  Ta115  1  0.60097648  0.00898441  0.80314341  1
  Ta  Ta116  1  0.50500734  0.49697429  0.29806585  1
  Ta  Ta117  1  0.79242467  0.00388806  0.20390676  1
  Ta  Ta118  1  0.50652085  0.09602826  0.68927198  1
  Ta  Ta119  1  0.79458397  0.01091475  0.80491201  1
  Ta  Ta120  1  0.79400792  0.40757017  0.20500525  1
  Ta  Ta121  1  0.79745064  0.79688425  0.40438104  1
  Ta  Ta122  1  0.50278014  0.10088725  0.29490659  1
  Ta  Ta123  1  0.50292350  0.90500442  0.09467960  1
  Ta  Ta124  1  0.40372222  -0.00443001  0.19499286  1
  Ta  Ta125  1  0.20558566  0.20272712  0.59045934  1
  Ta  Ta126  1  0.89473057  0.70232934  0.69600317  1
  Ta  Ta127  1  -0.01205173  0.40203809  -0.00340228  1
  Ta  Ta128  1  0.00110609  0.80388857  0.00692443  1
  Ta  Ta129  1  0.50793138  0.30044943  0.90621539  1
  Ta  Ta130  1  0.70235327  0.50337498  0.50017197  1
  Ta  Ta131  1  0.50599172  0.09369918  0.09680613  1
  Ta  Ta132  1  0.09691228  0.31119004  0.09646814  1
  Ta  Ta133  1  0.79984910  0.59722908  0.20777031  1
  Ta  Ta134  1  0.00005946  0.39498323  0.80547481  1
  Ta  Ta135  1  0.20686166  -0.00807437  0.00885870  1
  Ta  Ta136  1  0.00035660  -0.00508659  0.00593586  1
  Ta  Ta137  1  0.00080730  0.59530210  0.20608731  1
  Ta  Ta138  1  0.89553710  0.90215150  0.10304078  1
  Ta  Ta139  1  0.50789723  0.70179185  0.50201356  1
  Ta  Ta140  1  -0.01008967  0.80207334  0.79783540  1
  Ta  Ta141  1  0.70226614  0.30061363  0.29419478  1
  Ta  Ta142  1  0.40053693  0.39810679  0.00525959  1
  Ta  Ta143  1  0.19784961  0.39864109  0.79076067  1
  Ta  Ta144  1  0.10081831  0.29918475  0.69036547  1
  Ta  Ta145  1  0.60587933  0.80003990  0.00849731  1
  Ta  Ta146  1  0.88711602  0.89782023  0.69673612  1
  Ta  Ta147  1  0.69879491  0.69813872  0.30690916  1
  Ta  Ta148  1  0.70284014  0.29477003  0.10380301  1
  Ta  Ta149  1  0.29741122  0.89396475  0.30344826  1
  Ti  Ti150  1  0.29724674  0.89848458  0.90546149  1
  Ti  Ti151  1  0.30418621  0.10156044  0.68079786  1
  Ti  Ti152  1  0.41084393  0.80271384  0.39825598  1
  Ti  Ti153  1  0.70047905  0.49316520  0.10734012  1
  Ti  Ti154  1  0.20398657  0.60151635  0.79889122  1
  Ti  Ti155  1  0.78706466  0.78912017  0.59537581  1
  Ti  Ti156  1  0.10894504  0.30692409  0.50207011  1
  Ti  Ti157  1  0.59946076  0.80621008  0.19792389  1
  Ti  Ti158  1  0.80085617  0.18998161  0.39060101  1
  Ti  Ti159  1  0.69960157  0.50104210  0.89787507  1
  Ti  Ti160  1  0.28597799  0.70173693  0.30424215  1
  Ti  Ti161  1  0.60767048  0.59921445  0.40345135  1
  Ti  Ti162  1  -0.00901948  0.41283196  0.40252815  1
  Ti  Ti163  1  0.51092402  0.09701431  0.91611386  1
  Ti  Ti164  1  0.20829266  0.19792526  0.01640488  1
  Ti  Ti165  1  0.19389879  0.80583495  0.19954549  1
  Ti  Ti166  1  0.79382904  0.79764515  0.00417876  1
  Ti  Ti167  1  0.89338029  0.10694546  0.50476212  1
  Ti  Ti168  1  0.60873465  0.60125365  0.00341661  1
  Ti  Ti169  1  0.29984703  0.09224232  0.91504121  1
  Ti  Ti170  1  0.79866471  0.19111719  -0.00714467  1
  Ti  Ti171  1  0.69789943  0.09647918  0.30125987  1
  Ti  Ti172  1  0.79964607  0.41177766  0.39578511  1
  Ti  Ti173  1  0.21240914  0.40251135  0.39140224  1
  Ti  Ti174  1  0.88824419  0.90320051  0.29682062  1
  Ti  Ti175  1  0.51203252  0.70476367  0.70004979  1
  Ti  Ti176  1  0.10866336  0.90153502  0.30698294  1
  Ti  Ti177  1  0.19897019  0.80809371  0.00903294  1
  Ti  Ti178  1  0.09923288  0.70076597  0.10982612  1
  Ti  Ti179  1  0.79327914  0.59989829  0.60045672  1
  Ti  Ti180  1  0.50413712  0.50321903  0.50176669  1
  Ti  Ti181  1  0.60955929  0.19028401  0.19766050  1
  Ti  Ti182  1  -0.00200506  0.40874758  0.20034171  1
  Ti  Ti183  1  0.40524768  0.40751484  0.59655097  1
  Ti  Ti184  1  -0.00314551  -0.00717694  0.20190925  1
  Ti  Ti185  1  0.11199772  0.49690297  0.48060237  1
  Ti  Ti186  1  0.19956507  0.79601849  0.59659276  1
  Ti  Ti187  1  0.20967564  0.00380817  0.80071468  1
  Ti  Ti188  1  0.39429298  0.80201571  0.00327774  1
  Ti  Ti189  1  0.10569396  0.49211965  0.70020154  1
  Ti  Ti190  1  0.69717234  0.69952677  0.10525717  1
  Ti  Ti191  1  0.10648749  0.68994999  0.29824324  1
  Ti  Ti192  1  0.89569887  0.49499375  0.10446612  1
  Ti  Ti193  1  0.79491067  0.19379035  0.20670684  1
  Ti  Ti194  1  0.61353942  0.59247991  0.20958846  1
  Ti  Ti195  1  0.69267203  0.89438419  0.50156526  1
  Ti  Ti196  1  0.79661130  0.59698676  0.39456271  1
  Ti  Ti197  1  0.51546054  0.89067946  0.50183515  1
  Ti  Ti198  1  0.79845723  -0.00459530  0.59314043  1
  Ti  Ti199  1  -0.00360276  0.59303550  0.39243269  1
  Mo  Mo200  1  0.28932737  0.31086542  0.08846658  1
  Mo  Mo201  1  0.88885614  0.50200968  0.48931723  1
  Mo  Mo202  1  0.87718882  0.89228725  0.50131966  1
  Mo  Mo203  1  0.19747665  0.79711065  0.38529929  1
  Mo  Mo204  1  0.08792259  0.49653805  0.10817279  1
  Mo  Mo205  1  0.20242346  0.80379672  0.80726261  1
  Mo  Mo206  1  0.09378783  0.50185543  0.30630348  1
  Mo  Mo207  1  0.61055462  0.40040963  0.20180229  1
  Mo  Mo208  1  0.69818986  0.49913578  0.69802497  1
  Mo  Mo209  1  0.89550224  0.68970636  0.30178591  1
  Mo  Mo210  1  0.40600396  0.20267762  0.39767816  1
  Mo  Mo211  1  0.40719237  0.40384872  0.39815411  1
  Mo  Mo212  1  0.89760262  0.29899361  0.90458462  1
  Mo  Mo213  1  0.69840516  0.10254862  0.90007269  1
  Mo  Mo214  1  0.30791487  0.08899782  0.09677157  1
  Mo  Mo215  1  0.70480506  0.29520913  0.70606672  1
  Mo  Mo216  1  0.89384558  0.09978130  0.90370514  1
  Mo  Mo217  1  0.69736174  0.10324488  0.10336019  1
  Mo  Mo218  1  0.79684036  0.19475975  0.80038902  1
  Mo  Mo219  1  0.59998964  0.00210705  0.00473600  1
  Mo  Mo220  1  0.60478445  0.19474574  0.00546580  1
  Mo  Mo221  1  0.79960604  0.40267193  0.00920463  1
  Mo  Mo222  1  0.39658931  -0.00189651  0.00409593  1
  Mo  Mo223  1  0.31005944  0.30842124  0.31800644  1
  Mo  Mo224  1  0.60599196  0.40713916  0.59482706  1
  Mo  Mo225  1  0.69954850  0.70052559  0.69981298  1
  Mo  Mo226  1  0.39676779  0.19853770  0.59584857  1
  Mo  Mo227  1  0.20283809  0.59217703  0.39174147  1
  Mo  Mo228  1  0.21208055  0.00962788  0.59518177  1
  Mo  Mo229  1  0.00827494  0.20568651  0.59257154  1
  Mo  Mo230  1  0.60000065  0.00106344  0.59583901  1
  Mo  Mo231  1  0.89943595  0.49664026  0.90425520  1
  Mo  Mo232  1  0.70164949  0.69595136  0.49445220  1
  Mo  Mo233  1  0.60121350  0.79607666  0.59653656  1
  Mo  Mo234  1  0.09440292  0.89671916  0.09813071  1
  Mo  Mo235  1  0.40975772  0.60378552  0.59797059  1
  Mo  Mo236  1  0.18934503  0.60029599  0.20646547  1
  Mo  Mo237  1  0.19801079  0.39832621  0.59438555  1
  Mo  Mo238  1  0.50227111  0.90235832  0.29729403  1
  Mo  Mo239  1  0.70231829  0.50463138  0.30297535  1
  Mo  Mo240  1  0.61088890  0.60145987  0.79561436  1
  Mo  Mo241  1  0.60216640  0.79743693  0.80078176  1
  Mo  Mo242  1  0.60271795  0.79935564  0.40694897  1
  Mo  Mo243  1  0.30342866  0.10481734  0.50265444  1
  Mo  Mo244  1  0.30451289  0.89568779  0.09899851  1
  Mo  Mo245  1  0.88741966  0.09703965  0.29844981  1
  Mo  Mo246  1  0.19197816  0.40015397  0.00520573  1
  Mo  Mo247  1  0.29044600  0.71208094  0.90018478  1
  Mo  Mo248  1  0.29537784  0.50308777  0.30385874  1
  Mo  Mo249  1  0.21061828  -0.00136057  0.39625809  1
