# generated using pymatgen
data_HfZrTaTiMo
_symmetry_space_group_name_H-M   'P 1'
_cell_length_a   16.88572042
_cell_length_b   16.88894371
_cell_length_c   16.89322333
_cell_angle_alpha   89.99669109
_cell_angle_beta   90.03182157
_cell_angle_gamma   90.02115318
_symmetry_Int_Tables_number   1
_chemical_formula_structural   HfZrTaTiMo
_chemical_formula_sum   'Hf50 Zr50 Ta50 Ti50 Mo50'
_cell_volume   4817.64182423
_cell_formula_units_Z   50
loop_
 _symmetry_equiv_pos_site_id
 _symmetry_equiv_pos_as_xyz
  1  'x, y, z'
loop_
 _atom_site_type_symbol
 _atom_site_label
 _atom_site_symmetry_multiplicity
 _atom_site_fract_x
 _atom_site_fract_y
 _atom_site_fract_z
 _atom_site_occupancy
  Hf  Hf0  1  0.29558844  0.90399694  0.09284324  1
  Hf  Hf1  1  0.79947981  0.59627578  0.00582643  1
  Hf  Hf2  1  0.09889136  0.70489031  0.09381630  1
  Hf  Hf3  1  0.40638850  0.18781207  0.81359857  1
  Hf  Hf4  1  0.49670254  0.90260959  0.69706612  1
  Hf  Hf5  1  0.69293286  0.10594151  0.90929598  1
  Hf  Hf6  1  0.10209424  0.49321107  0.10296070  1
  Hf  Hf7  1  0.29546915  0.49105974  0.29395055  1
  Hf  Hf8  1  0.79406525  0.60439807  0.60700826  1
  Hf  Hf9  1  0.10448766  0.10480588  0.29991125  1
  Hf  Hf10  1  0.19097584  -0.00326083  0.79164145  1
  Hf  Hf11  1  0.79789103  0.41051816  0.01856586  1
  Hf  Hf12  1  0.60217556  0.39680611  0.40238540  1
  Hf  Hf13  1  0.00366795  0.59175181  0.60270007  1
  Hf  Hf14  1  0.19648309  0.80464667  0.20159980  1
  Hf  Hf15  1  0.60899497  0.39821512  0.20700824  1
  Hf  Hf16  1  0.69920256  0.10156015  0.69693229  1
  Hf  Hf17  1  0.08915316  0.09641222  0.89928484  1
  Hf  Hf18  1  0.60696581  0.20710058  0.60193548  1
  Hf  Hf19  1  0.39478686  0.00833234  0.19121569  1
  Hf  Hf20  1  0.19896117  0.81282310  0.60474769  1
  Hf  Hf21  1  0.50283822  0.89869676  0.29703528  1
  Hf  Hf22  1  0.11281119  0.29432440  0.51044086  1
  Hf  Hf23  1  0.80458637  0.59979514  0.79168157  1
  Hf  Hf24  1  0.60579594  0.40660722  0.00894043  1
  Hf  Hf25  1  0.70609822  0.09451490  0.29615186  1
  Hf  Hf26  1  0.89834367  0.09685473  0.90926554  1
  Hf  Hf27  1  0.51599248  0.49818610  0.88700399  1
  Hf  Hf28  1  0.40753259  0.39472123  0.40153298  1
  Hf  Hf29  1  0.69617767  0.89592107  0.29442881  1
  Hf  Hf30  1  0.89740316  0.30631172  0.90238707  1
  Hf  Hf31  1  0.49897268  0.10270003  0.50800951  1
  Hf  Hf32  1  0.39588125  0.80152074  0.59428896  1
  Hf  Hf33  1  0.49721779  0.50592622  0.10989023  1
  Hf  Hf34  1  0.08549757  0.11644296  0.08770800  1
  Hf  Hf35  1  0.31043660  0.29568750  0.09768317  1
  Hf  Hf36  1  0.00650167  -0.00695334  0.59984758  1
  Hf  Hf37  1  0.29661660  0.29959078  0.29756558  1
  Hf  Hf38  1  0.51218750  0.69165353  0.89959872  1
  Hf  Hf39  1  0.89871523  0.10867100  0.50599619  1
  Hf  Hf40  1  0.80403331  0.79936706  0.79143671  1
  Hf  Hf41  1  -0.00110002  0.59553840  0.20306686  1
  Hf  Hf42  1  0.60928685  -0.00642582  0.18139518  1
  Hf  Hf43  1  0.19923205  0.39092733  0.00690835  1
  Hf  Hf44  1  0.39424091  0.78913223  0.79999558  1
  Hf  Hf45  1  0.00116918  0.60347338  0.79263630  1
  Hf  Hf46  1  0.70471260  0.70126426  0.90094315  1
  Hf  Hf47  1  0.49465574  0.89363189  0.09172189  1
  Hf  Hf48  1  0.90123844  0.30173537  0.30125204  1
  Hf  Hf49  1  0.00352452  0.40324960  0.59792895  1
  Zr  Zr50  1  0.90917189  0.29209704  0.10197771  1
  Zr  Zr51  1  0.69364348  0.89970247  0.69612541  1
  Zr  Zr52  1  0.39634814  0.19857347  0.39992686  1
  Zr  Zr53  1  0.60194560  0.80049910  0.80011016  1
  Zr  Zr54  1  -0.01120220  0.81699235  0.41076101  1
  Zr  Zr55  1  0.90489450  0.70898664  0.90111534  1
  Zr  Zr56  1  0.09122340  0.29053621  0.91462372  1
  Zr  Zr57  1  0.39326044  0.79609556  0.20492238  1
  Zr  Zr58  1  0.90124103  0.10193547  0.29731433  1
  Zr  Zr59  1  0.39754620  0.59952884  0.39715821  1
  Zr  Zr60  1  0.50835324  0.10687583  0.07985587  1
  Zr  Zr61  1  0.20270758  0.60180188  -0.00889535  1
  Zr  Zr62  1  0.10629091  0.91296138  0.30490618  1
  Zr  Zr63  1  0.50319364  0.29873970  0.70603881  1
  Zr  Zr64  1  0.28917024  0.89501300  0.90115689  1
  Zr  Zr65  1  0.39714122  0.40032236  0.60572710  1
  Zr  Zr66  1  0.79426690  0.20508278  0.79496021  1
  Zr  Zr67  1  0.09437210  0.70044943  0.31303068  1
  Zr  Zr68  1  0.29661785  0.69766684  0.09992848  1
  Zr  Zr69  1  0.30094036  0.49972667  0.50732308  1
  Zr  Zr70  1  0.89452540  0.70106819  0.30228508  1
  Zr  Zr71  1  0.51098217  0.09896346  0.29336929  1
  Zr  Zr72  1  -0.00694765  0.80165672  0.60556277  1
  Zr  Zr73  1  0.40633826  0.40205418  -0.00524726  1
  Zr  Zr74  1  -0.00308420  0.39947539  0.79059482  1
  Zr  Zr75  1  0.29428603  0.69397529  0.50075782  1
  Zr  Zr76  1  0.20332021  0.19621897  0.18780090  1
  Zr  Zr77  1  0.00475588  0.20585859  0.40641626  1
  Zr  Zr78  1  0.60849039  0.20499073  0.39978131  1
  Zr  Zr79  1  0.79909369  0.59409404  0.19200301  1
  Zr  Zr80  1  0.88267190  0.91284811  0.29135848  1
  Zr  Zr81  1  0.80284680  -0.00933297  0.59832991  1
  Zr  Zr82  1  0.69290286  0.31006293  0.89459079  1
  Zr  Zr83  1  0.39696468  -0.00102076  0.40689988  1
  Zr  Zr84  1  0.00250731  0.00114074  0.19110205  1
  Zr  Zr85  1  0.01430266  0.41343627  0.40746885  1
  Zr  Zr86  1  0.50515522  0.70031491  0.30108502  1
  Zr  Zr87  1  0.89718101  0.49892873  0.30893666  1
  Zr  Zr88  1  0.29967607  0.29233265  0.89978458  1
  Zr  Zr89  1  0.30145727  0.10361822  0.69815003  1
  Zr  Zr90  1  0.61236017  0.60690034  0.20490805  1
  Zr  Zr91  1  0.10077567  0.69610524  0.50124523  1
  Zr  Zr92  1  0.39342828  0.59495513  0.79535443  1
  Zr  Zr93  1  0.39776470  0.59648118  -0.00779818  1
  Zr  Zr94  1  0.79269050  0.79804202  0.40805500  1
  Zr  Zr95  1  -0.00609553  0.59538655  -0.00008842  1
  Zr  Zr96  1  0.09951197  0.48884981  0.89579857  1
  Zr  Zr97  1  -0.00295575  0.80714993  0.19824835  1
  Zr  Zr98  1  0.49426774  0.90194568  0.90355388  1
  Zr  Zr99  1  0.90219240  0.10056211  0.70059302  1
  Ta  Ta100  1  0.29924430  0.49489998  0.10933451  1
  Ta  Ta101  1  0.80373872  0.79282396  0.59945031  1
  Ta  Ta102  1  0.79489695  0.20305263  0.20301723  1
  Ta  Ta103  1  0.28923889  0.48946862  0.88695307  1
  Ta  Ta104  1  0.00041157  0.80976629  -0.00135781  1
  Ta  Ta105  1  0.29439151  0.69527229  0.69667079  1
  Ta  Ta106  1  -0.00262354  0.20091747  0.79676839  1
  Ta  Ta107  1  0.09459899  0.90478076  0.90065097  1
  Ta  Ta108  1  0.50540776  0.70226909  0.09788991  1
  Ta  Ta109  1  0.70597431  0.49730311  0.30866913  1
  Ta  Ta110  1  0.89439447  0.71394717  0.09515186  1
  Ta  Ta111  1  0.89709735  0.29599992  0.68708075  1
  Ta  Ta112  1  0.10694681  0.30200445  0.29369398  1
  Ta  Ta113  1  0.19462562  0.19539813  0.80186299  1
  Ta  Ta114  1  0.88936324  0.90344264  0.09130230  1
  Ta  Ta115  1  0.00346407  0.39907538  0.19982906  1
  Ta  Ta116  1  0.29424837  0.90956328  0.30018339  1
  Ta  Ta117  1  0.50591128  0.29211330  0.10150790  1
  Ta  Ta118  1  0.50094270  0.30253306  0.50686965  1
  Ta  Ta119  1  0.19902992  0.01153480  0.00162557  1
  Ta  Ta120  1  0.39379407  0.78458952  -0.00826908  1
  Ta  Ta121  1  0.61245510  0.80033968  0.00635492  1
  Ta  Ta122  1  0.59706644  0.00508401  0.80504002  1
  Ta  Ta123  1  0.89124056  0.09884128  0.09801627  1
  Ta  Ta124  1  0.09641217  0.10542925  0.69500547  1
  Ta  Ta125  1  0.10770037  0.70482040  0.70472836  1
  Ta  Ta126  1  0.20566957  0.00887046  0.41250561  1
  Ta  Ta127  1  0.50212372  0.69093478  0.68844181  1
  Ta  Ta128  1  0.79538416  0.20560971  0.40257603  1
  Ta  Ta129  1  0.39680367  0.80391361  0.40391629  1
  Ta  Ta130  1  0.39304405  -0.00411361  0.59575336  1
  Ta  Ta131  1  0.50299120  0.69405806  0.50258202  1
  Ta  Ta132  1  0.61347982  0.59750503  0.01038318  1
  Ta  Ta133  1  0.20363923  0.00187333  0.59624972  1
  Ta  Ta134  1  0.59947353  0.79483150  0.40325025  1
  Ta  Ta135  1  0.19536137  0.59614888  0.20740559  1
  Ta  Ta136  1  0.69408987  0.89427354  0.50336313  1
  Ta  Ta137  1  0.50579011  0.50406383  0.69502890  1
  Ta  Ta138  1  0.90135440  0.68897534  0.49849463  1
  Ta  Ta139  1  0.10309449  0.29201315  0.69889348  1
  Ta  Ta140  1  0.90265742  0.90712195  0.90197532  1
  Ta  Ta141  1  0.00579121  0.80691437  0.79587951  1
  Ta  Ta142  1  0.50888795  0.50801952  0.50761872  1
  Ta  Ta143  1  0.60868237  0.40370662  0.60495525  1
  Ta  Ta144  1  0.60499752  -0.00511048  0.40994310  1
  Ta  Ta145  1  0.79170236  -0.00491819  0.80838540  1
  Ta  Ta146  1  0.39921870  0.40085459  0.79618413  1
  Ta  Ta147  1  0.40274339  0.19538474  0.19552563  1
  Ta  Ta148  1  0.69877457  0.50268253  0.49913683  1
  Ta  Ta149  1  0.18356260  0.57915803  0.39882595  1
  Ti  Ti150  1  0.70322199  0.09969703  0.50322179  1
  Ti  Ti151  1  0.50640073  0.28985064  0.29211456  1
  Ti  Ti152  1  0.59779071  0.19827944  0.80098539  1
  Ti  Ti153  1  0.19968006  0.59180137  0.60732004  1
  Ti  Ti154  1  0.90455814  0.90557760  0.70949091  1
  Ti  Ti155  1  0.89454768  0.49432201  0.69562741  1
  Ti  Ti156  1  0.69794599  0.29429074  0.10866737  1
  Ti  Ti157  1  0.39122967  0.01989747  -0.01478806  1
  Ti  Ti158  1  0.89965770  0.49128609  0.89965030  1
  Ti  Ti159  1  0.70714125  0.30280726  0.50605551  1
  Ti  Ti160  1  0.20139333  0.60353558  0.79915432  1
  Ti  Ti161  1  0.69015582  0.69303763  0.50019403  1
  Ti  Ti162  1  0.40036006  0.00513713  0.80288382  1
  Ti  Ti163  1  0.79513599  0.20722694  0.00390084  1
  Ti  Ti164  1  0.39499099  0.60331098  0.20507276  1
  Ti  Ti165  1  0.79594777  0.39395531  0.40343830  1
  Ti  Ti166  1  0.50483663  0.89566433  0.50128644  1
  Ti  Ti167  1  0.20890069  0.81163219  0.40480841  1
  Ti  Ti168  1  0.60278202  0.79043557  0.59831457  1
  Ti  Ti169  1  0.79485262  0.40068324  0.60162725  1
  Ti  Ti170  1  0.10329696  0.90738806  0.08912166  1
  Ti  Ti171  1  0.19976029  0.39866225  0.40539361  1
  Ti  Ti172  1  0.30100537  0.90012559  0.70389722  1
  Ti  Ti173  1  0.70001838  0.10891867  0.09665186  1
  Ti  Ti174  1  0.21229799  0.19581798  0.41139937  1
  Ti  Ti175  1  0.20874216  0.39574838  0.60711319  1
  Ti  Ti176  1  0.11804915  0.49130434  0.70603322  1
  Ti  Ti177  1  0.78985545  0.60562961  0.40012551  1
  Ti  Ti178  1  0.59704641  0.00014081  0.59724695  1
  Ti  Ti179  1  0.50673646  0.29527675  0.90626907  1
  Ti  Ti180  1  0.89048892  0.50451969  0.49719529  1
  Ti  Ti181  1  0.50536674  0.50502932  0.30466208  1
  Ti  Ti182  1  0.29245628  0.09522005  0.29372690  1
  Ti  Ti183  1  0.10547194  0.90508403  0.49798961  1
  Ti  Ti184  1  0.69958121  0.50010010  0.88995165  1
  Ti  Ti185  1  0.60726209  -0.01091578  -0.00763275  1
  Ti  Ti186  1  0.78971284  0.40310789  0.78471530  1
  Ti  Ti187  1  0.78171864  0.79568895  0.18752307  1
  Ti  Ti188  1  0.10517273  0.10734694  0.51033358  1
  Ti  Ti189  1  0.78587270  -0.00846533  0.00270501  1
  Ti  Ti190  1  0.49889412  0.09696399  0.69713928  1
  Ti  Ti191  1  0.40863351  0.39563866  0.20436250  1
  Ti  Ti192  1  0.61743445  0.59903178  0.77962473  1
  Ti  Ti193  1  0.79737221  -0.00198139  0.41097827  1
  Ti  Ti194  1  0.89589817  0.29832777  0.50750669  1
  Ti  Ti195  1  0.11032821  0.71761261  0.89601512  1
  Ti  Ti196  1  0.28917858  0.69862952  0.30723401  1
  Ti  Ti197  1  0.29429706  0.29635850  0.70541294  1
  Ti  Ti198  1  0.38900518  0.20532887  0.59316102  1
  Ti  Ti199  1  -0.00113052  0.00329009  0.40957248  1
  Mo  Mo200  1  0.20260454  0.38925384  0.79283417  1
  Mo  Mo201  1  0.89284842  0.90249226  0.50150687  1
  Mo  Mo202  1  0.20264610  0.00330946  0.19323038  1
  Mo  Mo203  1  0.10279731  0.49240929  0.29767237  1
  Mo  Mo204  1  0.59864075  0.40363497  0.79335658  1
  Mo  Mo205  1  0.11331932  0.49452227  0.51414583  1
  Mo  Mo206  1  0.60503756  0.20201571  0.19598817  1
  Mo  Mo207  1  0.69812000  0.70065840  0.69389879  1
  Mo  Mo208  1  0.21033078  0.19238043  -0.00469028  1
  Mo  Mo209  1  -0.01549818  0.19822082  -0.00442878  1
  Mo  Mo210  1  0.19709469  0.79915978  0.79584922  1
  Mo  Mo211  1  0.79791876  0.20833712  0.59217244  1
  Mo  Mo212  1  0.30005283  0.29883882  0.50056831  1
  Mo  Mo213  1  0.60426627  0.21215444  -0.00006849  1
  Mo  Mo214  1  0.50874493  0.09780518  0.89703085  1
  Mo  Mo215  1  0.70138321  0.49729155  0.11139026  1
  Mo  Mo216  1  0.70254198  0.89587248  0.09572192  1
  Mo  Mo217  1  0.70380883  0.90259897  0.90161034  1
  Mo  Mo218  1  0.00162683  0.20429184  0.60361918  1
  Mo  Mo219  1  0.71026822  0.30224611  0.30153526  1
  Mo  Mo220  1  -0.00461777  0.40035386  0.00776640  1
  Mo  Mo221  1  0.30337264  0.10341850  0.08883264  1
  Mo  Mo222  1  0.09539215  0.29832174  0.10467521  1
  Mo  Mo223  1  0.79858399  0.39474068  0.20674056  1
  Mo  Mo224  1  0.60271831  0.59961603  0.59724371  1
  Mo  Mo225  1  0.90776734  0.70273628  0.69636650  1
  Mo  Mo226  1  0.70158168  0.70357529  0.09670393  1
  Mo  Mo227  1  0.40325922  0.60190458  0.60384847  1
  Mo  Mo228  1  0.70000667  0.49630603  0.69664455  1
  Mo  Mo229  1  0.28762916  0.69706441  0.89191210  1
  Mo  Mo230  1  0.29797639  0.10219688  0.50642920  1
  Mo  Mo231  1  0.80188206  0.80536150  -0.00325052  1
  Mo  Mo232  1  0.29533139  0.49990595  0.70509624  1
  Mo  Mo233  1  0.00056364  0.20598936  0.20237759  1
  Mo  Mo234  1  0.60620949  0.59858294  0.40398892  1
  Mo  Mo235  1  0.79520667  0.00757965  0.18257203  1
  Mo  Mo236  1  0.19764137  0.39608140  0.19811531  1
  Mo  Mo237  1  0.69899371  0.70118369  0.30315207  1
  Mo  Mo238  1  0.10020319  0.90412203  0.70266371  1
  Mo  Mo239  1  0.29768949  0.90203360  0.49686985  1
  Mo  Mo240  1  0.60410400  0.79761039  0.19412522  1
  Mo  Mo241  1  0.29100396  0.09715058  0.89751937  1
  Mo  Mo242  1  0.20233116  0.19869711  0.60542490  1
  Mo  Mo243  1  -0.00317195  -0.00451665  0.00027967  1
  Mo  Mo244  1  -0.00529514  -0.00251084  0.79859449  1
  Mo  Mo245  1  0.40692825  0.19749630  -0.00264225  1
  Mo  Mo246  1  -0.00281678  0.59447452  0.40997020  1
  Mo  Mo247  1  0.90581165  0.49021563  0.10379075  1
  Mo  Mo248  1  0.19289874  0.80716514  -0.00538668  1
  Mo  Mo249  1  0.70316901  0.30662843  0.69687146  1
