# generated using pymatgen
data_HfZrTaTiMo
_symmetry_space_group_name_H-M   'P 1'
_cell_length_a   16.88216183
_cell_length_b   16.88986588
_cell_length_c   16.88647241
_cell_angle_alpha   90.03569296
_cell_angle_beta   89.98801396
_cell_angle_gamma   89.97879218
_symmetry_Int_Tables_number   1
_chemical_formula_structural   HfZrTaTiMo
_chemical_formula_sum   'Hf50 Zr50 Ta50 Ti50 Mo50'
_cell_volume   4814.96429674
_cell_formula_units_Z   50
loop_
 _symmetry_equiv_pos_site_id
 _symmetry_equiv_pos_as_xyz
  1  'x, y, z'
loop_
 _atom_site_type_symbol
 _atom_site_label
 _atom_site_symmetry_multiplicity
 _atom_site_fract_x
 _atom_site_fract_y
 _atom_site_fract_z
 _atom_site_occupancy
  Hf  Hf0  1  0.90085906  0.29902703  0.09396428  1
  Hf  Hf1  1  0.29414579  0.90919959  0.49540318  1
  Hf  Hf2  1  0.70180042  0.90060516  0.49883331  1
  Hf  Hf3  1  0.09297886  0.30547187  0.29424584  1
  Hf  Hf4  1  0.60108565  0.59413358  0.40960646  1
  Hf  Hf5  1  0.89496493  0.30290976  0.50048511  1
  Hf  Hf6  1  0.50453476  0.69973837  0.29912604  1
  Hf  Hf7  1  0.69684581  0.90864750  0.09242889  1
  Hf  Hf8  1  0.50917526  0.30058845  0.69567525  1
  Hf  Hf9  1  0.40085533  0.60065107  0.79243125  1
  Hf  Hf10  1  0.50555355  0.09750220  0.91496186  1
  Hf  Hf11  1  0.19962824  0.00819098  0.80155663  1
  Hf  Hf12  1  0.40257365  0.79902639  0.60777249  1
  Hf  Hf13  1  0.90211491  0.48928933  0.50193089  1
  Hf  Hf14  1  0.50532170  0.69891236  0.09879503  1
  Hf  Hf15  1  0.90766242  0.49112713  0.09479361  1
  Hf  Hf16  1  0.20302583  0.79518971  0.60899623  1
  Hf  Hf17  1  0.19950272  0.78458633  0.38568941  1
  Hf  Hf18  1  0.29567550  0.49141760  0.89182188  1
  Hf  Hf19  1  0.51347277  0.11132036  0.10080724  1
  Hf  Hf20  1  0.80880321  0.59456425  0.40004209  1
  Hf  Hf21  1  0.89299408  0.29294776  0.69871429  1
  Hf  Hf22  1  0.89432388  0.30615703  0.29999949  1
  Hf  Hf23  1  0.20413206  0.39587394  0.39516391  1
  Hf  Hf24  1  0.79926702  0.80076589  0.19449976  1
  Hf  Hf25  1  0.19978703  0.20770300  0.19787934  1
  Hf  Hf26  1  0.70322078  0.49501546  0.09938140  1
  Hf  Hf27  1  0.59544603  0.39475685  0.41177360  1
  Hf  Hf28  1  0.90478102  0.49740642  0.90654596  1
  Hf  Hf29  1  0.30020397  0.30309543  0.70157063  1
  Hf  Hf30  1  0.29994688  0.69875249  0.90182194  1
  Hf  Hf31  1  0.08761964  0.30845178  0.50040573  1
  Hf  Hf32  1  0.20211908  0.59402966  0.20075134  1
  Hf  Hf33  1  0.89522745  0.90234636  0.89064565  1
  Hf  Hf34  1  0.89001204  0.90423516  0.70512136  1
  Hf  Hf35  1  0.29224655  0.90585425  0.29749764  1
  Hf  Hf36  1  0.30717026  0.90695692  0.70590632  1
  Hf  Hf37  1  0.39770757  0.21240936  0.00551724  1
  Hf  Hf38  1  0.19354677  0.59373034  0.38638107  1
  Hf  Hf39  1  0.00362126  0.18737287  0.19872633  1
  Hf  Hf40  1  0.79585706  0.79707059  -0.00406959  1
  Hf  Hf41  1  0.10874971  0.09348613  0.49040134  1
  Hf  Hf42  1  0.70431812  0.48640703  0.30492654  1
  Hf  Hf43  1  0.69701718  0.10605111  0.50875801  1
  Hf  Hf44  1  0.39679185  0.79708613  0.19923039  1
  Hf  Hf45  1  0.00583909  0.58257458  0.20887271  1
  Hf  Hf46  1  0.39721045  0.59105394  0.00760307  1
  Hf  Hf47  1  0.89011281  0.10878209  0.09246019  1
  Hf  Hf48  1  0.60385469  0.00272808  0.39677032  1
  Hf  Hf49  1  0.40248696  0.80587389  0.00389912  1
  Zr  Zr50  1  -0.00424585  0.79867550  0.40080548  1
  Zr  Zr51  1  0.60640007  0.19352783  0.80087609  1
  Zr  Zr52  1  -0.00794639  0.18852432  0.39507495  1
  Zr  Zr53  1  -0.00405108  0.18288905  0.60515393  1
  Zr  Zr54  1  0.09418884  0.49560054  0.89951963  1
  Zr  Zr55  1  0.09607908  0.89906597  0.89202801  1
  Zr  Zr56  1  0.40060134  0.19867885  0.80282728  1
  Zr  Zr57  1  -0.00214942  0.01704574  0.78588631  1
  Zr  Zr58  1  0.60546886  0.00293328  0.79638428  1
  Zr  Zr59  1  0.39778660  0.79867491  0.39770391  1
  Zr  Zr60  1  0.50000401  0.49446943  0.30028834  1
  Zr  Zr61  1  0.19910270  0.60297610  0.78106826  1
  Zr  Zr62  1  0.09804729  0.90090707  0.29354333  1
  Zr  Zr63  1  -0.00241722  0.60108146  0.60396376  1
  Zr  Zr64  1  0.19533867  0.80317938  0.00474008  1
  Zr  Zr65  1  0.60111965  0.59432700  -0.00497233  1
  Zr  Zr66  1  0.90181111  0.69412870  0.89952104  1
  Zr  Zr67  1  0.50741529  0.30373390  0.90008578  1
  Zr  Zr68  1  0.70062963  0.69464858  0.10085604  1
  Zr  Zr69  1  0.17563559  0.02012821  0.19074407  1
  Zr  Zr70  1  -0.01170934  0.00062030  0.40077384  1
  Zr  Zr71  1  0.30019821  0.49981679  0.50135612  1
  Zr  Zr72  1  0.50117360  0.10554344  0.50578383  1
  Zr  Zr73  1  0.20445452  0.40178422  0.00585474  1
  Zr  Zr74  1  0.69693281  0.70509890  0.30666293  1
  Zr  Zr75  1  -0.00261540  0.80472309  0.00891553  1
  Zr  Zr76  1  0.29952154  0.68805459  0.50685697  1
  Zr  Zr77  1  0.90314264  0.49481509  0.70206515  1
  Zr  Zr78  1  0.50679491  0.90398790  0.90760033  1
  Zr  Zr79  1  0.30034247  0.09850702  0.30282556  1
  Zr  Zr80  1  0.28421539  0.90125932  0.10612369  1
  Zr  Zr81  1  0.10160442  0.69211343  0.50675600  1
  Zr  Zr82  1  0.09451146  0.69466777  0.89967572  1
  Zr  Zr83  1  0.40763673  -0.00291523  0.18932544  1
  Zr  Zr84  1  0.79326860  0.40076486  0.80077423  1
  Zr  Zr85  1  0.50825839  0.70416241  0.49998840  1
  Zr  Zr86  1  0.89487333  0.70993089  0.70858365  1
  Zr  Zr87  1  0.50536787  0.49487705  0.89184510  1
  Zr  Zr88  1  0.18570265  -0.00106647  0.61207111  1
  Zr  Zr89  1  0.50871912  0.29196084  0.29705127  1
  Zr  Zr90  1  0.50306094  0.10676763  0.29859937  1
  Zr  Zr91  1  0.19531097  0.20193437  0.60480883  1
  Zr  Zr92  1  0.60195530  0.80997309  0.60882827  1
  Zr  Zr93  1  0.90103020  0.70382485  0.29432221  1
  Zr  Zr94  1  0.10460490  0.11887625  0.90395271  1
  Zr  Zr95  1  0.69409229  0.29412179  0.50589421  1
  Zr  Zr96  1  -0.00591623  0.81458038  0.59229817  1
  Zr  Zr97  1  0.00380201  0.00665332  0.00762133  1
  Zr  Zr98  1  0.41306678  0.40680825  0.59464319  1
  Zr  Zr99  1  0.30614543  0.09891474  0.50472194  1
  Ta  Ta100  1  0.59795055  0.80953039  0.19623090  1
  Ta  Ta101  1  0.09737011  0.49620064  0.50558711  1
  Ta  Ta102  1  0.70359540  0.29399735  0.90299187  1
  Ta  Ta103  1  0.80578370  0.58937648  0.20255228  1
  Ta  Ta104  1  0.20741744  0.79890604  0.79555384  1
  Ta  Ta105  1  0.71939680  0.10447375  0.69883502  1
  Ta  Ta106  1  0.19538910  0.00623234  0.00331138  1
  Ta  Ta107  1  0.79962147  0.00371967  -0.00448456  1
  Ta  Ta108  1  0.79646911  0.19533722  0.39563615  1
  Ta  Ta109  1  0.19889944  0.40434871  0.19806406  1
  Ta  Ta110  1  0.41091663  0.59751264  0.60993096  1
  Ta  Ta111  1  0.60598085  0.00138116  0.19813763  1
  Ta  Ta112  1  0.69615522  0.70062657  0.70145609  1
  Ta  Ta113  1  0.00234204  0.59509899  0.39315676  1
  Ta  Ta114  1  0.90370861  0.68664039  0.09784984  1
  Ta  Ta115  1  0.29789842  0.10405978  0.90586954  1
  Ta  Ta116  1  0.50948866  0.70169229  0.70954157  1
  Ta  Ta117  1  0.20309618  0.20555280  0.39348261  1
  Ta  Ta118  1  0.79244825  0.59829434  0.60555666  1
  Ta  Ta119  1  0.50858989  0.70396326  0.89357691  1
  Ta  Ta120  1  0.80125855  0.00834334  0.39453837  1
  Ta  Ta121  1  0.39602627  0.21126987  0.40048233  1
  Ta  Ta122  1  0.70171205  0.90161381  0.29963338  1
  Ta  Ta123  1  0.10014079  0.30212323  0.89811735  1
  Ta  Ta124  1  0.39740600  0.59352935  0.19651545  1
  Ta  Ta125  1  0.70430625  0.49755749  0.50374542  1
  Ta  Ta126  1  -0.00068057  0.20196771  0.79669472  1
  Ta  Ta127  1  0.69896323  0.29528324  0.69826912  1
  Ta  Ta128  1  0.70476644  0.70187334  0.50459412  1
  Ta  Ta129  1  0.59872806  0.39216176  0.00867015  1
  Ta  Ta130  1  0.89530343  0.90799377  0.10509777  1
  Ta  Ta131  1  0.19640627  0.39959536  0.60067639  1
  Ta  Ta132  1  0.79513784  0.00888220  0.20165080  1
  Ta  Ta133  1  0.30508324  0.10446184  0.70305052  1
  Ta  Ta134  1  0.60114606  0.59545968  0.60522262  1
  Ta  Ta135  1  0.09180871  0.30138476  0.08907275  1
  Ta  Ta136  1  0.79702225  0.39449548  0.20024767  1
  Ta  Ta137  1  0.19754241  0.59291826  0.01262791  1
  Ta  Ta138  1  0.79242071  0.40160489  0.60362185  1
  Ta  Ta139  1  0.60266209  0.38901241  0.19164570  1
  Ta  Ta140  1  0.50839651  0.89884990  0.30055445  1
  Ta  Ta141  1  0.40193145  0.79932091  0.80283597  1
  Ta  Ta142  1  0.09483269  0.69495520  0.10542252  1
  Ta  Ta143  1  0.90177836  0.29461998  0.90371808  1
  Ta  Ta144  1  0.30278689  0.29833124  0.50344042  1
  Ta  Ta145  1  0.40351680  0.40119998  0.01071363  1
  Ta  Ta146  1  0.89336974  0.90524341  0.29296849  1
  Ta  Ta147  1  0.39990967  0.39749084  0.19227774  1
  Ta  Ta148  1  0.30759579  0.49261036  0.29764729  1
  Ta  Ta149  1  0.78715015  0.59804369  0.80200026  1
  Ti  Ti150  1  0.69330981  0.11044603  0.29787822  1
  Ti  Ti151  1  0.70003488  0.28766873  0.09599326  1
  Ti  Ti152  1  0.29394172  0.69987712  0.10403180  1
  Ti  Ti153  1  0.60236962  0.41467429  0.60823602  1
  Ti  Ti154  1  0.00243994  0.80152399  0.19512669  1
  Ti  Ti155  1  0.29429147  0.49581428  0.69518309  1
  Ti  Ti156  1  0.28865743  0.29887132  0.89228480  1
  Ti  Ti157  1  0.60449122  0.79995856  -0.00513820  1
  Ti  Ti158  1  0.60046143  0.59012910  0.19959784  1
  Ti  Ti159  1  0.60737159  0.59458610  0.79407060  1
  Ti  Ti160  1  0.09216573  0.70771671  0.70344160  1
  Ti  Ti161  1  0.40218230  0.59578041  0.39935598  1
  Ti  Ti162  1  -0.00067576  0.41658803  0.38354065  1
  Ti  Ti163  1  0.40391437  0.39348327  0.40213491  1
  Ti  Ti164  1  0.50116770  0.90031324  0.71229168  1
  Ti  Ti165  1  0.79463051  0.59893460  -0.00672910  1
  Ti  Ti166  1  0.77928435  0.79459617  0.80833610  1
  Ti  Ti167  1  0.00149005  0.39207127  0.79929691  1
  Ti  Ti168  1  0.39355963  0.20967088  0.19850764  1
  Ti  Ti169  1  0.39661648  -0.00127866  0.00750487  1
  Ti  Ti170  1  0.49611135  0.10451012  0.69199863  1
  Ti  Ti171  1  -0.00802678  0.00236447  0.59463296  1
  Ti  Ti172  1  0.60047312  0.00066717  0.60844219  1
  Ti  Ti173  1  0.29491429  0.10730903  0.09101101  1
  Ti  Ti174  1  0.40805958  -0.00317616  0.60247507  1
  Ti  Ti175  1  0.69901994  0.10663485  0.09122116  1
  Ti  Ti176  1  0.10735151  0.90292288  0.49120202  1
  Ti  Ti177  1  0.40415899  0.40353578  0.79361659  1
  Ti  Ti178  1  0.40230336  0.00534606  0.80490356  1
  Ti  Ti179  1  0.09207575  0.89397927  0.70671395  1
  Ti  Ti180  1  0.30085786  0.90681483  0.90102020  1
  Ti  Ti181  1  0.80570676  0.80782193  0.40484125  1
  Ti  Ti182  1  0.70812457  0.10588295  0.90580538  1
  Ti  Ti183  1  0.10256288  0.30190218  0.70822127  1
  Ti  Ti184  1  0.40562023  -0.00086281  0.39770684  1
  Ti  Ti185  1  0.69765055  0.90822682  0.89852701  1
  Ti  Ti186  1  -0.00037887  0.59873713  0.79466172  1
  Ti  Ti187  1  -0.00509899  0.00767013  0.19928624  1
  Ti  Ti188  1  0.81157660  0.00529801  0.59378423  1
  Ti  Ti189  1  0.69433783  0.49042037  0.89890634  1
  Ti  Ti190  1  0.50478097  0.90053364  0.49446220  1
  Ti  Ti191  1  0.79860609  0.80057508  0.59881314  1
  Ti  Ti192  1  0.89071423  0.10996541  0.89339550  1
  Ti  Ti193  1  0.29704559  0.30400906  0.10192071  1
  Ti  Ti194  1  0.09898793  0.48923668  0.69531716  1
  Ti  Ti195  1  0.79402108  0.39391044  -0.00101293  1
  Ti  Ti196  1  0.70882544  0.90619777  0.70547409  1
  Ti  Ti197  1  0.79268693  0.20090895  0.20552044  1
  Ti  Ti198  1  0.50345861  0.28392743  0.50852180  1
  Ti  Ti199  1  0.89438518  0.69934381  0.50250302  1
  Mo  Mo200  1  0.50322990  0.49419489  0.10458479  1
  Mo  Mo201  1  0.19545042  0.39620139  0.79220266  1
  Mo  Mo202  1  0.61243482  0.00740153  0.00131495  1
  Mo  Mo203  1  0.88761420  0.90449006  0.49895323  1
  Mo  Mo204  1  0.09943369  0.49437786  0.10155798  1
  Mo  Mo205  1  0.88816399  0.09946522  0.50077528  1
  Mo  Mo206  1  0.50330748  0.50397464  0.50346158  1
  Mo  Mo207  1  0.50789647  0.50199114  0.70139959  1
  Mo  Mo208  1  0.00494618  0.80050205  0.79526655  1
  Mo  Mo209  1  0.19767576  0.00411860  0.39504125  1
  Mo  Mo210  1  0.69438813  0.69580944  0.89386808  1
  Mo  Mo211  1  0.69795038  0.50154838  0.69893216  1
  Mo  Mo212  1  0.00501960  0.39648913  0.60760488  1
  Mo  Mo213  1  0.80309560  0.19921552  0.80134884  1
  Mo  Mo214  1  0.88686933  0.09950162  0.29249484  1
  Mo  Mo215  1  0.79564593  0.00592394  0.80475682  1
  Mo  Mo216  1  0.89399943  0.10005241  0.69803961  1
  Mo  Mo217  1  0.40030301  0.20224505  0.59909189  1
  Mo  Mo218  1  0.30616816  0.30345864  0.29877690  1
  Mo  Mo219  1  0.60387838  0.80158978  0.80240999  1
  Mo  Mo220  1  0.30850893  0.68709919  0.29433718  1
  Mo  Mo221  1  0.00586686  0.59563219  0.01016992  1
  Mo  Mo222  1  0.09657941  0.69845262  0.29091980  1
  Mo  Mo223  1  0.00174642  0.39526472  0.19465154  1
  Mo  Mo224  1  0.70172993  0.29569861  0.29854416  1
  Mo  Mo225  1  0.79822041  0.19955444  -0.00541955  1
  Mo  Mo226  1  0.20172374  0.20445087  0.80228151  1
  Mo  Mo227  1  0.79915888  0.20174589  0.59930609  1
  Mo  Mo228  1  0.60781211  0.80491218  0.39571755  1
  Mo  Mo229  1  0.00357597  0.39519093  -0.00499939  1
  Mo  Mo230  1  -0.00378366  0.20374300  -0.00822760  1
  Mo  Mo231  1  0.89610772  0.49200548  0.29783025  1
  Mo  Mo232  1  0.09972754  0.10500417  0.30476200  1
  Mo  Mo233  1  0.09638873  0.11476680  0.08938912  1
  Mo  Mo234  1  0.20614215  0.20652492  0.00280701  1
  Mo  Mo235  1  0.19790905  0.59067289  0.60730146  1
  Mo  Mo236  1  0.60049786  0.19111076  0.61120982  1
  Mo  Mo237  1  0.30355152  0.49610794  0.10431170  1
  Mo  Mo238  1  0.10318556  0.49360666  0.29964170  1
  Mo  Mo239  1  0.60904972  0.20316143  0.00221106  1
  Mo  Mo240  1  0.08841863  0.89635106  0.10519382  1
  Mo  Mo241  1  0.60830316  0.39867720  0.79985201  1
  Mo  Mo242  1  0.59998241  0.19955729  0.39808520  1
  Mo  Mo243  1  0.31151814  0.70339181  0.70146845  1
  Mo  Mo244  1  0.50207566  0.29951890  0.10302918  1
  Mo  Mo245  1  0.51011133  0.90354882  0.10068256  1
  Mo  Mo246  1  0.19327742  0.78253246  0.20210023  1
  Mo  Mo247  1  0.79662701  0.39545788  0.40215551  1
  Mo  Mo248  1  0.61680077  0.20130015  0.19775136  1
  Mo  Mo249  1  0.10359583  0.10979638  0.70442635  1
