# generated using pymatgen
data_HfZrTaTiMo
_symmetry_space_group_name_H-M   'P 1'
_cell_length_a   16.88753707
_cell_length_b   16.88529001
_cell_length_c   16.88354969
_cell_angle_alpha   89.97085737
_cell_angle_beta   89.99985581
_cell_angle_gamma   90.01100716
_symmetry_Int_Tables_number   1
_chemical_formula_structural   HfZrTaTiMo
_chemical_formula_sum   'Hf50 Zr50 Ta50 Ti50 Mo50'
_cell_volume   4814.35970892
_cell_formula_units_Z   50
loop_
 _symmetry_equiv_pos_site_id
 _symmetry_equiv_pos_as_xyz
  1  'x, y, z'
loop_
 _atom_site_type_symbol
 _atom_site_label
 _atom_site_symmetry_multiplicity
 _atom_site_fract_x
 _atom_site_fract_y
 _atom_site_fract_z
 _atom_site_occupancy
  Hf  Hf0  1  0.89878376  0.50468572  0.30001770  1
  Hf  Hf1  1  0.79643913  0.21302310  0.80631973  1
  Hf  Hf2  1  0.10233783  0.30056145  0.49364962  1
  Hf  Hf3  1  0.00212393  0.00109612  0.20110116  1
  Hf  Hf4  1  0.90303992  0.70193074  0.29598215  1
  Hf  Hf5  1  0.41312573  0.59215188  0.00551893  1
  Hf  Hf6  1  0.30078545  0.90504934  0.29981192  1
  Hf  Hf7  1  0.40972568  0.59403341  0.80671205  1
  Hf  Hf8  1  0.50300382  0.49259734  0.69551621  1
  Hf  Hf9  1  0.40387132  0.79331400  0.19875040  1
  Hf  Hf10  1  0.60367108  0.61181859  0.39353264  1
  Hf  Hf11  1  0.30315668  0.09573386  0.29845359  1
  Hf  Hf12  1  0.79875156  0.60521680  0.59940790  1
  Hf  Hf13  1  -0.00441530  0.20129170  0.39360916  1
  Hf  Hf14  1  0.89865438  0.49654771  0.49213883  1
  Hf  Hf15  1  0.60507073  0.21184306  -0.00464760  1
  Hf  Hf16  1  0.60656174  0.59221230  0.59546834  1
  Hf  Hf17  1  0.29186793  0.49664875  0.90917196  1
  Hf  Hf18  1  0.30290098  0.90598042  0.49727820  1
  Hf  Hf19  1  0.10215686  0.89111815  0.89172684  1
  Hf  Hf20  1  0.09415692  0.30329916  0.89747495  1
  Hf  Hf21  1  0.89504245  0.29609224  0.09163863  1
  Hf  Hf22  1  0.00970494  0.19723268  0.00279224  1
  Hf  Hf23  1  0.30043045  0.10046535  0.10123119  1
  Hf  Hf24  1  0.69568686  0.69732751  0.89628198  1
  Hf  Hf25  1  0.19208570  0.40343219  0.19921281  1
  Hf  Hf26  1  0.40860510  0.38768427  0.81130345  1
  Hf  Hf27  1  0.09835655  0.49571364  0.48830999  1
  Hf  Hf28  1  0.09566578  0.49703409  0.90141632  1
  Hf  Hf29  1  0.09028661  0.49447514  0.70653319  1
  Hf  Hf30  1  0.19552561  0.79284416  0.00683883  1
  Hf  Hf31  1  0.08790236  0.09419918  0.49963779  1
  Hf  Hf32  1  0.40893389  0.20631487  -0.00602850  1
  Hf  Hf33  1  0.69404264  0.89111394  0.10190821  1
  Hf  Hf34  1  0.50108601  0.09659123  0.30633711  1
  Hf  Hf35  1  0.00581938  0.00077943  0.00116967  1
  Hf  Hf36  1  0.09363944  0.70005962  0.29918315  1
  Hf  Hf37  1  0.60203471  0.38870049  0.40496799  1
  Hf  Hf38  1  0.09515267  0.70109965  0.89635872  1
  Hf  Hf39  1  0.70510928  0.90127979  0.69888760  1
  Hf  Hf40  1  0.59748237  0.00173049  0.79931173  1
  Hf  Hf41  1  0.81414074  -0.01580534  0.00599913  1
  Hf  Hf42  1  0.19445527  0.00768973  -0.00135342  1
  Hf  Hf43  1  0.19986855  0.20369851  0.79544837  1
  Hf  Hf44  1  0.40262320  0.40692929  0.19378098  1
  Hf  Hf45  1  0.69568271  0.89970558  0.90616900  1
  Hf  Hf46  1  0.79638088  0.20635413  0.20367980  1
  Hf  Hf47  1  0.60182464  0.00315280  0.59835439  1
  Hf  Hf48  1  -0.00532937  0.60534488  0.00565935  1
  Hf  Hf49  1  0.10671876  0.71129175  0.70357359  1
  Zr  Zr50  1  0.50625634  0.49862365  0.29922861  1
  Zr  Zr51  1  0.70499143  0.50006418  0.29250808  1
  Zr  Zr52  1  0.00434140  0.39730089  0.19587588  1
  Zr  Zr53  1  0.79174388  0.61833618  0.40444940  1
  Zr  Zr54  1  0.19349302  0.01275013  0.80014239  1
  Zr  Zr55  1  -0.00186679  0.80110324  0.59372917  1
  Zr  Zr56  1  0.39778973  0.20234219  0.40730370  1
  Zr  Zr57  1  0.89943328  0.10380594  0.90087054  1
  Zr  Zr58  1  0.88276740  0.10215946  0.50060683  1
  Zr  Zr59  1  0.29489061  0.29960160  0.30193890  1
  Zr  Zr60  1  0.29778111  0.29483661  0.10082697  1
  Zr  Zr61  1  0.80156227  0.59971341  -0.00456020  1
  Zr  Zr62  1  0.19966201  0.60549843  0.59429320  1
  Zr  Zr63  1  0.70574319  0.48844913  0.49636895  1
  Zr  Zr64  1  0.41024332  0.40227435  0.00000475  1
  Zr  Zr65  1  0.40661031  0.59839441  0.19898642  1
  Zr  Zr66  1  0.60229856  0.20012926  0.19278696  1
  Zr  Zr67  1  0.90097037  0.91854903  0.49869900  1
  Zr  Zr68  1  0.40098281  0.79989661  0.59846980  1
  Zr  Zr69  1  0.29321798  0.89438178  0.70329779  1
  Zr  Zr70  1  0.60792382  0.79971322  0.40054890  1
  Zr  Zr71  1  0.89024224  0.29649780  0.50490227  1
  Zr  Zr72  1  0.19442707  0.80068097  0.40602724  1
  Zr  Zr73  1  0.89408162  0.10290447  0.69330768  1
  Zr  Zr74  1  0.60491136  0.39705611  0.80264833  1
  Zr  Zr75  1  0.30741188  0.49367053  0.69677580  1
  Zr  Zr76  1  0.70254674  0.10336573  0.31587855  1
  Zr  Zr77  1  0.59490053  0.20657655  0.79633407  1
  Zr  Zr78  1  0.09964979  0.89291017  0.11044657  1
  Zr  Zr79  1  0.50071707  0.70321359  0.50015925  1
  Zr  Zr80  1  0.49752946  0.09839587  0.50033845  1
  Zr  Zr81  1  0.19726370  0.19661198  0.60518910  1
  Zr  Zr82  1  0.80212138  -0.00323414  0.20045499  1
  Zr  Zr83  1  0.88940745  0.49657824  0.10285591  1
  Zr  Zr84  1  0.20125244  0.59799420  0.79972419  1
  Zr  Zr85  1  0.19658980  0.60164140  0.39869996  1
  Zr  Zr86  1  0.89982428  0.69485570  0.70883773  1
  Zr  Zr87  1  0.19641216  0.39356438  0.60765085  1
  Zr  Zr88  1  0.70493379  0.09935704  0.09148741  1
  Zr  Zr89  1  0.30696411  0.89889821  0.09816561  1
  Zr  Zr90  1  0.80378522  0.80481518  0.80350392  1
  Zr  Zr91  1  0.50379446  0.29458454  0.30026516  1
  Zr  Zr92  1  0.49548290  0.90368761  0.30668388  1
  Zr  Zr93  1  0.30165958  0.70184006  0.90607075  1
  Zr  Zr94  1  0.50497789  0.69697783  0.70099981  1
  Zr  Zr95  1  0.80015532  0.40609573  0.80541424  1
  Zr  Zr96  1  0.70562969  0.09610537  0.90101631  1
  Zr  Zr97  1  0.40147671  0.00305372  0.80489284  1
  Zr  Zr98  1  -0.00094334  0.60581271  0.58742098  1
  Zr  Zr99  1  0.79801497  0.80032246  0.40436520  1
  Ta  Ta100  1  0.29943300  0.30627784  0.49987795  1
  Ta  Ta101  1  0.30123269  0.49185043  0.49537213  1
  Ta  Ta102  1  0.40118097  0.20504814  0.80260883  1
  Ta  Ta103  1  0.70321243  0.90090369  0.29751184  1
  Ta  Ta104  1  0.80437918  0.80090153  0.59908442  1
  Ta  Ta105  1  0.00031078  0.39868823  0.39088121  1
  Ta  Ta106  1  0.60048046  0.61076371  0.19479990  1
  Ta  Ta107  1  0.00442946  0.60150942  0.19370974  1
  Ta  Ta108  1  0.30081440  0.69500233  0.29880656  1
  Ta  Ta109  1  -0.00969331  0.79555155  0.01185746  1
  Ta  Ta110  1  0.59415167  0.79565143  0.00032155  1
  Ta  Ta111  1  -0.00371338  0.39588949  0.60118659  1
  Ta  Ta112  1  0.69503759  0.49901470  0.09783258  1
  Ta  Ta113  1  0.60030474  0.39190730  0.59963941  1
  Ta  Ta114  1  0.18387978  0.19548418  0.19554278  1
  Ta  Ta115  1  0.30779563  0.10285239  0.69648500  1
  Ta  Ta116  1  0.00304035  0.19763530  0.19982258  1
  Ta  Ta117  1  0.49993900  0.90012841  0.70134643  1
  Ta  Ta118  1  0.40331715  0.79826032  0.80479497  1
  Ta  Ta119  1  0.10322785  0.89783131  0.69826271  1
  Ta  Ta120  1  0.49562243  0.89477153  0.90636183  1
  Ta  Ta121  1  0.89791532  0.09554203  0.30809588  1
  Ta  Ta122  1  0.30395397  0.89610558  0.90432939  1
  Ta  Ta123  1  0.19855405  0.79289039  0.20437215  1
  Ta  Ta124  1  0.40241499  0.40504209  0.40449135  1
  Ta  Ta125  1  0.00100458  0.79994105  0.40440789  1
  Ta  Ta126  1  0.60790365  -0.00232211  0.40589227  1
  Ta  Ta127  1  0.90049774  0.10487967  0.10252051  1
  Ta  Ta128  1  0.19270789  0.59833382  0.19802769  1
  Ta  Ta129  1  0.60373861  0.20477186  0.59792306  1
  Ta  Ta130  1  0.89738428  0.49647541  0.70161140  1
  Ta  Ta131  1  0.69774353  0.69660646  0.70714100  1
  Ta  Ta132  1  0.19315826  0.39104133  0.00374877  1
  Ta  Ta133  1  0.49518345  0.10450594  0.69601969  1
  Ta  Ta134  1  0.29459664  0.49982386  0.30460140  1
  Ta  Ta135  1  0.90141024  0.30217134  0.70123304  1
  Ta  Ta136  1  0.59659327  -0.00255167  0.19839581  1
  Ta  Ta137  1  0.29510192  0.69298449  0.10104343  1
  Ta  Ta138  1  0.79008828  0.39496132  -0.00990092  1
  Ta  Ta139  1  0.19603598  0.00263316  0.60113156  1
  Ta  Ta140  1  0.00536556  0.20007643  0.79619857  1
  Ta  Ta141  1  0.90631731  0.90082828  0.30288491  1
  Ta  Ta142  1  0.30098161  0.10701342  0.90223826  1
  Ta  Ta143  1  0.30127102  0.70321559  0.70015649  1
  Ta  Ta144  1  0.10288720  0.29895572  0.30219428  1
  Ta  Ta145  1  0.20338752  0.38758567  0.80158274  1
  Ta  Ta146  1  0.39987949  0.59325091  0.58946182  1
  Ta  Ta147  1  0.19329643  0.00133201  0.39963876  1
  Ta  Ta148  1  0.40058631  0.59881697  0.40126978  1
  Ta  Ta149  1  0.59440358  0.80186425  0.80178932  1
  Ti  Ti150  1  -0.00825917  0.80951296  0.79419086  1
  Ti  Ti151  1  0.79027982  0.39006930  0.19813484  1
  Ti  Ti152  1  0.50027730  0.10033934  0.90047947  1
  Ti  Ti153  1  0.19339303  0.19947843  -0.00039182  1
  Ti  Ti154  1  0.00575122  0.20520147  0.60913031  1
  Ti  Ti155  1  0.60135997  0.40161579  -0.00524446  1
  Ti  Ti156  1  0.40869950  0.19564146  0.19267928  1
  Ti  Ti157  1  0.58877867  0.00111241  0.00622037  1
  Ti  Ti158  1  0.10039914  0.50148045  0.09131137  1
  Ti  Ti159  1  0.89933412  0.29851074  0.29789282  1
  Ti  Ti160  1  0.69491644  0.51062268  0.89433075  1
  Ti  Ti161  1  0.70308893  0.30094769  0.69245217  1
  Ti  Ti162  1  0.79465556  0.39925955  0.60629061  1
  Ti  Ti163  1  0.79540470  0.38208050  0.39029642  1
  Ti  Ti164  1  0.09753770  0.09697040  0.30393078  1
  Ti  Ti165  1  0.81041015  0.80154392  0.19298981  1
  Ti  Ti166  1  0.59645745  0.59599001  0.00306360  1
  Ti  Ti167  1  0.59515282  0.79446499  0.20399300  1
  Ti  Ti168  1  0.09963298  0.90495584  0.50246327  1
  Ti  Ti169  1  0.90812112  0.89759906  0.89877806  1
  Ti  Ti170  1  0.81077348  0.79517144  0.00786772  1
  Ti  Ti171  1  0.60954602  0.39444844  0.19518304  1
  Ti  Ti172  1  0.81087551  -0.00528139  0.79436015  1
  Ti  Ti173  1  0.50103426  0.70349406  0.09492915  1
  Ti  Ti174  1  0.50697441  0.30590953  0.10037186  1
  Ti  Ti175  1  0.19940931  0.19330495  0.39920461  1
  Ti  Ti176  1  -0.01062371  0.40074727  -0.00725274  1
  Ti  Ti177  1  0.41312613  0.00356939  0.18875028  1
  Ti  Ti178  1  0.71027524  0.91212287  0.50230448  1
  Ti  Ti179  1  0.49723358  0.30180371  0.50702797  1
  Ti  Ti180  1  0.89837182  0.69956758  0.89686561  1
  Ti  Ti181  1  0.70690096  0.10176763  0.69165552  1
  Ti  Ti182  1  0.60578329  0.80538606  0.59917576  1
  Ti  Ti183  1  0.29931627  0.09680409  0.50174789  1
  Ti  Ti184  1  0.69814049  0.70386019  0.09819940  1
  Ti  Ti185  1  0.40448925  0.00353894  0.00029112  1
  Ti  Ti186  1  0.19176145  0.00145995  0.20455438  1
  Ti  Ti187  1  0.00394581  0.00582306  0.79659098  1
  Ti  Ti188  1  0.00291045  -0.00040331  0.61502664  1
  Ti  Ti189  1  0.40336203  0.20534601  0.60295040  1
  Ti  Ti190  1  0.49461048  0.90467883  0.49698401  1
  Ti  Ti191  1  0.28779597  0.50586566  0.09690108  1
  Ti  Ti192  1  0.31438382  0.30097657  0.69431981  1
  Ti  Ti193  1  0.50002234  0.89585206  0.09385885  1
  Ti  Ti194  1  0.29861815  0.70247206  0.50187609  1
  Ti  Ti195  1  -0.01335739  0.58924692  0.80812492  1
  Ti  Ti196  1  0.50629258  0.69907866  0.90086659  1
  Ti  Ti197  1  0.79474145  0.61157612  0.19308987  1
  Ti  Ti198  1  0.40063639  0.79131700  0.39545064  1
  Ti  Ti199  1  0.39909816  0.00143532  0.60260562  1
  Mo  Mo200  1  0.70128128  0.31099866  0.09800002  1
  Mo  Mo201  1  -0.00120748  0.80043254  0.20410028  1
  Mo  Mo202  1  0.09609001  0.70457922  0.49668650  1
  Mo  Mo203  1  0.60403359  0.59941207  0.79974874  1
  Mo  Mo204  1  0.10012067  0.10076330  0.10485885  1
  Mo  Mo205  1  0.09521805  0.09706059  0.69650229  1
  Mo  Mo206  1  0.70172186  0.71114069  0.27434928  1
  Mo  Mo207  1  0.40628646  0.79435480  0.00083625  1
  Mo  Mo208  1  -0.00646055  0.39600071  0.79841609  1
  Mo  Mo209  1  0.90433786  0.89382270  0.10629749  1
  Mo  Mo210  1  0.20664172  0.80188187  0.80216603  1
  Mo  Mo211  1  0.79218373  0.00160450  0.60275432  1
  Mo  Mo212  1  0.19283326  0.59565520  0.00994567  1
  Mo  Mo213  1  0.10153027  0.10413498  0.89548609  1
  Mo  Mo214  1  0.10005209  0.90033899  0.30453763  1
  Mo  Mo215  1  0.80346590  0.20885387  -0.00056264  1
  Mo  Mo216  1  0.49695583  0.70028213  0.29859178  1
  Mo  Mo217  1  0.70081965  0.30158478  0.90397367  1
  Mo  Mo218  1  0.20241217  0.39904264  0.39475404  1
  Mo  Mo219  1  0.70281540  0.49917800  0.69690617  1
  Mo  Mo220  1  0.78913192  0.20558795  0.60677341  1
  Mo  Mo221  1  0.90370597  0.90854922  0.70177791  1
  Mo  Mo222  1  0.09757103  0.69751177  0.10507952  1
  Mo  Mo223  1  0.89991652  0.70337719  0.49493450  1
  Mo  Mo224  1  0.09622061  0.50096615  0.29756561  1
  Mo  Mo225  1  -0.00165410  0.59879958  0.39303168  1
  Mo  Mo226  1  0.79771913  0.59511324  0.79730925  1
  Mo  Mo227  1  0.39337242  0.00064428  0.40723945  1
  Mo  Mo228  1  0.52217799  0.49840983  0.10069156  1
  Mo  Mo229  1  0.51550832  0.50278213  0.90325013  1
  Mo  Mo230  1  0.70264529  0.29827785  0.30196310  1
  Mo  Mo231  1  0.29240145  0.29608852  0.90173202  1
  Mo  Mo232  1  0.90332576  0.30340352  0.89942238  1
  Mo  Mo233  1  0.40484126  0.39621427  0.59002624  1
  Mo  Mo234  1  0.19801086  0.80516280  0.59877087  1
  Mo  Mo235  1  0.79882039  0.20595764  0.39800182  1
  Mo  Mo236  1  0.89924002  0.49843538  0.89887439  1
  Mo  Mo237  1  0.70201181  0.29364486  0.50167181  1
  Mo  Mo238  1  0.60775489  0.20085520  0.41617480  1
  Mo  Mo239  1  0.49971307  0.09302915  0.09583263  1
  Mo  Mo240  1  0.08870044  0.30094856  0.70172772  1
  Mo  Mo241  1  0.49595674  0.49627856  0.49985756  1
  Mo  Mo242  1  0.69798646  0.10536784  0.50230896  1
  Mo  Mo243  1  0.69944292  0.71458115  0.52196032  1
  Mo  Mo244  1  0.00446071  -0.00280858  0.39199718  1
  Mo  Mo245  1  0.09634136  0.29994307  0.09819789  1
  Mo  Mo246  1  0.50437239  0.30022671  0.90189831  1
  Mo  Mo247  1  0.49785411  0.29525742  0.69118645  1
  Mo  Mo248  1  0.89853076  0.70300571  0.10577319  1
  Mo  Mo249  1  0.79741804  -0.00321107  0.39864982  1
