# generated using pymatgen
data_HfZrTaTiMo
_symmetry_space_group_name_H-M   'P 1'
_cell_length_a   16.88453808
_cell_length_b   16.89250298
_cell_length_c   16.89370344
_cell_angle_alpha   89.99659267
_cell_angle_beta   90.00190664
_cell_angle_gamma   90.05402922
_symmetry_Int_Tables_number   1
_chemical_formula_structural   HfZrTaTiMo
_chemical_formula_sum   'Hf50 Zr50 Ta50 Ti50 Mo50'
_cell_volume   4818.45558262
_cell_formula_units_Z   50
loop_
 _symmetry_equiv_pos_site_id
 _symmetry_equiv_pos_as_xyz
  1  'x, y, z'
loop_
 _atom_site_type_symbol
 _atom_site_label
 _atom_site_symmetry_multiplicity
 _atom_site_fract_x
 _atom_site_fract_y
 _atom_site_fract_z
 _atom_site_occupancy
  Hf  Hf0  1  0.89770455  0.10012153  0.30466795  1
  Hf  Hf1  1  0.89608695  0.48975356  0.30673688  1
  Hf  Hf2  1  0.19887656  0.60580262  0.40200657  1
  Hf  Hf3  1  0.49438025  0.09505894  0.69714908  1
  Hf  Hf4  1  0.19784516  0.80598483  0.60233973  1
  Hf  Hf5  1  0.80294279  0.60397119  0.20113890  1
  Hf  Hf6  1  0.69403795  0.49621528  0.09833168  1
  Hf  Hf7  1  -0.00281157  0.39039056  0.60558608  1
  Hf  Hf8  1  0.19580051  -0.00437439  0.19906509  1
  Hf  Hf9  1  0.20378505  0.00116179  -0.00035079  1
  Hf  Hf10  1  0.79791148  0.80264356  -0.00597680  1
  Hf  Hf11  1  0.69058843  0.90288954  0.29903779  1
  Hf  Hf12  1  -0.01300756  0.20645917  0.41393928  1
  Hf  Hf13  1  0.09463190  0.70040441  0.50815444  1
  Hf  Hf14  1  0.50610543  0.30368693  0.49885745  1
  Hf  Hf15  1  0.49977540  0.29948877  0.10091995  1
  Hf  Hf16  1  0.40311657  0.19914843  0.39292121  1
  Hf  Hf17  1  0.19615745  0.80168843  0.20578560  1
  Hf  Hf18  1  0.20156667  0.39689307  0.79897856  1
  Hf  Hf19  1  0.60103600  0.00538480  0.80425984  1
  Hf  Hf20  1  0.50114786  0.50245311  0.90199943  1
  Hf  Hf21  1  0.09969118  0.69972658  0.08864831  1
  Hf  Hf22  1  0.60276565  0.39752071  0.60513795  1
  Hf  Hf23  1  0.91236181  0.90991488  0.31990453  1
  Hf  Hf24  1  0.08282826  0.89987066  0.48982738  1
  Hf  Hf25  1  0.90766827  0.70391111  0.09070268  1
  Hf  Hf26  1  0.39070182  0.60874324  0.80024465  1
  Hf  Hf27  1  0.00018869  0.81363213  0.78703958  1
  Hf  Hf28  1  0.79396139  0.60281513  -0.00532303  1
  Hf  Hf29  1  -0.00052685  0.60264823  0.20814607  1
  Hf  Hf30  1  0.20343054  0.40247188  0.60858038  1
  Hf  Hf31  1  0.40623656  0.80174937  0.40608258  1
  Hf  Hf32  1  0.79870053  0.38923621  0.20164593  1
  Hf  Hf33  1  0.29876727  0.70188306  0.09774661  1
  Hf  Hf34  1  0.50082218  0.49269478  0.08968088  1
  Hf  Hf35  1  0.90244765  0.49306289  0.09533876  1
  Hf  Hf36  1  0.59936037  0.61663999  0.41613689  1
  Hf  Hf37  1  0.68982715  0.71202133  0.29423853  1
  Hf  Hf38  1  0.19239544  0.60141732  0.20492222  1
  Hf  Hf39  1  0.50367529  0.31572588  0.90907327  1
  Hf  Hf40  1  0.29310224  0.10163653  0.49654425  1
  Hf  Hf41  1  -0.00009151  0.60320525  0.39736560  1
  Hf  Hf42  1  0.39695386  0.21081220  0.61133459  1
  Hf  Hf43  1  0.19637190  0.40262370  0.39920376  1
  Hf  Hf44  1  0.89225657  0.49419623  0.50425885  1
  Hf  Hf45  1  0.40125184  0.79776182  -0.00478789  1
  Hf  Hf46  1  0.90569245  0.29333947  0.08808242  1
  Hf  Hf47  1  0.68967131  0.09857854  0.50425173  1
  Hf  Hf48  1  0.51175683  0.51622624  0.70567718  1
  Hf  Hf49  1  0.10129723  0.10330842  0.31101329  1
  Zr  Zr50  1  0.60235769  0.19991940  0.79704836  1
  Zr  Zr51  1  0.90391816  0.09771072  0.89398245  1
  Zr  Zr52  1  0.79788985  0.80185832  0.79736978  1
  Zr  Zr53  1  -0.00538982  -0.01792781  0.61337295  1
  Zr  Zr54  1  0.30752600  0.90877452  0.50200005  1
  Zr  Zr55  1  0.50507966  0.10037735  0.11730543  1
  Zr  Zr56  1  0.79779658  0.80444985  0.41155373  1
  Zr  Zr57  1  0.30154520  0.50186137  0.30107744  1
  Zr  Zr58  1  0.00832663  0.58904102  -0.01517624  1
  Zr  Zr59  1  0.78891899  0.39107517  -0.01437286  1
  Zr  Zr60  1  0.81616021  0.79981742  0.20538368  1
  Zr  Zr61  1  0.61332565  0.39723910  0.79906480  1
  Zr  Zr62  1  0.10001898  0.29429679  0.50453579  1
  Zr  Zr63  1  0.80413949  0.00528148  0.19005152  1
  Zr  Zr64  1  0.80701271  0.19984583  0.59208084  1
  Zr  Zr65  1  0.00870555  0.79995070  0.20956008  1
  Zr  Zr66  1  0.29698268  0.29819106  0.49671443  1
  Zr  Zr67  1  0.40241969  0.40344995  0.40300096  1
  Zr  Zr68  1  0.30361205  0.49600739  0.09426636  1
  Zr  Zr69  1  0.49108540  0.09524164  0.50242167  1
  Zr  Zr70  1  0.00254798  0.40024863  0.79611126  1
  Zr  Zr71  1  0.60421171  0.00340735  -0.00145610  1
  Zr  Zr72  1  0.19567275  -0.00228874  0.60940343  1
  Zr  Zr73  1  0.09414364  0.69819739  0.69508829  1
  Zr  Zr74  1  0.00627555  -0.00155869  0.19786205  1
  Zr  Zr75  1  0.00145285  0.20474129  0.19723891  1
  Zr  Zr76  1  0.68715452  0.09730172  0.29093758  1
  Zr  Zr77  1  0.39806437  0.19591780  -0.00272458  1
  Zr  Zr78  1  0.40689775  0.60989496  0.59508523  1
  Zr  Zr79  1  0.39820634  0.20834199  0.79868887  1
  Zr  Zr80  1  0.60150019  0.79905860  -0.00167372  1
  Zr  Zr81  1  0.80060269  0.61629349  0.40429531  1
  Zr  Zr82  1  0.90232416  0.69617899  0.88966456  1
  Zr  Zr83  1  0.20071826  0.59486503  0.80196996  1
  Zr  Zr84  1  0.60482157  0.18683730  -0.01640568  1
  Zr  Zr85  1  0.50594091  0.50252268  0.30827512  1
  Zr  Zr86  1  0.50595188  0.70110304  0.88420621  1
  Zr  Zr87  1  0.59002242  -0.01488251  0.60297994  1
  Zr  Zr88  1  0.40495642  0.60300813  0.19919801  1
  Zr  Zr89  1  0.09731391  0.10224466  0.50657777  1
  Zr  Zr90  1  0.19813816  0.39898691  -0.00419518  1
  Zr  Zr91  1  0.70386549  0.49347147  0.50541590  1
  Zr  Zr92  1  0.30373702  0.89888766  0.89546243  1
  Zr  Zr93  1  0.69810442  0.49410980  0.31064380  1
  Zr  Zr94  1  0.79380266  0.20392451  0.40383659  1
  Zr  Zr95  1  0.68777605  0.29117453  0.09992567  1
  Zr  Zr96  1  0.69568368  0.90097373  0.10709668  1
  Zr  Zr97  1  0.30471140  0.09772529  0.29524713  1
  Zr  Zr98  1  0.20120701  0.20832141  0.62807673  1
  Zr  Zr99  1  0.00450852  0.00003054  -0.00762684  1
  Ta  Ta100  1  0.50081414  0.89666338  0.88984264  1
  Ta  Ta101  1  0.90197377  0.29486410  0.89729755  1
  Ta  Ta102  1  0.00594404  0.80845094  -0.01862111  1
  Ta  Ta103  1  0.10339916  0.89552322  0.08825556  1
  Ta  Ta104  1  0.09662796  0.09983067  0.71265261  1
  Ta  Ta105  1  0.10675732  0.10526551  0.89314034  1
  Ta  Ta106  1  0.30621650  0.70599366  0.30431748  1
  Ta  Ta107  1  0.20091634  0.20345036  0.00225753  1
  Ta  Ta108  1  0.50213844  0.70786774  0.29913693  1
  Ta  Ta109  1  0.40524511  0.00088608  -0.00161763  1
  Ta  Ta110  1  0.00026346  0.20307767  0.79381015  1
  Ta  Ta111  1  0.69229874  0.69714549  0.69448258  1
  Ta  Ta112  1  0.59838091  0.60293756  0.19602698  1
  Ta  Ta113  1  0.30464531  0.90111623  0.10133715  1
  Ta  Ta114  1  0.60392530  0.60479327  -0.00101384  1
  Ta  Ta115  1  0.10127230  0.10791016  0.09123266  1
  Ta  Ta116  1  0.79765562  -0.00157230  0.41549883  1
  Ta  Ta117  1  0.70932079  0.29807514  0.69376649  1
  Ta  Ta118  1  0.90211897  0.70484924  0.51457813  1
  Ta  Ta119  1  0.29701241  0.29499530  0.29417221  1
  Ta  Ta120  1  0.40416153  0.40239708  0.61109813  1
  Ta  Ta121  1  0.69411662  0.89343552  0.70152645  1
  Ta  Ta122  1  0.30433139  0.09917212  0.10438392  1
  Ta  Ta123  1  0.39967176  0.39344719  0.20203575  1
  Ta  Ta124  1  0.89461037  0.69637400  0.69281617  1
  Ta  Ta125  1  0.19969582  0.79643765  -0.01088738  1
  Ta  Ta126  1  0.09965010  0.49554449  0.09907649  1
  Ta  Ta127  1  0.59653075  0.20195267  0.39781575  1
  Ta  Ta128  1  0.20505966  0.79796242  0.79802418  1
  Ta  Ta129  1  0.09729382  0.50171128  0.50582367  1
  Ta  Ta130  1  0.79468263  0.18974104  -0.00621443  1
  Ta  Ta131  1  0.19869924  0.20435868  0.19180427  1
  Ta  Ta132  1  0.79839701  0.19961804  0.80019136  1
  Ta  Ta133  1  0.00775043  0.39426247  0.20015339  1
  Ta  Ta134  1  0.40202192  0.00043647  0.80209647  1
  Ta  Ta135  1  0.20270519  0.59638305  -0.01467955  1
  Ta  Ta136  1  0.19337949  0.39181540  0.19715598  1
  Ta  Ta137  1  0.89519400  0.49325809  0.89119140  1
  Ta  Ta138  1  0.30855777  0.90065806  0.70407222  1
  Ta  Ta139  1  0.59631281  0.39840699  0.20615444  1
  Ta  Ta140  1  0.19716509  0.80107939  0.39528921  1
  Ta  Ta141  1  0.29511364  0.10108250  0.89704204  1
  Ta  Ta142  1  0.59286817  0.80590020  0.41417097  1
  Ta  Ta143  1  0.90646128  0.90094812  0.08593860  1
  Ta  Ta144  1  0.89912635  0.09641433  0.70150151  1
  Ta  Ta145  1  0.41689590  0.80676983  0.60427898  1
  Ta  Ta146  1  0.09696940  0.28982098  0.90107572  1
  Ta  Ta147  1  -0.00293279  0.58954558  0.79316631  1
  Ta  Ta148  1  0.30639856  0.89933880  0.29641555  1
  Ta  Ta149  1  0.79802672  -0.01017785  0.60211208  1
  Ti  Ti150  1  0.30597809  0.29743889  0.10289944  1
  Ti  Ti151  1  0.70585194  0.09684086  0.69875469  1
  Ti  Ti152  1  0.50244095  0.90197286  0.29030835  1
  Ti  Ti153  1  0.09991592  0.70045944  0.89039599  1
  Ti  Ti154  1  0.40690060  -0.00519456  0.39428458  1
  Ti  Ti155  1  0.29582083  0.09215949  0.71186842  1
  Ti  Ti156  1  -0.00078314  0.39501201  0.40327380  1
  Ti  Ti157  1  -0.00133917  0.78851233  0.39642626  1
  Ti  Ti158  1  0.90440933  0.08623010  0.50683482  1
  Ti  Ti159  1  0.00652580  0.39684170  -0.00582128  1
  Ti  Ti160  1  0.49971196  0.09538253  0.29165549  1
  Ti  Ti161  1  0.09541969  0.49324206  0.30146829  1
  Ti  Ti162  1  0.79677673  0.59837406  0.79606559  1
  Ti  Ti163  1  0.30645829  0.71162515  0.69861480  1
  Ti  Ti164  1  0.39814664  0.40240596  0.79606708  1
  Ti  Ti165  1  0.88580911  0.50047578  0.69556022  1
  Ti  Ti166  1  0.60011145  0.20587908  0.60482575  1
  Ti  Ti167  1  0.30544796  0.50294432  0.69865730  1
  Ti  Ti168  1  0.89717791  0.29302870  0.69817839  1
  Ti  Ti169  1  -0.00735234  0.59382390  0.60326889  1
  Ti  Ti170  1  0.30175137  0.70659786  0.50272384  1
  Ti  Ti171  1  0.30221759  0.50382189  0.50354228  1
  Ti  Ti172  1  0.40269691  0.80177906  0.19945863  1
  Ti  Ti173  1  0.40509460  0.60969469  0.40809764  1
  Ti  Ti174  1  0.00071371  -0.00527930  0.79509107  1
  Ti  Ti175  1  0.09948646  0.50371129  0.69438195  1
  Ti  Ti176  1  0.50369854  0.70054860  0.10150659  1
  Ti  Ti177  1  0.79907633  0.39440077  0.79569058  1
  Ti  Ti178  1  0.89069322  0.91143846  0.89558957  1
  Ti  Ti179  1  0.79444271  0.19658313  0.19281573  1
  Ti  Ti180  1  0.50264566  0.29661805  0.29562240  1
  Ti  Ti181  1  0.79990613  0.80304563  0.60224354  1
  Ti  Ti182  1  0.19616404  -0.00989234  0.39499500  1
  Ti  Ti183  1  0.90064949  0.10076146  0.08878403  1
  Ti  Ti184  1  0.69467337  0.70490322  0.10590485  1
  Ti  Ti185  1  0.39321193  0.60387628  -0.00977586  1
  Ti  Ti186  1  0.20627667  0.60019402  0.60064127  1
  Ti  Ti187  1  0.69559128  0.50353171  0.89530427  1
  Ti  Ti188  1  0.69175405  0.30168027  0.30600735  1
  Ti  Ti189  1  0.30092388  0.30252712  0.90034329  1
  Ti  Ti190  1  0.70287005  0.90697077  0.89427286  1
  Ti  Ti191  1  0.70692651  0.50755107  0.69440885  1
  Ti  Ti192  1  0.69428761  0.89565666  0.50791382  1
  Ti  Ti193  1  0.89743504  0.30199176  0.30360960  1
  Ti  Ti194  1  0.59117719  -0.00540325  0.40297648  1
  Ti  Ti195  1  0.10303740  0.29535946  0.30423406  1
  Ti  Ti196  1  0.69248571  0.69904756  0.88611605  1
  Ti  Ti197  1  0.11043716  0.90636004  0.88805227  1
  Ti  Ti198  1  0.50733231  0.50140265  0.50341025  1
  Ti  Ti199  1  0.49760036  0.90294200  0.10722575  1
  Mo  Mo200  1  0.30566412  0.31352634  0.70904163  1
  Mo  Mo201  1  0.39168485  0.39905375  -0.00043792  1
  Mo  Mo202  1  0.00246462  0.19856146  -0.00737755  1
  Mo  Mo203  1  0.58389085  0.79884933  0.19891544  1
  Mo  Mo204  1  0.70606603  0.10162792  0.09956737  1
  Mo  Mo205  1  0.59966985  0.79618703  0.60082901  1
  Mo  Mo206  1  0.49899728  0.89567168  0.70664623  1
  Mo  Mo207  1  0.59650004  0.20380337  0.21210191  1
  Mo  Mo208  1  0.60500636  0.60281797  0.60169039  1
  Mo  Mo209  1  0.61336629  0.60047523  0.79966010  1
  Mo  Mo210  1  0.11301789  0.90145174  0.71067927  1
  Mo  Mo211  1  0.50953371  0.70790814  0.69761505  1
  Mo  Mo212  1  0.80030552  0.60244191  0.60632839  1
  Mo  Mo213  1  0.88398949  0.90136993  0.70237172  1
  Mo  Mo214  1  0.10325262  0.90052879  0.30984127  1
  Mo  Mo215  1  0.09736687  0.49304084  0.89745872  1
  Mo  Mo216  1  0.48614979  0.09166336  0.89648871  1
  Mo  Mo217  1  0.09995622  0.30016086  0.09570258  1
  Mo  Mo218  1  0.30759958  0.49801553  0.89980418  1
  Mo  Mo219  1  0.71634408  0.09212982  0.89427763  1
  Mo  Mo220  1  -0.00827584  0.80052069  0.60265075  1
  Mo  Mo221  1  0.29734174  0.70066119  0.89981705  1
  Mo  Mo222  1  0.39891830  -0.00902958  0.19792922  1
  Mo  Mo223  1  0.89522819  0.89447746  0.50611082  1
  Mo  Mo224  1  0.89504322  0.31099045  0.50136691  1
  Mo  Mo225  1  0.80043819  0.38454374  0.40500261  1
  Mo  Mo226  1  0.60316290  0.38919880  0.40158376  1
  Mo  Mo227  1  0.50268699  0.70515078  0.50356876  1
  Mo  Mo228  1  -0.00695980  0.19528385  0.61194220  1
  Mo  Mo229  1  0.60182207  0.40732110  -0.00236470  1
  Mo  Mo230  1  0.49942523  0.90186181  0.49968532  1
  Mo  Mo231  1  0.39485224  -0.00150671  0.61235460  1
  Mo  Mo232  1  0.70709989  0.29411550  0.89053133  1
  Mo  Mo233  1  0.09710350  0.29454787  0.70663135  1
  Mo  Mo234  1  0.40191724  0.80115384  0.79186665  1
  Mo  Mo235  1  0.10458686  0.70127946  0.30870348  1
  Mo  Mo236  1  0.60236963  0.80530052  0.79438714  1
  Mo  Mo237  1  0.20322328  0.00216710  0.80173876  1
  Mo  Mo238  1  0.79996753  0.39562456  0.60868142  1
  Mo  Mo239  1  0.90194051  0.70143270  0.30990699  1
  Mo  Mo240  1  0.69848818  0.70846200  0.51662088  1
  Mo  Mo241  1  -0.00522279  0.00863555  0.40920263  1
  Mo  Mo242  1  0.69611726  0.29776920  0.49959259  1
  Mo  Mo243  1  0.79487290  0.00197057  0.79158743  1
  Mo  Mo244  1  0.80144220  -0.00023122  -0.00417155  1
  Mo  Mo245  1  0.39693819  0.20493230  0.20161950  1
  Mo  Mo246  1  0.20080704  0.20083523  0.80839631  1
  Mo  Mo247  1  0.50361467  0.30745396  0.69930375  1
  Mo  Mo248  1  0.59290912  -0.00444516  0.20112435  1
  Mo  Mo249  1  0.19979885  0.20204408  0.38675543  1
