# generated using pymatgen
data_HfZrTaTiMo
_symmetry_space_group_name_H-M   'P 1'
_cell_length_a   16.87098417
_cell_length_b   16.88143896
_cell_length_c   16.89008848
_cell_angle_alpha   90.01522889
_cell_angle_beta   89.97527768
_cell_angle_gamma   89.99002310
_symmetry_Int_Tables_number   1
_chemical_formula_structural   HfZrTaTiMo
_chemical_formula_sum   'Hf50 Zr50 Ta50 Ti50 Mo50'
_cell_volume   4810.40611477
_cell_formula_units_Z   50
loop_
 _symmetry_equiv_pos_site_id
 _symmetry_equiv_pos_as_xyz
  1  'x, y, z'
loop_
 _atom_site_type_symbol
 _atom_site_label
 _atom_site_symmetry_multiplicity
 _atom_site_fract_x
 _atom_site_fract_y
 _atom_site_fract_z
 _atom_site_occupancy
  Hf  Hf0  1  0.20323777  0.39602203  0.39720835  1
  Hf  Hf1  1  -0.00150643  0.39717152  0.19444423  1
  Hf  Hf2  1  0.28868727  0.50120479  0.90148982  1
  Hf  Hf3  1  0.30088046  0.50970623  0.29855780  1
  Hf  Hf4  1  0.60877324  0.41052977  0.58157016  1
  Hf  Hf5  1  0.49685481  0.28900135  0.30754719  1
  Hf  Hf6  1  0.19331775  0.60124431  0.60430742  1
  Hf  Hf7  1  0.20232285  0.39281296  0.19955307  1
  Hf  Hf8  1  0.39973773  0.79677207  0.39852036  1
  Hf  Hf9  1  0.60015059  0.59254495  0.00246648  1
  Hf  Hf10  1  0.60334331  0.59430284  0.41006596  1
  Hf  Hf11  1  0.70046232  0.09865182  0.30526234  1
  Hf  Hf12  1  0.09199708  0.49288306  0.70265583  1
  Hf  Hf13  1  0.69982691  0.30564336  0.89591821  1
  Hf  Hf14  1  0.00430445  0.61330348  0.19673793  1
  Hf  Hf15  1  0.10689795  0.09354118  0.89075155  1
  Hf  Hf16  1  0.30198482  0.49426618  0.69563344  1
  Hf  Hf17  1  0.48579215  0.90745884  0.90232376  1
  Hf  Hf18  1  0.79540815  0.80802263  0.00278754  1
  Hf  Hf19  1  0.70667690  0.29949220  0.09769327  1
  Hf  Hf20  1  0.70301766  0.10457455  0.49691038  1
  Hf  Hf21  1  0.79816794  -0.00411175  0.19813628  1
  Hf  Hf22  1  0.89127450  0.88690551  0.69082167  1
  Hf  Hf23  1  0.10018992  0.50221527  0.29476785  1
  Hf  Hf24  1  0.30869806  0.10465398  0.30152466  1
  Hf  Hf25  1  0.20802087  0.19878657  0.19708418  1
  Hf  Hf26  1  0.10039693  0.30101447  0.69471794  1
  Hf  Hf27  1  0.79319316  0.40031257  0.40570403  1
  Hf  Hf28  1  0.39977920  0.19927978  0.80743688  1
  Hf  Hf29  1  0.90311055  0.10737675  0.50159149  1
  Hf  Hf30  1  0.50193645  0.89902710  0.30356103  1
  Hf  Hf31  1  0.60680736  0.19905484  0.20131578  1
  Hf  Hf32  1  0.40108821  0.39864623  0.80401620  1
  Hf  Hf33  1  0.80492144  0.40616947  -0.00508071  1
  Hf  Hf34  1  0.49453495  0.29819306  0.09742122  1
  Hf  Hf35  1  0.59982970  -0.00535962  0.41283243  1
  Hf  Hf36  1  0.79843429  0.00156521  -0.00491241  1
  Hf  Hf37  1  0.29685068  0.49749538  0.09569803  1
  Hf  Hf38  1  0.50132154  0.90028006  0.69979256  1
  Hf  Hf39  1  0.89979627  0.69333136  0.68637237  1
  Hf  Hf40  1  0.40284469  0.60392572  -0.00349712  1
  Hf  Hf41  1  0.20950929  0.19310611  -0.00408674  1
  Hf  Hf42  1  0.39836055  -0.00398128  0.19506436  1
  Hf  Hf43  1  0.00262973  0.60027557  -0.00043987  1
  Hf  Hf44  1  0.19895245  0.79827278  0.60547366  1
  Hf  Hf45  1  0.60760500  0.39717017  0.20634742  1
  Hf  Hf46  1  0.89818214  0.69848835  0.89719173  1
  Hf  Hf47  1  0.70062786  0.69864527  0.09963535  1
  Hf  Hf48  1  0.50171917  0.70376034  0.10030468  1
  Hf  Hf49  1  0.09209295  0.49277964  0.51102330  1
  Zr  Zr50  1  0.70280632  0.70177939  0.69190632  1
  Zr  Zr51  1  0.30882140  0.90346223  0.70774963  1
  Zr  Zr52  1  0.69775380  0.70103241  0.90035502  1
  Zr  Zr53  1  0.80333704  0.21299360  0.39335359  1
  Zr  Zr54  1  0.09944938  0.11520673  0.50368903  1
  Zr  Zr55  1  -0.00447587  0.19822256  0.20142637  1
  Zr  Zr56  1  0.19219811  0.60353129  0.40089424  1
  Zr  Zr57  1  0.80674356  0.19694118  0.80032815  1
  Zr  Zr58  1  0.50422989  0.69741862  0.68964671  1
  Zr  Zr59  1  0.50197516  0.31041810  0.69681325  1
  Zr  Zr60  1  0.39954642  0.39948231  0.40275908  1
  Zr  Zr61  1  -0.00121235  -0.00385212  0.20652222  1
  Zr  Zr62  1  0.59539212  0.60222063  0.80407592  1
  Zr  Zr63  1  -0.00809759  0.39486861  0.39331936  1
  Zr  Zr64  1  0.19943407  0.79812658  0.20267375  1
  Zr  Zr65  1  0.10052370  0.29680508  0.50993185  1
  Zr  Zr66  1  -0.00438273  -0.00620796  -0.00813172  1
  Zr  Zr67  1  0.59908206  0.19539000  0.80542567  1
  Zr  Zr68  1  0.00433907  0.80069255  0.80342962  1
  Zr  Zr69  1  0.09954745  0.89701240  0.10177727  1
  Zr  Zr70  1  0.29803403  0.90681113  0.89265717  1
  Zr  Zr71  1  -0.01261449  0.00736181  0.79901385  1
  Zr  Zr72  1  0.60345605  0.20426658  0.59825274  1
  Zr  Zr73  1  0.49411959  0.49549165  0.10712133  1
  Zr  Zr74  1  0.20398149  0.00170505  0.59203278  1
  Zr  Zr75  1  0.29964656  0.30067405  0.51311108  1
  Zr  Zr76  1  0.89845324  0.29708443  0.09195147  1
  Zr  Zr77  1  0.39384195  0.79931624  0.20045141  1
  Zr  Zr78  1  0.10155471  0.09591001  0.09863590  1
  Zr  Zr79  1  0.80209581  0.79430234  0.20730204  1
  Zr  Zr80  1  0.48762456  0.10575543  0.09407265  1
  Zr  Zr81  1  0.88976980  0.50244644  0.29166332  1
  Zr  Zr82  1  0.49640254  0.50548853  0.68811708  1
  Zr  Zr83  1  0.40210767  0.00117070  0.58974424  1
  Zr  Zr84  1  0.79783138  0.00133277  0.80420917  1
  Zr  Zr85  1  0.10555903  0.90850424  0.70791127  1
  Zr  Zr86  1  0.31030838  0.68901140  0.70290976  1
  Zr  Zr87  1  0.69786627  0.09229687  0.69559297  1
  Zr  Zr88  1  0.60010605  0.00105317  -0.00058803  1
  Zr  Zr89  1  0.70074561  0.89239114  0.31637442  1
  Zr  Zr90  1  0.00130354  0.40244235  -0.01154846  1
  Zr  Zr91  1  0.30254901  0.90427194  0.08804644  1
  Zr  Zr92  1  0.49965912  0.10245471  0.30578271  1
  Zr  Zr93  1  0.49922519  0.49886050  0.30209796  1
  Zr  Zr94  1  0.91326859  0.29856810  0.51041930  1
  Zr  Zr95  1  -0.01410956  0.60872062  0.40297110  1
  Zr  Zr96  1  0.00512689  -0.00840616  0.40130068  1
  Zr  Zr97  1  0.29725370  0.69706663  0.49702936  1
  Zr  Zr98  1  -0.00638643  -0.00239280  0.59954742  1
  Zr  Zr99  1  0.60399237  0.80237797  0.19983140  1
  Ta  Ta100  1  0.80271613  0.40407678  0.79563731  1
  Ta  Ta101  1  0.89984155  0.50059721  0.69587260  1
  Ta  Ta102  1  0.20285716  -0.00407993  0.39871396  1
  Ta  Ta103  1  0.89504295  0.10153496  0.09669281  1
  Ta  Ta104  1  0.30530197  0.49886784  0.51059860  1
  Ta  Ta105  1  0.39484139  -0.00407589  0.40543687  1
  Ta  Ta106  1  0.80148758  0.20325131  0.20480755  1
  Ta  Ta107  1  0.08572356  0.70552559  0.50810264  1
  Ta  Ta108  1  0.10546681  0.30046146  0.09004218  1
  Ta  Ta109  1  0.60633050  0.60190635  0.20863588  1
  Ta  Ta110  1  0.39530325  0.61242780  0.20090729  1
  Ta  Ta111  1  0.80244150  0.59661584  0.00176941  1
  Ta  Ta112  1  0.19872919  0.61260771  0.19035149  1
  Ta  Ta113  1  0.69474356  0.89490188  0.69470439  1
  Ta  Ta114  1  0.89914987  0.89432877  0.30556937  1
  Ta  Ta115  1  0.20508527  0.20278746  0.80165907  1
  Ta  Ta116  1  0.29693177  0.69893036  0.89976561  1
  Ta  Ta117  1  0.09948458  0.29103848  0.30068172  1
  Ta  Ta118  1  0.70260184  0.49958587  0.30192579  1
  Ta  Ta119  1  0.60281597  -0.00585821  0.18829762  1
  Ta  Ta120  1  0.29859329  0.10069169  0.70482596  1
  Ta  Ta121  1  0.40247983  0.19824691  0.60432871  1
  Ta  Ta122  1  0.79590530  0.40094846  0.60024071  1
  Ta  Ta123  1  0.90135942  0.70264981  0.09816413  1
  Ta  Ta124  1  0.59777491  0.00126590  0.80543843  1
  Ta  Ta125  1  0.79773650  -0.00721925  0.59220346  1
  Ta  Ta126  1  0.79896399  0.20823574  0.60442877  1
  Ta  Ta127  1  0.19635562  0.79451961  -0.00410793  1
  Ta  Ta128  1  0.40353188  0.79484048  0.59281294  1
  Ta  Ta129  1  0.10273326  0.69590215  0.89821564  1
  Ta  Ta130  1  0.70110599  0.49756324  0.89442886  1
  Ta  Ta131  1  0.50360939  0.88976642  0.49933159  1
  Ta  Ta132  1  -0.00827940  0.79916390  0.40305042  1
  Ta  Ta133  1  0.90228330  0.89461012  0.10277189  1
  Ta  Ta134  1  0.10555144  0.10867581  0.70016199  1
  Ta  Ta135  1  0.29925951  0.30330753  0.90492234  1
  Ta  Ta136  1  0.19748784  0.79487272  0.80392704  1
  Ta  Ta137  1  -0.00349680  0.20147493  0.80440577  1
  Ta  Ta138  1  0.30780447  0.29626271  0.09250260  1
  Ta  Ta139  1  0.49613936  0.09317935  0.70117632  1
  Ta  Ta140  1  0.20619230  0.20208913  0.39685609  1
  Ta  Ta141  1  0.59535039  0.80424726  0.80593063  1
  Ta  Ta142  1  0.50246637  0.29909038  0.49501288  1
  Ta  Ta143  1  0.60372112  0.40147876  0.00086901  1
  Ta  Ta144  1  0.89629725  0.50555326  0.10352352  1
  Ta  Ta145  1  0.90178063  0.30562336  0.70038310  1
  Ta  Ta146  1  0.10584026  0.10025737  0.30564741  1
  Ta  Ta147  1  0.60138295  0.19658794  -0.00556046  1
  Ta  Ta148  1  0.10597480  0.49926477  0.09517158  1
  Ta  Ta149  1  0.70532034  0.10476817  0.09772253  1
  Ti  Ti150  1  0.60297840  0.79880707  0.58965546  1
  Ti  Ti151  1  0.19639918  0.61118339  0.00681948  1
  Ti  Ti152  1  0.70973513  0.49893226  0.10817201  1
  Ti  Ti153  1  0.29997941  0.89451972  0.49708792  1
  Ti  Ti154  1  0.10477255  0.30020157  0.90106119  1
  Ti  Ti155  1  0.69863111  0.50285975  0.69872851  1
  Ti  Ti156  1  0.49892329  0.10907135  0.49573149  1
  Ti  Ti157  1  0.50373658  0.30289043  0.90558370  1
  Ti  Ti158  1  0.19917976  0.39403254  0.80241822  1
  Ti  Ti159  1  0.80403345  0.79074819  0.40975487  1
  Ti  Ti160  1  -0.00351494  0.19847377  -0.01243777  1
  Ti  Ti161  1  0.69390455  0.90012797  0.89482870  1
  Ti  Ti162  1  0.09728241  0.70797922  0.30739660  1
  Ti  Ti163  1  0.19407267  0.60522495  0.79811851  1
  Ti  Ti164  1  0.09528567  0.89016750  0.50237469  1
  Ti  Ti165  1  0.29570624  0.69864049  0.30400268  1
  Ti  Ti166  1  0.20481655  -0.00637231  0.21187727  1
  Ti  Ti167  1  0.29745322  0.30187848  0.69659419  1
  Ti  Ti168  1  0.00633411  0.79777092  -0.00129835  1
  Ti  Ti169  1  0.39722910  0.79425400  -0.00085603  1
  Ti  Ti170  1  0.90134225  0.09945564  0.30533022  1
  Ti  Ti171  1  -0.00727602  0.39467149  0.80657896  1
  Ti  Ti172  1  0.50781837  0.69969817  0.30582833  1
  Ti  Ti173  1  -0.00041054  0.79805383  0.20788273  1
  Ti  Ti174  1  0.79272023  0.59616076  0.58690859  1
  Ti  Ti175  1  0.60101023  -0.00411103  0.59523357  1
  Ti  Ti176  1  0.69743092  0.70288978  0.49943914  1
  Ti  Ti177  1  0.40159469  0.40071188  -0.00527802  1
  Ti  Ti178  1  0.19278408  0.81064056  0.39497479  1
  Ti  Ti179  1  0.40548028  0.78731782  0.80568438  1
  Ti  Ti180  1  0.89749761  0.50459415  0.89209891  1
  Ti  Ti181  1  0.20503438  0.00199678  -0.00641429  1
  Ti  Ti182  1  0.40680446  0.60175824  0.81380561  1
  Ti  Ti183  1  0.70009061  0.31090791  0.70245812  1
  Ti  Ti184  1  0.08849109  0.69909932  0.69768817  1
  Ti  Ti185  1  0.79829892  0.60894705  0.20439323  1
  Ti  Ti186  1  0.79768043  0.60842833  0.40064214  1
  Ti  Ti187  1  0.40826290  0.60164485  0.40660854  1
  Ti  Ti188  1  0.30098535  0.10953072  0.49984909  1
  Ti  Ti189  1  0.10847944  0.50074915  0.90023512  1
  Ti  Ti190  1  0.89930796  0.89182376  0.89856963  1
  Ti  Ti191  1  0.00127790  0.59750666  0.80056330  1
  Ti  Ti192  1  0.79243595  0.80076831  0.79937886  1
  Ti  Ti193  1  0.90047414  0.50361656  0.51173745  1
  Ti  Ti194  1  0.59452976  0.81139805  0.00191150  1
  Ti  Ti195  1  0.50862066  0.48914019  0.89740254  1
  Ti  Ti196  1  0.79810332  0.59509943  0.79854292  1
  Ti  Ti197  1  0.39065181  0.39036480  0.20695215  1
  Ti  Ti198  1  0.80212738  0.19406472  -0.01158222  1
  Ti  Ti199  1  0.80638306  -0.01112055  0.41108445  1
  Mo  Mo200  1  0.40823095  0.59832097  0.58185899  1
  Mo  Mo201  1  0.50298482  0.69940756  0.49902452  1
  Mo  Mo202  1  0.00401342  0.19633595  0.38421729  1
  Mo  Mo203  1  0.39899599  0.19523344  0.41405304  1
  Mo  Mo204  1  0.69880848  0.30189639  0.49903949  1
  Mo  Mo205  1  0.69985316  0.90399347  0.09705102  1
  Mo  Mo206  1  0.59851011  0.78961952  0.40711981  1
  Mo  Mo207  1  0.40424316  0.01251138  0.80079071  1
  Mo  Mo208  1  0.09965179  0.89743284  0.30720670  1
  Mo  Mo209  1  0.60751872  0.39590928  0.39974762  1
  Mo  Mo210  1  0.60846330  0.59887846  0.59139583  1
  Mo  Mo211  1  -0.00932268  0.40318705  0.60878521  1
  Mo  Mo212  1  0.21089713  0.19968365  0.61053676  1
  Mo  Mo213  1  0.70083460  0.89346555  0.50596116  1
  Mo  Mo214  1  0.40494272  0.39682680  0.59941350  1
  Mo  Mo215  1  0.89773198  0.70489288  0.30175007  1
  Mo  Mo216  1  0.89868631  0.30097242  0.29292531  1
  Mo  Mo217  1  0.90252059  0.10748754  0.90567923  1
  Mo  Mo218  1  0.90102986  0.30168502  0.89229441  1
  Mo  Mo219  1  0.70852937  0.50462171  0.49730949  1
  Mo  Mo220  1  0.09671578  0.70224290  0.09348914  1
  Mo  Mo221  1  -0.00175388  0.79832295  0.59450822  1
  Mo  Mo222  1  0.60608111  0.40482743  0.80322758  1
  Mo  Mo223  1  0.39278258  0.01570111  -0.00492031  1
  Mo  Mo224  1  0.20311778  0.00735771  0.79937814  1
  Mo  Mo225  1  0.10757728  0.89453648  0.90265986  1
  Mo  Mo226  1  0.70354667  0.69098922  0.30796990  1
  Mo  Mo227  1  0.40059067  0.20481049  -0.00650433  1
  Mo  Mo228  1  0.29714399  0.90517942  0.30863642  1
  Mo  Mo229  1  0.60125624  0.20339846  0.40344041  1
  Mo  Mo230  1  0.49645963  0.71171449  0.90509569  1
  Mo  Mo231  1  0.49715538  0.50010645  0.49844898  1
  Mo  Mo232  1  0.69615247  0.10234638  0.90432724  1
  Mo  Mo233  1  -0.00838768  0.19605847  0.62302062  1
  Mo  Mo234  1  0.50012118  0.89928187  0.09325200  1
  Mo  Mo235  1  0.19814516  0.39319047  -0.00146713  1
  Mo  Mo236  1  0.29813540  0.69861613  0.09289723  1
  Mo  Mo237  1  0.89677043  0.10500077  0.69469274  1
  Mo  Mo238  1  0.20427954  0.40410492  0.60634970  1
  Mo  Mo239  1  0.30225119  0.29332729  0.29642008  1
  Mo  Mo240  1  0.79461163  0.79937369  0.58893380  1
  Mo  Mo241  1  0.79922687  0.39952630  0.20098643  1
  Mo  Mo242  1  0.89204543  0.70045974  0.50209121  1
  Mo  Mo243  1  0.49667528  0.10016213  0.89836097  1
  Mo  Mo244  1  0.30110050  0.09769738  0.09569331  1
  Mo  Mo245  1  0.69829166  0.30392840  0.30134061  1
  Mo  Mo246  1  -0.00508697  0.59997775  0.60200733  1
  Mo  Mo247  1  0.30345846  0.10080173  0.89786956  1
  Mo  Mo248  1  0.39399485  0.20391538  0.19444219  1
  Mo  Mo249  1  0.89449846  0.89182225  0.49792966  1
