# generated using pymatgen
data_Mg32Ti42(Bi17O64)3
_symmetry_space_group_name_H-M   'P 1'
_cell_length_a   15.95929198
_cell_length_b   15.93603824
_cell_length_c   15.97304864
_cell_angle_alpha   89.90387606
_cell_angle_beta   89.93052526
_cell_angle_gamma   89.98724937
_symmetry_Int_Tables_number   1
_chemical_formula_structural   Mg32Ti42(Bi17O64)3
_chemical_formula_sum   'Mg32 Ti42 Bi51 O192'
_cell_volume   4062.38291210
_cell_formula_units_Z   1
loop_
 _symmetry_equiv_pos_site_id
 _symmetry_equiv_pos_as_xyz
  1  'x, y, z'
loop_
 _atom_site_type_symbol
 _atom_site_label
 _atom_site_symmetry_multiplicity
 _atom_site_fract_x
 _atom_site_fract_y
 _atom_site_fract_z
 _atom_site_occupancy
  Mg  Mg0  1  0.13491016  0.62711126  0.37425616  1
  Mg  Mg1  1  0.13283010  0.13095652  0.62861109  1
  Mg  Mg2  1  0.13194055  0.61540731  0.87520632  1
  Mg  Mg3  1  0.61712166  0.62633709  0.61861498  1
  Mg  Mg4  1  0.35789480  0.11886521  0.86963862  1
  Mg  Mg5  1  0.37854792  0.12353629  0.38705011  1
  Mg  Mg6  1  0.12529251  0.13393268  0.37925784  1
  Mg  Mg7  1  0.62451731  0.61371611  0.36259078  1
  Mg  Mg8  1  0.88309682  0.88492854  0.61097965  1
  Mg  Mg9  1  0.12517051  0.37302584  0.12347856  1
  Mg  Mg10  1  0.87578834  0.12690847  0.13263692  1
  Mg  Mg11  1  0.37083483  0.12590281  0.12068496  1
  Mg  Mg12  1  0.86753231  0.10919902  0.36868386  1
  Mg  Mg13  1  0.13140908  0.37041623  0.37479897  1
  Mg  Mg14  1  0.39151781  0.38916497  0.62863016  1
  Mg  Mg15  1  0.12347553  0.38977094  0.63917670  1
  Mg  Mg16  1  0.12775287  0.86716213  0.63332536  1
  Mg  Mg17  1  0.85825045  0.63652428  0.88232941  1
  Mg  Mg18  1  0.88055929  0.13501853  0.62296154  1
  Mg  Mg19  1  0.52161840  0.24576589  0.29526068  1
  Mg  Mg20  1  0.49842560  0.82005060  0.27215245  1
  Mg  Mg21  1  0.48669832  0.19441543  -0.03106886  1
  Mg  Mg22  1  0.25238442  0.17394881  0.50643792  1
  Mg  Mg23  1  0.25048068  0.04047884  0.29687150  1
  Mg  Mg24  1  0.21373967  0.00015970  0.71500093  1
  Mg  Mg25  1  0.49860874  0.21828718  0.72720584  1
  Mg  Mg26  1  0.24341527  0.35732838  0.51467841  1
  Mg  Mg27  1  0.69565359  0.76544306  0.29713341  1
  Mg  Mg28  1  0.06194150  0.26476445  0.52477973  1
  Mg  Mg29  1  0.81946719  0.53363357  0.54599355  1
  Mg  Mg30  1  0.49963974  0.54666988  0.72496223  1
  Mg  Mg31  1  0.46676584  0.01408280  0.78527806  1
  Ti  Ti32  1  0.13690029  0.62161673  0.63469010  1
  Ti  Ti33  1  0.13450132  0.37677822  0.87346965  1
  Ti  Ti34  1  0.88914085  0.86796286  0.12501026  1
  Ti  Ti35  1  0.87821919  0.11501469  0.87205163  1
  Ti  Ti36  1  0.62114689  0.63566817  0.13376983  1
  Ti  Ti37  1  0.88915264  0.36768911  0.62130744  1
  Ti  Ti38  1  0.37862846  0.36775242  0.12184349  1
  Ti  Ti39  1  0.86790332  0.39475512  0.38692899  1
  Ti  Ti40  1  0.37325677  0.37362937  0.38523949  1
  Ti  Ti41  1  0.37014911  0.88597999  0.39067194  1
  Ti  Ti42  1  0.36459518  0.88029975  0.87399820  1
  Ti  Ti43  1  0.63814022  0.37443735  0.37588994  1
  Ti  Ti44  1  0.62515682  0.36002572  0.12324029  1
  Ti  Ti45  1  0.62033032  0.13311256  0.11935241  1
  Ti  Ti46  1  0.61292698  0.87574978  0.62563259  1
  Ti  Ti47  1  0.13171882  0.87194459  0.13213466  1
  Ti  Ti48  1  0.11706479  0.87824866  0.87627011  1
  Ti  Ti49  1  0.12964152  0.13644828  0.13629213  1
  Ti  Ti50  1  0.86118155  0.87580586  0.88695262  1
  Ti  Ti51  1  0.38198347  0.62530712  0.88043598  1
  Ti  Ti52  1  0.88492590  0.62792769  0.11841061  1
  Ti  Ti53  1  0.13334420  0.61205593  0.11386673  1
  Ti  Ti54  1  0.61129885  0.36318782  0.65154754  1
  Ti  Ti55  1  0.38352566  0.36740446  0.88046839  1
  Ti  Ti56  1  0.62604825  0.11800866  0.63796726  1
  Ti  Ti57  1  0.37384187  0.87489884  0.13365715  1
  Ti  Ti58  1  0.37305813  0.60825872  0.37391692  1
  Ti  Ti59  1  0.62900435  0.11102347  0.87346424  1
  Ti  Ti60  1  0.37134338  0.87254465  0.63327552  1
  Ti  Ti61  1  0.12440429  0.12056287  0.86568930  1
  Ti  Ti62  1  0.87138143  0.63218198  0.35699534  1
  Ti  Ti63  1  0.60248496  0.34917841  0.87643916  1
  Ti  Ti64  1  0.88555092  0.86601859  0.37107101  1
  Ti  Ti65  1  0.63134059  0.13308729  0.39011889  1
  Ti  Ti66  1  0.37578810  0.63451583  0.61496955  1
  Ti  Ti67  1  0.37884766  0.62762876  0.13582352  1
  Ti  Ti68  1  0.12299145  0.87392055  0.36980233  1
  Ti  Ti69  1  0.61956835  0.62427188  0.87641624  1
  Ti  Ti70  1  0.61620729  0.87682631  0.12891182  1
  Ti  Ti71  1  0.38312323  0.09924907  0.63924072  1
  Ti  Ti72  1  0.88311278  0.37745446  0.12841331  1
  Ti  Ti73  1  0.62006883  0.87734696  0.88148098  1
  Bi  Bi74  1  0.49446005  0.76533364  0.77248342  1
  Bi  Bi75  1  0.77761247  0.23033635  0.48522156  1
  Bi  Bi76  1  0.25778512  0.75166009  0.27024851  1
  Bi  Bi77  1  -0.01950852  0.27382778  0.78079277  1
  Bi  Bi78  1  0.48283138  0.00824407  0.01122848  1
  Bi  Bi79  1  0.52836200  0.48637603  0.49836174  1
  Bi  Bi80  1  0.53080127  -0.00908518  0.46186867  1
  Bi  Bi81  1  0.26017673  0.48645867  -0.00856475  1
  Bi  Bi82  1  0.25749985  0.24499117  -0.00660667  1
  Bi  Bi83  1  0.50757834  0.49082799  0.01792359  1
  Bi  Bi84  1  0.48228879  0.24078925  0.52999465  1
  Bi  Bi85  1  0.72068188  0.73000902  0.48223706  1
  Bi  Bi86  1  0.02599069  0.72469427  0.24427563  1
  Bi  Bi87  1  -0.02852690  0.71517283  0.52301696  1
  Bi  Bi88  1  0.72912554  0.50937985  0.72248043  1
  Bi  Bi89  1  0.23017108  0.74211300  0.50758303  1
  Bi  Bi90  1  0.28353521  0.24097879  0.27078824  1
  Bi  Bi91  1  -0.03914126  0.75153315  0.73363722  1
  Bi  Bi92  1  0.00492869  0.03769934  0.52379554  1
  Bi  Bi93  1  0.01438687  0.73813810  -0.02914992  1
  Bi  Bi94  1  0.76530958  0.24031828  0.74024449  1
  Bi  Bi95  1  0.27883863  0.50995096  0.73601140  1
  Bi  Bi96  1  -0.01103890  -0.02933091  0.74653528  1
  Bi  Bi97  1  0.24220224  0.73924642  0.76759470  1
  Bi  Bi98  1  0.48954163  0.74482643  0.01969164  1
  Bi  Bi99  1  0.51628020  0.47235064  0.25076574  1
  Bi  Bi100  1  0.78487151  0.25857805  -0.01966564  1
  Bi  Bi101  1  0.01688402  0.02112140  0.00871045  1
  Bi  Bi102  1  0.25835305  0.48019641  0.23260689  1
  Bi  Bi103  1  0.76059064  0.01083239  0.02403827  1
  Bi  Bi104  1  0.74382353  0.47558825  -0.04639925  1
  Bi  Bi105  1  0.74466236  -0.02249813  0.73360756  1
  Bi  Bi106  1  0.49789309  0.03526306  0.25006289  1
  Bi  Bi107  1  0.22019532  -0.01520051  0.50810026  1
  Bi  Bi108  1  0.04230054  0.49859750  0.49403538  1
  Bi  Bi109  1  -0.03429812  0.49613747  -0.03750850  1
  Bi  Bi110  1  0.01624280  0.01648299  0.25446894  1
  Bi  Bi111  1  0.73863598  0.73813925  0.71637020  1
  Bi  Bi112  1  0.24672200  0.00274403  0.01365211  1
  Bi  Bi113  1  0.01748190  0.26103158  -0.00521452  1
  Bi  Bi114  1  0.75242224  -0.03856246  0.48032385  1
  Bi  Bi115  1  0.26657978  0.27541598  0.71043640  1
  Bi  Bi116  1  0.24049794  0.75055758  0.00466674  1
  Bi  Bi117  1  0.76481437  -0.03296438  0.24041284  1
  Bi  Bi118  1  0.50146599  0.72157788  0.46915092  1
  Bi  Bi119  1  0.76963828  0.25400071  0.23907501  1
  Bi  Bi120  1  0.03033806  0.49719677  0.26730579  1
  Bi  Bi121  1  -0.04207591  0.53653672  0.74621551  1
  Bi  Bi122  1  0.75974155  0.51792993  0.22949151  1
  Bi  Bi123  1  0.74588811  0.74208191  0.01446911  1
  Bi  Bi124  1  -0.01586081  0.24936407  0.30282126  1
  O  O125  1  0.09300568  0.14001415  0.01201828  1
  O  O126  1  0.14230796  0.09295643  0.24919677  1
  O  O127  1  0.14767354  0.10634772  0.49962643  1
  O  O128  1  0.13420092  0.09817753  0.75497059  1
  O  O129  1  0.13237948  0.33687416  -0.00160273  1
  O  O130  1  0.13841201  0.40276832  0.24849235  1
  O  O131  1  0.12294530  0.38744336  0.50612176  1
  O  O132  1  0.14718276  0.35417864  0.75813536  1
  O  O133  1  0.12574310  0.65521703  -0.00028823  1
  O  O134  1  0.12499815  0.61071327  0.23825148  1
  O  O135  1  0.11342058  0.63909874  0.50273987  1
  O  O136  1  0.15679868  0.62043131  0.75158996  1
  O  O137  1  0.11764631  0.84247095  0.00090323  1
  O  O138  1  0.14648508  0.89078703  0.24545174  1
  O  O139  1  0.13934145  0.85852201  0.49345450  1
  O  O140  1  0.13880496  0.90946157  0.76495212  1
  O  O141  1  0.37360218  0.09652821  -0.00666349  1
  O  O142  1  0.35505851  0.11836811  0.24812420  1
  O  O143  1  0.37140668  0.13916017  0.51623784  1
  O  O144  1  0.40488082  0.13245941  0.75244852  1
  O  O145  1  0.37638314  0.40340020  0.00502153  1
  O  O146  1  0.35986220  0.38280043  0.24481788  1
  O  O147  1  0.36789135  0.36622902  0.49929672  1
  O  O148  1  0.36377150  0.36751480  0.76699832  1
  O  O149  1  0.39892545  0.61735705  -0.00589942  1
  O  O150  1  0.36195626  0.63874526  0.25119664  1
  O  O151  1  0.38248761  0.62179249  0.49661593  1
  O  O152  1  0.34354322  0.64233693  0.74694017  1
  O  O153  1  0.39198894  0.89091339  -0.01203019  1
  O  O154  1  0.36538498  0.85875502  0.24582643  1
  O  O155  1  0.38136413  0.89041649  0.50521979  1
  O  O156  1  0.36893472  0.83873179  0.74915748  1
  O  O157  1  0.64504222  0.09896837  -0.00626211  1
  O  O158  1  0.58685395  0.14987924  0.23514833  1
  O  O159  1  0.63933541  0.11263381  0.50390680  1
  O  O160  1  0.60209037  0.14571565  0.75241553  1
  O  O161  1  0.62473637  0.39982122  0.00632313  1
  O  O162  1  0.58722484  0.34900532  0.24811428  1
  O  O163  1  0.64132812  0.41292508  0.48314582  1
  O  O164  1  0.57574252  0.33096493  0.75884965  1
  O  O165  1  0.58578889  0.61654637  -0.01096636  1
  O  O166  1  0.64097730  0.65781759  0.24202034  1
  O  O167  1  0.62212356  0.61953135  0.49285640  1
  O  O168  1  0.64083371  0.64733248  0.75075263  1
  O  O169  1  0.60192821  0.89354651  -0.00831595  1
  O  O170  1  0.62152585  0.84734601  0.24006380  1
  O  O171  1  0.62395571  0.89888473  0.50703341  1
  O  O172  1  0.66059073  0.86002877  0.74282520  1
  O  O173  1  0.85987853  0.11289912  -0.00268608  1
  O  O174  1  0.87404394  0.16494537  0.25462712  1
  O  O175  1  0.85036967  0.11519883  0.49468231  1
  O  O176  1  0.88465339  0.16129763  0.75279744  1
  O  O177  1  0.84753144  0.38563579  0.00792253  1
  O  O178  1  0.87400443  0.35119377  0.24841134  1
  O  O179  1  0.85542000  0.41539743  0.50144502  1
  O  O180  1  0.87476202  0.34787366  0.73841326  1
  O  O181  1  0.87964816  0.60279084  0.00369127  1
  O  O182  1  0.85727873  0.63751148  0.23726463  1
  O  O183  1  0.89347872  0.60987616  0.48221563  1
  O  O184  1  0.87088941  0.63882558  0.75751369  1
  O  O185  1  0.87803595  0.90022963  0.00365084  1
  O  O186  1  0.85322576  0.85473732  0.23943018  1
  O  O187  1  0.88769077  0.89904822  0.48389761  1
  O  O188  1  0.87236872  0.87845561  0.75689656  1
  O  O189  1  0.00396887  0.10546522  0.14450268  1
  O  O190  1  -0.00066147  0.11064059  0.35539770  1
  O  O191  1  0.01182503  0.15774043  0.58864860  1
  O  O192  1  -0.00489410  0.09578662  0.87744580  1
  O  O193  1  -0.00629503  0.36805072  0.11247483  1
  O  O194  1  -0.01441383  0.40528999  0.37190659  1
  O  O195  1  0.00070306  0.34456184  0.61352743  1
  O  O196  1  0.01418545  0.37935785  0.87870510  1
  O  O197  1  -0.00015114  0.63529583  0.12744180  1
  O  O198  1  -0.00469192  0.61723735  0.34121376  1
  O  O199  1  0.01031065  0.65017561  0.64451359  1
  O  O200  1  0.00386013  0.60850838  0.88350937  1
  O  O201  1  0.00213544  0.87275200  0.13839154  1
  O  O202  1  0.00950559  0.88526950  0.35728912  1
  O  O203  1  0.00523501  0.86410991  0.65421679  1
  O  O204  1  0.00044695  0.89661615  0.87518926  1
  O  O205  1  0.24149387  0.11562261  0.09792518  1
  O  O206  1  0.25335698  0.15580372  0.37755082  1
  O  O207  1  0.26393509  0.09344281  0.63860180  1
  O  O208  1  0.23653030  0.14446327  0.89316014  1
  O  O209  1  0.25523694  0.40117703  0.11636737  1
  O  O210  1  0.25560183  0.34611386  0.38401491  1
  O  O211  1  0.25970185  0.39112934  0.63564283  1
  O  O212  1  0.25694435  0.36064265  0.90497179  1
  O  O213  1  0.25253898  0.61745068  0.10817464  1
  O  O214  1  0.26056344  0.65602107  0.37821661  1
  O  O215  1  0.25286479  0.59851537  0.61203295  1
  O  O216  1  0.25842363  0.65959643  0.89002712  1
  O  O217  1  0.25233582  0.88241809  0.10341060  1
  O  O218  1  0.25975004  0.83786785  0.38067143  1
  O  O219  1  0.25875586  0.90466143  0.63688010  1
  O  O220  1  0.25093866  0.85146236  0.89015456  1
  O  O221  1  0.50501532  0.13965621  0.08280585  1
  O  O222  1  0.50241881  0.11568199  0.37693581  1
  O  O223  1  0.50403884  0.12993264  0.61425331  1
  O  O224  1  0.50706806  0.09340673  0.88672369  1
  O  O225  1  0.49828512  0.37972801  0.11915290  1
  O  O226  1  0.49641351  0.40415203  0.38690640  1
  O  O227  1  0.51009942  0.38097262  0.58758277  1
  O  O228  1  0.49596742  0.40083623  0.89300442  1
  O  O229  1  0.49552488  0.65292399  0.13191819  1
  O  O230  1  0.49433657  0.61036124  0.37590673  1
  O  O231  1  0.49141140  0.64210715  0.63702447  1
  O  O232  1  0.49307783  0.61000639  0.83263937  1
  O  O233  1  0.49294679  0.84737362  0.13636326  1
  O  O234  1  0.48730703  0.91928585  0.35221726  1
  O  O235  1  0.50375713  0.85393624  0.63558775  1
  O  O236  1  0.50549491  0.89843728  0.83495152  1
  O  O237  1  0.73683059  0.09917422  0.13510248  1
  O  O238  1  0.74190798  0.15308602  0.35937980  1
  O  O239  1  0.74440677  0.12478736  0.65494340  1
  O  O240  1  0.74734437  0.15373538  0.85899926  1
  O  O241  1  0.73238247  0.39055206  0.15420755  1
  O  O242  1  0.74960813  0.35295718  0.35890532  1
  O  O243  1  0.72495730  0.38547885  0.65335358  1
  O  O244  1  0.72399048  0.35842418  0.87720408  1
  O  O245  1  0.73799641  0.62726540  0.09948232  1
  O  O246  1  0.75275063  0.65621068  0.36861374  1
  O  O247  1  0.74357904  0.60209890  0.61894649  1
  O  O248  1  0.73353141  0.64774768  0.90178284  1
  O  O249  1  0.73438624  0.88723183  0.11268098  1
  O  O250  1  0.76070969  0.85173152  0.38454768  1
  O  O251  1  0.75814307  0.90495464  0.60750478  1
  O  O252  1  0.74588419  0.86433123  0.89325065  1
  O  O253  1  0.12511196  -0.00909658  0.09445134  1
  O  O254  1  0.15616378  -0.01133083  0.37945961  1
  O  O255  1  0.11413745  -0.00491066  0.60863702  1
  O  O256  1  0.13228780  0.00231485  0.91782879  1
  O  O257  1  0.13762594  0.24564479  0.15345724  1
  O  O258  1  0.08631364  0.25316006  0.40021492  1
  O  O259  1  0.18722475  0.25022097  0.58356158  1
  O  O260  1  0.09380347  0.23548447  0.87409403  1
  O  O261  1  0.11876992  0.50346608  0.09229737  1
  O  O262  1  0.12015778  0.50357045  0.37799534  1
  O  O263  1  0.09738480  0.50943673  0.62778422  1
  O  O264  1  0.15009801  0.48968500  0.88906139  1
  O  O265  1  0.13371935  0.75164687  0.14614210  1
  O  O266  1  0.12341206  0.75139764  0.34235978  1
  O  O267  1  0.16117390  0.74568886  0.63351239  1
  O  O268  1  0.09895103  0.75873589  0.85791015  1
  O  O269  1  0.39697239  -0.00763276  0.13044282  1
  O  O270  1  0.33903976  -0.00217105  0.37434349  1
  O  O271  1  0.40880198  -0.01023207  0.66104214  1
  O  O272  1  0.35423089  -0.00948584  0.84370127  1
  O  O273  1  0.35937843  0.25583887  0.11577123  1
  O  O274  1  0.40332068  0.25964222  0.34855417  1
  O  O275  1  0.40261312  0.25979763  0.64273819  1
  O  O276  1  0.38804536  0.25157465  0.91118676  1
  O  O277  1  0.38909243  0.51198250  0.13588925  1
  O  O278  1  0.35063397  0.49793163  0.36665264  1
  O  O279  1  0.39604668  0.51067036  0.66076165  1
  O  O280  1  0.34742792  0.50754891  0.86970124  1
  O  O281  1  0.36172613  0.75089801  0.09819986  1
  O  O282  1  0.42313473  0.76766557  0.36833206  1
  O  O283  1  0.35179582  0.75207149  0.60439811  1
  O  O284  1  0.40670207  0.75103944  0.88236279  1
  O  O285  1  0.59344058  -0.00316115  0.14184031  1
  O  O286  1  0.63051648  0.01573026  0.36531506  1
  O  O287  1  0.62201045  0.00057499  0.65198528  1
  O  O288  1  0.64902317  0.00033551  0.84721355  1
  O  O289  1  0.64552501  0.24917238  0.10274001  1
  O  O290  1  0.60293831  0.25653963  0.39060481  1
  O  O291  1  0.61224174  0.25162821  0.61221682  1
  O  O292  1  0.58770717  0.24367447  0.91018595  1
  O  O293  1  0.60020111  0.51399534  0.14006120  1
  O  O294  1  0.63402689  0.49048395  0.32682532  1
  O  O295  1  0.59976822  0.49605420  0.66607326  1
  O  O296  1  0.63948402  0.50773751  0.85866086  1
  O  O297  1  0.62561035  0.75321826  0.08725236  1
  O  O298  1  0.61421816  0.75068961  0.39327943  1
  O  O299  1  0.64744355  0.75735153  0.61153611  1
  O  O300  1  0.59480312  0.75928830  0.87933018  1
  O  O301  1  0.86313540  -0.00722158  0.14313137  1
  O  O302  1  0.86502184  -0.01164821  0.33607448  1
  O  O303  1  0.91477134  0.01168165  0.62960436  1
  O  O304  1  0.85227800  0.00377464  0.85789853  1
  O  O305  1  0.84934972  0.25504816  0.11025739  1
  O  O306  1  0.88872358  0.26917651  0.40437957  1
  O  O307  1  0.84424939  0.25789001  0.60400589  1
  O  O308  1  0.89816240  0.24254498  0.89579613  1
  O  O309  1  0.87301116  0.49978683  0.14383628  1
  O  O310  1  0.84449303  0.50623461  0.34611075  1
  O  O311  1  0.87670503  0.48744454  0.64646734  1
  O  O312  1  0.86895267  0.50300007  0.86388957  1
  O  O313  1  0.87159288  0.74981005  0.09656127  1
  O  O314  1  0.90156790  0.74860078  0.38012874  1
  O  O315  1  0.87781782  0.75697114  0.61861064  1
  O  O316  1  0.88689177  0.76101106  0.89140113  1
