# generated using pymatgen
data_Mg32Ti42(Bi17O64)3
_symmetry_space_group_name_H-M   'P 1'
_cell_length_a   15.93951783
_cell_length_b   15.97106654
_cell_length_c   15.98087964
_cell_angle_alpha   89.99034232
_cell_angle_beta   89.91929187
_cell_angle_gamma   90.04606360
_symmetry_Int_Tables_number   1
_chemical_formula_structural   Mg32Ti42(Bi17O64)3
_chemical_formula_sum   'Mg32 Ti42 Bi51 O192'
_cell_volume   4068.26469909
_cell_formula_units_Z   1
loop_
 _symmetry_equiv_pos_site_id
 _symmetry_equiv_pos_as_xyz
  1  'x, y, z'
loop_
 _atom_site_type_symbol
 _atom_site_label
 _atom_site_symmetry_multiplicity
 _atom_site_fract_x
 _atom_site_fract_y
 _atom_site_fract_z
 _atom_site_occupancy
  Mg  Mg0  1  0.13458787  0.88073169  0.37143938  1
  Mg  Mg1  1  0.87446547  0.37590966  0.12084208  1
  Mg  Mg2  1  0.12814725  0.37495308  0.11342767  1
  Mg  Mg3  1  0.87291561  0.87727191  0.62407285  1
  Mg  Mg4  1  0.38898460  0.10455819  0.63030373  1
  Mg  Mg5  1  0.62582814  0.87420623  0.12337609  1
  Mg  Mg6  1  0.63534089  0.13151846  0.87671441  1
  Mg  Mg7  1  0.36646883  0.37007556  0.61864740  1
  Mg  Mg8  1  0.88179690  0.64288775  0.87981833  1
  Mg  Mg9  1  0.62450759  0.13234542  0.37870375  1
  Mg  Mg10  1  0.37149972  0.87918411  0.11261667  1
  Mg  Mg11  1  0.38061288  0.37785074  0.13095647  1
  Mg  Mg12  1  0.61926707  0.62307475  0.87804514  1
  Mg  Mg13  1  0.62735392  0.87409929  0.86892318  1
  Mg  Mg14  1  0.61568875  0.87217229  0.37922607  1
  Mg  Mg15  1  0.36628248  0.12042081  0.88185170  1
  Mg  Mg16  1  0.61964417  0.38021760  0.37364931  1
  Mg  Mg17  1  0.37221791  0.62573772  0.36187786  1
  Mg  Mg18  1  0.12500978  0.13364379  0.88532440  1
  Mg  Mg19  1  0.23380674  0.18211904  0.55078454  1
  Mg  Mg20  1  0.20877562  -0.00114064  -0.05435409  1
  Mg  Mg21  1  0.29295332  0.44604279  0.00444237  1
  Mg  Mg22  1  0.05552231  0.74111138  0.69684186  1
  Mg  Mg23  1  0.30884033  0.26387644  0.02480157  1
  Mg  Mg24  1  0.42824706  0.52248162  0.70403057  1
  Mg  Mg25  1  0.50726968  0.04108323  0.80041780  1
  Mg  Mg26  1  0.76318404  0.27080118  0.69242757  1
  Mg  Mg27  1  0.48284520  0.43847450  -0.01050904  1
  Mg  Mg28  1  0.47182920  -0.06163457  0.48847577  1
  Mg  Mg29  1  0.26096290  -0.03018425  0.21460003  1
  Mg  Mg30  1  -0.05462452  0.80093886  0.00487844  1
  Mg  Mg31  1  0.22681562  0.79994381  0.01253003  1
  Ti  Ti32  1  0.62143594  0.61424572  0.63029908  1
  Ti  Ti33  1  0.61607637  0.62717223  0.12321297  1
  Ti  Ti34  1  0.87192721  0.12657596  0.88002270  1
  Ti  Ti35  1  0.38161857  0.87951553  0.64463472  1
  Ti  Ti36  1  0.13188101  0.64335324  0.37872649  1
  Ti  Ti37  1  0.14098930  0.12915443  0.37136227  1
  Ti  Ti38  1  0.87372676  0.37855919  0.36548146  1
  Ti  Ti39  1  0.12780570  0.12205814  0.11741972  1
  Ti  Ti40  1  0.35860310  0.86050447  0.35972371  1
  Ti  Ti41  1  0.12779242  0.87453134  0.61171369  1
  Ti  Ti42  1  0.12856015  0.64610513  0.88859994  1
  Ti  Ti43  1  0.37340154  0.11594611  0.12020859  1
  Ti  Ti44  1  0.62304171  0.13622369  0.62802043  1
  Ti  Ti45  1  0.11861876  0.88950499  0.12268081  1
  Ti  Ti46  1  0.87429161  0.62257817  0.62071539  1
  Ti  Ti47  1  0.88329971  0.89116437  0.37991037  1
  Ti  Ti48  1  0.36723706  0.61001598  0.11921801  1
  Ti  Ti49  1  0.12840280  0.36723451  0.36494826  1
  Ti  Ti50  1  0.35901760  0.88036256  0.87329180  1
  Ti  Ti51  1  0.36651560  0.37013751  0.37606780  1
  Ti  Ti52  1  0.36232574  0.60841325  0.89117900  1
  Ti  Ti53  1  0.12282678  0.36982548  0.61812748  1
  Ti  Ti54  1  0.36843591  0.12969831  0.37608426  1
  Ti  Ti55  1  0.87051371  0.12855509  0.37392724  1
  Ti  Ti56  1  0.86846511  0.62977795  0.37049870  1
  Ti  Ti57  1  0.87993884  0.38676461  0.61450374  1
  Ti  Ti58  1  0.87845774  0.87688233  0.85702198  1
  Ti  Ti59  1  0.61457841  0.37452375  0.62992489  1
  Ti  Ti60  1  0.10940629  0.86743956  0.86961739  1
  Ti  Ti61  1  0.12380950  0.62427249  0.11329446  1
  Ti  Ti62  1  0.87015342  0.12268500  0.12621991  1
  Ti  Ti63  1  0.87904906  0.63251146  0.11862263  1
  Ti  Ti64  1  0.13966410  0.37162800  0.88157270  1
  Ti  Ti65  1  0.62588779  0.62414040  0.36719350  1
  Ti  Ti66  1  0.86464079  0.12607636  0.60865823  1
  Ti  Ti67  1  0.37775701  0.37586696  0.86086234  1
  Ti  Ti68  1  0.87317287  0.37527428  0.87187955  1
  Ti  Ti69  1  0.62385956  0.11775770  0.12687395  1
  Ti  Ti70  1  0.61881122  0.38313194  0.11903465  1
  Ti  Ti71  1  0.61495889  0.86943126  0.63002015  1
  Ti  Ti72  1  0.61963632  0.38138709  0.86140683  1
  Ti  Ti73  1  0.87288378  0.89033800  0.13864175  1
  Bi  Bi74  1  0.73943718  0.27398535  -0.00614769  1
  Bi  Bi75  1  -0.00309446  0.25972643  0.47779531  1
  Bi  Bi76  1  0.46960606  0.71692755  0.75792839  1
  Bi  Bi77  1  0.48072177  0.24355915  0.50223603  1
  Bi  Bi78  1  0.22758294  0.49534872  0.49610069  1
  Bi  Bi79  1  0.73513727  0.75146825  -0.01045923  1
  Bi  Bi80  1  -0.00811045  0.26916299  -0.01062799  1
  Bi  Bi81  1  -0.01291640  0.03064337  0.72936623  1
  Bi  Bi82  1  0.75516478  0.52323604  0.77743310  1
  Bi  Bi83  1  0.46467538  0.75510933  -0.01570124  1
  Bi  Bi84  1  0.25032090  0.70842597  0.73642110  1
  Bi  Bi85  1  0.74086005  0.74620605  0.74954758  1
  Bi  Bi86  1  0.27388257  -0.01616085  0.51737524  1
  Bi  Bi87  1  0.73206335  0.26768888  0.48803481  1
  Bi  Bi88  1  0.74969646  -0.01540627  -0.01658617  1
  Bi  Bi89  1  0.72956658  0.49850353  0.49383065  1
  Bi  Bi90  1  -0.02630529  0.76247488  0.49823926  1
  Bi  Bi91  1  0.50122910  0.73318427  0.47513114  1
  Bi  Bi92  1  0.74358381  0.74679186  0.51775668  1
  Bi  Bi93  1  0.23159046  0.52174423  0.25265600  1
  Bi  Bi94  1  0.48870488  -0.00806663  0.28061669  1
  Bi  Bi95  1  0.48168446  0.76383962  0.21774442  1
  Bi  Bi96  1  0.46378671  0.23420371  0.74094916  1
  Bi  Bi97  1  0.25833308  0.25771121  0.22202874  1
  Bi  Bi98  1  0.00705170  0.50827120  -0.03520501  1
  Bi  Bi99  1  0.72952085  0.01788999  0.74102170  1
  Bi  Bi100  1  0.00904965  0.02704854  0.25158480  1
  Bi  Bi101  1  0.03794474  0.02888177  0.50187540  1
  Bi  Bi102  1  0.74756091  0.50489647  0.22584540  1
  Bi  Bi103  1  0.72204767  -0.00732762  0.26624463  1
  Bi  Bi104  1  0.01738097  0.54140555  0.73927197  1
  Bi  Bi105  1  0.00448519  0.26040094  0.22376404  1
  Bi  Bi106  1  -0.00323039  0.01476421  -0.01668588  1
  Bi  Bi107  1  0.47035923  0.51470089  0.50376867  1
  Bi  Bi108  1  0.22945687  0.48903187  0.73010400  1
  Bi  Bi109  1  0.71907963  0.25510357  0.24459689  1
  Bi  Bi110  1  0.00114728  0.76230116  0.26245339  1
  Bi  Bi111  1  0.74692885  0.52320889  0.00239064  1
  Bi  Bi112  1  0.48852905  0.23733729  0.25819515  1
  Bi  Bi113  1  0.47587186  0.48268085  0.26192984  1
  Bi  Bi114  1  0.21023466  0.02312923  0.74091351  1
  Bi  Bi115  1  0.23682272  0.75419861  0.22013693  1
  Bi  Bi116  1  0.51856461  0.22194042  -0.00367137  1
  Bi  Bi117  1  0.26845837  0.71090464  0.53696699  1
  Bi  Bi118  1  0.70866218  -0.00881746  0.50325357  1
  Bi  Bi119  1  0.21965056  0.23634558  0.74980136  1
  Bi  Bi120  1  0.50741421  -0.01589357  -0.01836674  1
  Bi  Bi121  1  0.00467022  0.51594241  0.46512695  1
  Bi  Bi122  1  0.72752485  0.77038843  0.25370861  1
  Bi  Bi123  1  -0.01849193  0.25858015  0.73902563  1
  Bi  Bi124  1  0.00061596  0.49909594  0.22131423  1
  O  O125  1  0.14279302  0.08992164  0.00895878  1
  O  O126  1  0.09821368  0.14103483  0.25820955  1
  O  O127  1  0.15168023  0.10573312  0.49242034  1
  O  O128  1  0.11998194  0.13234820  0.75426778  1
  O  O129  1  0.09627571  0.38376662  -0.00914865  1
  O  O130  1  0.13479775  0.34823387  0.25263131  1
  O  O131  1  0.11662735  0.39705129  0.50339938  1
  O  O132  1  0.15245783  0.36178629  0.75248023  1
  O  O133  1  0.12279899  0.59605297  0.00181648  1
  O  O134  1  0.13721962  0.63587997  0.25505686  1
  O  O135  1  0.12375104  0.59645734  0.49148086  1
  O  O136  1  0.11631770  0.64989227  0.76648845  1
  O  O137  1  0.14868498  0.90041652  0.00902057  1
  O  O138  1  0.11022034  0.84296842  0.24120061  1
  O  O139  1  0.14135335  0.90352325  0.50100101  1
  O  O140  1  0.10811096  0.83989762  0.76163442  1
  O  O141  1  0.36156029  0.15425208  0.00842891  1
  O  O142  1  0.40622859  0.11354303  0.25095794  1
  O  O143  1  0.35851642  0.16326202  0.49142518  1
  O  O144  1  0.41260284  0.10785716  0.75519143  1
  O  O145  1  0.38885530  0.35498526  -0.00641877  1
  O  O146  1  0.36109735  0.40575523  0.25218907  1
  O  O147  1  0.38705913  0.35166126  0.48923260  1
  O  O148  1  0.36720491  0.42096757  0.75329657  1
  O  O149  1  0.36298647  0.64922374  0.00181329  1
  O  O150  1  0.37304455  0.58534593  0.24069135  1
  O  O151  1  0.39977874  0.64168215  0.49060633  1
  O  O152  1  0.37345921  0.61706772  0.76510759  1
  O  O153  1  0.34948958  0.84331845  -0.00654661  1
  O  O154  1  0.39642403  0.89318110  0.24201137  1
  O  O155  1  0.35602496  0.86479401  0.48032119  1
  O  O156  1  0.38944398  0.89642409  0.75401395  1
  O  O157  1  0.63718906  0.13799645  0.00949174  1
  O  O158  1  0.61368401  0.14747660  0.24595050  1
  O  O159  1  0.64838421  0.13113009  0.50800273  1
  O  O160  1  0.61087064  0.10599461  0.75060821  1
  O  O161  1  0.59989711  0.39021696  0.00280158  1
  O  O162  1  0.65531774  0.38416498  0.24702132  1
  O  O163  1  0.62424071  0.36003430  0.50694770  1
  O  O164  1  0.64927345  0.37152004  0.75001636  1
  O  O165  1  0.63452682  0.62823710  0.00737772  1
  O  O166  1  0.64555136  0.61256527  0.25485407  1
  O  O167  1  0.59828342  0.64123215  0.51025272  1
  O  O168  1  0.66204428  0.62664641  0.74640180  1
  O  O169  1  0.66178132  0.87095512  0.00125864  1
  O  O170  1  0.63059826  0.87258780  0.25412781  1
  O  O171  1  0.59960083  0.90160173  0.50135839  1
  O  O172  1  0.63220283  0.88513461  0.74141728  1
  O  O173  1  0.86832375  0.09049075  0.01249953  1
  O  O174  1  0.90911079  0.13810608  0.25900556  1
  O  O175  1  0.84560087  0.10768534  0.49991341  1
  O  O176  1  0.89657102  0.14164841  0.76714036  1
  O  O177  1  0.90396975  0.38143270  -0.00774158  1
  O  O178  1  0.85661773  0.35553895  0.25637361  1
  O  O179  1  0.90210118  0.39210650  0.50379072  1
  O  O180  1  0.86093867  0.33291941  0.75515731  1
  O  O181  1  0.87823636  0.59682499  0.00693573  1
  O  O182  1  0.86224070  0.64261315  0.25691428  1
  O  O183  1  0.89558432  0.60273771  0.50411676  1
  O  O184  1  0.84036162  0.63845764  0.74785124  1
  O  O185  1  0.86268698  0.90390734  0.01680087  1
  O  O186  1  0.89845885  0.85472673  0.25457269  1
  O  O187  1  0.89811908  0.88339755  0.49581729  1
  O  O188  1  0.87640528  0.85168657  0.75016745  1
  O  O189  1  0.00734062  0.09338536  0.11761640  1
  O  O190  1  -0.00269066  0.13708091  0.41497794  1
  O  O191  1  -0.01392349  0.11655416  0.61572129  1
  O  O192  1  -0.00154386  0.13510858  0.91202598  1
  O  O193  1  0.00088992  0.38080654  0.14779433  1
  O  O194  1  0.00025759  0.34881800  0.36802221  1
  O  O195  1  0.00340393  0.35864397  0.64115259  1
  O  O196  1  -0.00518256  0.33515538  0.85759489  1
  O  O197  1  0.00478285  0.62249180  0.13839978  1
  O  O198  1  0.00331159  0.63468315  0.37618866  1
  O  O199  1  -0.01410520  0.64874485  0.64980477  1
  O  O200  1  0.00694381  0.63138826  0.88721549  1
  O  O201  1  0.00233008  0.87422865  0.10478576  1
  O  O202  1  0.00367098  0.84182779  0.37754647  1
  O  O203  1  0.01479352  0.83616729  0.61575539  1
  O  O204  1  -0.00219146  0.85264273  0.90384818  1
  O  O205  1  0.24930853  0.13956401  0.14685640  1
  O  O206  1  0.25429004  0.11809120  0.34949232  1
  O  O207  1  0.26441310  0.08990475  0.62972791  1
  O  O208  1  0.24644669  0.09134278  0.86454079  1
  O  O209  1  0.25223782  0.35324138  0.09551695  1
  O  O210  1  0.24792186  0.39086803  0.38730115  1
  O  O211  1  0.24292849  0.40804642  0.61916993  1
  O  O212  1  0.25349128  0.39748020  0.89631206  1
  O  O213  1  0.24964985  0.61477268  0.13817039  1
  O  O214  1  0.24787035  0.59777850  0.37782985  1
  O  O215  1  0.25365752  0.61592611  0.63478216  1
  O  O216  1  0.24589403  0.60949859  0.87110980  1
  O  O217  1  0.24588752  0.86844258  0.13940531  1
  O  O218  1  0.25539938  0.90766088  0.32958878  1
  O  O219  1  0.25770267  0.90544704  0.62923329  1
  O  O220  1  0.24735554  0.90008933  0.86978258  1
  O  O221  1  0.50102766  0.12375892  0.10479860  1
  O  O222  1  0.49575114  0.16763931  0.38459485  1
  O  O223  1  0.50705089  0.15151291  0.61395823  1
  O  O224  1  0.50056019  0.13120842  0.89927678  1
  O  O225  1  0.50366525  0.39943412  0.14083673  1
  O  O226  1  0.49511374  0.36233752  0.34641902  1
  O  O227  1  0.50335831  0.36570204  0.63801389  1
  O  O228  1  0.49960167  0.38116895  0.86541868  1
  O  O229  1  0.50000263  0.63588280  0.13192860  1
  O  O230  1  0.50782222  0.64808757  0.36166288  1
  O  O231  1  0.51123859  0.60934684  0.66570721  1
  O  O232  1  0.49568700  0.64648395  0.87296789  1
  O  O233  1  0.49919172  0.84944381  0.10754485  1
  O  O234  1  0.48774797  0.87462471  0.37507195  1
  O  O235  1  0.49729329  0.85067108  0.61827343  1
  O  O236  1  0.50334506  0.86392898  0.90695800  1
  O  O237  1  0.75500819  0.13320199  0.14264880  1
  O  O238  1  0.75917428  0.11330991  0.34859908  1
  O  O239  1  0.75364243  0.13580624  0.66328442  1
  O  O240  1  0.75797127  0.09758725  0.87023778  1
  O  O241  1  0.74925632  0.37861189  0.09847313  1
  O  O242  1  0.76038158  0.38711274  0.40341009  1
  O  O243  1  0.76353335  0.37501284  0.61105390  1
  O  O244  1  0.75482783  0.37851975  0.90136132  1
  O  O245  1  0.75807293  0.61510334  0.12094584  1
  O  O246  1  0.75297979  0.60565374  0.39666253  1
  O  O247  1  0.74846390  0.62026616  0.59371454  1
  O  O248  1  0.75855251  0.60536595  0.88924995  1
  O  O249  1  0.75991904  0.86911449  0.15375831  1
  O  O250  1  0.76264104  0.89366850  0.36587587  1
  O  O251  1  0.74075533  0.87530039  0.58957161  1
  O  O252  1  0.76234066  0.90860438  0.86870653  1
  O  O253  1  0.14012499  -0.00318163  0.16719653  1
  O  O254  1  0.10003841  0.01124586  0.36696442  1
  O  O255  1  0.10122941  -0.01592319  0.64787681  1
  O  O256  1  0.10215752  -0.01269408  0.86770681  1
  O  O257  1  0.10307088  0.23773810  0.11608664  1
  O  O258  1  0.12898723  0.24801407  0.40170837  1
  O  O259  1  0.16020516  0.25804527  0.61714336  1
  O  O260  1  0.15241975  0.25521411  0.88136671  1
  O  O261  1  0.12574729  0.50190511  0.14859478  1
  O  O262  1  0.10891285  0.48546416  0.35713583  1
  O  O263  1  0.11134260  0.49411676  0.65331374  1
  O  O264  1  0.09877027  0.48972859  0.85659582  1
  O  O265  1  0.14881146  0.74173351  0.10393941  1
  O  O266  1  0.15356254  0.74993293  0.39618572  1
  O  O267  1  0.16400656  0.75848774  0.62420524  1
  O  O268  1  0.15402215  0.75442267  0.91463625  1
  O  O269  1  0.35236375  0.00535638  0.12087498  1
  O  O270  1  0.40758500  0.01796341  0.39356217  1
  O  O271  1  0.40369557  -0.01337566  0.58510488  1
  O  O272  1  0.40211784  -0.00655156  0.89522836  1
  O  O273  1  0.37764795  0.25030873  0.14733760  1
  O  O274  1  0.36054145  0.25489152  0.33527041  1
  O  O275  1  0.36242117  0.24797877  0.65306945  1
  O  O276  1  0.36482676  0.26147229  0.84381732  1
  O  O277  1  0.37098524  0.49943359  0.08772972  1
  O  O278  1  0.39665459  0.49476504  0.38976269  1
  O  O279  1  0.38076897  0.49385446  0.59513390  1
  O  O280  1  0.38700603  0.50036007  0.91542171  1
  O  O281  1  0.36623056  0.74108057  0.14937331  1
  O  O282  1  0.35710869  0.75031092  0.33845427  1
  O  O283  1  0.35193560  0.76023619  0.63840328  1
  O  O284  1  0.37440911  0.75791067  0.85747767  1
  O  O285  1  0.62962255  0.00443531  0.13545308  1
  O  O286  1  0.62192988  0.00601504  0.36346874  1
  O  O287  1  0.64074227  0.00732962  0.62270890  1
  O  O288  1  0.60094649  0.00012695  0.88386275  1
  O  O289  1  0.62447891  0.26214013  0.12786891  1
  O  O290  1  0.65496989  0.25621137  0.37211084  1
  O  O291  1  0.64663723  0.25327857  0.63479314  1
  O  O292  1  0.63184592  0.26029985  0.89638003  1
  O  O293  1  0.64199618  0.50627255  0.13012192  1
  O  O294  1  0.62097864  0.50665363  0.39891931  1
  O  O295  1  0.62941480  0.49749985  0.61294120  1
  O  O296  1  0.63746441  0.49724114  0.86831628  1
  O  O297  1  0.63765698  0.74223223  0.14728685  1
  O  O298  1  0.64406205  0.74592946  0.37749748  1
  O  O299  1  0.64214840  0.75036194  0.63212017  1
  O  O300  1  0.66313869  0.74969660  0.87093020  1
  O  O301  1  0.87239402  0.00109555  0.16478489  1
  O  O302  1  0.90191628  0.00277131  0.36557566  1
  O  O303  1  0.86817946  0.00438389  0.65468356  1
  O  O304  1  0.90724423  -0.00204645  0.86715306  1
  O  O305  1  0.90062243  0.23829481  0.11480256  1
  O  O306  1  0.86924005  0.24852298  0.40228627  1
  O  O307  1  0.87170110  0.24610097  0.61540733  1
  O  O308  1  0.86005055  0.23919526  0.91432226  1
  O  O309  1  0.87742734  0.50311318  0.15172811  1
  O  O310  1  0.89555517  0.49654193  0.36102548  1
  O  O311  1  0.88504174  0.50015030  0.64782683  1
  O  O312  1  0.88948635  0.48758123  0.85475316  1
  O  O313  1  0.88341486  0.74725669  0.10092301  1
  O  O314  1  0.86081984  0.74306025  0.40200988  1
  O  O315  1  0.85899316  0.74588038  0.59562478  1
  O  O316  1  0.85778375  0.76490107  0.91029530  1
