# generated using pymatgen
data_Mg32Ti42(Bi17O64)3
_symmetry_space_group_name_H-M   'P 1'
_cell_length_a   15.96102831
_cell_length_b   15.93038771
_cell_length_c   15.97906037
_cell_angle_alpha   89.98803889
_cell_angle_beta   89.91792059
_cell_angle_gamma   90.18910360
_symmetry_Int_Tables_number   1
_chemical_formula_structural   Mg32Ti42(Bi17O64)3
_chemical_formula_sum   'Mg32 Ti42 Bi51 O192'
_cell_volume   4062.89529265
_cell_formula_units_Z   1
loop_
 _symmetry_equiv_pos_site_id
 _symmetry_equiv_pos_as_xyz
  1  'x, y, z'
loop_
 _atom_site_type_symbol
 _atom_site_label
 _atom_site_symmetry_multiplicity
 _atom_site_fract_x
 _atom_site_fract_y
 _atom_site_fract_z
 _atom_site_occupancy
  Mg  Mg0  1  0.37289868  0.87952323  0.11795550  1
  Mg  Mg1  1  0.12339657  0.36912586  0.62892384  1
  Mg  Mg2  1  0.37998023  0.86931108  0.87695505  1
  Mg  Mg3  1  0.87092882  0.63136979  0.86827917  1
  Mg  Mg4  1  0.38203606  0.37927907  0.12496091  1
  Mg  Mg5  1  0.61758836  0.11490570  0.87904821  1
  Mg  Mg6  1  0.13071283  0.62715122  0.62051389  1
  Mg  Mg7  1  0.36919534  0.13081262  0.63218962  1
  Mg  Mg8  1  0.62955098  0.12884846  0.61436759  1
  Mg  Mg9  1  0.61272646  0.38371748  0.37794788  1
  Mg  Mg10  1  0.61631333  0.37843593  0.62907806  1
  Mg  Mg11  1  0.12705805  0.63560350  0.10538528  1
  Mg  Mg12  1  0.87762216  0.87409482  0.62881907  1
  Mg  Mg13  1  0.87828228  0.86812162  0.37654093  1
  Mg  Mg14  1  0.62346074  0.62859222  0.12208407  1
  Mg  Mg15  1  0.12207915  0.36997295  0.11154681  1
  Mg  Mg16  1  0.87788819  0.11690240  0.87877374  1
  Mg  Mg17  1  0.62635942  0.87646503  0.86543698  1
  Mg  Mg18  1  0.37994909  0.37169968  0.86341134  1
  Mg  Mg19  1  0.42693811  0.02096138  0.48914742  1
  Mg  Mg20  1  0.26575212  0.72551211  -0.03872526  1
  Mg  Mg21  1  0.25682603  -0.01709514  0.68127250  1
  Mg  Mg22  1  0.49193820  0.02503502  0.30835804  1
  Mg  Mg23  1  0.30179763  0.06362874  0.28644433  1
  Mg  Mg24  1  0.48736941  0.41764199  0.51153321  1
  Mg  Mg25  1  0.37235559  0.86853635  0.60773999  1
  Mg  Mg26  1  0.50482479  -0.05015216  -0.02330560  1
  Mg  Mg27  1  0.46526705  0.50346719  0.69417788  1
  Mg  Mg28  1  0.04253079  0.77711338  -0.05684416  1
  Mg  Mg29  1  0.49912374  0.56974342  0.24776207  1
  Mg  Mg30  1  0.70407424  0.28395652  0.50089969  1
  Mg  Mg31  1  0.28123273  0.19619575  0.77069208  1
  Ti  Ti32  1  0.13253209  0.86773032  0.61216383  1
  Ti  Ti33  1  0.87014021  0.37485593  0.87151624  1
  Ti  Ti34  1  0.38240224  0.62319139  0.85219324  1
  Ti  Ti35  1  0.62564796  0.37501221  0.87089046  1
  Ti  Ti36  1  0.62363801  0.37124108  0.12083211  1
  Ti  Ti37  1  0.37372590  0.10428876  0.12353936  1
  Ti  Ti38  1  0.87159728  0.86909344  0.86481929  1
  Ti  Ti39  1  0.87750749  0.37505100  0.38378812  1
  Ti  Ti40  1  0.87983209  0.12629031  0.63778395  1
  Ti  Ti41  1  0.12487232  0.35982642  0.87322130  1
  Ti  Ti42  1  0.14141592  0.12030178  0.88861356  1
  Ti  Ti43  1  0.62160432  0.11150861  0.12847103  1
  Ti  Ti44  1  0.87515093  0.62459802  0.62568606  1
  Ti  Ti45  1  0.87889680  0.37171185  0.62737284  1
  Ti  Ti46  1  0.62273026  0.62238626  0.86481483  1
  Ti  Ti47  1  0.37820118  0.38666794  0.35996876  1
  Ti  Ti48  1  0.12435868  0.37151668  0.37511399  1
  Ti  Ti49  1  0.13229345  0.62501083  0.87880865  1
  Ti  Ti50  1  0.63792287  0.12702285  0.38855733  1
  Ti  Ti51  1  0.10851053  0.13029376  0.35469818  1
  Ti  Ti52  1  0.34991800  0.87989367  0.37548547  1
  Ti  Ti53  1  0.87255957  0.13389486  0.38365550  1
  Ti  Ti54  1  0.12169090  0.87423771  0.13492931  1
  Ti  Ti55  1  0.85952854  0.12524503  0.12915704  1
  Ti  Ti56  1  0.13862638  0.61902011  0.38481907  1
  Ti  Ti57  1  0.87255709  0.61278971  0.37215918  1
  Ti  Ti58  1  0.62760316  0.88512480  0.61484223  1
  Ti  Ti59  1  0.87154666  0.85838000  0.11998928  1
  Ti  Ti60  1  0.37222695  0.62448537  0.60640740  1
  Ti  Ti61  1  0.38387511  0.10782767  0.88618658  1
  Ti  Ti62  1  0.37399343  0.35789034  0.64074690  1
  Ti  Ti63  1  0.13232408  0.12409748  0.63717111  1
  Ti  Ti64  1  0.13222685  0.11726823  0.12422647  1
  Ti  Ti65  1  0.87102310  0.62485103  0.12600315  1
  Ti  Ti66  1  0.61880371  0.87341146  0.12769807  1
  Ti  Ti67  1  0.61973822  0.61647436  0.38090629  1
  Ti  Ti68  1  0.37873154  0.63145998  0.11493848  1
  Ti  Ti69  1  0.62506691  0.87896682  0.38250022  1
  Ti  Ti70  1  0.86784255  0.37738750  0.11527289  1
  Ti  Ti71  1  0.61911533  0.62161186  0.61410539  1
  Ti  Ti72  1  0.36589097  0.61294551  0.37046867  1
  Ti  Ti73  1  0.11989774  0.87170924  0.36614346  1
  Bi  Bi74  1  0.73750308  0.51476162  0.73421614  1
  Bi  Bi75  1  0.73381557  0.27829760  0.26315749  1
  Bi  Bi76  1  0.73398182  0.01434359  0.73246224  1
  Bi  Bi77  1  0.22754400  0.03097129  0.47549385  1
  Bi  Bi78  1  0.25303381  0.49110782  0.52503768  1
  Bi  Bi79  1  0.73797278  0.76705938  0.72854126  1
  Bi  Bi80  1  0.49989590  0.75433112  -0.01867640  1
  Bi  Bi81  1  0.47362121  0.75096614  0.48146078  1
  Bi  Bi82  1  0.75583680  0.48499470  0.50332894  1
  Bi  Bi83  1  0.00850258  0.48577445  0.76087547  1
  Bi  Bi84  1  0.21293354  -0.04986491  -0.01370836  1
  Bi  Bi85  1  0.23435250  0.79864483  0.77459778  1
  Bi  Bi86  1  0.02299589  0.49362966  0.22457002  1
  Bi  Bi87  1  0.73701776  0.76066448  -0.02142627  1
  Bi  Bi88  1  0.27589970  0.24583787  0.46017606  1
  Bi  Bi89  1  0.75172383  -0.00852982  0.27193912  1
  Bi  Bi90  1  0.49570122  0.75742311  0.73132342  1
  Bi  Bi91  1  0.49753276  0.48202164  -0.01032235  1
  Bi  Bi92  1  0.01983253  0.23203791  0.51851876  1
  Bi  Bi93  1  0.73489339  0.00011673  -0.01592781  1
  Bi  Bi94  1  0.00816327  -0.01639846  0.51740714  1
  Bi  Bi95  1  0.76753886  0.73758840  0.48598732  1
  Bi  Bi96  1  -0.01522079  0.53371945  -0.01526722  1
  Bi  Bi97  1  0.01240508  0.72142397  0.24827237  1
  Bi  Bi98  1  0.01426347  0.72797186  0.74825998  1
  Bi  Bi99  1  0.73074227  0.50967778  0.23272785  1
  Bi  Bi100  1  0.27776792  0.25305039  -0.00916392  1
  Bi  Bi101  1  0.03364172  -0.02901682  0.77407933  1
  Bi  Bi102  1  0.48126680  0.79400443  0.25401482  1
  Bi  Bi103  1  -0.01702482  -0.02047516  0.01100977  1
  Bi  Bi104  1  0.25482643  0.26163113  0.21730766  1
  Bi  Bi105  1  0.26937098  0.48288121  -0.01420038  1
  Bi  Bi106  1  0.73834017  0.51904780  -0.01361461  1
  Bi  Bi107  1  0.25462367  0.75760445  0.21857623  1
  Bi  Bi108  1  0.01952406  0.48528013  0.51009496  1
  Bi  Bi109  1  0.51369986  0.20981216  0.73836203  1
  Bi  Bi110  1  0.24754650  0.49868839  0.20963507  1
  Bi  Bi111  1  -0.02907897  0.26407060  0.24659412  1
  Bi  Bi112  1  0.48390813  0.21475688  0.48245923  1
  Bi  Bi113  1  -0.01437748  0.23247302  0.01136150  1
  Bi  Bi114  1  0.73914744  0.26412231  0.72826923  1
  Bi  Bi115  1  0.46200260  -0.01351309  0.73239165  1
  Bi  Bi116  1  0.78199845  -0.00839670  0.50021839  1
  Bi  Bi117  1  0.51107112  0.23506784  0.00541820  1
  Bi  Bi118  1  0.72608631  0.75267595  0.25368833  1
  Bi  Bi119  1  0.74490302  0.23871499  -0.03189990  1
  Bi  Bi120  1  0.00718907  0.72562719  0.49103180  1
  Bi  Bi121  1  0.50533832  0.21669495  0.24302721  1
  Bi  Bi122  1  0.24646226  0.48323459  0.74901856  1
  Bi  Bi123  1  -0.02732871  -0.01506812  0.25308353  1
  Bi  Bi124  1  0.00766269  0.22473959  0.77250203  1
  O  O125  1  0.16101597  0.13443284  0.00092613  1
  O  O126  1  0.09919508  0.11142465  0.24507622  1
  O  O127  1  0.14135100  0.14682273  0.50943727  1
  O  O128  1  0.09420378  0.10684764  0.75027902  1
  O  O129  1  0.12447746  0.35494888  -0.01342323  1
  O  O130  1  0.12925530  0.40534308  0.26088922  1
  O  O131  1  0.09933571  0.35709814  0.49855063  1
  O  O132  1  0.12655075  0.40753223  0.75130028  1
  O  O133  1  0.15141456  0.67303088  -0.01358504  1
  O  O134  1  0.09801325  0.61472915  0.26772655  1
  O  O135  1  0.12857360  0.65444451  0.49529376  1
  O  O136  1  0.09444262  0.61063188  0.75051203  1
  O  O137  1  0.10221900  0.86734864  0.01133949  1
  O  O138  1  0.14325380  0.88707907  0.25430503  1
  O  O139  1  0.09575348  0.86538326  0.49959517  1
  O  O140  1  0.15515656  0.91401489  0.73821989  1
  O  O141  1  0.36529503  0.14606358  0.00166587  1
  O  O142  1  0.41164783  0.09223359  0.23954427  1
  O  O143  1  0.36678336  0.14092010  0.50582827  1
  O  O144  1  0.39396557  0.11244491  0.76286071  1
  O  O145  1  0.35708916  0.37249364  -0.00381731  1
  O  O146  1  0.36925640  0.39747290  0.24986042  1
  O  O147  1  0.38151445  0.33868402  0.51999968  1
  O  O148  1  0.37463553  0.42073975  0.74739312  1
  O  O149  1  0.36538442  0.66129990  0.00358513  1
  O  O150  1  0.38134782  0.60173108  0.25558931  1
  O  O151  1  0.37747440  0.64968368  0.49181279  1
  O  O152  1  0.39106566  0.59952031  0.74136025  1
  O  O153  1  0.41596227  0.85810091  -0.00010963  1
  O  O154  1  0.36300297  0.87718202  0.25569242  1
  O  O155  1  0.40609993  0.87707453  0.48650580  1
  O  O156  1  0.35193442  0.90392294  0.75038443  1
  O  O157  1  0.63017783  0.15757493  0.01085607  1
  O  O158  1  0.58796866  0.10123871  0.24841264  1
  O  O159  1  0.65599799  0.16512141  0.49534635  1
  O  O160  1  0.60338213  0.10227304  0.75251699  1
  O  O161  1  0.63202331  0.34363988  0.00596757  1
  O  O162  1  0.64654709  0.38967401  0.25112224  1
  O  O163  1  0.60192250  0.35690414  0.50373586  1
  O  O164  1  0.64193728  0.39577483  0.75927198  1
  O  O165  1  0.64655883  0.63563469  -0.00384513  1
  O  O166  1  0.61940824  0.59469980  0.25636016  1
  O  O167  1  0.63181621  0.65451386  0.50183527  1
  O  O168  1  0.61432818  0.59007747  0.75428716  1
  O  O169  1  0.60844668  0.84550161  0.00531090  1
  O  O170  1  0.65903540  0.88969225  0.24125608  1
  O  O171  1  0.60801501  0.86717216  0.49746656  1
  O  O172  1  0.65340156  0.88974822  0.74218668  1
  O  O173  1  0.87240561  0.14932207  0.00678014  1
  O  O174  1  0.89447687  0.13296844  0.24505902  1
  O  O175  1  0.85485919  0.11628811  0.49836683  1
  O  O176  1  0.90218034  0.11869535  0.75091595  1
  O  O177  1  0.88873943  0.37301451  0.00001112  1
  O  O178  1  0.86208293  0.35529743  0.25611626  1
  O  O179  1  0.88617346  0.38218720  0.50198875  1
  O  O180  1  0.86147488  0.38214487  0.74899120  1
  O  O181  1  0.85802149  0.61655579  0.00943462  1
  O  O182  1  0.89254339  0.61813676  0.25940915  1
  O  O183  1  0.82757590  0.61093175  0.50194097  1
  O  O184  1  0.89692087  0.62601540  0.74147334  1
  O  O185  1  0.91434560  0.85767393  0.00699400  1
  O  O186  1  0.86101878  0.89481380  0.24221891  1
  O  O187  1  0.88775990  0.90142169  0.50260783  1
  O  O188  1  0.84485717  0.88269374  0.75404864  1
  O  O189  1  0.01821958  0.12707052  0.09657078  1
  O  O190  1  -0.00304257  0.11714587  0.39346783  1
  O  O191  1  -0.00376856  0.10642328  0.60226535  1
  O  O192  1  0.01091812  0.15110276  0.89381656  1
  O  O193  1  -0.00290805  0.37557192  0.14430510  1
  O  O194  1  -0.00665593  0.39346177  0.36105381  1
  O  O195  1  -0.00645153  0.40110506  0.63535254  1
  O  O196  1  0.00368648  0.36030375  0.85203716  1
  O  O197  1  -0.00607460  0.61631421  0.12262725  1
  O  O198  1  -0.01446209  0.61161230  0.40805533  1
  O  O199  1  -0.01041701  0.61403801  0.59283369  1
  O  O200  1  0.00074887  0.65234265  0.90844722  1
  O  O201  1  0.00077126  0.89269032  0.14908908  1
  O  O202  1  0.00087342  0.89184669  0.35249621  1
  O  O203  1  0.00737550  0.90695887  0.64050836  1
  O  O204  1  -0.01096122  0.84870063  0.84871337  1
  O  O205  1  0.25971555  0.11796961  0.17473872  1
  O  O206  1  0.23428163  0.13177146  0.36636242  1
  O  O207  1  0.24401384  0.11782415  0.66981953  1
  O  O208  1  0.25432437  0.10569938  0.85949817  1
  O  O209  1  0.24734748  0.37952804  0.13430926  1
  O  O210  1  0.24352991  0.36587131  0.38659136  1
  O  O211  1  0.25398749  0.39351174  0.63102257  1
  O  O212  1  0.24325849  0.40476680  0.86620146  1
  O  O213  1  0.25118605  0.63914318  0.14411018  1
  O  O214  1  0.24912030  0.63852196  0.36161661  1
  O  O215  1  0.25846584  0.60990080  0.61828486  1
  O  O216  1  0.24970522  0.61227021  0.86626477  1
  O  O217  1  0.24258364  0.85001191  0.11106834  1
  O  O218  1  0.23996429  0.87300930  0.39767922  1
  O  O219  1  0.24697009  0.87130185  0.60952972  1
  O  O220  1  0.25496699  0.84306854  0.90545995  1
  O  O221  1  0.49971855  0.13620250  0.10754251  1
  O  O222  1  0.51480853  0.09127182  0.41744931  1
  O  O223  1  0.49885591  0.14635009  0.61341193  1
  O  O224  1  0.49578728  0.15369638  0.89366363  1
  O  O225  1  0.50785963  0.38799589  0.10968218  1
  O  O226  1  0.48754675  0.40317296  0.38500162  1
  O  O227  1  0.49244385  0.39271987  0.63780024  1
  O  O228  1  0.50619651  0.37480397  0.89379970  1
  O  O229  1  0.49514197  0.60767045  0.12563313  1
  O  O230  1  0.50158897  0.61765374  0.37185642  1
  O  O231  1  0.50697500  0.60540614  0.62164287  1
  O  O232  1  0.50063001  0.63343548  0.87672615  1
  O  O233  1  0.50733918  0.88625007  0.14483461  1
  O  O234  1  0.51623223  0.90591007  0.34134060  1
  O  O235  1  0.50668395  0.87510014  0.65075563  1
  O  O236  1  0.50573472  0.84020150  0.86207683  1
  O  O237  1  0.74538282  0.12588604  0.14198260  1
  O  O238  1  0.75161178  0.14120894  0.35074740  1
  O  O239  1  0.75667273  0.14379679  0.65628727  1
  O  O240  1  0.74806932  0.10999918  0.88943644  1
  O  O241  1  0.75573482  0.34714481  0.12233100  1
  O  O242  1  0.74833512  0.34224089  0.39426231  1
  O  O243  1  0.75449057  0.34301949  0.60780467  1
  O  O244  1  0.75448280  0.39621566  0.89178060  1
  O  O245  1  0.75321382  0.63253075  0.15536590  1
  O  O246  1  0.74459992  0.65229862  0.36285059  1
  O  O247  1  0.74568925  0.63791914  0.65424991  1
  O  O248  1  0.74617212  0.59261735  0.86365434  1
  O  O249  1  0.75870476  0.86674690  0.09431530  1
  O  O250  1  0.74996602  0.86983820  0.37893480  1
  O  O251  1  0.74118191  0.84915570  0.60701232  1
  O  O252  1  0.74985372  0.88603317  0.90571441  1
  O  O253  1  0.13893085  -0.00249754  0.10985126  1
  O  O254  1  0.12497934  0.00511290  0.39281188  1
  O  O255  1  0.14333480  0.00528169  0.59589361  1
  O  O256  1  0.11284056  0.00515718  0.89576267  1
  O  O257  1  0.14701043  0.24117878  0.13553128  1
  O  O258  1  0.10826920  0.25249393  0.35914163  1
  O  O259  1  0.09846071  0.24182459  0.63917098  1
  O  O260  1  0.14572561  0.24717916  0.84125883  1
  O  O261  1  0.12891242  0.50596733  0.12462174  1
  O  O262  1  0.13048196  0.50306940  0.40689058  1
  O  O263  1  0.12852841  0.50048172  0.59514614  1
  O  O264  1  0.09529499  0.51112754  0.89165846  1
  O  O265  1  0.11247296  0.75320032  0.15634619  1
  O  O266  1  0.09666310  0.75283644  0.36340680  1
  O  O267  1  0.11407395  0.75658867  0.64873275  1
  O  O268  1  0.12113183  0.74598321  0.84048109  1
  O  O269  1  0.36017961  0.00057356  0.09162564  1
  O  O270  1  0.36062780  -0.00051966  0.38043476  1
  O  O271  1  0.37829184  0.00193988  0.61533944  1
  O  O272  1  0.41316509  -0.00178239  0.89693128  1
  O  O273  1  0.36211460  0.24897552  0.13294507  1
  O  O274  1  0.37978192  0.26079460  0.36984952  1
  O  O275  1  0.35919745  0.25264905  0.67865142  1
  O  O276  1  0.34344421  0.24969686  0.86829408  1
  O  O277  1  0.35144867  0.50945667  0.10387880  1
  O  O278  1  0.35172414  0.50240936  0.39705433  1
  O  O279  1  0.38395215  0.50428017  0.58643434  1
  O  O280  1  0.38131366  0.50989045  0.90735209  1
  O  O281  1  0.38168006  0.74788450  0.15367056  1
  O  O282  1  0.39329657  0.75805112  0.36741374  1
  O  O283  1  0.40170174  0.74455634  0.62311254  1
  O  O284  1  0.36136522  0.73786218  0.84797635  1
  O  O285  1  0.63040624  0.00067396  0.10165153  1
  O  O286  1  0.65688249  0.00475652  0.38011290  1
  O  O287  1  0.65231319  0.00028526  0.61318233  1
  O  O288  1  0.61098789  -0.00609120  0.91807795  1
  O  O289  1  0.61331445  0.25066706  0.16024121  1
  O  O290  1  0.60022964  0.23832860  0.34880005  1
  O  O291  1  0.62234916  0.25248024  0.66014844  1
  O  O292  1  0.64902170  0.25592350  0.86125123  1
  O  O293  1  0.65378419  0.49179525  0.11485567  1
  O  O294  1  0.64538013  0.50889523  0.40267531  1
  O  O295  1  0.65418649  0.50514874  0.61117125  1
  O  O296  1  0.61586848  0.49680621  0.91106004  1
  O  O297  1  0.62416055  0.75424757  0.15288450  1
  O  O298  1  0.61664751  0.76131068  0.35045447  1
  O  O299  1  0.61398071  0.74373993  0.65603195  1
  O  O300  1  0.65251569  0.73959822  0.85830177  1
  O  O301  1  0.87979696  0.00893926  0.11110310  1
  O  O302  1  0.86036862  0.00880548  0.36605759  1
  O  O303  1  0.84000875  0.00589009  0.62959183  1
  O  O304  1  0.89310523  -0.01020331  0.90047225  1
  O  O305  1  0.89587840  0.24831821  0.12855316  1
  O  O306  1  0.89684613  0.25014713  0.38048880  1
  O  O307  1  0.90263944  0.24879776  0.62633974  1
  O  O308  1  0.86037805  0.25669503  0.86887620  1
  O  O309  1  0.85779330  0.49504745  0.13230552  1
  O  O310  1  0.84537818  0.49464472  0.37598396  1
  O  O311  1  0.84654635  0.49754932  0.62322552  1
  O  O312  1  0.90356481  0.50001615  0.87765947  1
  O  O313  1  0.88005909  0.74673659  0.14220446  1
  O  O314  1  0.88231442  0.74149825  0.39884286  1
  O  O315  1  0.87787517  0.74320120  0.60235246  1
  O  O316  1  0.84109657  0.75388408  0.87686104  1
