# generated using pymatgen
data_Mg32Ti42(Bi17O64)3
_symmetry_space_group_name_H-M   'P 1'
_cell_length_a   15.94778348
_cell_length_b   15.91773997
_cell_length_c   15.98434906
_cell_angle_alpha   90.13943936
_cell_angle_beta   90.01817518
_cell_angle_gamma   89.91821077
_symmetry_Int_Tables_number   1
_chemical_formula_structural   Mg32Ti42(Bi17O64)3
_chemical_formula_sum   'Mg32 Ti42 Bi51 O192'
_cell_volume   4057.65334672
_cell_formula_units_Z   1
loop_
 _symmetry_equiv_pos_site_id
 _symmetry_equiv_pos_as_xyz
  1  'x, y, z'
loop_
 _atom_site_type_symbol
 _atom_site_label
 _atom_site_symmetry_multiplicity
 _atom_site_fract_x
 _atom_site_fract_y
 _atom_site_fract_z
 _atom_site_occupancy
  Mg  Mg0  1  0.87822888  0.61794814  0.12573984  1
  Mg  Mg1  1  0.13011777  0.36682693  0.38276637  1
  Mg  Mg2  1  0.86030580  0.37277692  0.87223965  1
  Mg  Mg3  1  0.61382493  0.13152045  0.61528226  1
  Mg  Mg4  1  0.87389808  0.12222872  0.62032336  1
  Mg  Mg5  1  0.37955942  0.87010699  0.12001353  1
  Mg  Mg6  1  0.88194817  0.36048347  0.37294846  1
  Mg  Mg7  1  0.62224993  0.13640766  0.88130399  1
  Mg  Mg8  1  0.88677269  0.88473941  0.62280500  1
  Mg  Mg9  1  0.35658369  0.62375282  0.36426925  1
  Mg  Mg10  1  0.88550260  0.87426664  0.37583732  1
  Mg  Mg11  1  0.37612264  0.36422747  0.87205585  1
  Mg  Mg12  1  0.87705458  0.62775622  0.87589343  1
  Mg  Mg13  1  0.37273741  0.87539142  0.86685942  1
  Mg  Mg14  1  0.37927654  0.62489471  0.63489841  1
  Mg  Mg15  1  0.61734473  0.38188727  0.62114451  1
  Mg  Mg16  1  0.12069816  0.11459059  0.63364658  1
  Mg  Mg17  1  0.38010716  0.12998124  0.37244425  1
  Mg  Mg18  1  0.12137292  0.13595406  0.13328707  1
  Mg  Mg19  1  -0.05037068  0.03028813  0.74309258  1
  Mg  Mg20  1  0.27632312  0.02368728  0.69319103  1
  Mg  Mg21  1  0.26245523  0.50571042  0.77832651  1
  Mg  Mg22  1  0.69807498  0.24367415  0.02726411  1
  Mg  Mg23  1  0.30247812  0.49773337  -0.02511903  1
  Mg  Mg24  1  0.03248438  0.24698853  0.28289485  1
  Mg  Mg25  1  0.45398931  0.24114570  0.56817244  1
  Mg  Mg26  1  0.53547425  0.26408925  0.73552301  1
  Mg  Mg27  1  0.02015036  0.46496632  0.28229235  1
  Mg  Mg28  1  0.25563315  0.47013060  0.29430904  1
  Mg  Mg29  1  0.77531983  -0.01581104  0.48465115  1
  Mg  Mg30  1  0.56935833  0.77061493  0.73728080  1
  Mg  Mg31  1  0.21770092  0.67651919  0.72607195  1
  Ti  Ti32  1  0.62364003  0.11532818  0.37579745  1
  Ti  Ti33  1  0.62662801  0.38491326  0.37762614  1
  Ti  Ti34  1  0.60983937  0.87997919  0.60980027  1
  Ti  Ti35  1  0.88094129  0.88081367  0.12030917  1
  Ti  Ti36  1  0.37077462  0.12868485  0.88514161  1
  Ti  Ti37  1  0.62405098  0.87194738  0.12170680  1
  Ti  Ti38  1  0.87281758  0.13219954  0.87449265  1
  Ti  Ti39  1  0.87931108  0.88022178  0.86908991  1
  Ti  Ti40  1  0.63803910  0.88190776  0.86732050  1
  Ti  Ti41  1  0.12979583  0.61506670  0.36892457  1
  Ti  Ti42  1  0.62875563  0.11140492  0.12953410  1
  Ti  Ti43  1  0.62798151  0.36490598  0.87850113  1
  Ti  Ti44  1  0.12597134  0.38269903  0.13159158  1
  Ti  Ti45  1  0.61798317  0.61897054  0.62614894  1
  Ti  Ti46  1  0.12572310  0.12905872  0.87465359  1
  Ti  Ti47  1  0.62810882  0.62462351  0.11331158  1
  Ti  Ti48  1  0.61613910  0.37968047  0.12885136  1
  Ti  Ti49  1  0.12134897  0.60595486  0.13011186  1
  Ti  Ti50  1  0.62893732  0.62710071  0.36797920  1
  Ti  Ti51  1  0.61719350  0.87637689  0.36254472  1
  Ti  Ti52  1  0.87199930  0.14218013  0.12639224  1
  Ti  Ti53  1  0.12201616  0.87067520  0.37348016  1
  Ti  Ti54  1  0.88272842  0.62193181  0.36410760  1
  Ti  Ti55  1  0.89821579  0.37836944  0.13634998  1
  Ti  Ti56  1  0.13556657  0.12082754  0.38110327  1
  Ti  Ti57  1  0.11593276  0.89413440  0.88386188  1
  Ti  Ti58  1  0.87081425  0.37430750  0.61971607  1
  Ti  Ti59  1  0.36083953  0.62307126  0.11992961  1
  Ti  Ti60  1  0.13301307  0.37584270  0.86623704  1
  Ti  Ti61  1  0.36147124  0.13237097  0.12751334  1
  Ti  Ti62  1  0.37276833  0.63751580  0.86991330  1
  Ti  Ti63  1  0.14265938  0.61075894  0.88545328  1
  Ti  Ti64  1  0.38047286  0.86697977  0.36090196  1
  Ti  Ti65  1  0.62460203  0.62754544  0.85965327  1
  Ti  Ti66  1  0.12462027  0.36602577  0.63276892  1
  Ti  Ti67  1  0.37481324  0.36666874  0.39420281  1
  Ti  Ti68  1  0.12065389  0.87724835  0.11550262  1
  Ti  Ti69  1  0.36840760  0.38594841  0.63563657  1
  Ti  Ti70  1  0.37034777  0.38570640  0.12515351  1
  Ti  Ti71  1  0.87030860  0.12152100  0.38090751  1
  Ti  Ti72  1  0.37965444  0.86946701  0.64714858  1
  Ti  Ti73  1  0.13042772  0.88185226  0.64873301  1
  Bi  Bi74  1  0.47216797  0.00151540  0.22938172  1
  Bi  Bi75  1  0.48174060  0.52883797  0.49373993  1
  Bi  Bi76  1  0.77543721  -0.00409478  0.25366057  1
  Bi  Bi77  1  0.24476505  0.27243092  -0.01058104  1
  Bi  Bi78  1  -0.00960185  0.24825050  -0.01749885  1
  Bi  Bi79  1  0.71181006  0.25601770  0.49807084  1
  Bi  Bi80  1  0.49476217  0.71500298  0.22717689  1
  Bi  Bi81  1  0.46135424  0.73922109  0.49619296  1
  Bi  Bi82  1  0.23288765  0.51689243  0.53111201  1
  Bi  Bi83  1  0.79181743  0.52295373  0.73811840  1
  Bi  Bi84  1  0.02832152  0.52927000  0.71547680  1
  Bi  Bi85  1  0.72798328  0.24084456  0.72721902  1
  Bi  Bi86  1  0.47685379  0.04429836  0.71715653  1
  Bi  Bi87  1  0.51028995  0.51264936  -0.01049140  1
  Bi  Bi88  1  0.00762637  0.24831612  0.51240786  1
  Bi  Bi89  1  0.77079205  0.48369337  0.26870140  1
  Bi  Bi90  1  0.26347749  -0.00524016  -0.00323860  1
  Bi  Bi91  1  0.48647562  0.25439052  0.01810178  1
  Bi  Bi92  1  0.74561042  0.77004784  0.47837957  1
  Bi  Bi93  1  0.23138912  0.26473553  0.24116965  1
  Bi  Bi94  1  0.00450205  0.71830902  0.00397315  1
  Bi  Bi95  1  0.50011051  -0.00344058  -0.02864070  1
  Bi  Bi96  1  -0.01066455  0.48118292  -0.03128854  1
  Bi  Bi97  1  0.24548705  -0.00200176  0.26433004  1
  Bi  Bi98  1  -0.03285259  0.70803130  0.53939912  1
  Bi  Bi99  1  0.73654986  0.01497318  -0.01516970  1
  Bi  Bi100  1  0.49107069  0.24625248  0.26365953  1
  Bi  Bi101  1  0.25408634  -0.03572228  0.50275680  1
  Bi  Bi102  1  0.23323070  0.73964297  0.53909086  1
  Bi  Bi103  1  0.00028022  -0.00159164  0.52066157  1
  Bi  Bi104  1  0.74955578  0.24192211  0.25877560  1
  Bi  Bi105  1  0.48364306  -0.00309705  0.48296492  1
  Bi  Bi106  1  0.23839049  0.76174002  0.22539415  1
  Bi  Bi107  1  0.76030129  0.53464417  0.51061285  1
  Bi  Bi108  1  0.52110356  0.76063964  -0.02569221  1
  Bi  Bi109  1  0.48004612  0.48916164  0.26259860  1
  Bi  Bi110  1  0.25955833  0.21750677  0.74121111  1
  Bi  Bi111  1  0.26322084  0.77068693  -0.01532513  1
  Bi  Bi112  1  0.27387781  0.21717683  0.52224824  1
  Bi  Bi113  1  -0.02922597  0.26289377  0.74656821  1
  Bi  Bi114  1  0.01142703  0.01755793  0.26144471  1
  Bi  Bi115  1  0.00768735  0.48191726  0.49652767  1
  Bi  Bi116  1  0.76359356  0.47518797  0.01550790  1
  Bi  Bi117  1  0.01305002  0.73619590  0.26024014  1
  Bi  Bi118  1  0.79471267  0.74273750  0.73187069  1
  Bi  Bi119  1  0.77116149  0.75418363  0.22902238  1
  Bi  Bi120  1  0.03227433  0.75079700  0.77398101  1
  Bi  Bi121  1  0.00835122  0.02760300  0.02078531  1
  Bi  Bi122  1  0.78192692  0.75061749  0.00572331  1
  Bi  Bi123  1  0.73487145  0.00514623  0.70551311  1
  Bi  Bi124  1  0.48857479  0.47291168  0.76884226  1
  O  O125  1  0.09025689  0.14030695  0.00964312  1
  O  O126  1  0.13480232  0.09437157  0.25403310  1
  O  O127  1  0.10853251  0.12991875  0.49389921  1
  O  O128  1  0.15091482  0.11752334  0.76422614  1
  O  O129  1  0.11419482  0.34121109  0.02272907  1
  O  O130  1  0.16175582  0.39668758  0.25381779  1
  O  O131  1  0.09158179  0.36350994  0.50648502  1
  O  O132  1  0.15505460  0.38590015  0.75526767  1
  O  O133  1  0.13103625  0.64546190  -0.00132253  1
  O  O134  1  0.08757890  0.59496359  0.24207994  1
  O  O135  1  0.13777143  0.63415881  0.48122264  1
  O  O136  1  0.15480590  0.57339534  0.75998685  1
  O  O137  1  0.11064232  0.84596117  0.00130403  1
  O  O138  1  0.15056175  0.89103348  0.24386685  1
  O  O139  1  0.14164391  0.86512729  0.48827817  1
  O  O140  1  0.11848370  0.88241433  0.76444945  1
  O  O141  1  0.38199821  0.15203783  0.00866022  1
  O  O142  1  0.38214366  0.11918243  0.24366378  1
  O  O143  1  0.38955212  0.15604856  0.49594187  1
  O  O144  1  0.33943666  0.10493822  0.76893501  1
  O  O145  1  0.38425975  0.35179087  0.00336530  1
  O  O146  1  0.35894794  0.41332169  0.24269004  1
  O  O147  1  0.39548997  0.34135455  0.50186172  1
  O  O148  1  0.34971119  0.41450352  0.74888512  1
  O  O149  1  0.36162705  0.63457031  0.00275989  1
  O  O150  1  0.39166347  0.60527167  0.24431013  1
  O  O151  1  0.37800035  0.62686020  0.48890044  1
  O  O152  1  0.34536100  0.60848417  0.75709520  1
  O  O153  1  0.37083335  0.85399407  -0.00313388  1
  O  O154  1  0.36700531  0.89497371  0.24476665  1
  O  O155  1  0.38683818  0.89009772  0.48758933  1
  O  O156  1  0.34600748  0.89916829  0.74892411  1
  O  O157  1  0.63660309  0.12333387  0.00917929  1
  O  O158  1  0.65562088  0.12428621  0.24896917  1
  O  O159  1  0.62176349  0.14198186  0.48964574  1
  O  O160  1  0.62279551  0.16469258  0.76120683  1
  O  O161  1  0.57225120  0.38816257  -0.00993580  1
  O  O162  1  0.64719557  0.38470632  0.23955478  1
  O  O163  1  0.61761864  0.36302356  0.49008895  1
  O  O164  1  0.63951412  0.34966530  0.75642598  1
  O  O165  1  0.61604921  0.63986883  -0.00649822  1
  O  O166  1  0.62141596  0.62673409  0.25203848  1
  O  O167  1  0.65498652  0.62550513  0.50378902  1
  O  O168  1  0.59953930  0.64511733  0.74425191  1
  O  O169  1  0.62615650  0.86036509  0.00246589  1
  O  O170  1  0.64076565  0.88033482  0.25255033  1
  O  O171  1  0.57710566  0.87994560  0.50006561  1
  O  O172  1  0.63669599  0.87978613  0.75514558  1
  O  O173  1  0.89817811  0.12086501  0.00227319  1
  O  O174  1  0.84330614  0.12967906  0.24379860  1
  O  O175  1  0.89554849  0.10277095  0.49371750  1
  O  O176  1  0.88299641  0.14171059  0.75607713  1
  O  O177  1  0.88663880  0.38788380  0.01118368  1
  O  O178  1  0.84440160  0.36328148  0.24016012  1
  O  O179  1  0.91250216  0.37108490  0.50181093  1
  O  O180  1  0.86386374  0.35225824  0.74528524  1
  O  O181  1  0.87227012  0.64080228  -0.00089549  1
  O  O182  1  0.87252574  0.64957541  0.24989512  1
  O  O183  1  0.88006975  0.60768058  0.49153845  1
  O  O184  1  0.87337615  0.63156379  0.75088657  1
  O  O185  1  0.87382899  0.87187461  0.00017517  1
  O  O186  1  0.85457487  0.86813047  0.24717946  1
  O  O187  1  0.88524291  0.91897433  0.49895306  1
  O  O188  1  0.87846716  0.85479343  0.75107175  1
  O  O189  1  -0.00871443  0.10035307  0.14403010  1
  O  O190  1  -0.00564474  0.13691417  0.34043289  1
  O  O191  1  0.00104678  0.07918464  0.63682508  1
  O  O192  1  0.00848779  0.15093897  0.86870999  1
  O  O193  1  0.00598912  0.40746339  0.16341309  1
  O  O194  1  0.00441269  0.35120640  0.34249702  1
  O  O195  1  0.00985246  0.38083597  0.66380464  1
  O  O196  1  0.01057550  0.36223543  0.88265636  1
  O  O197  1  0.00552082  0.61496254  0.09871856  1
  O  O198  1  -0.00269618  0.65009638  0.37479624  1
  O  O199  1  0.01117142  0.64199366  0.64283668  1
  O  O200  1  0.01137487  0.64841702  0.87607789  1
  O  O201  1  -0.00207630  0.88571078  0.13497771  1
  O  O202  1  0.00957483  0.85068668  0.35454062  1
  O  O203  1  0.01858172  0.88902434  0.61957446  1
  O  O204  1  0.00067394  0.84367163  0.87728218  1
  O  O205  1  0.24991188  0.15668015  0.12879593  1
  O  O206  1  0.25012294  0.09946370  0.38214399  1
  O  O207  1  0.24716213  0.13343503  0.62473640  1
  O  O208  1  0.24188828  0.10967249  0.91996390  1
  O  O209  1  0.25223601  0.34835312  0.12020157  1
  O  O210  1  0.26048806  0.39069831  0.39551783  1
  O  O211  1  0.24283800  0.39510705  0.60618040  1
  O  O212  1  0.24693113  0.39470552  0.91261769  1
  O  O213  1  0.24602357  0.63769008  0.14326682  1
  O  O214  1  0.23876147  0.58306866  0.34561739  1
  O  O215  1  0.25225891  0.62087880  0.61628872  1
  O  O216  1  0.25618299  0.57653097  0.89092804  1
  O  O217  1  0.24394204  0.85225010  0.11102933  1
  O  O218  1  0.25476155  0.90031885  0.37186765  1
  O  O219  1  0.26014125  0.87155552  0.60240973  1
  O  O220  1  0.23400273  0.88729579  0.90189900  1
  O  O221  1  0.51366752  0.10666694  0.13377498  1
  O  O222  1  0.51231192  0.14305365  0.35485663  1
  O  O223  1  0.49528831  0.16316887  0.65528706  1
  O  O224  1  0.48965361  0.11834177  0.88407112  1
  O  O225  1  0.49445393  0.40164777  0.14223189  1
  O  O226  1  0.50572722  0.36370882  0.34510017  1
  O  O227  1  0.48656919  0.35274197  0.64929503  1
  O  O228  1  0.49895595  0.35132465  0.83266165  1
  O  O229  1  0.50190071  0.61626737  0.12768849  1
  O  O230  1  0.51332021  0.63950421  0.39428073  1
  O  O231  1  0.50389805  0.64397868  0.59507732  1
  O  O232  1  0.48820847  0.64796511  0.88153493  1
  O  O233  1  0.50684049  0.90073618  0.12741942  1
  O  O234  1  0.49994294  0.85115163  0.35207270  1
  O  O235  1  0.49724749  0.85102224  0.66066444  1
  O  O236  1  0.50471185  0.88123232  0.88552077  1
  O  O237  1  0.75626941  0.16330174  0.10689140  1
  O  O238  1  0.75490499  0.08049959  0.39393604  1
  O  O239  1  0.74396896  0.12253735  0.63212658  1
  O  O240  1  0.75992969  0.10783101  0.88310544  1
  O  O241  1  0.72611880  0.36014654  0.07727932  1
  O  O242  1  0.75025801  0.40270464  0.38126962  1
  O  O243  1  0.75928921  0.37457772  0.60082196  1
  O  O244  1  0.73771686  0.40206219  0.89426457  1
  O  O245  1  0.74202525  0.65127644  0.12175754  1
  O  O246  1  0.75537405  0.59462128  0.37597514  1
  O  O247  1  0.74219293  0.60542213  0.63950542  1
  O  O248  1  0.73532127  0.61041814  0.85414466  1
  O  O249  1  0.74623623  0.84927181  0.12198807  1
  O  O250  1  0.73611152  0.89079141  0.40603398  1
  O  O251  1  0.72351040  0.92536920  0.59220957  1
  O  O252  1  0.75488949  0.90247221  0.88294740  1
  O  O253  1  0.13125036  -0.00730258  0.09912705  1
  O  O254  1  0.10612351  -0.00732337  0.37775420  1
  O  O255  1  0.16562712  -0.00698994  0.63021738  1
  O  O256  1  0.10216388  0.00454438  0.89899510  1
  O  O257  1  0.10773511  0.25732055  0.17941583  1
  O  O258  1  0.13981135  0.23877487  0.35717837  1
  O  O259  1  0.10474775  0.24870522  0.62596883  1
  O  O260  1  0.15116109  0.25337330  0.87654251  1
  O  O261  1  0.14297416  0.49551695  0.10405456  1
  O  O262  1  0.09253979  0.49701987  0.38507765  1
  O  O263  1  0.10778957  0.49355235  0.60181579  1
  O  O264  1  0.10576889  0.49275579  0.89381868  1
  O  O265  1  0.11725560  0.74669014  0.15487418  1
  O  O266  1  0.13785775  0.74219565  0.33466887  1
  O  O267  1  0.15438280  0.75942658  0.65053478  1
  O  O268  1  0.15669891  0.72110568  0.83314887  1
  O  O269  1  0.36444530  0.01179353  0.11793498  1
  O  O270  1  0.40505711  0.00106876  0.37036493  1
  O  O271  1  0.38550214  -0.00515560  0.62214398  1
  O  O272  1  0.37320452  0.00284812  0.90969929  1
  O  O273  1  0.40539774  0.25613757  0.13764299  1
  O  O274  1  0.37437934  0.25910870  0.34127284  1
  O  O275  1  0.34418679  0.26532006  0.63526958  1
  O  O276  1  0.34390852  0.24292905  0.86503068  1
  O  O277  1  0.35348164  0.49690765  0.09000977  1
  O  O278  1  0.40050501  0.49129538  0.38458659  1
  O  O279  1  0.38326602  0.49704547  0.59564077  1
  O  O280  1  0.40664372  0.49329574  0.89119231  1
  O  O281  1  0.38551317  0.74122296  0.14204161  1
  O  O282  1  0.35847430  0.75356872  0.36901528  1
  O  O283  1  0.36693353  0.75163574  0.60922778  1
  O  O284  1  0.34582885  0.74751543  0.86744954  1
  O  O285  1  0.65442893  -0.00195830  0.12067284  1
  O  O286  1  0.59504699  -0.00147630  0.37826063  1
  O  O287  1  0.58536905  0.00708246  0.63678824  1
  O  O288  1  0.62317269  0.00123584  0.89712875  1
  O  O289  1  0.60247526  0.25991075  0.11710505  1
  O  O290  1  0.65372661  0.25232149  0.36421839  1
  O  O291  1  0.63962593  0.25633800  0.61921696  1
  O  O292  1  0.64409407  0.25872490  0.91440395  1
  O  O293  1  0.63974312  0.50602293  0.10453266  1
  O  O294  1  0.60615074  0.50101099  0.37608364  1
  O  O295  1  0.60117025  0.50613921  0.62939670  1
  O  O296  1  0.58862777  0.50846152  0.86879770  1
  O  O297  1  0.59689271  0.75278415  0.13225801  1
  O  O298  1  0.64966070  0.75040075  0.37732947  1
  O  O299  1  0.64068151  0.76688532  0.62958048  1
  O  O300  1  0.61702830  0.75635784  0.86628854  1
  O  O301  1  0.85021096  -0.00155651  0.13013289  1
  O  O302  1  0.88918515  0.00217795  0.34047747  1
  O  O303  1  0.86115490  -0.00064794  0.66173402  1
  O  O304  1  0.90566526  -0.00291825  0.85714322  1
  O  O305  1  0.90616397  0.25436643  0.12162967  1
  O  O306  1  0.84071740  0.23684306  0.37459941  1
  O  O307  1  0.90857723  0.24735870  0.61799017  1
  O  O308  1  0.87305030  0.24810508  0.89001677  1
  O  O309  1  0.85008005  0.49187913  0.13379605  1
  O  O310  1  0.90041145  0.50319765  0.33699037  1
  O  O311  1  0.88322031  0.49066336  0.63386479  1
  O  O312  1  0.89575393  0.49905085  0.87240816  1
  O  O313  1  0.87675373  0.75556307  0.12158002  1
  O  O314  1  0.84882396  0.74830454  0.39129378  1
  O  O315  1  0.86090053  0.76252340  0.60461811  1
  O  O316  1  0.84590727  0.75568463  0.87362410  1
