# generated using pymatgen
data_Mg32Ti42(Bi17O64)3
_symmetry_space_group_name_H-M   'P 1'
_cell_length_a   15.98780831
_cell_length_b   15.96555303
_cell_length_c   15.95907303
_cell_angle_alpha   89.90582162
_cell_angle_beta   90.07279739
_cell_angle_gamma   89.94078591
_symmetry_Int_Tables_number   1
_chemical_formula_structural   Mg32Ti42(Bi17O64)3
_chemical_formula_sum   'Mg32 Ti42 Bi51 O192'
_cell_volume   4073.60946678
_cell_formula_units_Z   1
loop_
 _symmetry_equiv_pos_site_id
 _symmetry_equiv_pos_as_xyz
  1  'x, y, z'
loop_
 _atom_site_type_symbol
 _atom_site_label
 _atom_site_symmetry_multiplicity
 _atom_site_fract_x
 _atom_site_fract_y
 _atom_site_fract_z
 _atom_site_occupancy
  Mg  Mg0  1  0.61162386  0.61415114  0.87007108  1
  Mg  Mg1  1  0.87311779  0.86713041  0.37929442  1
  Mg  Mg2  1  0.87811997  0.12966311  0.37926757  1
  Mg  Mg3  1  0.62837943  0.89353874  0.88584279  1
  Mg  Mg4  1  0.87157015  0.87517817  0.62301652  1
  Mg  Mg5  1  0.86915046  0.38687324  0.13089948  1
  Mg  Mg6  1  0.37710140  0.37198033  0.61824474  1
  Mg  Mg7  1  0.62040121  0.12720164  0.36356803  1
  Mg  Mg8  1  0.11997999  0.12389688  0.62237682  1
  Mg  Mg9  1  0.86593756  0.86884207  0.88602607  1
  Mg  Mg10  1  0.10452833  0.12464159  0.87502902  1
  Mg  Mg11  1  0.36608309  0.88138291  0.12084992  1
  Mg  Mg12  1  0.12240418  0.86896604  0.11672413  1
  Mg  Mg13  1  0.13015502  0.62369129  0.86677769  1
  Mg  Mg14  1  0.87966966  0.63177982  0.87776711  1
  Mg  Mg15  1  0.63437582  0.87166882  0.11755645  1
  Mg  Mg16  1  0.38190957  0.12169897  0.36947827  1
  Mg  Mg17  1  0.38102204  0.87139211  0.63124281  1
  Mg  Mg18  1  0.63123286  0.12040434  0.62464529  1
  Mg  Mg19  1  0.68041093  0.75202054  -0.03272416  1
  Mg  Mg20  1  0.53655163  0.79702419  0.76863206  1
  Mg  Mg21  1  0.70055473  0.51768166  0.30765992  1
  Mg  Mg22  1  0.21672744  0.03986667  -0.00313887  1
  Mg  Mg23  1  0.49139295  0.83711318  -0.00703238  1
  Mg  Mg24  1  -0.05162669  -0.00534266  0.78788849  1
  Mg  Mg25  1  0.01419912  0.50402145  0.22340667  1
  Mg  Mg26  1  0.49395848  0.20777064  0.19466614  1
  Mg  Mg27  1  0.78295034  0.29889276  0.51169155  1
  Mg  Mg28  1  0.55115996  0.05188939  0.00757458  1
  Mg  Mg29  1  0.52785945  0.23710143  -0.03915639  1
  Mg  Mg30  1  0.54982867  0.54913343  0.49386567  1
  Mg  Mg31  1  -0.01070955  0.56478635  0.75276599  1
  Ti  Ti32  1  0.12200078  0.88677647  0.87849708  1
  Ti  Ti33  1  0.87374538  0.11843263  0.62263761  1
  Ti  Ti34  1  0.62682552  0.62857399  0.63739874  1
  Ti  Ti35  1  0.12098569  0.37058133  0.86023983  1
  Ti  Ti36  1  0.38006980  0.87092611  0.36805797  1
  Ti  Ti37  1  0.62143505  0.38069525  0.63095822  1
  Ti  Ti38  1  0.13206606  0.37665449  0.61607694  1
  Ti  Ti39  1  0.87151782  0.37560749  0.88174608  1
  Ti  Ti40  1  0.38787298  0.62298285  0.62178994  1
  Ti  Ti41  1  0.38374057  0.36343118  0.87197250  1
  Ti  Ti42  1  0.12446342  0.11928567  0.36437561  1
  Ti  Ti43  1  0.39010510  0.37399267  0.37879309  1
  Ti  Ti44  1  0.37426593  0.62266878  0.86466976  1
  Ti  Ti45  1  0.13318547  0.38298553  0.37386313  1
  Ti  Ti46  1  0.12363896  0.63276501  0.62009456  1
  Ti  Ti47  1  0.62263293  0.37572675  0.87789172  1
  Ti  Ti48  1  0.62750462  0.86306407  0.62080449  1
  Ti  Ti49  1  0.63378544  0.12575223  0.86433429  1
  Ti  Ti50  1  0.36034094  0.62730021  0.37903717  1
  Ti  Ti51  1  0.63037908  0.61396751  0.11660016  1
  Ti  Ti52  1  0.37021476  0.89121945  0.86830472  1
  Ti  Ti53  1  0.12038112  0.88053513  0.61659557  1
  Ti  Ti54  1  0.12632954  0.14188831  0.12789599  1
  Ti  Ti55  1  0.39375431  0.36929981  0.12509051  1
  Ti  Ti56  1  0.87687313  0.39544553  0.36846091  1
  Ti  Ti57  1  0.12411567  0.37938269  0.12083214  1
  Ti  Ti58  1  0.86586941  0.63737522  0.62705104  1
  Ti  Ti59  1  0.62491063  0.88047824  0.36067147  1
  Ti  Ti60  1  0.12792638  0.61780457  0.11279672  1
  Ti  Ti61  1  0.64063913  0.13753337  0.13420179  1
  Ti  Ti62  1  0.88263472  0.61403885  0.11958327  1
  Ti  Ti63  1  0.62505351  0.38189242  0.13961120  1
  Ti  Ti64  1  0.37556814  0.11950299  0.62113207  1
  Ti  Ti65  1  0.12727283  0.86074988  0.37347891  1
  Ti  Ti66  1  0.88798284  0.61906867  0.36726612  1
  Ti  Ti67  1  0.87579003  0.13604175  0.87623669  1
  Ti  Ti68  1  0.36406516  0.11319553  0.11829120  1
  Ti  Ti69  1  0.88039298  0.13873675  0.13921847  1
  Ti  Ti70  1  0.87040023  0.85832850  0.12651533  1
  Ti  Ti71  1  0.12397882  0.61245262  0.38458919  1
  Ti  Ti72  1  0.38854554  0.12186517  0.87009313  1
  Ti  Ti73  1  0.62516006  0.37010139  0.37847277  1
  Bi  Bi74  1  0.73541875  0.26865775  0.00936574  1
  Bi  Bi75  1  0.26886096  0.49540629  0.52394537  1
  Bi  Bi76  1  0.02366396  0.73882022  -0.02115843  1
  Bi  Bi77  1  0.75588463  -0.01305789  0.73167669  1
  Bi  Bi78  1  0.24206454  0.77780045  0.74142838  1
  Bi  Bi79  1  -0.01767784  -0.00112682  0.03431519  1
  Bi  Bi80  1  0.53492120  0.22674928  0.50304461  1
  Bi  Bi81  1  0.74754992  0.52964335  -0.02427900  1
  Bi  Bi82  1  0.76614345  0.25259061  0.28232557  1
  Bi  Bi83  1  0.73736371  0.72540405  0.46300824  1
  Bi  Bi84  1  0.50663495  0.53502361  0.29047141  1
  Bi  Bi85  1  -0.02901669  0.48253885  0.54959381  1
  Bi  Bi86  1  0.50280651  0.00683012  0.49300707  1
  Bi  Bi87  1  0.48995686  0.25929350  0.72169802  1
  Bi  Bi88  1  0.51256769  -0.00444279  0.20435426  1
  Bi  Bi89  1  0.00835805  0.28045914  0.25471653  1
  Bi  Bi90  1  0.28002678  0.49112873  0.23304752  1
  Bi  Bi91  1  0.76788137  0.00608421  -0.01226981  1
  Bi  Bi92  1  0.27282251  0.76711005  0.51071623  1
  Bi  Bi93  1  0.26075955  0.47921655  -0.02252200  1
  Bi  Bi94  1  0.26515547  0.23669115  -0.01674145  1
  Bi  Bi95  1  0.78264953  0.47815382  0.73330089  1
  Bi  Bi96  1  0.02797316  0.24453747  0.47952844  1
  Bi  Bi97  1  0.22396552  0.00933973  0.74135661  1
  Bi  Bi98  1  0.49097880  0.50503515  0.75993803  1
  Bi  Bi99  1  -0.01504710  0.26964207  0.01877221  1
  Bi  Bi100  1  0.22634206  -0.01356657  0.22093978  1
  Bi  Bi101  1  0.73954866  0.03006276  0.48672464  1
  Bi  Bi102  1  0.73109361  0.71207895  0.23826347  1
  Bi  Bi103  1  0.01031111  0.49456389  -0.02893975  1
  Bi  Bi104  1  0.51998949  0.74158635  0.46428760  1
  Bi  Bi105  1  -0.01801850  -0.01493173  0.49309963  1
  Bi  Bi106  1  0.01672936  0.72776445  0.23710100  1
  Bi  Bi107  1  0.26141234  -0.01582754  0.47650434  1
  Bi  Bi108  1  0.73792397  0.74548964  0.78387175  1
  Bi  Bi109  1  0.77163903  -0.00956671  0.26295517  1
  Bi  Bi110  1  0.47791940  0.74364186  0.19602837  1
  Bi  Bi111  1  0.76361474  0.25508195  0.72605211  1
  Bi  Bi112  1  -0.00923598  0.73676338  0.50159115  1
  Bi  Bi113  1  -0.01066946  -0.03145698  0.25648225  1
  Bi  Bi114  1  -0.00252928  0.26205117  0.71747450  1
  Bi  Bi115  1  0.74133449  0.48703293  0.50401843  1
  Bi  Bi116  1  0.22415741  0.23375478  0.75212276  1
  Bi  Bi117  1  0.46567605  0.52609202  0.02892898  1
  Bi  Bi118  1  -0.01876358  0.77851211  0.76264506  1
  Bi  Bi119  1  0.26083978  0.22950396  0.48216369  1
  Bi  Bi120  1  0.28593284  0.75387900  -0.01359380  1
  Bi  Bi121  1  0.51562161  -0.01317120  0.72560872  1
  Bi  Bi122  1  0.23279975  0.51716365  0.74631509  1
  Bi  Bi123  1  0.28650367  0.24426599  0.25464684  1
  Bi  Bi124  1  0.25947748  0.74058883  0.21658826  1
  O  O125  1  0.14486449  0.14642057  0.00341663  1
  O  O126  1  0.11202239  0.10475891  0.24772581  1
  O  O127  1  0.14110173  0.15234553  0.49863786  1
  O  O128  1  0.13831708  0.11370297  0.75343665  1
  O  O129  1  0.11266680  0.36511143  0.00571924  1
  O  O130  1  0.08909721  0.39867724  0.25853108  1
  O  O131  1  0.13100095  0.34802549  0.49621377  1
  O  O132  1  0.13343827  0.39134223  0.74846682  1
  O  O133  1  0.14272092  0.63640201  0.00096248  1
  O  O134  1  0.08043324  0.60734150  0.26631061  1
  O  O135  1  0.13956133  0.64543264  0.50059584  1
  O  O136  1  0.10950610  0.59382763  0.73883663  1
  O  O137  1  0.10216483  0.85968926  -0.00835968  1
  O  O138  1  0.11881750  0.89228520  0.25709080  1
  O  O139  1  0.13063188  0.86290284  0.50045677  1
  O  O140  1  0.14632778  0.88456448  0.75010384  1
  O  O141  1  0.32920580  0.10402684  0.00579343  1
  O  O142  1  0.39187000  0.15082320  0.24668393  1
  O  O143  1  0.34254564  0.11574196  0.50478392  1
  O  O144  1  0.40895761  0.13636836  0.75744780  1
  O  O145  1  0.37489996  0.39446013  0.00277338  1
  O  O146  1  0.37400842  0.36609508  0.24765088  1
  O  O147  1  0.36215873  0.39169679  0.49023861  1
  O  O148  1  0.37594461  0.33849493  0.75864695  1
  O  O149  1  0.35136605  0.59357232  -0.01521935  1
  O  O150  1  0.40078574  0.64189903  0.26470196  1
  O  O151  1  0.34930437  0.60957913  0.49969726  1
  O  O152  1  0.40108703  0.61600222  0.74362950  1
  O  O153  1  0.36820471  0.86687356  -0.00702711  1
  O  O154  1  0.38065347  0.84923150  0.25665296  1
  O  O155  1  0.36354730  0.87804177  0.50275141  1
  O  O156  1  0.35295499  0.86405677  0.75614133  1
  O  O157  1  0.62149828  0.15891375  0.01722804  1
  O  O158  1  0.58550225  0.11670627  0.24083634  1
  O  O159  1  0.64927631  0.13878187  0.49664591  1
  O  O160  1  0.62366130  0.09658146  0.75344286  1
  O  O161  1  0.61027494  0.33790889  -0.00915276  1
  O  O162  1  0.62920693  0.41162694  0.24911332  1
  O  O163  1  0.65804576  0.35733156  0.49421046  1
  O  O164  1  0.63816487  0.38566430  0.74868081  1
  O  O165  1  0.65092310  0.63528055  -0.00016704  1
  O  O166  1  0.63554566  0.60623939  0.24399113  1
  O  O167  1  0.63579873  0.64679459  0.51251434  1
  O  O168  1  0.60077847  0.58775557  0.74332093  1
  O  O169  1  0.61185625  0.84677110  -0.00163508  1
  O  O170  1  0.61415132  0.90066104  0.24971099  1
  O  O171  1  0.62777984  0.84041261  0.50933532  1
  O  O172  1  0.62492230  0.89990570  0.75986072  1
  O  O173  1  0.87261175  0.09955968  -0.00007567  1
  O  O174  1  0.88431703  0.16347233  0.25086028  1
  O  O175  1  0.87349308  0.09204565  0.50688739  1
  O  O176  1  0.85809052  0.15800076  0.75551050  1
  O  O177  1  0.89740395  0.38794846  -0.00163515  1
  O  O178  1  0.87176028  0.34830637  0.25602041  1
  O  O179  1  0.85627563  0.40250864  0.49022106  1
  O  O180  1  0.85459248  0.35442860  0.75950299  1
  O  O181  1  0.87838779  0.59918005  0.00472668  1
  O  O182  1  0.89508717  0.65010626  0.25755865  1
  O  O183  1  0.85889048  0.58606595  0.51753803  1
  O  O184  1  0.89824523  0.65697005  0.74684922  1
  O  O185  1  0.87975628  0.90813034  0.00768183  1
  O  O186  1  0.89251803  0.86702682  0.24912076  1
  O  O187  1  0.87255326  0.91116082  0.50028427  1
  O  O188  1  0.86712309  0.85643277  0.75345775  1
  O  O189  1  0.00362652  0.13898344  0.11060936  1
  O  O190  1  0.00674240  0.12793380  0.39440957  1
  O  O191  1  -0.01051587  0.14961905  0.62953281  1
  O  O192  1  -0.01717529  0.09415243  0.85939517  1
  O  O193  1  -0.00238345  0.35519704  0.13048517  1
  O  O194  1  -0.01403290  0.35116515  0.38673700  1
  O  O195  1  0.00440399  0.35810071  0.61713220  1
  O  O196  1  0.00051880  0.39453232  0.86853875  1
  O  O197  1  0.00497216  0.64429020  0.12078246  1
  O  O198  1  -0.00013460  0.62867699  0.41399152  1
  O  O199  1  -0.00176327  0.63047355  0.60367683  1
  O  O200  1  0.00295164  0.59623493  0.87777057  1
  O  O201  1  -0.00121512  0.89151701  0.12676277  1
  O  O202  1  0.00648524  0.89256078  0.38581516  1
  O  O203  1  0.00447646  0.88138240  0.61585056  1
  O  O204  1  0.00791402  0.90213924  0.84723003  1
  O  O205  1  0.24786561  0.14015411  0.15049033  1
  O  O206  1  0.24655003  0.14927952  0.36425385  1
  O  O207  1  0.26385778  0.13179547  0.65361900  1
  O  O208  1  0.26569555  0.15899142  0.86818344  1
  O  O209  1  0.24038792  0.38915282  0.13466731  1
  O  O210  1  0.24255483  0.37706094  0.35466966  1
  O  O211  1  0.24810187  0.37844786  0.62015817  1
  O  O212  1  0.24672422  0.34865658  0.89053211  1
  O  O213  1  0.23526320  0.61111405  0.15768711  1
  O  O214  1  0.24395432  0.62200327  0.35594556  1
  O  O215  1  0.24200908  0.60814469  0.63639975  1
  O  O216  1  0.25522039  0.62569147  0.83772452  1
  O  O217  1  0.24421174  0.86830547  0.14584157  1
  O  O218  1  0.24930569  0.86800220  0.38265759  1
  O  O219  1  0.24753793  0.85768788  0.62289626  1
  O  O220  1  0.24749119  0.84423924  0.88089472  1
  O  O221  1  0.48165458  0.10753487  0.10460902  1
  O  O222  1  0.50034518  0.12397929  0.41154233  1
  O  O223  1  0.50407613  0.12125998  0.58856683  1
  O  O224  1  0.49923360  0.11448867  0.91059942  1
  O  O225  1  0.50424185  0.38368948  0.12215961  1
  O  O226  1  0.50415610  0.36651831  0.38384626  1
  O  O227  1  0.50387536  0.37712106  0.63839479  1
  O  O228  1  0.50049914  0.38748236  0.86562949  1
  O  O229  1  0.51292910  0.62999166  0.11276870  1
  O  O230  1  0.48994603  0.61633617  0.40283948  1
  O  O231  1  0.50017735  0.62205687  0.59546131  1
  O  O232  1  0.48873879  0.57944573  0.88100745  1
  O  O233  1  0.49339877  0.87437973  0.11779340  1
  O  O234  1  0.49916679  0.86428527  0.38543986  1
  O  O235  1  0.50338306  0.86006577  0.66127090  1
  O  O236  1  0.48784288  0.87390133  0.86784561  1
  O  O237  1  0.75402101  0.12999071  0.14304508  1
  O  O238  1  0.74599432  0.09834638  0.35377893  1
  O  O239  1  0.75077302  0.08302031  0.62727168  1
  O  O240  1  0.74675281  0.13831022  0.88699978  1
  O  O241  1  0.74080159  0.36671026  0.10901899  1
  O  O242  1  0.74953448  0.41307864  0.36192215  1
  O  O243  1  0.74870010  0.39846113  0.62126165  1
  O  O244  1  0.75077434  0.35430879  0.89668206  1
  O  O245  1  0.76262931  0.61780634  0.13973626  1
  O  O246  1  0.76500586  0.61481080  0.37138914  1
  O  O247  1  0.74823152  0.61550935  0.65003422  1
  O  O248  1  0.75292003  0.63325552  0.87032465  1
  O  O249  1  0.75966506  0.88866682  0.13168847  1
  O  O250  1  0.74511441  0.88733187  0.35979227  1
  O  O251  1  0.74147428  0.88925622  0.63154882  1
  O  O252  1  0.74722891  0.83046773  0.89207649  1
  O  O253  1  0.15089138  0.00900448  0.10428732  1
  O  O254  1  0.14582766  0.00720625  0.38907758  1
  O  O255  1  0.14450943  -0.00236706  0.62087336  1
  O  O256  1  0.15831199  -0.00061305  0.89163449  1
  O  O257  1  0.12607091  0.25637470  0.15288262  1
  O  O258  1  0.11234746  0.25411751  0.36155369  1
  O  O259  1  0.12242609  0.25228816  0.65280947  1
  O  O260  1  0.10551326  0.25264404  0.84493837  1
  O  O261  1  0.10011786  0.49987627  0.12110244  1
  O  O262  1  0.12417074  0.49858236  0.40175663  1
  O  O263  1  0.11190701  0.49212017  0.60070698  1
  O  O264  1  0.14250266  0.49088622  0.89088927  1
  O  O265  1  0.13320521  0.74056176  0.14740955  1
  O  O266  1  0.11399683  0.74939707  0.35768003  1
  O  O267  1  0.12244391  0.74696934  0.64474178  1
  O  O268  1  0.09979620  0.75086500  0.86388224  1
  O  O269  1  0.35382939  0.00243374  0.15007122  1
  O  O270  1  0.36278579  -0.00785863  0.37641721  1
  O  O271  1  0.39128712  0.00357535  0.63429106  1
  O  O272  1  0.36150706  0.00508312  0.86340677  1
  O  O273  1  0.38685313  0.25104058  0.11885011  1
  O  O274  1  0.36607839  0.25661575  0.38227164  1
  O  O275  1  0.40194314  0.24319930  0.61389849  1
  O  O276  1  0.40140874  0.24819647  0.91510605  1
  O  O277  1  0.37867098  0.49425323  0.13868832  1
  O  O278  1  0.37809661  0.50061903  0.35336043  1
  O  O279  1  0.36417360  0.50027627  0.62697452  1
  O  O280  1  0.34468900  0.48050990  0.85937928  1
  O  O281  1  0.36148133  0.74693151  0.11856888  1
  O  O282  1  0.37367488  0.74619253  0.40233975  1
  O  O283  1  0.36211499  0.73766778  0.61664957  1
  O  O284  1  0.38537315  0.73291429  0.89182456  1
  O  O285  1  0.61625513  0.01134353  0.11097634  1
  O  O286  1  0.61305387  -0.00895057  0.40566589  1
  O  O287  1  0.59619034  -0.01366172  0.60848175  1
  O  O288  1  0.63441526  0.01397741  0.91688358  1
  O  O289  1  0.60890913  0.25380727  0.15492238  1
  O  O290  1  0.63762867  0.25832719  0.35456866  1
  O  O291  1  0.61850587  0.25409165  0.63064093  1
  O  O292  1  0.60531084  0.24125726  0.85758163  1
  O  O293  1  0.62877791  0.49776476  0.09600840  1
  O  O294  1  0.60722394  0.49783865  0.39291181  1
  O  O295  1  0.61603682  0.49877483  0.59125535  1
  O  O296  1  0.64217502  0.48863927  0.89094363  1
  O  O297  1  0.63914404  0.74217004  0.14357534  1
  O  O298  1  0.63244841  0.75443992  0.36999815  1
  O  O299  1  0.62339676  0.74435682  0.66541476  1
  O  O300  1  0.61369992  0.73813519  0.84867650  1
  O  O301  1  0.89235159  0.01688702  0.14586605  1
  O  O302  1  0.88168049  0.00292908  0.34579443  1
  O  O303  1  0.88909112  0.00854502  0.67680855  1
  O  O304  1  0.84027459  -0.00196856  0.86543847  1
  O  O305  1  0.87028369  0.24820005  0.09412420  1
  O  O306  1  0.83076386  0.25346946  0.40101482  1
  O  O307  1  0.82888268  0.23323504  0.60843971  1
  O  O308  1  0.89340962  0.24837422  0.89881713  1
  O  O309  1  0.90721161  0.50697928  0.15246204  1
  O  O310  1  0.91069832  0.50217137  0.34413535  1
  O  O311  1  0.90486032  0.51139534  0.67121213  1
  O  O312  1  0.85398310  0.49141164  0.86425380  1
  O  O313  1  0.87416655  0.74888512  0.11150794  1
  O  O314  1  0.88137841  0.74117598  0.40664862  1
  O  O315  1  0.87097512  0.74683748  0.59115253  1
  O  O316  1  0.91950700  0.75453810  0.88734658  1
