# generated using pymatgen
data_Mg32Ti42(Bi17O64)3
_symmetry_space_group_name_H-M   'P 1'
_cell_length_a   15.96608564
_cell_length_b   15.98370432
_cell_length_c   15.93696888
_cell_angle_alpha   89.92349394
_cell_angle_beta   90.00638639
_cell_angle_gamma   89.99341453
_symmetry_Int_Tables_number   1
_chemical_formula_structural   Mg32Ti42(Bi17O64)3
_chemical_formula_sum   'Mg32 Ti42 Bi51 O192'
_cell_volume   4067.06602861
_cell_formula_units_Z   1
loop_
 _symmetry_equiv_pos_site_id
 _symmetry_equiv_pos_as_xyz
  1  'x, y, z'
loop_
 _atom_site_type_symbol
 _atom_site_label
 _atom_site_symmetry_multiplicity
 _atom_site_fract_x
 _atom_site_fract_y
 _atom_site_fract_z
 _atom_site_occupancy
  Mg  Mg0  1  0.38082567  0.86409188  0.87686557  1
  Mg  Mg1  1  0.12906317  0.63051762  0.87171666  1
  Mg  Mg2  1  0.87068223  0.62887419  0.88373575  1
  Mg  Mg3  1  0.61902508  0.37905902  0.86888217  1
  Mg  Mg4  1  0.61701588  0.12189774  0.61989856  1
  Mg  Mg5  1  0.62718853  0.63062216  0.62701313  1
  Mg  Mg6  1  0.87356705  0.62877959  0.36905878  1
  Mg  Mg7  1  0.62115632  0.37723971  0.36838558  1
  Mg  Mg8  1  0.88391321  0.37325240  0.87880629  1
  Mg  Mg9  1  0.36787607  0.63044410  0.62477282  1
  Mg  Mg10  1  0.62479638  0.13218373  0.87790992  1
  Mg  Mg11  1  0.12825975  0.61872813  0.12933558  1
  Mg  Mg12  1  0.86578445  0.87593506  0.62775020  1
  Mg  Mg13  1  0.61832261  0.86738626  0.88606811  1
  Mg  Mg14  1  0.39159319  0.13114414  0.87635941  1
  Mg  Mg15  1  0.37180818  0.12218410  0.38139264  1
  Mg  Mg16  1  0.13084832  0.87724923  0.62633960  1
  Mg  Mg17  1  0.12214663  0.12179779  0.12929986  1
  Mg  Mg18  1  0.11735772  0.87717259  0.11985714  1
  Mg  Mg19  1  -0.00356570  0.70428896  0.04421537  1
  Mg  Mg20  1  0.00516730  0.26758093  0.52058340  1
  Mg  Mg21  1  0.75872006  0.81835426  -0.00974969  1
  Mg  Mg22  1  0.41577207  0.53814934  0.26848104  1
  Mg  Mg23  1  0.30408136  0.72753778  0.46218041  1
  Mg  Mg24  1  0.75674439  0.42235200  0.25240874  1
  Mg  Mg25  1  0.50488027  0.71639241  -0.03405995  1
  Mg  Mg26  1  0.49330795  -0.03876137  0.73036933  1
  Mg  Mg27  1  0.17751765  0.73781245  0.00735368  1
  Mg  Mg28  1  0.55093633  0.18851670  0.04394295  1
  Mg  Mg29  1  -0.06134066  0.73041143  0.74120151  1
  Mg  Mg30  1  -0.07638176  -0.00125457  -0.01323902  1
  Mg  Mg31  1  0.71167390  0.79831225  0.75571420  1
  Ti  Ti32  1  0.36836124  0.63202344  0.10721411  1
  Ti  Ti33  1  0.89015923  0.12357662  0.14153948  1
  Ti  Ti34  1  0.36759274  0.88012652  0.37017268  1
  Ti  Ti35  1  0.11464324  0.13039734  0.62444202  1
  Ti  Ti36  1  0.85845480  0.61676808  0.12079100  1
  Ti  Ti37  1  0.12153805  0.37464756  0.39068361  1
  Ti  Ti38  1  0.36864076  0.37541789  0.62477280  1
  Ti  Ti39  1  0.37640186  0.36980456  0.36782590  1
  Ti  Ti40  1  0.87878435  0.86567060  0.37299854  1
  Ti  Ti41  1  0.12414466  0.37781259  0.11244610  1
  Ti  Ti42  1  0.37054995  0.11379998  0.12463357  1
  Ti  Ti43  1  0.87258586  0.87916937  0.12602483  1
  Ti  Ti44  1  0.87802489  0.37043450  0.11598431  1
  Ti  Ti45  1  0.88860965  0.12868887  0.37760689  1
  Ti  Ti46  1  0.12262230  0.38272540  0.62698174  1
  Ti  Ti47  1  0.87198906  0.38010995  0.61702191  1
  Ti  Ti48  1  0.62575270  0.12897630  0.38279781  1
  Ti  Ti49  1  0.86746598  0.12370139  0.86703330  1
  Ti  Ti50  1  0.36519568  0.62822288  0.87015394  1
  Ti  Ti51  1  0.85673865  0.62389922  0.61514914  1
  Ti  Ti52  1  0.11276443  0.87467424  0.87394301  1
  Ti  Ti53  1  0.87937161  0.85952446  0.86608387  1
  Ti  Ti54  1  0.61173690  0.62393406  0.11475995  1
  Ti  Ti55  1  0.61907800  0.87157574  0.62802629  1
  Ti  Ti56  1  0.62121619  0.38468199  0.62421945  1
  Ti  Ti57  1  0.38034544  0.87481614  0.11928991  1
  Ti  Ti58  1  0.13546418  0.85282336  0.38699908  1
  Ti  Ti59  1  0.12476315  0.11506861  0.86731428  1
  Ti  Ti60  1  0.12324991  0.37056949  0.86115243  1
  Ti  Ti61  1  0.37209106  0.36719105  0.12592634  1
  Ti  Ti62  1  0.37761608  0.36960678  0.86576566  1
  Ti  Ti63  1  0.62100249  0.86484217  0.11150844  1
  Ti  Ti64  1  0.12755179  0.62890172  0.37089510  1
  Ti  Ti65  1  0.86883522  0.12678536  0.62327585  1
  Ti  Ti66  1  0.37300042  0.86693783  0.61675129  1
  Ti  Ti67  1  0.11788153  0.12791184  0.38044332  1
  Ti  Ti68  1  0.62168441  0.61163290  0.35056962  1
  Ti  Ti69  1  0.12886746  0.64047523  0.62247238  1
  Ti  Ti70  1  0.88238048  0.36488449  0.37804410  1
  Ti  Ti71  1  0.60838632  0.38347567  0.13260024  1
  Ti  Ti72  1  0.38272554  0.12619703  0.62452421  1
  Ti  Ti73  1  0.63064621  0.62126514  0.86074539  1
  Bi  Bi74  1  0.24411056  -0.01626756  0.23067921  1
  Bi  Bi75  1  0.71206163  0.74230146  0.47037606  1
  Bi  Bi76  1  0.23986067  0.51498232  0.72999953  1
  Bi  Bi77  1  0.74335584  -0.02104064  0.26827678  1
  Bi  Bi78  1  0.47859050  0.72686939  0.25163025  1
  Bi  Bi79  1  0.02507213  -0.02518412  0.25973566  1
  Bi  Bi80  1  0.73507659  0.27256242  0.49885937  1
  Bi  Bi81  1  0.50044443  0.00463398  -0.03177824  1
  Bi  Bi82  1  0.72267046  0.24096660  0.74464109  1
  Bi  Bi83  1  0.00636142  0.52400712  -0.03392262  1
  Bi  Bi84  1  0.71762482  0.22098735  0.21119398  1
  Bi  Bi85  1  -0.00967260  0.51957773  0.48127132  1
  Bi  Bi86  1  -0.01133352  0.52943141  0.74318334  1
  Bi  Bi87  1  0.00121225  0.74546240  0.22519385  1
  Bi  Bi88  1  0.26127490  0.00027167  0.49948836  1
  Bi  Bi89  1  0.01788073  0.27117231  0.23658164  1
  Bi  Bi90  1  0.24566758  -0.03476044  -0.01093634  1
  Bi  Bi91  1  0.01053050  -0.01862869  0.51637323  1
  Bi  Bi92  1  0.25417300  0.22098141  -0.02423482  1
  Bi  Bi93  1  0.29162674  -0.00894949  0.74966721  1
  Bi  Bi94  1  0.73946227  0.26862495  -0.02235717  1
  Bi  Bi95  1  0.50232452  0.75977801  0.77289861  1
  Bi  Bi96  1  -0.02372035  0.75910333  0.52169197  1
  Bi  Bi97  1  0.25900643  0.22537488  0.25339375  1
  Bi  Bi98  1  0.24799271  0.48758413  -0.02819829  1
  Bi  Bi99  1  0.48466735  0.47971074  -0.01393159  1
  Bi  Bi100  1  0.50139818  0.27721683  0.49148239  1
  Bi  Bi101  1  0.53733108  -0.02279230  0.47126517  1
  Bi  Bi102  1  0.22529755  0.76430289  0.75932941  1
  Bi  Bi103  1  0.74777470  0.50336144  0.47153374  1
  Bi  Bi104  1  0.71089401  0.00228743  0.74552658  1
  Bi  Bi105  1  0.02226515  0.21886210  -0.00321503  1
  Bi  Bi106  1  0.77476262  0.49560546  0.77971074  1
  Bi  Bi107  1  0.72678802  0.03539129  0.02199223  1
  Bi  Bi108  1  0.24266240  0.23918627  0.49654369  1
  Bi  Bi109  1  0.24949032  0.50839309  0.47656442  1
  Bi  Bi110  1  0.72884289  0.73666778  0.23609202  1
  Bi  Bi111  1  0.49432381  0.21195572  0.24945632  1
  Bi  Bi112  1  0.49004565  0.73691150  0.50691188  1
  Bi  Bi113  1  -0.03091973  0.51184579  0.23904083  1
  Bi  Bi114  1  0.47381158  0.51036401  0.48531402  1
  Bi  Bi115  1  0.72290047  0.49111085  -0.00608919  1
  Bi  Bi116  1  -0.03181359  0.25901350  0.74682454  1
  Bi  Bi117  1  -0.01904524  -0.01001481  0.74890123  1
  Bi  Bi118  1  0.50097457  0.24191827  0.73602301  1
  Bi  Bi119  1  0.24879667  0.22660434  0.73646420  1
  Bi  Bi120  1  0.52847188  -0.02077091  0.24571549  1
  Bi  Bi121  1  0.76957890  0.00920401  0.47797318  1
  Bi  Bi122  1  0.23097054  0.46970530  0.24314988  1
  Bi  Bi123  1  0.25545998  0.74304886  0.22178943  1
  Bi  Bi124  1  0.49552887  0.52843516  0.72406792  1
  O  O125  1  0.13882688  0.13380390  -0.00265444  1
  O  O126  1  0.10827737  0.16326963  0.26632798  1
  O  O127  1  0.15805196  0.12145758  0.50832736  1
  O  O128  1  0.11841751  0.14767186  0.74922484  1
  O  O129  1  0.12814029  0.38569324  0.00171187  1
  O  O130  1  0.13331002  0.35835402  0.26977822  1
  O  O131  1  0.12858189  0.40925303  0.51029940  1
  O  O132  1  0.14379441  0.35931427  0.74817497  1
  O  O133  1  0.09443446  0.63218490  0.00012303  1
  O  O134  1  0.15601087  0.64052691  0.25805926  1
  O  O135  1  0.09326231  0.61829833  0.51271476  1
  O  O136  1  0.16784616  0.63590759  0.75132140  1
  O  O137  1  0.14739118  0.87070288  -0.00317950  1
  O  O138  1  0.13624870  0.87736326  0.26785129  1
  O  O139  1  0.13160398  0.90360359  0.49482960  1
  O  O140  1  0.12300236  0.86580545  0.75507395  1
  O  O141  1  0.34967406  0.11556837  0.00904210  1
  O  O142  1  0.37470450  0.13850052  0.25414332  1
  O  O143  1  0.35054388  0.11771706  0.50887551  1
  O  O144  1  0.39209695  0.15720560  0.75034731  1
  O  O145  1  0.36547475  0.39047522  0.01112270  1
  O  O146  1  0.37204573  0.39842401  0.25205800  1
  O  O147  1  0.39496550  0.37511464  0.50273269  1
  O  O148  1  0.38601018  0.37597718  0.74850783  1
  O  O149  1  0.40519881  0.64222600  -0.00315937  1
  O  O150  1  0.35759023  0.65078872  0.24589046  1
  O  O151  1  0.40493378  0.62990272  0.50111546  1
  O  O152  1  0.36141514  0.59812470  0.75169779  1
  O  O153  1  0.36778909  0.89246951  0.00413579  1
  O  O154  1  0.35367360  0.86717365  0.25591175  1
  O  O155  1  0.37486741  0.90896411  0.50556312  1
  O  O156  1  0.38787759  0.87703986  0.74133887  1
  O  O157  1  0.66265858  0.15199743  0.00229566  1
  O  O158  1  0.61968951  0.13638045  0.25639274  1
  O  O159  1  0.63050199  0.09246332  0.49754561  1
  O  O160  1  0.61027559  0.14976251  0.75048824  1
  O  O161  1  0.64587210  0.36818844  0.01052080  1
  O  O162  1  0.63861943  0.38705981  0.24492431  1
  O  O163  1  0.62191922  0.36009715  0.50073864  1
  O  O164  1  0.63944497  0.36750525  0.74016352  1
  O  O165  1  0.60123204  0.64749091  0.00400218  1
  O  O166  1  0.66074571  0.61067530  0.24336935  1
  O  O167  1  0.60401450  0.65370688  0.49249940  1
  O  O168  1  0.63593560  0.58477880  0.75217409  1
  O  O169  1  0.63702901  0.83224262  0.00279721  1
  O  O170  1  0.63794821  0.89398050  0.23525246  1
  O  O171  1  0.63035865  0.88156250  0.51052313  1
  O  O172  1  0.59513590  0.88093696  0.76158484  1
  O  O173  1  0.86245415  0.11446123  -0.01523614  1
  O  O174  1  0.90337594  0.11008251  0.25576614  1
  O  O175  1  0.85207651  0.13197292  0.50606948  1
  O  O176  1  0.91370700  0.11875277  0.74403966  1
  O  O177  1  0.88639545  0.35922691  0.00512383  1
  O  O178  1  0.87647534  0.39000477  0.25995688  1
  O  O179  1  0.89848121  0.34288782  0.50184631  1
  O  O180  1  0.87800026  0.38269616  0.73619689  1
  O  O181  1  0.90745574  0.62502519  0.00576518  1
  O  O182  1  0.86242068  0.60602747  0.24329299  1
  O  O183  1  0.90442397  0.63222307  0.50260255  1
  O  O184  1  0.86358872  0.61238440  0.73733934  1
  O  O185  1  0.87007250  0.87661022  -0.00453829  1
  O  O186  1  0.85517571  0.89183643  0.24806530  1
  O  O187  1  0.87061096  0.84887219  0.49430810  1
  O  O188  1  0.90600515  0.86776922  0.74865715  1
  O  O189  1  -0.00210490  0.11786275  0.09255441  1
  O  O190  1  0.00002190  0.13275040  0.40809434  1
  O  O191  1  0.00828082  0.16590142  0.59930699  1
  O  O192  1  0.00705453  0.13250396  0.88918971  1
  O  O193  1  0.00427722  0.38394503  0.14319988  1
  O  O194  1  0.00372294  0.39122971  0.37577444  1
  O  O195  1  0.01090813  0.35002734  0.62308604  1
  O  O196  1  0.00887377  0.36345975  0.85841752  1
  O  O197  1  0.00200361  0.62012976  0.15278466  1
  O  O198  1  0.00487530  0.60023696  0.36054473  1
  O  O199  1  0.01445590  0.64668940  0.67195621  1
  O  O200  1  0.00370562  0.61209342  0.85591791  1
  O  O201  1  -0.00561465  0.87580990  0.15995995  1
  O  O202  1  0.00036440  0.88376169  0.37311656  1
  O  O203  1  0.00307922  0.87062900  0.60053082  1
  O  O204  1  0.00284568  0.87892408  0.88999948  1
  O  O205  1  0.24736226  0.12425346  0.15635683  1
  O  O206  1  0.23831661  0.15464070  0.37069356  1
  O  O207  1  0.25673585  0.11237048  0.65657571  1
  O  O208  1  0.25162222  0.13043047  0.86612430  1
  O  O209  1  0.24575751  0.37164019  0.13991083  1
  O  O210  1  0.25059731  0.37443577  0.39150889  1
  O  O211  1  0.25892884  0.40666975  0.62241706  1
  O  O212  1  0.25639309  0.39467514  0.87340657  1
  O  O213  1  0.24931170  0.66679358  0.09909723  1
  O  O214  1  0.23592149  0.63674478  0.41819029  1
  O  O215  1  0.24593474  0.59221972  0.61163136  1
  O  O216  1  0.25497121  0.61277441  0.90491251  1
  O  O217  1  0.25162764  0.88588224  0.12669294  1
  O  O218  1  0.25194624  0.83073323  0.39771060  1
  O  O219  1  0.25906296  0.91157579  0.63702162  1
  O  O220  1  0.25987494  0.90167652  0.86744551  1
  O  O221  1  0.48917566  0.12862399  0.13280163  1
  O  O222  1  0.50299370  0.13598318  0.37732756  1
  O  O223  1  0.49489863  0.16570629  0.61610423  1
  O  O224  1  0.50839611  0.13767537  0.93413255  1
  O  O225  1  0.49440883  0.38878298  0.12282968  1
  O  O226  1  0.49688886  0.36523981  0.37653451  1
  O  O227  1  0.50748203  0.34344013  0.62400315  1
  O  O228  1  0.49469588  0.37713014  0.89219235  1
  O  O229  1  0.49569708  0.62695811  0.14924945  1
  O  O230  1  0.50710395  0.60918657  0.32786112  1
  O  O231  1  0.49923597  0.64276462  0.65159837  1
  O  O232  1  0.50161839  0.63876970  0.85717536  1
  O  O233  1  0.50047430  0.87919800  0.13595367  1
  O  O234  1  0.48491813  0.90748492  0.35748779  1
  O  O235  1  0.49779717  0.86398843  0.61939963  1
  O  O236  1  0.49798174  0.82129079  0.89767290  1
  O  O237  1  0.76653379  0.11475723  0.14008024  1
  O  O238  1  0.75306135  0.10217402  0.37208892  1
  O  O239  1  0.75761834  0.10034100  0.65283329  1
  O  O240  1  0.75471372  0.11919671  0.84406128  1
  O  O241  1  0.76182411  0.36660727  0.13576435  1
  O  O242  1  0.75765325  0.38201162  0.38234879  1
  O  O243  1  0.75649776  0.38711088  0.59929743  1
  O  O244  1  0.75211876  0.40006323  0.88428267  1
  O  O245  1  0.74904297  0.63925459  0.10516951  1
  O  O246  1  0.74908891  0.62527414  0.40164075  1
  O  O247  1  0.74897942  0.61918411  0.59013651  1
  O  O248  1  0.74637295  0.59676239  0.88506987  1
  O  O249  1  0.75480489  0.85143135  0.11554972  1
  O  O250  1  0.75845897  0.90123126  0.38057518  1
  O  O251  1  0.74273498  0.89111866  0.66557798  1
  O  O252  1  0.75690791  0.85920379  0.86396326  1
  O  O253  1  0.12249999  -0.00018513  0.15694853  1
  O  O254  1  0.12815179  0.01649930  0.36062881  1
  O  O255  1  0.09415373  0.01494655  0.62862131  1
  O  O256  1  0.12498730  0.00225038  0.87112883  1
  O  O257  1  0.10346471  0.25536250  0.12469459  1
  O  O258  1  0.10761760  0.26390367  0.43111517  1
  O  O259  1  0.16111790  0.25578363  0.61550269  1
  O  O260  1  0.14000707  0.25549588  0.89176303  1
  O  O261  1  0.13695627  0.49467744  0.14323531  1
  O  O262  1  0.14639528  0.50438688  0.37296371  1
  O  O263  1  0.11167468  0.49788652  0.65826769  1
  O  O264  1  0.12713612  0.49592389  0.88084148  1
  O  O265  1  0.09698934  0.75137390  0.11576850  1
  O  O266  1  0.09929127  0.74601221  0.38788819  1
  O  O267  1  0.15320040  0.75074713  0.62313410  1
  O  O268  1  0.14957025  0.75653472  0.88083479  1
  O  O269  1  0.37266203  -0.00012633  0.14629284  1
  O  O270  1  0.32937645  -0.00296391  0.37441093  1
  O  O271  1  0.40341622  0.01560267  0.65341300  1
  O  O272  1  0.42975201  -0.00010689  0.85075565  1
  O  O273  1  0.37333855  0.25485588  0.13174697  1
  O  O274  1  0.37072318  0.25448293  0.37263034  1
  O  O275  1  0.34607343  0.25714269  0.62078996  1
  O  O276  1  0.36243244  0.25813992  0.88566242  1
  O  O277  1  0.35443814  0.52224932  0.13865575  1
  O  O278  1  0.37176623  0.49806895  0.38540653  1
  O  O279  1  0.40966383  0.49631367  0.61364531  1
  O  O280  1  0.38287085  0.50225957  0.89307283  1
  O  O281  1  0.38190413  0.75920909  0.13204510  1
  O  O282  1  0.40592180  0.76545454  0.39621907  1
  O  O283  1  0.34989190  0.75799532  0.58873062  1
  O  O284  1  0.35826268  0.74040963  0.84765291  1
  O  O285  1  0.62324311  -0.01551188  0.09405903  1
  O  O286  1  0.61475316  0.00567982  0.35936191  1
  O  O287  1  0.60325570  -0.00118822  0.65368530  1
  O  O288  1  0.62227060  -0.00056497  0.90635448  1
  O  O289  1  0.61095861  0.25952465  0.13285710  1
  O  O290  1  0.64224782  0.24477402  0.39071103  1
  O  O291  1  0.65854897  0.24554313  0.61367474  1
  O  O292  1  0.65314838  0.25814582  0.87288399  1
  O  O293  1  0.62411210  0.50495783  0.10481943  1
  O  O294  1  0.63185407  0.50263215  0.39106236  1
  O  O295  1  0.59593951  0.49544468  0.61399264  1
  O  O296  1  0.61121398  0.50302555  0.90893239  1
  O  O297  1  0.61575117  0.74601163  0.15814019  1
  O  O298  1  0.64101906  0.74023289  0.35156944  1
  O  O299  1  0.64535593  0.75942334  0.64729728  1
  O  O300  1  0.63822179  0.73529299  0.83695378  1
  O  O301  1  0.88134369  -0.00451386  0.10854866  1
  O  O302  1  0.88455141  0.00554704  0.39882651  1
  O  O303  1  0.90486960  0.00519831  0.62195838  1
  O  O304  1  0.88879214  -0.00083214  0.86261424  1
  O  O305  1  0.89137902  0.24382776  0.14191981  1
  O  O306  1  0.87465819  0.24690674  0.36283328  1
  O  O307  1  0.86374214  0.24713369  0.64429567  1
  O  O308  1  0.87101263  0.24605979  0.85225606  1
  O  O309  1  0.87458577  0.49667634  0.12076630  1
  O  O310  1  0.87129419  0.49561504  0.40264886  1
  O  O311  1  0.89525462  0.49925453  0.60720124  1
  O  O312  1  0.88535278  0.49974986  0.86557344  1
  O  O313  1  0.90011420  0.74697425  0.12679286  1
  O  O314  1  0.87445069  0.75447444  0.35097099  1
  O  O315  1  0.88026456  0.74266210  0.62713609  1
  O  O316  1  0.88570758  0.74692867  0.85652961  1
