# generated using pymatgen
data_Mg32Ti42(Bi17O64)3
_symmetry_space_group_name_H-M   'P 1'
_cell_length_a   15.97028216
_cell_length_b   15.97350343
_cell_length_c   15.97254409
_cell_angle_alpha   89.95493970
_cell_angle_beta   89.89243921
_cell_angle_gamma   89.80019683
_symmetry_Int_Tables_number   1
_chemical_formula_structural   Mg32Ti42(Bi17O64)3
_chemical_formula_sum   'Mg32 Ti42 Bi51 O192'
_cell_volume   4074.58447433
_cell_formula_units_Z   1
loop_
 _symmetry_equiv_pos_site_id
 _symmetry_equiv_pos_as_xyz
  1  'x, y, z'
loop_
 _atom_site_type_symbol
 _atom_site_label
 _atom_site_symmetry_multiplicity
 _atom_site_fract_x
 _atom_site_fract_y
 _atom_site_fract_z
 _atom_site_occupancy
  Mg  Mg0  1  0.12453036  0.62682323  0.87254337  1
  Mg  Mg1  1  0.12883395  0.63929250  0.62511271  1
  Mg  Mg2  1  0.37231549  0.87073532  0.86782906  1
  Mg  Mg3  1  0.12214701  0.87988740  0.38306245  1
  Mg  Mg4  1  0.88137301  0.88248155  0.37905529  1
  Mg  Mg5  1  0.62811061  0.37500918  0.38455320  1
  Mg  Mg6  1  0.61577336  0.87072992  0.86194874  1
  Mg  Mg7  1  0.37392010  0.62019327  0.12066282  1
  Mg  Mg8  1  0.63058143  0.62033940  0.13372997  1
  Mg  Mg9  1  0.63158555  0.62664613  0.62787513  1
  Mg  Mg10  1  0.87638101  0.62561069  0.13753591  1
  Mg  Mg11  1  0.37119574  0.13148244  0.37546625  1
  Mg  Mg12  1  0.61248813  0.12414163  0.12855995  1
  Mg  Mg13  1  0.37063204  0.12554798  0.87150592  1
  Mg  Mg14  1  0.12926759  0.87944098  0.87753531  1
  Mg  Mg15  1  0.62637512  0.13047619  0.61636056  1
  Mg  Mg16  1  0.61477109  0.86575485  0.37384134  1
  Mg  Mg17  1  0.61753137  0.87540949  0.12980019  1
  Mg  Mg18  1  0.62690103  0.12336788  0.87302438  1
  Mg  Mg19  1  -0.05234201  -0.00886185  0.01112984  1
  Mg  Mg20  1  0.50968042  0.68504515  0.76026695  1
  Mg  Mg21  1  0.26708770  0.71990017  0.51522563  1
  Mg  Mg22  1  -0.02971754  0.56832994  0.76945747  1
  Mg  Mg23  1  0.50206315  0.00160705  0.78743151  1
  Mg  Mg24  1  0.47789816  0.25314607  0.49041419  1
  Mg  Mg25  1  0.04171477  0.76402821  0.76299593  1
  Mg  Mg26  1  0.75287467  0.27385611  0.54783929  1
  Mg  Mg27  1  0.03841089  0.01206976  0.50658119  1
  Mg  Mg28  1  0.74208249  0.77968637  0.20354644  1
  Mg  Mg29  1  0.29797851  0.29172793  0.76270907  1
  Mg  Mg30  1  0.71527997  0.44148917  0.21019516  1
  Mg  Mg31  1  0.28511047  0.42855451  -0.06148235  1
  Ti  Ti32  1  0.12281783  0.11965156  0.37312492  1
  Ti  Ti33  1  0.37067513  0.88032766  0.12942922  1
  Ti  Ti34  1  0.37998452  0.87045286  0.38376478  1
  Ti  Ti35  1  0.38102432  0.38297580  0.37966989  1
  Ti  Ti36  1  0.60892437  0.87414722  0.62076292  1
  Ti  Ti37  1  0.61809760  0.61265842  0.87603353  1
  Ti  Ti38  1  0.12853891  0.11467011  0.87098655  1
  Ti  Ti39  1  0.87538024  0.38306119  0.38064727  1
  Ti  Ti40  1  0.85539861  0.87774665  0.87841960  1
  Ti  Ti41  1  0.86138826  0.87322973  0.63487811  1
  Ti  Ti42  1  0.12841065  0.11057983  0.13011923  1
  Ti  Ti43  1  0.86893742  0.62551554  0.37713812  1
  Ti  Ti44  1  0.86871883  0.63539783  0.62084573  1
  Ti  Ti45  1  0.37298655  0.86749757  0.62232247  1
  Ti  Ti46  1  0.88159907  0.12789360  0.13453708  1
  Ti  Ti47  1  0.36952240  0.13219527  0.12903070  1
  Ti  Ti48  1  0.88976526  0.36660509  0.63122593  1
  Ti  Ti49  1  0.11319581  0.62557751  0.10671506  1
  Ti  Ti50  1  0.87537476  0.12163818  0.87608896  1
  Ti  Ti51  1  0.87466708  0.11215975  0.62107519  1
  Ti  Ti52  1  0.37806577  0.12784099  0.62515104  1
  Ti  Ti53  1  0.61985440  0.37152362  0.62613372  1
  Ti  Ti54  1  0.37065538  0.61807352  0.88835410  1
  Ti  Ti55  1  0.11216090  0.87641362  0.11847080  1
  Ti  Ti56  1  0.37843564  0.61699919  0.63231365  1
  Ti  Ti57  1  0.12289956  0.38709436  0.12840219  1
  Ti  Ti58  1  0.87737153  0.35949315  0.86828430  1
  Ti  Ti59  1  0.87756856  0.87010014  0.12250790  1
  Ti  Ti60  1  0.61292818  0.13862992  0.37306218  1
  Ti  Ti61  1  0.37469810  0.63466358  0.38234704  1
  Ti  Ti62  1  0.63964654  0.36626976  0.86405783  1
  Ti  Ti63  1  0.13258502  0.12112995  0.63188964  1
  Ti  Ti64  1  0.13698618  0.86666589  0.62310256  1
  Ti  Ti65  1  0.36118291  0.38482825  0.13282907  1
  Ti  Ti66  1  0.12536319  0.36613209  0.63411375  1
  Ti  Ti67  1  0.12518823  0.38396681  0.38314681  1
  Ti  Ti68  1  0.64526368  0.62108031  0.37808552  1
  Ti  Ti69  1  0.12928791  0.63793351  0.38857359  1
  Ti  Ti70  1  0.12247607  0.36656469  0.86838714  1
  Ti  Ti71  1  0.87920477  0.11996655  0.38096345  1
  Ti  Ti72  1  0.88602729  0.37479308  0.13363525  1
  Ti  Ti73  1  0.38654448  0.37098634  0.61035738  1
  Bi  Bi74  1  0.26076780  0.26702823  0.27549056  1
  Bi  Bi75  1  0.25021149  0.26102639  0.51724169  1
  Bi  Bi76  1  0.25854855  -0.00350583  0.49814222  1
  Bi  Bi77  1  0.76290993  0.71989230  0.78204243  1
  Bi  Bi78  1  0.50748128  0.01099317  0.23425461  1
  Bi  Bi79  1  -0.00152957  0.22064477  0.00697003  1
  Bi  Bi80  1  0.23936856  0.50523756  0.51700938  1
  Bi  Bi81  1  0.23417242  0.50566171  0.76691053  1
  Bi  Bi82  1  -0.00366049  -0.00843696  0.25392341  1
  Bi  Bi83  1  0.00521653  0.22712511  0.75016007  1
  Bi  Bi84  1  0.71584522  -0.01186661  0.73564629  1
  Bi  Bi85  1  0.50611777  0.73455274  0.52346885  1
  Bi  Bi86  1  0.27526929  0.00014021  0.27225660  1
  Bi  Bi87  1  0.75121904  0.77745417  0.47673240  1
  Bi  Bi88  1  0.26052089  0.75258934  0.23659999  1
  Bi  Bi89  1  0.23396863  0.76503666  0.01188264  1
  Bi  Bi90  1  0.00124934  0.53254710  0.27170758  1
  Bi  Bi91  1  0.24176895  0.74361255  0.77574502  1
  Bi  Bi92  1  -0.00952817  0.48069691  -0.02479040  1
  Bi  Bi93  1  0.00917004  0.76278302  0.27258448  1
  Bi  Bi94  1  0.74235795  0.02775898  0.01364589  1
  Bi  Bi95  1  0.28152959  -0.00981060  0.75631566  1
  Bi  Bi96  1  0.71639055  0.00021029  0.48534635  1
  Bi  Bi97  1  0.44999351  0.26105080  -0.00910912  1
  Bi  Bi98  1  0.50058801  0.74037778  0.22644408  1
  Bi  Bi99  1  0.75004912  0.48055247  0.52926693  1
  Bi  Bi100  1  0.52357669  -0.01124555  -0.01776091  1
  Bi  Bi101  1  0.74361338  0.22446017  0.73913080  1
  Bi  Bi102  1  0.24109356  0.52902944  0.23195317  1
  Bi  Bi103  1  0.78296703  0.49525467  0.75246376  1
  Bi  Bi104  1  0.47431874  0.46660679  0.78637527  1
  Bi  Bi105  1  0.21816327  0.24529631  0.00939543  1
  Bi  Bi106  1  -0.00492154  -0.03626630  0.76868074  1
  Bi  Bi107  1  0.51278197  0.50929323  0.50360287  1
  Bi  Bi108  1  0.76217379  0.24668979  0.28812303  1
  Bi  Bi109  1  0.00182909  0.52317467  0.53150697  1
  Bi  Bi110  1  0.49454966  0.03523415  0.49895865  1
  Bi  Bi111  1  0.48667577  0.23953344  0.77158770  1
  Bi  Bi112  1  0.49802160  0.76404941  -0.03278590  1
  Bi  Bi113  1  0.00045509  0.22806618  0.51095666  1
  Bi  Bi114  1  -0.00076238  0.78558691  0.51597844  1
  Bi  Bi115  1  0.71714727  0.73607313  0.01048945  1
  Bi  Bi116  1  0.72543996  0.26722316  0.04210965  1
  Bi  Bi117  1  0.52737458  0.29217327  0.21483547  1
  Bi  Bi118  1  0.01503115  0.26046302  0.27198397  1
  Bi  Bi119  1  0.77158701  0.51577954  0.01674180  1
  Bi  Bi120  1  0.25772743  -0.00919147  -0.01226446  1
  Bi  Bi121  1  0.51767493  0.51770474  0.26878363  1
  Bi  Bi122  1  0.72663685  -0.02261198  0.25746544  1
  Bi  Bi123  1  -0.03451344  0.71101042  -0.03810757  1
  Bi  Bi124  1  0.55174994  0.46507403  0.02328512  1
  O  O125  1  0.12454502  0.12950956  -0.00456880  1
  O  O126  1  0.12341952  0.12473561  0.24630775  1
  O  O127  1  0.10446599  0.12015773  0.49610482  1
  O  O128  1  0.12590765  0.14229087  0.74781149  1
  O  O129  1  0.16590951  0.39106559  -0.02021626  1
  O  O130  1  0.10097888  0.37819583  0.24054086  1
  O  O131  1  0.15082447  0.37374567  0.49562321  1
  O  O132  1  0.10406730  0.34870047  0.74353067  1
  O  O133  1  0.09315340  0.61772499  -0.00407963  1
  O  O134  1  0.13497063  0.61418084  0.26882617  1
  O  O135  1  0.09940626  0.61837464  0.50478620  1
  O  O136  1  0.13329487  0.67105867  0.74279314  1
  O  O137  1  0.15982130  0.88678482  0.00303530  1
  O  O138  1  0.09551465  0.87367756  0.24055462  1
  O  O139  1  0.08861295  0.89459223  0.50905002  1
  O  O140  1  0.14851428  0.84901780  0.74358958  1
  O  O141  1  0.37640736  0.13878370  0.00014968  1
  O  O142  1  0.35333719  0.12957358  0.24822531  1
  O  O143  1  0.36779596  0.09396083  0.50158732  1
  O  O144  1  0.36454294  0.18125062  0.73110605  1
  O  O145  1  0.35878720  0.36618804  0.01249641  1
  O  O146  1  0.38421741  0.35980267  0.25712313  1
  O  O147  1  0.33669454  0.38961368  0.49748959  1
  O  O148  1  0.39839851  0.35877130  0.72717090  1
  O  O149  1  0.37508518  0.61022302  -0.00247604  1
  O  O150  1  0.33687907  0.62998465  0.26965166  1
  O  O151  1  0.40889106  0.62108318  0.50140759  1
  O  O152  1  0.37871216  0.63949808  0.74331278  1
  O  O153  1  0.35474710  0.88101531  0.01149872  1
  O  O154  1  0.35018030  0.86322667  0.26276188  1
  O  O155  1  0.37336159  0.91323848  0.49980324  1
  O  O156  1  0.35847093  0.86706587  0.73835909  1
  O  O157  1  0.62444710  0.09621623  0.00395467  1
  O  O158  1  0.59080073  0.12973416  0.25790202  1
  O  O159  1  0.62755909  0.10918742  0.49035518  1
  O  O160  1  0.65672346  0.11843863  0.74485430  1
  O  O161  1  0.64476565  0.36933428  -0.01352904  1
  O  O162  1  0.60590086  0.39583921  0.25771526  1
  O  O163  1  0.66747294  0.36471395  0.50513581  1
  O  O164  1  0.60557232  0.38571793  0.74383223  1
  O  O165  1  0.60659733  0.64923679  -0.00424579  1
  O  O166  1  0.63703733  0.59518828  0.26199398  1
  O  O167  1  0.59261494  0.62511796  0.49498988  1
  O  O168  1  0.63895091  0.63304593  0.75627860  1
  O  O169  1  0.60882717  0.87844486  0.00437290  1
  O  O170  1  0.65386031  0.86291376  0.25589510  1
  O  O171  1  0.63120968  0.88853890  0.49899462  1
  O  O172  1  0.60183885  0.90595202  0.73900153  1
  O  O173  1  0.89904048  0.10930176  -0.00444889  1
  O  O174  1  0.88226564  0.14586496  0.24702197  1
  O  O175  1  0.90905755  0.10609580  0.49824870  1
  O  O176  1  0.86660333  0.13587442  0.74896830  1
  O  O177  1  0.87122589  0.40197465  -0.01608205  1
  O  O178  1  0.91104266  0.36555741  0.24315936  1
  O  O179  1  0.85159646  0.38182360  0.49462375  1
  O  O180  1  0.89298077  0.33901758  0.74307594  1
  O  O181  1  0.90196540  0.59603696  0.00456238  1
  O  O182  1  0.87478456  0.61369702  0.26324168  1
  O  O183  1  0.89889671  0.61702751  0.50517069  1
  O  O184  1  0.85275330  0.62318151  0.74663891  1
  O  O185  1  0.86753129  0.89226845  -0.00146123  1
  O  O186  1  0.91277145  0.87606208  0.24223749  1
  O  O187  1  0.89024064  0.87123305  0.51436205  1
  O  O188  1  0.87316729  0.88202009  0.75402953  1
  O  O189  1  0.00791900  0.13031461  0.11827108  1
  O  O190  1  -0.00124484  0.15799727  0.36999994  1
  O  O191  1  -0.00325516  0.14298946  0.63326081  1
  O  O192  1  0.00108504  0.14551550  0.86345204  1
  O  O193  1  0.00290391  0.40296558  0.09361384  1
  O  O194  1  0.00340476  0.34612496  0.38269038  1
  O  O195  1  0.00414376  0.37311672  0.60315299  1
  O  O196  1  0.00353846  0.35905452  0.88840751  1
  O  O197  1  0.00635349  0.62225795  0.15247517  1
  O  O198  1  0.00049240  0.63962783  0.36346260  1
  O  O199  1  -0.00554961  0.60537399  0.64728834  1
  O  O200  1  0.00475334  0.66142290  0.84477225  1
  O  O201  1  0.00230966  0.89373632  0.08801293  1
  O  O202  1  -0.00216202  0.83974573  0.38154244  1
  O  O203  1  0.01486247  0.83966538  0.65167133  1
  O  O204  1  0.00740706  0.85436796  0.84986637  1
  O  O205  1  0.24393693  0.13977109  0.11293465  1
  O  O206  1  0.23795272  0.09895792  0.37918183  1
  O  O207  1  0.24815504  0.12882285  0.61235974  1
  O  O208  1  0.24496968  0.09718489  0.87451504  1
  O  O209  1  0.24448542  0.35874663  0.14248491  1
  O  O210  1  0.24029455  0.38763732  0.34604600  1
  O  O211  1  0.25287220  0.34308019  0.64095394  1
  O  O212  1  0.24244087  0.38069008  0.83107211  1
  O  O213  1  0.23785182  0.63906480  0.13538222  1
  O  O214  1  0.24640468  0.61988260  0.42257150  1
  O  O215  1  0.26046163  0.61965667  0.60201661  1
  O  O216  1  0.25139185  0.61447337  0.85934064  1
  O  O217  1  0.24439562  0.85058466  0.13651791  1
  O  O218  1  0.24432629  0.91033180  0.38664847  1
  O  O219  1  0.25297799  0.90615690  0.61293042  1
  O  O220  1  0.25377811  0.91259564  0.87459885  1
  O  O221  1  0.48466518  0.09502696  0.12821554  1
  O  O222  1  0.49686163  0.15179747  0.40822040  1
  O  O223  1  0.49754808  0.13562373  0.59878621  1
  O  O224  1  0.50039873  0.12608510  0.84098927  1
  O  O225  1  0.48997974  0.38459520  0.11848582  1
  O  O226  1  0.48779870  0.35114471  0.40809500  1
  O  O227  1  0.50402179  0.36014961  0.58719091  1
  O  O228  1  0.51519266  0.38501974  0.88730202  1
  O  O229  1  0.50097624  0.62221877  0.15706628  1
  O  O230  1  0.48735431  0.64624251  0.34340761  1
  O  O231  1  0.49979879  0.65061363  0.63735777  1
  O  O232  1  0.49475568  0.60065676  0.85742792  1
  O  O233  1  0.48875180  0.88337637  0.14798666  1
  O  O234  1  0.49020212  0.84961431  0.37458252  1
  O  O235  1  0.49288186  0.87159343  0.60943072  1
  O  O236  1  0.48961459  0.88190668  0.89266315  1
  O  O237  1  0.76019143  0.13045948  0.10963383  1
  O  O238  1  0.75951706  0.11741793  0.36779155  1
  O  O239  1  0.76292490  0.14328121  0.60841424  1
  O  O240  1  0.76005311  0.09876566  0.89468876  1
  O  O241  1  0.76498291  0.34569693  0.14295745  1
  O  O242  1  0.76477056  0.38847074  0.33054155  1
  O  O243  1  0.75391562  0.38272701  0.63969528  1
  O  O244  1  0.75884065  0.37953326  0.84439273  1
  O  O245  1  0.75504970  0.63319054  0.09151645  1
  O  O246  1  0.75341621  0.59576657  0.40042564  1
  O  O247  1  0.75508691  0.61336125  0.60939318  1
  O  O248  1  0.73518184  0.64845231  0.89428842  1
  O  O249  1  0.76309790  0.89088624  0.13944070  1
  O  O250  1  0.75840509  0.88811123  0.39197096  1
  O  O251  1  0.74847761  0.87523379  0.63489352  1
  O  O252  1  0.74339834  0.88414680  0.86588348  1
  O  O253  1  0.13641475  -0.00179943  0.12802800  1
  O  O254  1  0.08152734  0.00624218  0.37500465  1
  O  O255  1  0.10708159  0.00792816  0.62554193  1
  O  O256  1  0.09965687  0.00401621  0.86203948  1
  O  O257  1  0.11189298  0.26558194  0.09588146  1
  O  O258  1  0.14018651  0.24892793  0.36010784  1
  O  O259  1  0.11869080  0.24682624  0.60099392  1
  O  O260  1  0.14084929  0.25059882  0.88582984  1
  O  O261  1  0.14087013  0.50515669  0.12642668  1
  O  O262  1  0.10407611  0.49687125  0.38477593  1
  O  O263  1  0.14144195  0.48749293  0.62295525  1
  O  O264  1  0.11585455  0.49894668  0.83790869  1
  O  O265  1  0.11649675  0.75296878  0.09979963  1
  O  O266  1  0.13552538  0.74964519  0.37134181  1
  O  O267  1  0.16314019  0.76217464  0.58259644  1
  O  O268  1  0.16138259  0.75531650  0.89102591  1
  O  O269  1  0.35125742  -0.00493593  0.14160854  1
  O  O270  1  0.38793698  -0.00211285  0.35165222  1
  O  O271  1  0.39136879  0.01846212  0.66168918  1
  O  O272  1  0.38754558  0.00403824  0.83971753  1
  O  O273  1  0.39229081  0.24719640  0.12783031  1
  O  O274  1  0.34142875  0.25558980  0.38977329  1
  O  O275  1  0.38122293  0.25290746  0.57379180  1
  O  O276  1  0.38461982  0.25565621  0.86846401  1
  O  O277  1  0.35538755  0.49713753  0.14473880  1
  O  O278  1  0.39260666  0.50116252  0.37642951  1
  O  O279  1  0.38057555  0.49720719  0.62535838  1
  O  O280  1  0.35879117  0.49535581  0.85842236  1
  O  O281  1  0.37818853  0.74831679  0.14855409  1
  O  O282  1  0.34680045  0.75166411  0.40705273  1
  O  O283  1  0.36164515  0.75651229  0.59634528  1
  O  O284  1  0.37863978  0.74211488  0.88805898  1
  O  O285  1  0.62871345  -0.00026143  0.15775488  1
  O  O286  1  0.62609749  0.00348533  0.36437495  1
  O  O287  1  0.64314803  0.00184448  0.61617607  1
  O  O288  1  0.60043429  -0.00098276  0.87051961  1
  O  O289  1  0.61301518  0.24681887  0.11488531  1
  O  O290  1  0.64608493  0.24940971  0.36836498  1
  O  O291  1  0.64652937  0.25520609  0.63156159  1
  O  O292  1  0.64068005  0.25139413  0.85435335  1
  O  O293  1  0.65436706  0.49705518  0.10872109  1
  O  O294  1  0.59466513  0.50174322  0.39150261  1
  O  O295  1  0.61991092  0.49480135  0.60374200  1
  O  O296  1  0.63989773  0.50180463  0.88634221  1
  O  O297  1  0.64038972  0.74793399  0.13740709  1
  O  O298  1  0.65245334  0.73899302  0.38605356  1
  O  O299  1  0.62328311  0.75908112  0.60965765  1
  O  O300  1  0.57712275  0.74672527  0.85668548  1
  O  O301  1  0.88849886  0.00985009  0.13028584  1
  O  O302  1  0.89821104  0.00718160  0.35423914  1
  O  O303  1  0.87527868  -0.00127431  0.63277223  1
  O  O304  1  0.90770386  -0.00258500  0.87487259  1
  O  O305  1  0.89443611  0.25353474  0.09961385  1
  O  O306  1  0.85778760  0.25184877  0.38337431  1
  O  O307  1  0.87426859  0.25439018  0.59482066  1
  O  O308  1  0.86403485  0.24451477  0.88797679  1
  O  O309  1  0.83966796  0.48813600  0.13335594  1
  O  O310  1  0.90663813  0.49559615  0.37994627  1
  O  O311  1  0.87157865  0.48991511  0.63588653  1
  O  O312  1  0.89690831  0.48264605  0.83048185  1
  O  O313  1  0.85779927  0.75725549  0.13606386  1
  O  O314  1  0.84984820  0.74090861  0.38539767  1
  O  O315  1  0.86762240  0.74912283  0.62701604  1
  O  O316  1  0.85771977  0.76001678  0.88553822  1
