# generated using pymatgen
data_Mg32Ti42(Bi17O64)3
_symmetry_space_group_name_H-M   'P 1'
_cell_length_a   15.97597832
_cell_length_b   15.97481326
_cell_length_c   15.92228924
_cell_angle_alpha   90.16634449
_cell_angle_beta   89.90764031
_cell_angle_gamma   89.97593579
_symmetry_Int_Tables_number   1
_chemical_formula_structural   Mg32Ti42(Bi17O64)3
_chemical_formula_sum   'Mg32 Ti42 Bi51 O192'
_cell_volume   4063.55673615
_cell_formula_units_Z   1
loop_
 _symmetry_equiv_pos_site_id
 _symmetry_equiv_pos_as_xyz
  1  'x, y, z'
loop_
 _atom_site_type_symbol
 _atom_site_label
 _atom_site_symmetry_multiplicity
 _atom_site_fract_x
 _atom_site_fract_y
 _atom_site_fract_z
 _atom_site_occupancy
  Mg  Mg0  1  0.62613628  0.87524169  0.63363442  1
  Mg  Mg1  1  0.86721436  0.61530728  0.37559655  1
  Mg  Mg2  1  0.88657885  0.88244326  0.37369318  1
  Mg  Mg3  1  0.88014175  0.37777378  0.62665429  1
  Mg  Mg4  1  0.62370582  0.37988159  0.62872753  1
  Mg  Mg5  1  0.12591965  0.12399371  0.87239659  1
  Mg  Mg6  1  0.37454710  0.86880994  0.88085620  1
  Mg  Mg7  1  0.13415213  0.87532750  0.61324994  1
  Mg  Mg8  1  0.12189122  0.62538391  0.62014623  1
  Mg  Mg9  1  0.86739841  0.86387405  0.63539821  1
  Mg  Mg10  1  0.63439545  0.12224422  0.38471372  1
  Mg  Mg11  1  0.37272615  0.37307670  0.88279914  1
  Mg  Mg12  1  0.63591140  0.62159966  0.87633676  1
  Mg  Mg13  1  0.62894238  0.12386535  0.12235739  1
  Mg  Mg14  1  0.63326574  0.38341081  0.36809783  1
  Mg  Mg15  1  0.38063672  0.12755332  0.88466677  1
  Mg  Mg16  1  0.63858653  0.87118043  0.87551578  1
  Mg  Mg17  1  0.36759701  0.64257370  0.13020483  1
  Mg  Mg18  1  0.61710487  0.61709593  0.61905229  1
  Mg  Mg19  1  0.18746887  0.72753853  0.42753311  1
  Mg  Mg20  1  0.50602361  -0.06902518  -0.00567869  1
  Mg  Mg21  1  0.71032768  0.72787542  0.70035896  1
  Mg  Mg22  1  -0.02680190  0.02514747  0.22494265  1
  Mg  Mg23  1  0.68699740  0.56066027  0.21854224  1
  Mg  Mg24  1  -0.00155808  0.20882651  0.27446051  1
  Mg  Mg25  1  0.79938551  0.50757937  0.72384768  1
  Mg  Mg26  1  0.54132747  0.73673098  0.19297286  1
  Mg  Mg27  1  0.29836217  0.25243159  0.26905061  1
  Mg  Mg28  1  0.01706072  0.68237551  0.28022224  1
  Mg  Mg29  1  -0.01124057  -0.04381777  0.53463717  1
  Mg  Mg30  1  0.71471587  0.68276803  0.03725298  1
  Mg  Mg31  1  0.21624437  0.68479732  -0.05628214  1
  Ti  Ti32  1  0.86103129  0.63215994  0.87970998  1
  Ti  Ti33  1  0.38445298  0.87637282  0.37681526  1
  Ti  Ti34  1  0.12822551  0.11955236  0.37814699  1
  Ti  Ti35  1  0.87592743  0.37601350  0.86402532  1
  Ti  Ti36  1  0.13193252  0.87859135  0.87762080  1
  Ti  Ti37  1  0.12681730  0.64185277  0.12810216  1
  Ti  Ti38  1  0.13142645  0.36185981  0.12196157  1
  Ti  Ti39  1  0.37404853  0.36670077  0.13108995  1
  Ti  Ti40  1  0.87776554  0.12260298  0.86217464  1
  Ti  Ti41  1  0.37403227  0.86245141  0.62520059  1
  Ti  Ti42  1  0.37646647  0.37856607  0.37440823  1
  Ti  Ti43  1  0.12866967  0.35934604  0.36253447  1
  Ti  Ti44  1  0.88208096  0.12848905  0.62253583  1
  Ti  Ti45  1  0.12908257  0.38660932  0.62268519  1
  Ti  Ti46  1  0.12670770  0.11915549  0.61146081  1
  Ti  Ti47  1  0.62694935  0.86753939  0.35970835  1
  Ti  Ti48  1  0.87466469  0.12771518  0.12119573  1
  Ti  Ti49  1  0.62654373  0.62482935  0.37264184  1
  Ti  Ti50  1  0.39393105  0.87728084  0.12994890  1
  Ti  Ti51  1  0.37880880  0.62256365  0.62204145  1
  Ti  Ti52  1  0.63920111  0.88588780  0.12470947  1
  Ti  Ti53  1  0.88822601  0.87315067  0.12477052  1
  Ti  Ti54  1  0.12899523  0.36868695  0.87311297  1
  Ti  Ti55  1  0.38502394  0.12908616  0.13039108  1
  Ti  Ti56  1  0.87191056  0.63525451  0.63206108  1
  Ti  Ti57  1  0.36819420  0.38336121  0.62453527  1
  Ti  Ti58  1  0.87922649  0.36580089  0.13915355  1
  Ti  Ti59  1  0.62172971  0.11692897  0.87504958  1
  Ti  Ti60  1  0.37661396  0.63120424  0.88310814  1
  Ti  Ti61  1  0.38089608  0.12961304  0.38187558  1
  Ti  Ti62  1  0.63033763  0.11961488  0.62450762  1
  Ti  Ti63  1  0.62924487  0.38572888  0.87576246  1
  Ti  Ti64  1  0.38511232  0.13288149  0.62394772  1
  Ti  Ti65  1  0.11574789  0.12291577  0.13899735  1
  Ti  Ti66  1  0.88644949  0.62942719  0.12467574  1
  Ti  Ti67  1  0.12041366  0.88326645  0.37581922  1
  Ti  Ti68  1  0.87353181  0.38658771  0.37395770  1
  Ti  Ti69  1  0.11720392  0.88418268  0.12763778  1
  Ti  Ti70  1  0.88396957  0.11813015  0.38511569  1
  Ti  Ti71  1  0.63995609  0.36738376  0.13289875  1
  Ti  Ti72  1  0.37952759  0.64565678  0.37871626  1
  Ti  Ti73  1  0.88286421  0.86394920  0.87403634  1
  Bi  Bi74  1  0.48424281  0.28149841  0.75098972  1
  Bi  Bi75  1  0.26655892  0.01274833  0.25448573  1
  Bi  Bi76  1  0.49411541  -0.00249290  0.78348747  1
  Bi  Bi77  1  0.03171157  0.53810305  0.79009399  1
  Bi  Bi78  1  0.00171633  0.47091585  0.00988057  1
  Bi  Bi79  1  0.02455810  0.26040075  0.72847633  1
  Bi  Bi80  1  0.76422083  -0.01368398  0.75526404  1
  Bi  Bi81  1  0.26182016  0.22446481  0.01482891  1
  Bi  Bi82  1  0.50331865  0.52474024  0.25983793  1
  Bi  Bi83  1  0.24526570  0.53867377  0.48694901  1
  Bi  Bi84  1  0.26745977  -0.01698137  0.01843098  1
  Bi  Bi85  1  0.52243565  0.75793352  0.77659233  1
  Bi  Bi86  1  0.01166653  -0.00761075  -0.00840352  1
  Bi  Bi87  1  0.51427205  0.52164983  0.76051253  1
  Bi  Bi88  1  0.52692555  0.75944451  0.51393467  1
  Bi  Bi89  1  0.02309612  0.75963052  0.72282252  1
  Bi  Bi90  1  0.52119718  -0.01041881  0.51672528  1
  Bi  Bi91  1  0.73775915  0.22091193  -0.00277186  1
  Bi  Bi92  1  0.24150244  0.72436232  0.73276129  1
  Bi  Bi93  1  0.72956711  0.24872046  0.76807862  1
  Bi  Bi94  1  0.78720542  0.73649221  0.25564180  1
  Bi  Bi95  1  0.52138524  0.71838828  0.00384538  1
  Bi  Bi96  1  0.77775620  0.47804946  0.00183160  1
  Bi  Bi97  1  0.77087542  0.23640755  0.27904731  1
  Bi  Bi98  1  0.77160768  0.75707328  0.48653712  1
  Bi  Bi99  1  0.00270810  0.27292191  0.48917136  1
  Bi  Bi100  1  0.02136271  0.49447223  0.22862554  1
  Bi  Bi101  1  0.76158503  0.27171691  0.51871439  1
  Bi  Bi102  1  0.03080413  0.00507340  0.74379325  1
  Bi  Bi103  1  0.51473652  0.49837451  0.50785978  1
  Bi  Bi104  1  0.52416950  0.26545401  0.50867374  1
  Bi  Bi105  1  0.27595469  -0.00649044  0.51568481  1
  Bi  Bi106  1  0.76776712  -0.01353500  0.51957772  1
  Bi  Bi107  1  0.24792364  0.53623412  0.26761008  1
  Bi  Bi108  1  0.77030026  -0.01002516  0.26250372  1
  Bi  Bi109  1  0.00280354  0.23175057  -0.02624802  1
  Bi  Bi110  1  0.50827288  0.27906717  0.00115977  1
  Bi  Bi111  1  0.27532484  -0.01038269  0.76399031  1
  Bi  Bi112  1  0.03111900  0.52018920  0.46610195  1
  Bi  Bi113  1  0.26419572  0.22831048  0.76840456  1
  Bi  Bi114  1  0.24777249  0.79074838  0.23912712  1
  Bi  Bi115  1  0.26451861  0.50752821  0.02526528  1
  Bi  Bi116  1  0.52304954  0.51542171  0.03421410  1
  Bi  Bi117  1  0.76611968  -0.02208109  -0.00560705  1
  Bi  Bi118  1  0.25804554  0.49580297  0.78397377  1
  Bi  Bi119  1  0.53251643  0.01793231  0.25377731  1
  Bi  Bi120  1  0.52907931  0.24273446  0.27120747  1
  Bi  Bi121  1  0.01157042  0.76202591  0.48200490  1
  Bi  Bi122  1  0.25310855  0.25599343  0.49685559  1
  Bi  Bi123  1  0.01865016  0.72553154  -0.02135057  1
  Bi  Bi124  1  0.76385055  0.51043262  0.52700481  1
  O  O125  1  0.08134208  0.12539843  0.00824704  1
  O  O126  1  0.14970857  0.11999254  0.25100072  1
  O  O127  1  0.10269438  0.13748835  0.49357433  1
  O  O128  1  0.13260762  0.09609600  0.73976168  1
  O  O129  1  0.11697262  0.37505717  -0.00505517  1
  O  O130  1  0.11854527  0.38766731  0.24676747  1
  O  O131  1  0.13232690  0.34324191  0.50160967  1
  O  O132  1  0.10933157  0.37730571  0.74389467  1
  O  O133  1  0.12647971  0.63251463  0.00907048  1
  O  O134  1  0.11774514  0.60351129  0.24718174  1
  O  O135  1  0.12928539  0.63300559  0.49515887  1
  O  O136  1  0.10715322  0.63958265  0.74732840  1
  O  O137  1  0.13587233  0.90854143  0.00658535  1
  O  O138  1  0.13885070  0.88136259  0.24988938  1
  O  O139  1  0.13394240  0.83287103  0.49115108  1
  O  O140  1  0.10801146  0.88385120  0.75537003  1
  O  O141  1  0.37931152  0.14792300  0.01168397  1
  O  O142  1  0.34539334  0.12684752  0.25552068  1
  O  O143  1  0.37732188  0.14541983  0.49848178  1
  O  O144  1  0.34951275  0.11201186  0.73936148  1
  O  O145  1  0.37563256  0.33590195  0.00536441  1
  O  O146  1  0.35714161  0.37315095  0.24975718  1
  O  O147  1  0.36169392  0.35302305  0.49681452  1
  O  O148  1  0.39087809  0.39316751  0.74365533  1
  O  O149  1  0.32761060  0.64063606  -0.00567308  1
  O  O150  1  0.37170967  0.61000921  0.25895031  1
  O  O151  1  0.35216257  0.63337784  0.49766409  1
  O  O152  1  0.40332791  0.61243449  0.74247923  1
  O  O153  1  0.38374032  0.88892663  0.00909246  1
  O  O154  1  0.35590278  0.88854917  0.25288759  1
  O  O155  1  0.36926585  0.87940142  0.49616507  1
  O  O156  1  0.37775367  0.89318746  0.74134664  1
  O  O157  1  0.63488740  0.11585066  -0.00930861  1
  O  O158  1  0.62136422  0.13940525  0.25403074  1
  O  O159  1  0.61093323  0.09651823  0.50511413  1
  O  O160  1  0.63843887  0.14845388  0.74478073  1
  O  O161  1  0.60918613  0.38547299  0.00052645  1
  O  O162  1  0.63014402  0.33947518  0.24430245  1
  O  O163  1  0.60218071  0.38702758  0.49554055  1
  O  O164  1  0.63111161  0.35132738  0.75460139  1
  O  O165  1  0.61553567  0.61420845  0.00396431  1
  O  O166  1  0.58913545  0.63941672  0.25245111  1
  O  O167  1  0.62728656  0.58842769  0.48731076  1
  O  O168  1  0.60028117  0.64158985  0.75067578  1
  O  O169  1  0.63226327  0.91041547  0.00458621  1
  O  O170  1  0.60629486  0.84145348  0.24222421  1
  O  O171  1  0.61682168  0.88634331  0.49031739  1
  O  O172  1  0.64043090  0.82589713  0.75012982  1
  O  O173  1  0.89068438  0.15577399  0.00207354  1
  O  O174  1  0.85307180  0.10605610  0.24581582  1
  O  O175  1  0.89410924  0.14522640  0.49697853  1
  O  O176  1  0.86695595  0.10178278  0.74599252  1
  O  O177  1  0.87857428  0.38228257  0.00758856  1
  O  O178  1  0.88545880  0.39522216  0.25226645  1
  O  O179  1  0.87910363  0.34743517  0.49456076  1
  O  O180  1  0.85527141  0.40034288  0.75354127  1
  O  O181  1  0.88736533  0.65331797  0.00967458  1
  O  O182  1  0.88916185  0.64301219  0.25091931  1
  O  O183  1  0.84508962  0.63821989  0.50895328  1
  O  O184  1  0.86413116  0.61017793  0.75909648  1
  O  O185  1  0.86315013  0.87936458  0.00412746  1
  O  O186  1  0.89646974  0.91686636  0.24477998  1
  O  O187  1  0.84960493  0.86798716  0.50414860  1
  O  O188  1  0.88073223  0.89993143  0.75884937  1
  O  O189  1  -0.00227467  0.14457418  0.16649577  1
  O  O190  1  -0.00409667  0.09673196  0.33981469  1
  O  O191  1  -0.00561995  0.14214912  0.64193609  1
  O  O192  1  -0.00601987  0.14572046  0.86207895  1
  O  O193  1  -0.00050328  0.37564442  0.11963959  1
  O  O194  1  0.00329583  0.38710126  0.39235456  1
  O  O195  1  0.00401007  0.34684700  0.61743828  1
  O  O196  1  -0.00521640  0.38857209  0.87553417  1
  O  O197  1  0.00710409  0.64987223  0.13958306  1
  O  O198  1  -0.00877923  0.60420819  0.37409311  1
  O  O199  1  -0.01577350  0.65941319  0.62480318  1
  O  O200  1  -0.00919351  0.62769656  0.88471159  1
  O  O201  1  0.00476851  0.86108398  0.10589107  1
  O  O202  1  0.00359085  0.89656875  0.42141743  1
  O  O203  1  -0.00681729  0.84766806  0.60890371  1
  O  O204  1  -0.00034871  0.86762803  0.90033789  1
  O  O205  1  0.22937831  0.10675018  0.09258546  1
  O  O206  1  0.24118669  0.15013268  0.39229583  1
  O  O207  1  0.24033218  0.10809378  0.59892179  1
  O  O208  1  0.25036275  0.14280825  0.88969853  1
  O  O209  1  0.24351309  0.38754810  0.11407784  1
  O  O210  1  0.24152925  0.32581203  0.36689740  1
  O  O211  1  0.24765927  0.38680184  0.63141086  1
  O  O212  1  0.24465902  0.36391007  0.85502262  1
  O  O213  1  0.24615553  0.60505846  0.13858498  1
  O  O214  1  0.25239654  0.63449048  0.37036846  1
  O  O215  1  0.25422510  0.61788022  0.64801650  1
  O  O216  1  0.25891865  0.62924853  0.83963360  1
  O  O217  1  0.24935234  0.89186501  0.12481309  1
  O  O218  1  0.23966908  0.83595552  0.37118332  1
  O  O219  1  0.25614995  0.90508132  0.62523449  1
  O  O220  1  0.24708295  0.89002217  0.87008774  1
  O  O221  1  0.49563169  0.13238962  0.14520653  1
  O  O222  1  0.49281743  0.11044170  0.36261264  1
  O  O223  1  0.49597988  0.14882302  0.63487848  1
  O  O224  1  0.50614078  0.11926128  0.86298623  1
  O  O225  1  0.49123771  0.34701685  0.12673830  1
  O  O226  1  0.48637559  0.40139770  0.36663716  1
  O  O227  1  0.48939966  0.35207633  0.61971388  1
  O  O228  1  0.50514551  0.36146888  0.87437317  1
  O  O229  1  0.48859248  0.62294913  0.11312135  1
  O  O230  1  0.49013175  0.59931352  0.38451122  1
  O  O231  1  0.49166260  0.64255086  0.59296529  1
  O  O232  1  0.48908135  0.60202440  0.89841797  1
  O  O233  1  0.50468486  0.90306372  0.11803350  1
  O  O234  1  0.49423437  0.89712400  0.36945337  1
  O  O235  1  0.49536068  0.85822117  0.61467506  1
  O  O236  1  0.50550964  0.89128336  0.87361170  1
  O  O237  1  0.75890493  0.12556757  0.10385018  1
  O  O238  1  0.75913939  0.14838910  0.38429099  1
  O  O239  1  0.74589758  0.09974179  0.61614426  1
  O  O240  1  0.75659927  0.13056660  0.87575497  1
  O  O241  1  0.75418639  0.38766753  0.12181407  1
  O  O242  1  0.75928271  0.34733738  0.37449934  1
  O  O243  1  0.74878946  0.38645857  0.60319012  1
  O  O244  1  0.74977950  0.38260619  0.89934853  1
  O  O245  1  0.76031859  0.62800597  0.14025889  1
  O  O246  1  0.73928191  0.62759920  0.33812140  1
  O  O247  1  0.73767085  0.59065145  0.64689307  1
  O  O248  1  0.75212875  0.64124931  0.91629304  1
  O  O249  1  0.75589977  0.89479094  0.13417379  1
  O  O250  1  0.74195419  0.86609489  0.35360808  1
  O  O251  1  0.74689901  0.91029196  0.63771787  1
  O  O252  1  0.76063457  0.89961046  0.87640427  1
  O  O253  1  0.08645343  0.00246258  0.14153713  1
  O  O254  1  0.14708030  -0.00083578  0.38310213  1
  O  O255  1  0.08680842  -0.00232090  0.60621051  1
  O  O256  1  0.09834551  0.00120682  0.87499774  1
  O  O257  1  0.13365330  0.24901738  0.12398857  1
  O  O258  1  0.08809871  0.24420915  0.35608218  1
  O  O259  1  0.13236168  0.23700950  0.64492048  1
  O  O260  1  0.11301164  0.25314746  0.86387847  1
  O  O261  1  0.10121142  0.49976501  0.11551395  1
  O  O262  1  0.14487705  0.48004959  0.39281413  1
  O  O263  1  0.11179213  0.49676525  0.60961330  1
  O  O264  1  0.13916053  0.49555147  0.86480334  1
  O  O265  1  0.14214598  0.75749939  0.13220051  1
  O  O266  1  0.08260089  0.76061781  0.35513913  1
  O  O267  1  0.13478875  0.75365163  0.64433089  1
  O  O268  1  0.13403192  0.76296810  0.89535168  1
  O  O269  1  0.36327191  0.01117696  0.13260654  1
  O  O270  1  0.34770166  0.00470377  0.37622458  1
  O  O271  1  0.38647849  0.01088304  0.59966499  1
  O  O272  1  0.37425906  0.00252589  0.86741050  1
  O  O273  1  0.33664134  0.24420247  0.14480693  1
  O  O274  1  0.39024589  0.24775830  0.35892709  1
  O  O275  1  0.35321449  0.25068278  0.64677238  1
  O  O276  1  0.37808368  0.24943852  0.84170040  1
  O  O277  1  0.37764220  0.48547048  0.10063391  1
  O  O278  1  0.33555689  0.48858445  0.38615909  1
  O  O279  1  0.38220687  0.50018211  0.60300737  1
  O  O280  1  0.34529478  0.49829962  0.89286524  1
  O  O281  1  0.40869893  0.76448049  0.14693017  1
  O  O282  1  0.39727790  0.75583236  0.37046259  1
  O  O283  1  0.35602305  0.75049603  0.63679967  1
  O  O284  1  0.39042425  0.74469195  0.87026887  1
  O  O285  1  0.63262299  0.00080676  0.15752240  1
  O  O286  1  0.63303181  -0.00800184  0.34596837  1
  O  O287  1  0.59179835  0.00313527  0.63834715  1
  O  O288  1  0.62906521  0.00401829  0.84064505  1
  O  O289  1  0.63461593  0.25178924  0.09427558  1
  O  O290  1  0.60169139  0.25114702  0.38816979  1
  O  O291  1  0.63298586  0.24409509  0.59568222  1
  O  O292  1  0.64290091  0.24861747  0.88437108  1
  O  O293  1  0.60918011  0.48576474  0.14463277  1
  O  O294  1  0.62825751  0.50541958  0.32743390  1
  O  O295  1  0.57951853  0.49851940  0.63594328  1
  O  O296  1  0.62881796  0.49710992  0.85273213  1
  O  O297  1  0.62220437  0.76135712  0.09327072  1
  O  O298  1  0.61617019  0.74490863  0.39333418  1
  O  O299  1  0.63638838  0.74403485  0.59618108  1
  O  O300  1  0.60074036  0.74696116  0.89283856  1
  O  O301  1  0.90037734  0.01398092  0.10980682  1
  O  O302  1  0.84764005  0.00458447  0.38736687  1
  O  O303  1  0.88703684  0.00591177  0.59129175  1
  O  O304  1  0.88630554  0.01333267  0.89946315  1
  O  O305  1  0.86839260  0.25469889  0.14891868  1
  O  O306  1  0.89706645  0.24078623  0.34271879  1
  O  O307  1  0.84526534  0.24176522  0.63214975  1
  O  O308  1  0.87005918  0.26041605  0.86016680  1
  O  O309  1  0.89638873  0.51251004  0.11259854  1
  O  O310  1  0.85679100  0.49315662  0.40147702  1
  O  O311  1  0.87516013  0.50850977  0.61441300  1
  O  O312  1  0.86639197  0.50850918  0.89727850  1
  O  O313  1  0.86970677  0.76399448  0.14120679  1
  O  O314  1  0.86721382  0.75278532  0.37674866  1
  O  O315  1  0.82115425  0.74419276  0.64028753  1
  O  O316  1  0.87745396  0.75319865  0.86138746  1
