# generated using pymatgen
data_Mg32Ti42(Bi17O64)3
_symmetry_space_group_name_H-M   'P 1'
_cell_length_a   15.94656765
_cell_length_b   15.91378521
_cell_length_c   15.92301467
_cell_angle_alpha   89.77919397
_cell_angle_beta   89.92525809
_cell_angle_gamma   90.11061827
_symmetry_Int_Tables_number   1
_chemical_formula_structural   Mg32Ti42(Bi17O64)3
_chemical_formula_sum   'Mg32 Ti42 Bi51 O192'
_cell_volume   4040.74643917
_cell_formula_units_Z   1
loop_
 _symmetry_equiv_pos_site_id
 _symmetry_equiv_pos_as_xyz
  1  'x, y, z'
loop_
 _atom_site_type_symbol
 _atom_site_label
 _atom_site_symmetry_multiplicity
 _atom_site_fract_x
 _atom_site_fract_y
 _atom_site_fract_z
 _atom_site_occupancy
  Mg  Mg0  1  0.88668810  0.87802681  0.62548305  1
  Mg  Mg1  1  0.37822501  0.87924231  0.37258726  1
  Mg  Mg2  1  0.36709282  0.87180174  0.62117469  1
  Mg  Mg3  1  0.12407989  0.38155162  0.86528043  1
  Mg  Mg4  1  0.12715116  0.13107234  0.36993598  1
  Mg  Mg5  1  0.87300927  0.13692669  0.61253511  1
  Mg  Mg6  1  0.62918716  0.13943644  0.61548103  1
  Mg  Mg7  1  0.37523369  0.37037504  0.37742184  1
  Mg  Mg8  1  0.61995259  0.12539183  0.36850278  1
  Mg  Mg9  1  0.11973246  0.11896157  0.86125500  1
  Mg  Mg10  1  0.87941302  0.38222583  0.61505364  1
  Mg  Mg11  1  0.87570136  0.13151795  0.37098214  1
  Mg  Mg12  1  0.37946788  0.61663076  0.87448157  1
  Mg  Mg13  1  0.62290589  0.62603003  0.12647534  1
  Mg  Mg14  1  0.87690700  0.87624623  0.86953764  1
  Mg  Mg15  1  0.62277697  0.88122482  0.87949301  1
  Mg  Mg16  1  0.88239218  0.63650208  0.12463697  1
  Mg  Mg17  1  0.62539595  0.36970112  0.13689909  1
  Mg  Mg18  1  0.12606993  0.38713267  0.61469248  1
  Mg  Mg19  1  0.26257106  0.22945845  0.26711376  1
  Mg  Mg20  1  -0.03536417  0.50003548  0.47782291  1
  Mg  Mg21  1  0.01124425  0.46954158  0.20115571  1
  Mg  Mg22  1  0.74875353  0.22948586  0.44682767  1
  Mg  Mg23  1  -0.05550757  0.29523765  0.23422124  1
  Mg  Mg24  1  0.53135213  0.03610121  0.00147473  1
  Mg  Mg25  1  0.23334308  0.53041214  0.74544075  1
  Mg  Mg26  1  0.73034642  0.48145845  0.71308116  1
  Mg  Mg27  1  0.47843697  0.24798491  0.24950827  1
  Mg  Mg28  1  0.02011387  -0.04500272  0.75016763  1
  Mg  Mg29  1  0.71995319  0.81914967  0.74271598  1
  Mg  Mg30  1  0.76561877  0.22176446  0.24118486  1
  Mg  Mg31  1  0.74937580  -0.01714826  -0.04868971  1
  Ti  Ti32  1  0.63538247  0.14132333  0.13438529  1
  Ti  Ti33  1  0.11974085  0.62632884  0.11487155  1
  Ti  Ti34  1  0.37986258  0.11992740  0.86020660  1
  Ti  Ti35  1  0.37461041  0.37589790  0.86357948  1
  Ti  Ti36  1  0.87642605  0.88265967  0.11680004  1
  Ti  Ti37  1  0.64313395  0.88583145  0.11134903  1
  Ti  Ti38  1  0.38810456  0.61825590  0.12151745  1
  Ti  Ti39  1  0.63302381  0.61835046  0.35645112  1
  Ti  Ti40  1  0.12849093  0.86513666  0.87968045  1
  Ti  Ti41  1  0.86212305  0.63166343  0.36986529  1
  Ti  Ti42  1  0.62643270  0.88247619  0.37356671  1
  Ti  Ti43  1  0.37098178  0.12899572  0.62083996  1
  Ti  Ti44  1  0.37835755  0.87393504  0.87402393  1
  Ti  Ti45  1  0.62423438  0.37232502  0.36111113  1
  Ti  Ti46  1  0.86688058  0.88544434  0.38180887  1
  Ti  Ti47  1  0.37688369  0.38097629  0.61330278  1
  Ti  Ti48  1  0.13677318  0.87508821  0.12219999  1
  Ti  Ti49  1  0.12281683  0.61835761  0.87809219  1
  Ti  Ti50  1  0.13070698  0.62987171  0.60466569  1
  Ti  Ti51  1  0.37850703  0.88440375  0.12395505  1
  Ti  Ti52  1  0.09540780  0.59878497  0.37339655  1
  Ti  Ti53  1  0.62758986  0.61878060  0.63274285  1
  Ti  Ti54  1  0.37053107  0.35952982  0.13212460  1
  Ti  Ti55  1  0.88378986  0.12021887  0.12985247  1
  Ti  Ti56  1  0.63027265  0.64358154  0.86744316  1
  Ti  Ti57  1  0.37748223  0.13051127  0.12644219  1
  Ti  Ti58  1  0.86794270  0.62343335  0.87183746  1
  Ti  Ti59  1  0.86920278  0.37051425  0.37645882  1
  Ti  Ti60  1  0.13550528  0.34139439  0.13958244  1
  Ti  Ti61  1  0.87775927  0.38580499  0.87052000  1
  Ti  Ti62  1  0.12516769  0.86273691  0.61158594  1
  Ti  Ti63  1  0.37398429  0.12342704  0.38151568  1
  Ti  Ti64  1  0.87202618  0.12450934  0.88277397  1
  Ti  Ti65  1  0.11057567  0.36694332  0.37109628  1
  Ti  Ti66  1  0.11063680  0.12125328  0.63563373  1
  Ti  Ti67  1  0.62084429  0.37244003  0.61478291  1
  Ti  Ti68  1  0.12709011  0.86828769  0.37242535  1
  Ti  Ti69  1  0.63426474  0.36531707  0.87750930  1
  Ti  Ti70  1  0.13830402  0.11664813  0.13784099  1
  Ti  Ti71  1  0.38477071  0.61835333  0.63741278  1
  Ti  Ti72  1  0.86423790  0.62930073  0.62215436  1
  Ti  Ti73  1  0.63247542  0.11646480  0.87145963  1
  Bi  Bi74  1  0.71989137  0.77745243  0.53378668  1
  Bi  Bi75  1  0.23485503  0.02117348  0.51332279  1
  Bi  Bi76  1  0.24781181  0.48416392  0.25163997  1
  Bi  Bi77  1  -0.01489646  0.74247621  -0.01806584  1
  Bi  Bi78  1  0.26953449  0.71007437  0.24854741  1
  Bi  Bi79  1  0.00527098  0.51053550  0.70619762  1
  Bi  Bi80  1  0.27265887  0.74999554  -0.00042970  1
  Bi  Bi81  1  0.75407080  0.02402010  0.26831206  1
  Bi  Bi82  1  0.26344491  0.51653069  0.47138139  1
  Bi  Bi83  1  0.74522029  0.48798936  0.49294262  1
  Bi  Bi84  1  0.49173073  0.76031141  0.25968524  1
  Bi  Bi85  1  0.23835656  0.29161042  0.73531678  1
  Bi  Bi86  1  0.74984443  0.77537036  0.25121597  1
  Bi  Bi87  1  0.50593706  0.46780797  0.00193526  1
  Bi  Bi88  1  0.74810878  0.00256354  0.53637933  1
  Bi  Bi89  1  0.49754911  0.00151480  0.51243522  1
  Bi  Bi90  1  0.74980312  0.73196956  0.02158566  1
  Bi  Bi91  1  -0.01124509  0.23798721  0.48950868  1
  Bi  Bi92  1  0.77059059  0.27504544  0.74297421  1
  Bi  Bi93  1  -0.00436670  0.26552939  0.74225104  1
  Bi  Bi94  1  0.01263277  -0.01151932  0.23721448  1
  Bi  Bi95  1  0.01317939  0.74301831  0.23732555  1
  Bi  Bi96  1  0.72442703  0.50685032  0.00782445  1
  Bi  Bi97  1  0.23248584  0.24518788  -0.03424548  1
  Bi  Bi98  1  0.24623708  -0.01461330  0.74089281  1
  Bi  Bi99  1  0.50599199  0.01066672  0.22149442  1
  Bi  Bi100  1  0.50550709  0.75945759  0.01128314  1
  Bi  Bi101  1  0.52769937  0.50742114  0.77026392  1
  Bi  Bi102  1  0.53166365  -0.00978208  0.71656041  1
  Bi  Bi103  1  0.00220361  -0.00990764  -0.01999306  1
  Bi  Bi104  1  -0.01995474  0.73918353  0.73768499  1
  Bi  Bi105  1  0.52587509  0.77938917  0.73218510  1
  Bi  Bi106  1  0.80298094  0.48971124  0.21063366  1
  Bi  Bi107  1  0.50394818  0.72767433  0.47058429  1
  Bi  Bi108  1  0.23254839  0.26267308  0.48574368  1
  Bi  Bi109  1  0.50416256  0.24068914  -0.02527549  1
  Bi  Bi110  1  0.51769472  0.23588497  0.48026754  1
  Bi  Bi111  1  0.27003478  0.73419356  0.75026595  1
  Bi  Bi112  1  0.49808683  0.26068406  0.73759010  1
  Bi  Bi113  1  0.28851875  0.74272829  0.46969269  1
  Bi  Bi114  1  0.25387084  0.49779251  -0.02074286  1
  Bi  Bi115  1  0.26837717  0.00687433  0.26924535  1
  Bi  Bi116  1  0.00960381  0.00051466  0.48077805  1
  Bi  Bi117  1  0.78972024  0.28275960  0.03616971  1
  Bi  Bi118  1  -0.00530839  0.49170530  -0.00179465  1
  Bi  Bi119  1  0.49508589  0.49975451  0.47419645  1
  Bi  Bi120  1  0.00936262  0.22850999  0.00746121  1
  Bi  Bi121  1  -0.01713461  0.74444240  0.47861198  1
  Bi  Bi122  1  0.25232123  0.00628181  -0.02180044  1
  Bi  Bi123  1  0.48414992  0.48176481  0.24215534  1
  Bi  Bi124  1  0.79090160  0.00578151  0.73756915  1
  O  O125  1  0.13443612  0.15097480  0.01655386  1
  O  O126  1  0.11233297  0.09277463  0.24991134  1
  O  O127  1  0.15464228  0.14817598  0.50241939  1
  O  O128  1  0.09533163  0.07319392  0.74255969  1
  O  O129  1  0.13315690  0.33273399  0.02087373  1
  O  O130  1  0.12581536  0.41015590  0.25200163  1
  O  O131  1  0.11936386  0.34343722  0.49384857  1
  O  O132  1  0.16880816  0.41200461  0.74821984  1
  O  O133  1  0.14777259  0.64769736  0.00647332  1
  O  O134  1  0.07265697  0.60609942  0.25916263  1
  O  O135  1  0.13030603  0.64576546  0.49323121  1
  O  O136  1  0.12110046  0.60064140  0.76352412  1
  O  O137  1  0.10799606  0.85562797  0.01142993  1
  O  O138  1  0.12216246  0.90011397  0.25402564  1
  O  O139  1  0.10256121  0.85567549  0.49854936  1
  O  O140  1  0.13992595  0.89516406  0.76255164  1
  O  O141  1  0.37833001  0.14394245  0.01464340  1
  O  O142  1  0.38344609  0.08546596  0.25214181  1
  O  O143  1  0.34679206  0.14544870  0.49724976  1
  O  O144  1  0.39018988  0.10521217  0.74768048  1
  O  O145  1  0.39501977  0.35177840  0.02028775  1
  O  O146  1  0.36739654  0.40726740  0.25529278  1
  O  O147  1  0.39373556  0.35474598  0.50405854  1
  O  O148  1  0.35467068  0.39172342  0.75342649  1
  O  O149  1  0.35443781  0.63340874  0.00465858  1
  O  O150  1  0.37478411  0.61641570  0.23941418  1
  O  O151  1  0.38436532  0.64909014  0.51737653  1
  O  O152  1  0.34911708  0.60263306  0.75082757  1
  O  O153  1  0.38408487  0.84545573  0.00087928  1
  O  O154  1  0.36888304  0.89212232  0.23940408  1
  O  O155  1  0.37401745  0.84120594  0.49823873  1
  O  O156  1  0.33853037  0.87746490  0.75950629  1
  O  O157  1  0.60232172  0.14473165  0.02058935  1
  O  O158  1  0.61747391  0.09143045  0.24578489  1
  O  O159  1  0.64072997  0.17502588  0.48831661  1
  O  O160  1  0.62474314  0.09957586  0.75985441  1
  O  O161  1  0.59308604  0.35310498  0.00442750  1
  O  O162  1  0.65051778  0.40145856  0.25835779  1
  O  O163  1  0.60049649  0.35872014  0.50356440  1
  O  O164  1  0.64238418  0.39613978  0.76156239  1
  O  O165  1  0.62684479  0.65184527  -0.01270646  1
  O  O166  1  0.62789595  0.59811896  0.24873589  1
  O  O167  1  0.62116923  0.65171065  0.51896486  1
  O  O168  1  0.64397282  0.57963031  0.75724015  1
  O  O169  1  0.61061079  0.84721256  0.00163287  1
  O  O170  1  0.65504036  0.88515821  0.24147369  1
  O  O171  1  0.60957768  0.84620834  0.48857351  1
  O  O172  1  0.61484331  0.89068997  0.75215344  1
  O  O173  1  0.87346081  0.16513243  0.00907378  1
  O  O174  1  0.88038221  0.10005529  0.24750026  1
  O  O175  1  0.85862078  0.18407919  0.48852008  1
  O  O176  1  0.88019216  0.10784393  0.76637782  1
  O  O177  1  0.89739246  0.35198069  -0.01360550  1
  O  O178  1  0.90646379  0.41634983  0.26951518  1
  O  O179  1  0.91223971  0.37531521  0.48606105  1
  O  O180  1  0.83054324  0.40324952  0.75455782  1
  O  O181  1  0.87498853  0.65745469  -0.00332325  1
  O  O182  1  0.86811066  0.62011008  0.25667688  1
  O  O183  1  0.85906619  0.66097963  0.51329693  1
  O  O184  1  0.89843458  0.61279851  0.75610851  1
  O  O185  1  0.89782730  0.85917420  0.00300293  1
  O  O186  1  0.84279948  0.88827637  0.24848205  1
  O  O187  1  0.88998186  0.85939166  0.49611294  1
  O  O188  1  0.89392943  0.91836618  0.74958482  1
  O  O189  1  0.00225173  0.14503329  0.12175082  1
  O  O190  1  0.00165415  0.12418388  0.40343509  1
  O  O191  1  0.00191049  0.13783273  0.60115832  1
  O  O192  1  -0.00289900  0.12593122  0.90503012  1
  O  O193  1  0.02017688  0.34580178  0.14776956  1
  O  O194  1  0.00679842  0.31886930  0.35524767  1
  O  O195  1  0.00392964  0.37101327  0.65530509  1
  O  O196  1  -0.00718136  0.37699625  0.84005535  1
  O  O197  1  0.00367452  0.67238431  0.11206411  1
  O  O198  1  -0.02005909  0.61504379  0.41456920  1
  O  O199  1  0.00561656  0.64698890  0.63124708  1
  O  O200  1  0.00517324  0.61194724  0.90875903  1
  O  O201  1  -0.00999321  0.86728492  0.14968133  1
  O  O202  1  -0.01141160  0.90818394  0.36264658  1
  O  O203  1  0.01483741  0.87010390  0.65062341  1
  O  O204  1  0.01046817  0.89711115  0.86952805  1
  O  O205  1  0.25605958  0.09325910  0.14128513  1
  O  O206  1  0.25503721  0.12589292  0.34229158  1
  O  O207  1  0.25091594  0.10310649  0.63812459  1
  O  O208  1  0.25644744  0.11075190  0.87862482  1
  O  O209  1  0.25370818  0.39472715  0.13285151  1
  O  O210  1  0.24157248  0.41073653  0.38501438  1
  O  O211  1  0.25618549  0.36036546  0.61038400  1
  O  O212  1  0.25627079  0.37789301  0.90314015  1
  O  O213  1  0.23207769  0.61041076  0.15374144  1
  O  O214  1  0.21781958  0.59755398  0.36319457  1
  O  O215  1  0.24333604  0.60618618  0.63253214  1
  O  O216  1  0.24249623  0.58565703  0.87294857  1
  O  O217  1  0.25065361  0.89133421  0.10905049  1
  O  O218  1  0.23903026  0.85186058  0.37532442  1
  O  O219  1  0.24109071  0.90855053  0.62158462  1
  O  O220  1  0.24569425  0.88032350  0.90868008  1
  O  O221  1  0.49568107  0.14835771  0.15702645  1
  O  O222  1  0.49295198  0.11227692  0.40129465  1
  O  O223  1  0.49399374  0.12999642  0.58758632  1
  O  O224  1  0.49692132  0.11497108  0.89428687  1
  O  O225  1  0.49467097  0.35513188  0.17339491  1
  O  O226  1  0.50607010  0.40850295  0.36415784  1
  O  O227  1  0.49661425  0.37334680  0.65608364  1
  O  O228  1  0.49471201  0.35917812  0.85902355  1
  O  O229  1  0.49774872  0.65297009  0.11782418  1
  O  O230  1  0.51364749  0.61129433  0.39075813  1
  O  O231  1  0.50432602  0.61997304  0.65665615  1
  O  O232  1  0.50973922  0.62572873  0.85264669  1
  O  O233  1  0.49463029  0.83970660  0.13129283  1
  O  O234  1  0.50646420  0.87355015  0.34430370  1
  O  O235  1  0.49030062  0.87735107  0.64323215  1
  O  O236  1  0.49013522  0.85445709  0.86035111  1
  O  O237  1  0.74978032  0.10911425  0.14253433  1
  O  O238  1  0.74313629  0.14803529  0.34369733  1
  O  O239  1  0.74912342  0.11081744  0.62420403  1
  O  O240  1  0.74830923  0.11486772  0.89068071  1
  O  O241  1  0.75281432  0.40624672  0.10281987  1
  O  O242  1  0.74807669  0.36159716  0.41231798  1
  O  O243  1  0.74237679  0.38562276  0.61375509  1
  O  O244  1  0.74518436  0.37065681  0.90450830  1
  O  O245  1  0.75181513  0.60890403  0.10191488  1
  O  O246  1  0.74645275  0.64335789  0.38207445  1
  O  O247  1  0.75504099  0.58804638  0.63562969  1
  O  O248  1  0.75474631  0.62489643  0.87918905  1
  O  O249  1  0.74774054  0.91448039  0.07477050  1
  O  O250  1  0.74651484  0.85025074  0.38934074  1
  O  O251  1  0.75291428  0.88278882  0.62548398  1
  O  O252  1  0.75198085  0.89158132  0.85648637  1
  O  O253  1  0.10581612  -0.00215162  0.11421850  1
  O  O254  1  0.12954598  -0.00438008  0.40719100  1
  O  O255  1  0.11340128  0.00426169  0.58714503  1
  O  O256  1  0.13118236  -0.00123221  0.91006694  1
  O  O257  1  0.16708854  0.23690700  0.17362844  1
  O  O258  1  0.17021412  0.26216157  0.35537617  1
  O  O259  1  0.12713815  0.23954932  0.66366016  1
  O  O260  1  0.14213985  0.25001599  0.85875230  1
  O  O261  1  0.08769849  0.51428488  0.10650109  1
  O  O262  1  0.07593356  0.48711132  0.40256651  1
  O  O263  1  0.10169138  0.51131321  0.60518400  1
  O  O264  1  0.11883376  0.49461045  0.92253596  1
  O  O265  1  0.13670028  0.75717238  0.16431054  1
  O  O266  1  0.08764239  0.75405758  0.36209908  1
  O  O267  1  0.14848106  0.75245043  0.63813550  1
  O  O268  1  0.12634347  0.74612623  0.86718671  1
  O  O269  1  0.41265102  -0.00231904  0.10211092  1
  O  O270  1  0.35376511  0.00141443  0.39160057  1
  O  O271  1  0.38722116  0.00581738  0.59957072  1
  O  O272  1  0.37172865  -0.00688003  0.89389585  1
  O  O273  1  0.35360255  0.24514886  0.16753169  1
  O  O274  1  0.38190269  0.24288305  0.34045550  1
  O  O275  1  0.38126199  0.24612183  0.65029105  1
  O  O276  1  0.37106340  0.24232827  0.86355108  1
  O  O277  1  0.40150455  0.49960151  0.11611392  1
  O  O278  1  0.37749928  0.50069104  0.40631227  1
  O  O279  1  0.38133234  0.49798840  0.60298774  1
  O  O280  1  0.38327652  0.48822638  0.90248737  1
  O  O281  1  0.34411346  0.74635687  0.13397718  1
  O  O282  1  0.37762062  0.74840744  0.35951122  1
  O  O283  1  0.36785292  0.74089408  0.65735388  1
  O  O284  1  0.34597034  0.74527421  0.87040312  1
  O  O285  1  0.59067032  -0.00707999  0.10660111  1
  O  O286  1  0.63647757  -0.00618482  0.39038674  1
  O  O287  1  0.60688891  0.01035381  0.60043206  1
  O  O288  1  0.62414345  0.00468721  0.91854343  1
  O  O289  1  0.66268097  0.24834686  0.16141164  1
  O  O290  1  0.58067624  0.26055150  0.34482312  1
  O  O291  1  0.61350918  0.25786199  0.65488762  1
  O  O292  1  0.61431208  0.24281873  0.87027855  1
  O  O293  1  0.60910513  0.50030832  0.09173214  1
  O  O294  1  0.64003818  0.50060473  0.40523255  1
  O  O295  1  0.61673927  0.49617335  0.61536588  1
  O  O296  1  0.60487117  0.48649926  0.89790773  1
  O  O297  1  0.66052188  0.75761170  0.13528307  1
  O  O298  1  0.60422996  0.74053893  0.34851673  1
  O  O299  1  0.65248368  0.73678241  0.66002486  1
  O  O300  1  0.64097835  0.75121094  0.83587608  1
  O  O301  1  0.89551938  0.00381228  0.10746968  1
  O  O302  1  0.84394836  0.00017418  0.39406669  1
  O  O303  1  0.86893335  0.00638194  0.60287521  1
  O  O304  1  0.87153315  0.00964126  0.91632065  1
  O  O305  1  0.85630337  0.24649406  0.15526296  1
  O  O306  1  0.85535333  0.26636152  0.32761268  1
  O  O307  1  0.87623461  0.25889249  0.65828807  1
  O  O308  1  0.86479784  0.25610504  0.84349539  1
  O  O309  1  0.90988171  0.51226135  0.12775091  1
  O  O310  1  0.85341109  0.50615025  0.40275666  1
  O  O311  1  0.90839684  0.51161789  0.59819123  1
  O  O312  1  0.87516921  0.50081407  0.89947434  1
  O  O313  1  0.83859784  0.76432589  0.13452995  1
  O  O314  1  0.89531109  0.75162365  0.36547289  1
  O  O315  1  0.86670292  0.74870244  0.66077327  1
  O  O316  1  0.89809540  0.74617597  0.85922139  1
