# generated using pymatgen
data_Mg32Ti42(Bi17O64)3
_symmetry_space_group_name_H-M   'P 1'
_cell_length_a   15.94512782
_cell_length_b   15.94408865
_cell_length_c   15.96260839
_cell_angle_alpha   90.07368023
_cell_angle_beta   89.98419802
_cell_angle_gamma   89.95733577
_symmetry_Int_Tables_number   1
_chemical_formula_structural   Mg32Ti42(Bi17O64)3
_chemical_formula_sum   'Mg32 Ti42 Bi51 O192'
_cell_volume   4058.17777826
_cell_formula_units_Z   1
loop_
 _symmetry_equiv_pos_site_id
 _symmetry_equiv_pos_as_xyz
  1  'x, y, z'
loop_
 _atom_site_type_symbol
 _atom_site_label
 _atom_site_symmetry_multiplicity
 _atom_site_fract_x
 _atom_site_fract_y
 _atom_site_fract_z
 _atom_site_occupancy
  Mg  Mg0  1  0.87078151  0.62660763  0.62757758  1
  Mg  Mg1  1  0.63474311  0.37101264  0.37499612  1
  Mg  Mg2  1  0.11856208  0.62865972  0.12751480  1
  Mg  Mg3  1  0.37276086  0.86158677  0.87429025  1
  Mg  Mg4  1  0.37537986  0.11443936  0.87443961  1
  Mg  Mg5  1  0.87721961  0.37358432  0.86806202  1
  Mg  Mg6  1  0.62310727  0.87388858  0.62400042  1
  Mg  Mg7  1  0.12360107  0.88178098  0.37108154  1
  Mg  Mg8  1  0.86994035  0.87812443  0.12412133  1
  Mg  Mg9  1  0.12926757  0.11398235  0.87600554  1
  Mg  Mg10  1  0.62417661  0.37884787  0.86320400  1
  Mg  Mg11  1  0.87512656  0.88677906  0.37374270  1
  Mg  Mg12  1  0.38181036  0.63138252  0.12418301  1
  Mg  Mg13  1  0.37740841  0.11765417  0.37756427  1
  Mg  Mg14  1  0.13383332  0.37924798  0.87142390  1
  Mg  Mg15  1  0.36652211  0.63393193  0.62798165  1
  Mg  Mg16  1  0.38573403  0.62836928  0.37435714  1
  Mg  Mg17  1  0.89166431  0.12281892  0.13126983  1
  Mg  Mg18  1  0.12467209  0.36877872  0.12971238  1
  Mg  Mg19  1  0.54578850  0.76809790  -0.04649596  1
  Mg  Mg20  1  0.75251785  0.68174563  0.50557590  1
  Mg  Mg21  1  0.53094095  0.79714247  0.76554102  1
  Mg  Mg22  1  0.53153097  -0.01244600  0.29070530  1
  Mg  Mg23  1  0.02701371  0.26361901  0.26804700  1
  Mg  Mg24  1  0.00007369  -0.02534444  0.21130541  1
  Mg  Mg25  1  0.49211019  0.51618008  0.68633259  1
  Mg  Mg26  1  0.74909041  0.03069940  0.19806453  1
  Mg  Mg27  1  0.55896857  0.75360521  0.25851965  1
  Mg  Mg28  1  0.78337358  0.45384116  0.49213255  1
  Mg  Mg29  1  0.21201104  0.74102821  0.75755559  1
  Mg  Mg30  1  0.26664294  -0.00422355  0.01201203  1
  Mg  Mg31  1  0.25173465  0.20140076  0.75386847  1
  Ti  Ti32  1  0.87902818  0.61804501  0.87900844  1
  Ti  Ti33  1  0.13211512  0.11381351  0.62381930  1
  Ti  Ti34  1  0.12584923  0.62721511  0.87897921  1
  Ti  Ti35  1  0.37048730  0.86785878  0.62792661  1
  Ti  Ti36  1  0.88522353  0.12934300  0.87753143  1
  Ti  Ti37  1  0.11847824  0.87164400  0.86663281  1
  Ti  Ti38  1  0.38077177  0.87901818  0.11420322  1
  Ti  Ti39  1  0.87954668  0.36191991  0.12969559  1
  Ti  Ti40  1  0.61805759  0.62690667  0.11978753  1
  Ti  Ti41  1  0.36254980  0.36135239  0.12143448  1
  Ti  Ti42  1  0.61445479  0.12006628  0.11888911  1
  Ti  Ti43  1  0.11288613  0.38118957  0.37831353  1
  Ti  Ti44  1  0.37676995  0.11464527  0.62912784  1
  Ti  Ti45  1  0.37140223  0.87494472  0.37122236  1
  Ti  Ti46  1  0.88940285  0.12315727  0.36092478  1
  Ti  Ti47  1  0.62550769  0.62882066  0.37337727  1
  Ti  Ti48  1  0.62673138  0.62702627  0.63259576  1
  Ti  Ti49  1  0.12521696  0.86896627  0.62933534  1
  Ti  Ti50  1  0.61995141  0.61189380  0.87464823  1
  Ti  Ti51  1  0.64348340  0.87506799  0.37401694  1
  Ti  Ti52  1  0.61843781  0.36870823  0.62861416  1
  Ti  Ti53  1  0.63284618  0.12314974  0.37586411  1
  Ti  Ti54  1  0.62042597  0.12696968  0.86484855  1
  Ti  Ti55  1  0.60932066  0.13124503  0.60675610  1
  Ti  Ti56  1  0.11697413  0.63147478  0.36537860  1
  Ti  Ti57  1  0.62286892  0.86891137  0.13186807  1
  Ti  Ti58  1  0.37493303  0.12263265  0.11438863  1
  Ti  Ti59  1  0.12689923  0.62308479  0.61913886  1
  Ti  Ti60  1  0.87337039  0.36126598  0.37002040  1
  Ti  Ti61  1  0.12673473  0.87740073  0.12824132  1
  Ti  Ti62  1  0.88595276  0.38070469  0.62305696  1
  Ti  Ti63  1  0.88184491  0.86675464  0.88372095  1
  Ti  Ti64  1  0.40030873  0.63544270  0.87619004  1
  Ti  Ti65  1  0.36834358  0.37959557  0.63394981  1
  Ti  Ti66  1  0.86873251  0.86484649  0.62570084  1
  Ti  Ti67  1  0.86725732  0.63108814  0.37245435  1
  Ti  Ti68  1  0.36906434  0.37846713  0.86913691  1
  Ti  Ti69  1  0.13643032  0.38923644  0.63264739  1
  Ti  Ti70  1  0.62253941  0.36293356  0.13576440  1
  Ti  Ti71  1  0.12728757  0.13934475  0.13124432  1
  Ti  Ti72  1  0.12433738  0.12544233  0.36050558  1
  Ti  Ti73  1  0.87770619  0.62042614  0.12445375  1
  Bi  Bi74  1  0.47503893  0.25147915  0.73180352  1
  Bi  Bi75  1  0.76975160  0.20192892  0.72201393  1
  Bi  Bi76  1  0.47789924  0.49992340  0.02367763  1
  Bi  Bi77  1  0.77629623  0.02817318  0.00064359  1
  Bi  Bi78  1  0.25213615  -0.01655825  0.48025724  1
  Bi  Bi79  1  0.25866659  0.73698403  0.48723369  1
  Bi  Bi80  1  0.51037877  0.73804674  0.53202998  1
  Bi  Bi81  1  0.26903623  0.53868599  0.75865731  1
  Bi  Bi82  1  0.72788135  0.74163073  0.77535241  1
  Bi  Bi83  1  0.74815505  0.48231211  0.71667369  1
  Bi  Bi84  1  0.75140833  0.46886719  -0.01115075  1
  Bi  Bi85  1  0.48220314  -0.01631891  0.76662444  1
  Bi  Bi86  1  0.26370264  0.51533667  0.26338258  1
  Bi  Bi87  1  0.76652639  0.74787887  0.24156906  1
  Bi  Bi88  1  0.75249964  0.48835947  0.22913925  1
  Bi  Bi89  1  0.02042844  0.26702326  0.52100478  1
  Bi  Bi90  1  0.74453158  -0.01259872  0.52758083  1
  Bi  Bi91  1  0.78916548  0.23057988  0.50442037  1
  Bi  Bi92  1  0.00630259  0.49772556  0.76384292  1
  Bi  Bi93  1  0.02343880  0.22309940  0.74852180  1
  Bi  Bi94  1  0.25326298  0.75579897  0.00972465  1
  Bi  Bi95  1  -0.00230582  0.78165118  0.50166841  1
  Bi  Bi96  1  0.26676054  0.23699081  -0.02464795  1
  Bi  Bi97  1  0.51043246  -0.02546639  0.49854666  1
  Bi  Bi98  1  0.02901392  0.48307036  0.00086298  1
  Bi  Bi99  1  0.75732004  0.22339790  0.23456116  1
  Bi  Bi100  1  0.28485517  0.48840417  0.47096273  1
  Bi  Bi101  1  0.52937074  0.49900724  0.48218476  1
  Bi  Bi102  1  0.49277789  0.21780544  0.26197183  1
  Bi  Bi103  1  0.25382384  0.52169445  0.02112874  1
  Bi  Bi104  1  0.00607344  0.49504578  0.24385671  1
  Bi  Bi105  1  0.49879072  0.27547157  -0.02157917  1
  Bi  Bi106  1  0.26641281  0.01052115  0.24558487  1
  Bi  Bi107  1  -0.03383896  0.00541046  0.73125381  1
  Bi  Bi108  1  0.01714633  0.76140073  0.01237392  1
  Bi  Bi109  1  0.48516620  0.46302635  0.26160472  1
  Bi  Bi110  1  -0.02632798  0.02922261  0.51278833  1
  Bi  Bi111  1  0.26618602  0.26493678  0.28968802  1
  Bi  Bi112  1  -0.01257205  0.77757961  0.26259243  1
  Bi  Bi113  1  0.24309480  -0.02823617  0.76994770  1
  Bi  Bi114  1  0.72325580  -0.03481518  0.78073291  1
  Bi  Bi115  1  0.28373811  0.75197462  0.23779975  1
  Bi  Bi116  1  0.73300901  0.25615905  -0.02315956  1
  Bi  Bi117  1  0.02605153  0.01229563  0.01232309  1
  Bi  Bi118  1  0.25651300  0.22512692  0.50663308  1
  Bi  Bi119  1  0.01570052  0.25537000  -0.02063941  1
  Bi  Bi120  1  -0.02221194  0.53496208  0.49502048  1
  Bi  Bi121  1  0.75414507  0.74031583  0.00399635  1
  Bi  Bi122  1  0.54186247  -0.02681911  -0.01840439  1
  Bi  Bi123  1  -0.01052701  0.72465681  0.74313808  1
  Bi  Bi124  1  0.47989798  0.28797558  0.47412521  1
  O  O125  1  0.10031830  0.14359406  0.00474403  1
  O  O126  1  0.14543288  0.10161823  0.24866602  1
  O  O127  1  0.12790289  0.15882440  0.50413826  1
  O  O128  1  0.13578737  0.13339583  0.74492860  1
  O  O129  1  0.10236273  0.36025929  0.00149518  1
  O  O130  1  0.09663710  0.39068615  0.25310522  1
  O  O131  1  0.12427641  0.35499565  0.49703878  1
  O  O132  1  0.12903255  0.41234765  0.74575661  1
  O  O133  1  0.11676611  0.66225806  -0.00667696  1
  O  O134  1  0.12055411  0.59655746  0.25195778  1
  O  O135  1  0.13540332  0.65147441  0.50609131  1
  O  O136  1  0.10395283  0.60406275  0.75753505  1
  O  O137  1  0.13568351  0.83672251  -0.01036941  1
  O  O138  1  0.10665527  0.90710004  0.23887132  1
  O  O139  1  0.13189659  0.85106785  0.51412074  1
  O  O140  1  0.10427658  0.90825700  0.75255837  1
  O  O141  1  0.35414889  0.09619636  0.00135318  1
  O  O142  1  0.34745548  0.12382224  0.23844558  1
  O  O143  1  0.35972273  0.12069256  0.50855468  1
  O  O144  1  0.36876626  0.15340776  0.74563663  1
  O  O145  1  0.39116698  0.37946239  -0.00009034  1
  O  O146  1  0.39214552  0.36258075  0.23565921  1
  O  O147  1  0.39466815  0.39509027  0.51572050  1
  O  O148  1  0.36070768  0.33888992  0.75448093  1
  O  O149  1  0.37669761  0.60934930  -0.00723219  1
  O  O150  1  0.35151388  0.62636841  0.24903221  1
  O  O151  1  0.34074226  0.61575763  0.49947128  1
  O  O152  1  0.38132755  0.62312870  0.75960085  1
  O  O153  1  0.33881942  0.88259642  -0.00000273  1
  O  O154  1  0.36125421  0.87478026  0.25145500  1
  O  O155  1  0.36745804  0.90419642  0.50274934  1
  O  O156  1  0.41763334  0.85321683  0.73743246  1
  O  O157  1  0.61252440  0.13480977  0.00701450  1
  O  O158  1  0.65621273  0.11064281  0.25600625  1
  O  O159  1  0.58824747  0.14174273  0.49598999  1
  O  O160  1  0.64694814  0.11681709  0.75213920  1
  O  O161  1  0.63779911  0.36445300  0.01535197  1
  O  O162  1  0.61835304  0.40291651  0.25104720  1
  O  O163  1  0.59766249  0.37203202  0.50861907  1
  O  O164  1  0.65423545  0.38808497  0.74353303  1
  O  O165  1  0.61568752  0.65824686  -0.00213397  1
  O  O166  1  0.62152283  0.63569441  0.25496690  1
  O  O167  1  0.62933125  0.65508376  0.50885187  1
  O  O168  1  0.63485582  0.60842619  0.75470728  1
  O  O169  1  0.61585163  0.86009570  0.00947923  1
  O  O170  1  0.59322348  0.88325359  0.25258940  1
  O  O171  1  0.63549893  0.88360392  0.49401219  1
  O  O172  1  0.60899669  0.89804249  0.74611750  1
  O  O173  1  0.89038994  0.12101060  -0.00065420  1
  O  O174  1  0.83950389  0.10556359  0.25500099  1
  O  O175  1  0.90533964  0.15231146  0.48429474  1
  O  O176  1  0.85769025  0.10210124  0.75826085  1
  O  O177  1  0.86522680  0.35406036  0.01540098  1
  O  O178  1  0.87770021  0.40491476  0.25915130  1
  O  O179  1  0.88064816  0.35747347  0.49855554  1
  O  O180  1  0.86271315  0.40062278  0.73980511  1
  O  O181  1  0.86857272  0.65250635  0.00642339  1
  O  O182  1  0.85661642  0.60514342  0.25299841  1
  O  O183  1  0.87445234  0.64837738  0.49675115  1
  O  O184  1  0.88603115  0.61126659  0.75843487  1
  O  O185  1  0.85927704  0.84893476  -0.00265520  1
  O  O186  1  0.91496352  0.89376132  0.24767749  1
  O  O187  1  0.87145323  0.85129894  0.50641308  1
  O  O188  1  0.88535049  0.89558899  0.75017951  1
  O  O189  1  0.01117461  0.07524800  0.13788271  1
  O  O190  1  0.00176265  0.14400680  0.33527678  1
  O  O191  1  0.01295014  0.11736109  0.62912161  1
  O  O192  1  -0.00037573  0.09878004  0.85129460  1
  O  O193  1  -0.01126049  0.40766137  0.12710518  1
  O  O194  1  -0.00516174  0.33642665  0.37596091  1
  O  O195  1  0.00103749  0.38746428  0.62030860  1
  O  O196  1  0.00088039  0.41029967  0.87216594  1
  O  O197  1  -0.01028940  0.60076387  0.12493863  1
  O  O198  1  -0.00441469  0.63324250  0.38301485  1
  O  O199  1  0.00522906  0.63091690  0.62411745  1
  O  O200  1  -0.00280505  0.59995515  0.88339438  1
  O  O201  1  0.00472536  0.89957737  0.09702357  1
  O  O202  1  0.00268384  0.85811566  0.39021907  1
  O  O203  1  0.00155202  0.88037325  0.61272103  1
  O  O204  1  0.00348370  0.88722002  0.89464050  1
  O  O205  1  0.23913909  0.14459151  0.11278738  1
  O  O206  1  0.24761187  0.15212638  0.38222951  1
  O  O207  1  0.25209923  0.15530887  0.63016334  1
  O  O208  1  0.24724930  0.15490986  0.87023684  1
  O  O209  1  0.25151762  0.35161969  0.12849486  1
  O  O210  1  0.23432507  0.38698762  0.36198869  1
  O  O211  1  0.25167458  0.36969477  0.61637894  1
  O  O212  1  0.25535254  0.34926503  0.89134694  1
  O  O213  1  0.24668852  0.63913902  0.10375908  1
  O  O214  1  0.22944170  0.58676343  0.37670394  1
  O  O215  1  0.24083203  0.64523462  0.66335377  1
  O  O216  1  0.24343881  0.64926395  0.85663566  1
  O  O217  1  0.23803785  0.83749882  0.12747721  1
  O  O218  1  0.24628869  0.87522336  0.39241631  1
  O  O219  1  0.25225189  0.86969161  0.64800183  1
  O  O220  1  0.24719375  0.84544069  0.83054732  1
  O  O221  1  0.49430137  0.10941444  0.13953186  1
  O  O222  1  0.49790445  0.10082224  0.33589565  1
  O  O223  1  0.49684635  0.11970078  0.64487608  1
  O  O224  1  0.50704780  0.10013023  0.86368509  1
  O  O225  1  0.50922407  0.39960030  0.12209528  1
  O  O226  1  0.50762951  0.39868599  0.38095872  1
  O  O227  1  0.50012071  0.38924161  0.66213526  1
  O  O228  1  0.49688059  0.36939094  0.87539496  1
  O  O229  1  0.50387302  0.59735608  0.12533959  1
  O  O230  1  0.50809310  0.61840373  0.38860844  1
  O  O231  1  0.49350606  0.62239199  0.61375711  1
  O  O232  1  0.50651167  0.58970942  0.87737842  1
  O  O233  1  0.48961797  0.90019459  0.10938675  1
  O  O234  1  0.48643227  0.89980922  0.37982217  1
  O  O235  1  0.49740512  0.87819620  0.59366188  1
  O  O236  1  0.49869094  0.89523650  0.88006852  1
  O  O237  1  0.74372729  0.14352760  0.11867837  1
  O  O238  1  0.74303343  0.12866217  0.40950909  1
  O  O239  1  0.73860144  0.13727215  0.60268857  1
  O  O240  1  0.75766189  0.14461425  0.89003303  1
  O  O241  1  0.75083544  0.36448029  0.15290047  1
  O  O242  1  0.75719842  0.37755049  0.39265733  1
  O  O243  1  0.74013585  0.39532818  0.60277551  1
  O  O244  1  0.75274633  0.36062967  0.89141364  1
  O  O245  1  0.74409082  0.66213851  0.12327829  1
  O  O246  1  0.74973779  0.64712209  0.38561954  1
  O  O247  1  0.74337518  0.64027295  0.62334782  1
  O  O248  1  0.75257194  0.65564940  0.88121370  1
  O  O249  1  0.73856062  0.85409992  0.14579262  1
  O  O250  1  0.75093760  0.87603586  0.35054150  1
  O  O251  1  0.75111179  0.88967118  0.63062737  1
  O  O252  1  0.75811017  0.85081089  0.85494405  1
  O  O253  1  0.15252453  -0.01345322  0.07940906  1
  O  O254  1  0.12889470  0.01448820  0.39796931  1
  O  O255  1  0.14350173  0.00296377  0.61189083  1
  O  O256  1  0.16761881  -0.01393577  0.89409546  1
  O  O257  1  0.08926990  0.24347383  0.15595913  1
  O  O258  1  0.13138176  0.25178129  0.34279145  1
  O  O259  1  0.10970974  0.26673938  0.64276666  1
  O  O260  1  0.09338799  0.25349384  0.86375759  1
  O  O261  1  0.13836680  0.50026852  0.09698294  1
  O  O262  1  0.08072623  0.49202592  0.38979271  1
  O  O263  1  0.13460091  0.50728490  0.60202687  1
  O  O264  1  0.14295203  0.51167881  0.90867812  1
  O  O265  1  0.08639926  0.75744082  0.13288326  1
  O  O266  1  0.14102853  0.74102387  0.35429295  1
  O  O267  1  0.12047733  0.75704736  0.66294686  1
  O  O268  1  0.10687199  0.75160293  0.84236341  1
  O  O269  1  0.33823810  -0.00532879  0.12667966  1
  O  O270  1  0.34146500  0.00018895  0.36859188  1
  O  O271  1  0.36789770  0.00187280  0.64779396  1
  O  O272  1  0.36100509  -0.01003291  0.84280931  1
  O  O273  1  0.39058171  0.24171027  0.10287453  1
  O  O274  1  0.39000492  0.24473133  0.36868773  1
  O  O275  1  0.40207845  0.25780586  0.61157418  1
  O  O276  1  0.39025723  0.24105299  0.90334607  1
  O  O277  1  0.36207715  0.49205565  0.11716297  1
  O  O278  1  0.36624380  0.50146608  0.36020303  1
  O  O279  1  0.36854931  0.49637413  0.65515873  1
  O  O280  1  0.35523465  0.49163876  0.86549629  1
  O  O281  1  0.37668717  0.75758883  0.13112671  1
  O  O282  1  0.36156762  0.75453738  0.38075631  1
  O  O283  1  0.37102904  0.75621044  0.59059133  1
  O  O284  1  0.42807814  0.74433345  0.89345063  1
  O  O285  1  0.64284651  0.00201662  0.12359936  1
  O  O286  1  0.62088428  0.00140017  0.38312539  1
  O  O287  1  0.62736586  0.01108642  0.60026353  1
  O  O288  1  0.65085989  0.00953403  0.89394790  1
  O  O289  1  0.60827962  0.24900947  0.15055095  1
  O  O290  1  0.59771986  0.24264247  0.35652856  1
  O  O291  1  0.61214318  0.25232460  0.63936897  1
  O  O292  1  0.61865349  0.24679097  0.88480045  1
  O  O293  1  0.65566595  0.51535191  0.12007211  1
  O  O294  1  0.64267647  0.51359407  0.40416135  1
  O  O295  1  0.61042680  0.50899715  0.62307545  1
  O  O296  1  0.65165643  0.50281806  0.89582508  1
  O  O297  1  0.59475135  0.75481167  0.14235819  1
  O  O298  1  0.61323530  0.75966915  0.36828497  1
  O  O299  1  0.59192599  0.75011168  0.65034403  1
  O  O300  1  0.60745305  0.74089070  0.84790729  1
  O  O301  1  0.84408640  0.00054481  0.11857642  1
  O  O302  1  0.88654525  0.01205657  0.40188684  1
  O  O303  1  0.87823865  -0.00203622  0.60407115  1
  O  O304  1  0.85730255  -0.00915123  0.89372219  1
  O  O305  1  0.89396305  0.25168856  0.16506410  1
  O  O306  1  0.85478839  0.24608994  0.35293262  1
  O  O307  1  0.86468798  0.25987471  0.63224331  1
  O  O308  1  0.90348857  0.24402304  0.86378378  1
  O  O309  1  0.84033759  0.50648147  0.11883390  1
  O  O310  1  0.87465009  0.50489692  0.40543020  1
  O  O311  1  0.86472058  0.49986350  0.59171460  1
  O  O312  1  0.85088274  0.50665531  0.89608753  1
  O  O313  1  0.88472395  0.74758664  0.16035761  1
  O  O314  1  0.87596265  0.74907034  0.34235533  1
  O  O315  1  0.87859896  0.75366531  0.65274041  1
  O  O316  1  0.90092548  0.74921303  0.86117012  1
