# generated using pymatgen
data_Mg32Ti42(Bi17O64)3
_symmetry_space_group_name_H-M   'P 1'
_cell_length_a   15.94380874
_cell_length_b   15.92255826
_cell_length_c   15.93700894
_cell_angle_alpha   90.11159006
_cell_angle_beta   90.01494395
_cell_angle_gamma   90.09615278
_symmetry_Int_Tables_number   1
_chemical_formula_structural   Mg32Ti42(Bi17O64)3
_chemical_formula_sum   'Mg32 Ti42 Bi51 O192'
_cell_volume   4045.85476290
_cell_formula_units_Z   1
loop_
 _symmetry_equiv_pos_site_id
 _symmetry_equiv_pos_as_xyz
  1  'x, y, z'
loop_
 _atom_site_type_symbol
 _atom_site_label
 _atom_site_symmetry_multiplicity
 _atom_site_fract_x
 _atom_site_fract_y
 _atom_site_fract_z
 _atom_site_occupancy
  Mg  Mg0  1  0.86795270  0.36610332  0.38044663  1
  Mg  Mg1  1  0.62223160  0.37039957  0.62380782  1
  Mg  Mg2  1  0.37701356  0.12107782  0.35743001  1
  Mg  Mg3  1  0.13376417  0.86725653  0.86942131  1
  Mg  Mg4  1  0.88281047  0.38780527  0.87120011  1
  Mg  Mg5  1  0.86706872  0.61349859  0.12934053  1
  Mg  Mg6  1  0.36860524  0.63407037  0.88584327  1
  Mg  Mg7  1  0.12533956  0.37466347  0.12303756  1
  Mg  Mg8  1  0.86277441  0.62671142  0.63282121  1
  Mg  Mg9  1  0.62992517  0.37572101  0.87107114  1
  Mg  Mg10  1  0.11927467  0.12263856  0.37469932  1
  Mg  Mg11  1  0.12347329  0.37305746  0.38671805  1
  Mg  Mg12  1  0.88114424  0.12949878  0.11734857  1
  Mg  Mg13  1  0.61634611  0.63479844  0.87339119  1
  Mg  Mg14  1  0.38686335  0.88550469  0.63046519  1
  Mg  Mg15  1  0.62304502  0.88703279  0.87128124  1
  Mg  Mg16  1  0.63040019  0.38273799  0.12166920  1
  Mg  Mg17  1  0.61669239  0.36904074  0.37708165  1
  Mg  Mg18  1  0.88343985  0.86917801  0.86610841  1
  Mg  Mg19  1  0.50051557  0.05464117  0.21980758  1
  Mg  Mg20  1  0.76304585  0.00717317  0.56082817  1
  Mg  Mg21  1  0.28132409  0.51717876  0.48066576  1
  Mg  Mg22  1  0.72071928  0.78587103  0.74430133  1
  Mg  Mg23  1  0.76927664  0.24534299  0.54308500  1
  Mg  Mg24  1  0.50395588  0.76340749  0.01226840  1
  Mg  Mg25  1  0.48222114  0.00599002  0.80913085  1
  Mg  Mg26  1  0.01782579  0.72497280  0.69839048  1
  Mg  Mg27  1  0.53620694  -0.00003388  0.00563542  1
  Mg  Mg28  1  0.74110968  0.18332312  0.23733086  1
  Mg  Mg29  1  0.77966551  -0.02721142  0.76941387  1
  Mg  Mg30  1  0.24688884  0.51913261  -0.02416176  1
  Mg  Mg31  1  -0.04816191  0.71097729  0.50533170  1
  Ti  Ti32  1  0.11940233  0.38718562  0.86805101  1
  Ti  Ti33  1  0.61799318  0.89555292  0.63841109  1
  Ti  Ti34  1  0.63708712  0.11187644  0.87166754  1
  Ti  Ti35  1  0.11792969  0.13658981  0.11431423  1
  Ti  Ti36  1  0.11499198  0.87653596  0.38479204  1
  Ti  Ti37  1  0.12302181  0.38324552  0.62026483  1
  Ti  Ti38  1  0.12267789  0.61607142  0.12083145  1
  Ti  Ti39  1  0.62738723  0.62584003  0.12130489  1
  Ti  Ti40  1  0.87244405  0.86315732  0.63370142  1
  Ti  Ti41  1  0.35130944  0.61836528  0.13003261  1
  Ti  Ti42  1  0.39056737  0.89228050  0.11120366  1
  Ti  Ti43  1  0.12443349  0.62045755  0.37286624  1
  Ti  Ti44  1  0.12000408  0.13234617  0.86511453  1
  Ti  Ti45  1  0.63329896  0.87659607  0.36579064  1
  Ti  Ti46  1  0.88042357  0.10981094  0.87628005  1
  Ti  Ti47  1  0.13436494  0.62357370  0.60508578  1
  Ti  Ti48  1  0.37041322  0.62453518  0.36948185  1
  Ti  Ti49  1  0.61921217  0.87878252  0.12000032  1
  Ti  Ti50  1  0.88855840  0.63572157  0.86808402  1
  Ti  Ti51  1  0.63104726  0.12631687  0.63284857  1
  Ti  Ti52  1  0.37732581  0.37848153  0.61387596  1
  Ti  Ti53  1  0.86912958  0.37153240  0.12685194  1
  Ti  Ti54  1  0.37626090  0.13459795  0.87800864  1
  Ti  Ti55  1  0.38764310  0.12589050  0.61957849  1
  Ti  Ti56  1  0.37634688  0.36801419  0.37931339  1
  Ti  Ti57  1  0.87626657  0.38525451  0.62606054  1
  Ti  Ti58  1  0.62468136  0.12329855  0.36926325  1
  Ti  Ti59  1  0.87401283  0.11991537  0.63872158  1
  Ti  Ti60  1  0.62110353  0.63093675  0.36778655  1
  Ti  Ti61  1  0.12212029  0.12124708  0.62115131  1
  Ti  Ti62  1  0.85758945  0.62809963  0.37320564  1
  Ti  Ti63  1  0.13137974  0.86825543  0.61738958  1
  Ti  Ti64  1  0.37361033  0.14188372  0.11778133  1
  Ti  Ti65  1  0.87008797  0.87306908  0.38996332  1
  Ti  Ti66  1  0.37474738  0.87963879  0.88675345  1
  Ti  Ti67  1  0.12446415  0.63563106  0.87754630  1
  Ti  Ti68  1  0.36643389  0.38049039  0.13004397  1
  Ti  Ti69  1  0.62502227  0.63147895  0.64444148  1
  Ti  Ti70  1  0.63333998  0.11936569  0.11382426  1
  Ti  Ti71  1  0.37777199  0.87741894  0.35798255  1
  Ti  Ti72  1  0.86180914  0.12872574  0.38193055  1
  Ti  Ti73  1  0.37698139  0.62362135  0.62188370  1
  Bi  Bi74  1  0.48013430  0.73558411  0.22210459  1
  Bi  Bi75  1  0.47178340  0.51151841  0.00511920  1
  Bi  Bi76  1  0.22022382  0.79382727  0.02429483  1
  Bi  Bi77  1  0.27771875  0.76685964  0.49775632  1
  Bi  Bi78  1  0.22730766  0.76972808  0.24945962  1
  Bi  Bi79  1  0.25751879  0.51288172  0.74818083  1
  Bi  Bi80  1  -0.01674903  0.26887912  -0.01354135  1
  Bi  Bi81  1  0.72839388  0.48424272  0.50734384  1
  Bi  Bi82  1  0.74153640  0.51970004  -0.02934737  1
  Bi  Bi83  1  0.02093384  -0.02640403  -0.01768048  1
  Bi  Bi84  1  0.72633426  0.77104113  0.51731793  1
  Bi  Bi85  1  0.76327571  0.75506867  0.20431130  1
  Bi  Bi86  1  0.53476252  0.25582134  0.22621959  1
  Bi  Bi87  1  0.25184547  0.22750864  0.47574436  1
  Bi  Bi88  1  -0.03014917  0.76992763  0.04116496  1
  Bi  Bi89  1  0.00944279  -0.04161015  0.21687929  1
  Bi  Bi90  1  -0.00189380  0.73985603  0.27187122  1
  Bi  Bi91  1  0.74309784  0.75549599  -0.03958251  1
  Bi  Bi92  1  0.26950631  0.01398048  0.73062129  1
  Bi  Bi93  1  0.26381563  0.77118371  0.73861781  1
  Bi  Bi94  1  0.23873716  0.47830204  0.27693076  1
  Bi  Bi95  1  0.72570593  0.49701921  0.74886121  1
  Bi  Bi96  1  -0.02248004  0.25397528  0.25180036  1
  Bi  Bi97  1  0.48182544  0.24894457  0.76364237  1
  Bi  Bi98  1  -0.01809173  0.51552479  0.47989981  1
  Bi  Bi99  1  0.24126827  0.02047335  -0.02325119  1
  Bi  Bi100  1  0.23075907  0.00440415  0.21194030  1
  Bi  Bi101  1  -0.01266162  0.52263472  0.00326419  1
  Bi  Bi102  1  0.74405259  0.27528854  -0.00643162  1
  Bi  Bi103  1  0.50513721  0.00617113  0.46508996  1
  Bi  Bi104  1  0.49875199  0.28863519  -0.01114714  1
  Bi  Bi105  1  0.73704307  0.46625723  0.26791646  1
  Bi  Bi106  1  0.47710091  0.47787539  0.77061983  1
  Bi  Bi107  1  -0.00991387  0.26008111  0.73911095  1
  Bi  Bi108  1  0.49144517  0.74977165  0.78208141  1
  Bi  Bi109  1  0.02248588  -0.02950284  0.75121906  1
  Bi  Bi110  1  0.50704349  0.50224016  0.24939642  1
  Bi  Bi111  1  0.23525872  0.29381702  -0.01165567  1
  Bi  Bi112  1  0.78846798  -0.02412132  0.01170021  1
  Bi  Bi113  1  0.22767859  0.24709788  0.25127946  1
  Bi  Bi114  1  0.75618871  0.26142276  0.77878878  1
  Bi  Bi115  1  0.00433154  0.47974830  0.23795867  1
  Bi  Bi116  1  -0.01700614  0.01670183  0.49456141  1
  Bi  Bi117  1  0.50343440  0.76593503  0.48083663  1
  Bi  Bi118  1  0.24129210  0.25997316  0.72337400  1
  Bi  Bi119  1  0.78998605  -0.02241270  0.23827842  1
  Bi  Bi120  1  -0.01573794  0.26300324  0.49108213  1
  Bi  Bi121  1  0.25163391  -0.00125993  0.47753297  1
  Bi  Bi122  1  0.52311127  0.23593758  0.50728670  1
  Bi  Bi123  1  0.00006394  0.52368338  0.74800967  1
  Bi  Bi124  1  0.50882633  0.51939057  0.49837540  1
  O  O125  1  0.13215167  0.12427562  -0.00369877  1
  O  O126  1  0.14609172  0.12649749  0.24486806  1
  O  O127  1  0.12850390  0.14278734  0.50819868  1
  O  O128  1  0.11588341  0.10685026  0.75119779  1
  O  O129  1  0.10473968  0.35073976  -0.00411816  1
  O  O130  1  0.15193436  0.36995991  0.25307727  1
  O  O131  1  0.09657650  0.36818171  0.51094318  1
  O  O132  1  0.14510474  0.38013658  0.75496872  1
  O  O133  1  0.14846264  0.59974831  0.00599049  1
  O  O134  1  0.09266441  0.62264020  0.25549980  1
  O  O135  1  0.16852868  0.61159916  0.49735259  1
  O  O136  1  0.09446951  0.63289328  0.76112692  1
  O  O137  1  0.10566063  0.86352973  0.00217194  1
  O  O138  1  0.14953343  0.88494809  0.26083547  1
  O  O139  1  0.10653157  0.85896965  0.50174477  1
  O  O140  1  0.13934000  0.88594726  0.74277356  1
  O  O141  1  0.37609074  0.14886420  -0.00683448  1
  O  O142  1  0.37717003  0.09996424  0.23048840  1
  O  O143  1  0.39456190  0.14192714  0.50429047  1
  O  O144  1  0.38820666  0.08239787  0.75319908  1
  O  O145  1  0.40558640  0.38718003  0.00651980  1
  O  O146  1  0.34525968  0.38637864  0.24988012  1
  O  O147  1  0.38554669  0.35302503  0.49643935  1
  O  O148  1  0.36232767  0.40940600  0.73553271  1
  O  O149  1  0.35015408  0.59405923  0.01103623  1
  O  O150  1  0.39980295  0.61353431  0.25170922  1
  O  O151  1  0.35174758  0.63729004  0.49809188  1
  O  O152  1  0.38330435  0.58734428  0.73748652  1
  O  O153  1  0.40036571  0.84023145  -0.00060634  1
  O  O154  1  0.37005998  0.88966216  0.24535930  1
  O  O155  1  0.39067596  0.84777808  0.50701582  1
  O  O156  1  0.34231061  0.89154084  0.75521987  1
  O  O157  1  0.61991787  0.11029588  0.00037891  1
  O  O158  1  0.61948129  0.12349597  0.24886294  1
  O  O159  1  0.59246458  0.11803504  0.49139353  1
  O  O160  1  0.63476079  0.13085528  0.74637535  1
  O  O161  1  0.61314604  0.36439881  -0.00195993  1
  O  O162  1  0.64185622  0.37040435  0.24922092  1
  O  O163  1  0.61263589  0.41145378  0.49802433  1
  O  O164  1  0.66304771  0.36615680  0.74603598  1
  O  O165  1  0.64666849  0.61928315  0.00300353  1
  O  O166  1  0.58766428  0.63753716  0.25026641  1
  O  O167  1  0.62912521  0.60170645  0.49761136  1
  O  O168  1  0.58530675  0.62766063  0.74954426  1
  O  O169  1  0.59205125  0.87782935  0.00485687  1
  O  O170  1  0.63943987  0.87180066  0.25408451  1
  O  O171  1  0.60663029  0.85565371  0.51235513  1
  O  O172  1  0.66816455  0.90356388  0.74556323  1
  O  O173  1  0.88489977  0.08974535  -0.00947252  1
  O  O174  1  0.86427561  0.16140779  0.26269855  1
  O  O175  1  0.86067365  0.07805354  0.50191650  1
  O  O176  1  0.87332267  0.14995231  0.74958927  1
  O  O177  1  0.91132698  0.38843284  0.00096338  1
  O  O178  1  0.86107012  0.34888649  0.24814082  1
  O  O179  1  0.90948512  0.38759309  0.50712803  1
  O  O180  1  0.86505555  0.34769379  0.74625535  1
  O  O181  1  0.86509658  0.58945105  -0.00064310  1
  O  O182  1  0.88421720  0.65227444  0.25813853  1
  O  O183  1  0.87034039  0.60486452  0.49847786  1
  O  O184  1  0.91905670  0.65108570  0.75238247  1
  O  O185  1  0.89981486  0.89759390  -0.00337501  1
  O  O186  1  0.85392040  0.85890214  0.26636912  1
  O  O187  1  0.89982307  0.90019571  0.50422656  1
  O  O188  1  0.83323917  0.84954476  0.74407478  1
  O  O189  1  0.00756421  0.15517375  0.12444979  1
  O  O190  1  -0.01404991  0.13261201  0.39325183  1
  O  O191  1  -0.00743213  0.10446440  0.61556013  1
  O  O192  1  0.00040752  0.14143294  0.87355843  1
  O  O193  1  0.00064825  0.35662964  0.15778201  1
  O  O194  1  -0.00593614  0.33726429  0.36675696  1
  O  O195  1  0.00135866  0.37336976  0.65685514  1
  O  O196  1  0.00156781  0.33825205  0.85966618  1
  O  O197  1  0.00472480  0.63950894  0.10467344  1
  O  O198  1  0.01454523  0.64488294  0.41274618  1
  O  O199  1  0.01024516  0.63980225  0.59920462  1
  O  O200  1  0.00380103  0.64136307  0.91309199  1
  O  O201  1  -0.00300603  0.83539054  0.15966957  1
  O  O202  1  0.00074381  0.87132976  0.35830015  1
  O  O203  1  -0.00844859  0.85604133  0.66181760  1
  O  O204  1  0.00851653  0.88760483  0.86296141  1
  O  O205  1  0.26030067  0.09832026  0.11017320  1
  O  O206  1  0.25505471  0.11229087  0.39717459  1
  O  O207  1  0.24627627  0.13551437  0.63869258  1
  O  O208  1  0.25679557  0.10283365  0.86440269  1
  O  O209  1  0.25774451  0.40019200  0.08806439  1
  O  O210  1  0.25197858  0.41280827  0.40009130  1
  O  O211  1  0.24226099  0.35521099  0.61633838  1
  O  O212  1  0.23105557  0.40967072  0.90931158  1
  O  O213  1  0.24461728  0.59570716  0.15342357  1
  O  O214  1  0.25166552  0.61731338  0.35336849  1
  O  O215  1  0.24631504  0.62280206  0.65361153  1
  O  O216  1  0.24317311  0.59047482  0.86607048  1
  O  O217  1  0.26966273  0.90125435  0.10498509  1
  O  O218  1  0.25593590  0.87369167  0.39939996  1
  O  O219  1  0.24820211  0.86419390  0.60698770  1
  O  O220  1  0.25650150  0.88631941  0.90954230  1
  O  O221  1  0.50146173  0.15139256  0.13137029  1
  O  O222  1  0.49985396  0.08925819  0.35312245  1
  O  O223  1  0.50478475  0.13952450  0.63074288  1
  O  O224  1  0.49863366  0.14424387  0.85846967  1
  O  O225  1  0.49830487  0.34875209  0.13262041  1
  O  O226  1  0.48830010  0.37740956  0.35233940  1
  O  O227  1  0.49218109  0.37291270  0.63309112  1
  O  O228  1  0.50734692  0.35183373  0.85568843  1
  O  O229  1  0.50254590  0.66566111  0.10348857  1
  O  O230  1  0.49876715  0.62495483  0.39616938  1
  O  O231  1  0.49468056  0.62313004  0.60050992  1
  O  O232  1  0.49908910  0.68616949  0.90453799  1
  O  O233  1  0.50000639  0.84388598  0.13545034  1
  O  O234  1  0.49991944  0.86813322  0.37772548  1
  O  O235  1  0.50883902  0.89096895  0.65982912  1
  O  O236  1  0.49205887  0.87162000  0.84496443  1
  O  O237  1  0.74897463  0.10659163  0.13380394  1
  O  O238  1  0.74084982  0.12537536  0.36002991  1
  O  O239  1  0.75217408  0.13359212  0.60769533  1
  O  O240  1  0.74788440  0.07894859  0.86561267  1
  O  O241  1  0.75771143  0.39556611  0.10346603  1
  O  O242  1  0.74870704  0.40245718  0.38943273  1
  O  O243  1  0.76221847  0.36752583  0.58992526  1
  O  O244  1  0.75894509  0.37231948  0.89104457  1
  O  O245  1  0.73881332  0.61345146  0.15659396  1
  O  O246  1  0.74533551  0.62318865  0.36294395  1
  O  O247  1  0.74059757  0.62745989  0.66221972  1
  O  O248  1  0.76403064  0.61828058  0.87287540  1
  O  O249  1  0.73987640  0.89304082  0.12028048  1
  O  O250  1  0.74959973  0.86495845  0.40542442  1
  O  O251  1  0.75413957  0.88159617  0.59030499  1
  O  O252  1  0.75317636  0.88931817  0.90613958  1
  O  O253  1  0.11232115  0.00750446  0.13056056  1
  O  O254  1  0.12901374  -0.00587916  0.39509163  1
  O  O255  1  0.12548477  -0.00376651  0.61266105  1
  O  O256  1  0.12623101  0.00281849  0.88778901  1
  O  O257  1  0.16057472  0.24866474  0.12214221  1
  O  O258  1  0.15746739  0.24927912  0.37657694  1
  O  O259  1  0.11212285  0.24432606  0.65003429  1
  O  O260  1  0.15316386  0.24509620  0.86704790  1
  O  O261  1  0.09730365  0.49854048  0.13529612  1
  O  O262  1  0.10696270  0.50263164  0.37156144  1
  O  O263  1  0.12194190  0.50207611  0.62786227  1
  O  O264  1  0.08315385  0.49675786  0.86934767  1
  O  O265  1  0.15169942  0.73704834  0.13881618  1
  O  O266  1  0.13577729  0.75079196  0.35750377  1
  O  O267  1  0.12860646  0.74646887  0.63311895  1
  O  O268  1  0.15526262  0.74294999  0.88177152  1
  O  O269  1  0.42432314  -0.00360914  0.08979666  1
  O  O270  1  0.37150467  -0.01017472  0.39818114  1
  O  O271  1  0.35669633  0.00911624  0.60995463  1
  O  O272  1  0.39348845  -0.00542942  0.90054297  1
  O  O273  1  0.35222859  0.25466324  0.13017200  1
  O  O274  1  0.34875541  0.25293720  0.36488246  1
  O  O275  1  0.37036692  0.24770766  0.65156985  1
  O  O276  1  0.36327685  0.24238782  0.83857234  1
  O  O277  1  0.40398718  0.49872150  0.13440443  1
  O  O278  1  0.37914473  0.50790772  0.39146483  1
  O  O279  1  0.35624970  0.49596668  0.58458289  1
  O  O280  1  0.41592141  0.51713205  0.88237758  1
  O  O281  1  0.35227207  0.73606413  0.14301358  1
  O  O282  1  0.36943076  0.75065707  0.36869928  1
  O  O283  1  0.36793769  0.74137503  0.64503409  1
  O  O284  1  0.35905813  0.75218420  0.84132546  1
  O  O285  1  0.59187393  0.00074816  0.13013130  1
  O  O286  1  0.62564842  -0.00969747  0.38870485  1
  O  O287  1  0.64052689  0.00833538  0.60618272  1
  O  O288  1  0.58413842  0.00620940  0.88193126  1
  O  O289  1  0.64762703  0.23994963  0.13965936  1
  O  O290  1  0.60585039  0.24080421  0.38663766  1
  O  O291  1  0.63605541  0.24590304  0.59092602  1
  O  O292  1  0.65589492  0.23473873  0.88449088  1
  O  O293  1  0.59654798  0.50917023  0.13746643  1
  O  O294  1  0.62206863  0.50809243  0.34438640  1
  O  O295  1  0.63646208  0.50301126  0.64180796  1
  O  O296  1  0.63681411  0.50475530  0.86191598  1
  O  O297  1  0.64660571  0.75464381  0.11950203  1
  O  O298  1  0.62126842  0.74831332  0.38692910  1
  O  O299  1  0.64268404  0.75741899  0.64306977  1
  O  O300  1  0.65525494  0.75952818  0.85054302  1
  O  O301  1  0.89296229  0.00465330  0.15225901  1
  O  O302  1  0.87231853  -0.00376191  0.35583442  1
  O  O303  1  0.84883829  -0.00002925  0.65722639  1
  O  O304  1  0.88777361  -0.00110684  0.83565292  1
  O  O305  1  0.86641488  0.25561383  0.09303893  1
  O  O306  1  0.85023011  0.23921426  0.43182587  1
  O  O307  1  0.88491952  0.24234047  0.60620792  1
  O  O308  1  0.84839571  0.23301249  0.89732192  1
  O  O309  1  0.90268969  0.49321746  0.14411713  1
  O  O310  1  0.89844817  0.51083753  0.36519213  1
  O  O311  1  0.87389405  0.49771927  0.64719483  1
  O  O312  1  0.90231537  0.51094914  0.85090627  1
  O  O313  1  0.84813984  0.73812524  0.09976564  1
  O  O314  1  0.88243046  0.74935705  0.40300434  1
  O  O315  1  0.86823232  0.75247672  0.59512383  1
  O  O316  1  0.86798931  0.74885089  0.90024146  1
