# generated using pymatgen
data_Mg32Ti42(Bi17O64)3
_symmetry_space_group_name_H-M   'P 1'
_cell_length_a   15.93741527
_cell_length_b   15.92992465
_cell_length_c   15.96278965
_cell_angle_alpha   89.97714484
_cell_angle_beta   90.04169969
_cell_angle_gamma   89.94533790
_symmetry_Int_Tables_number   1
_chemical_formula_structural   Mg32Ti42(Bi17O64)3
_chemical_formula_sum   'Mg32 Ti42 Bi51 O192'
_cell_volume   4052.65891780
_cell_formula_units_Z   1
loop_
 _symmetry_equiv_pos_site_id
 _symmetry_equiv_pos_as_xyz
  1  'x, y, z'
loop_
 _atom_site_type_symbol
 _atom_site_label
 _atom_site_symmetry_multiplicity
 _atom_site_fract_x
 _atom_site_fract_y
 _atom_site_fract_z
 _atom_site_occupancy
  Mg  Mg0  1  0.62413478  0.62401720  0.62356227  1
  Mg  Mg1  1  0.37227169  0.12935055  0.62376068  1
  Mg  Mg2  1  0.12828978  0.12261784  0.12328870  1
  Mg  Mg3  1  0.36999780  0.12467173  0.37985511  1
  Mg  Mg4  1  0.63672417  0.87865802  0.12479755  1
  Mg  Mg5  1  0.87528104  0.13406110  0.87806652  1
  Mg  Mg6  1  0.86718160  0.62529850  0.86747428  1
  Mg  Mg7  1  0.86998058  0.12295632  0.61713442  1
  Mg  Mg8  1  0.87486157  0.38179308  0.62111824  1
  Mg  Mg9  1  0.12411552  0.63418417  0.87923463  1
  Mg  Mg10  1  0.37323274  0.38106272  0.37561120  1
  Mg  Mg11  1  0.38197236  0.38868589  0.88019878  1
  Mg  Mg12  1  0.36495049  0.86306338  0.37588091  1
  Mg  Mg13  1  0.37592121  0.37948580  0.12051894  1
  Mg  Mg14  1  0.12105709  0.13276854  0.61576224  1
  Mg  Mg15  1  0.12683828  0.36478059  0.37672189  1
  Mg  Mg16  1  0.63081525  0.37284694  0.61134670  1
  Mg  Mg17  1  0.38266308  0.62995681  0.88105707  1
  Mg  Mg18  1  0.37123389  0.38513720  0.62598250  1
  Mg  Mg19  1  0.20516090  0.74810853  0.47225272  1
  Mg  Mg20  1  0.71805349  0.03397613  0.49772637  1
  Mg  Mg21  1  0.53201962  0.52007946  0.25530551  1
  Mg  Mg22  1  0.06076141  0.51025838  0.29084566  1
  Mg  Mg23  1  0.24819947  0.53122276  0.80252598  1
  Mg  Mg24  1  0.51141591  0.51743540  -0.04824928  1
  Mg  Mg25  1  0.02195500  0.68956531  0.43791934  1
  Mg  Mg26  1  0.44447798  -0.01605278  0.69693276  1
  Mg  Mg27  1  0.00641674  0.25009732  0.46638408  1
  Mg  Mg28  1  0.76920908  0.51189388  0.71329411  1
  Mg  Mg29  1  0.76160965  0.76882078  -0.04756657  1
  Mg  Mg30  1  0.75179113  0.03531564  0.29806977  1
  Mg  Mg31  1  0.71744979  0.25305616  0.28052835  1
  Ti  Ti32  1  0.87633261  0.87992370  0.86175561  1
  Ti  Ti33  1  0.63738076  0.88097337  0.61885231  1
  Ti  Ti34  1  0.38890770  0.63420388  0.37189765  1
  Ti  Ti35  1  0.62755475  0.37598254  0.87609658  1
  Ti  Ti36  1  0.61755061  0.62313605  0.12853921  1
  Ti  Ti37  1  0.38909908  0.87182239  0.88225225  1
  Ti  Ti38  1  0.63642735  0.88214706  0.87046264  1
  Ti  Ti39  1  0.86168332  0.38804180  0.86598366  1
  Ti  Ti40  1  0.11996797  0.37968295  0.61238534  1
  Ti  Ti41  1  0.13811073  0.64157760  0.63162473  1
  Ti  Ti42  1  0.87235345  0.61776637  0.36745914  1
  Ti  Ti43  1  0.37688334  0.11454120  0.13723335  1
  Ti  Ti44  1  0.89117067  0.62894262  0.61843243  1
  Ti  Ti45  1  0.63271459  0.13238214  0.62738045  1
  Ti  Ti46  1  0.12647911  0.14295459  0.87431774  1
  Ti  Ti47  1  0.62550410  0.62830013  0.86161839  1
  Ti  Ti48  1  0.86800699  0.87387856  0.11770537  1
  Ti  Ti49  1  0.62896047  0.38327616  0.37147195  1
  Ti  Ti50  1  0.87947797  0.13919611  0.36431191  1
  Ti  Ti51  1  0.61645032  0.12968167  0.37238109  1
  Ti  Ti52  1  0.62693805  0.37074392  0.13640555  1
  Ti  Ti53  1  0.62014698  0.13455585  0.89043003  1
  Ti  Ti54  1  0.10975069  0.88318783  0.38008575  1
  Ti  Ti55  1  0.88669830  0.62132030  0.12955329  1
  Ti  Ti56  1  0.11977440  0.62290439  0.11717097  1
  Ti  Ti57  1  0.36790114  0.61101505  0.64626386  1
  Ti  Ti58  1  0.87620323  0.38478256  0.12673139  1
  Ti  Ti59  1  0.12726990  0.38554590  0.11818891  1
  Ti  Ti60  1  0.87228907  0.13977434  0.13202221  1
  Ti  Ti61  1  0.88098422  0.37451042  0.36260998  1
  Ti  Ti62  1  0.87557629  0.88114239  0.61320368  1
  Ti  Ti63  1  0.87402813  0.89059215  0.37955986  1
  Ti  Ti64  1  0.39350620  0.11917823  0.86890588  1
  Ti  Ti65  1  0.11412941  0.88286202  0.61905387  1
  Ti  Ti66  1  0.12198247  0.87154803  0.86981839  1
  Ti  Ti67  1  0.13063564  0.12655687  0.37043616  1
  Ti  Ti68  1  0.38418183  0.61523251  0.13314068  1
  Ti  Ti69  1  0.62361804  0.87759183  0.37587277  1
  Ti  Ti70  1  0.14452432  0.38388266  0.86902865  1
  Ti  Ti71  1  0.62057441  0.62631732  0.38196492  1
  Ti  Ti72  1  0.62983233  0.12219227  0.13956527  1
  Ti  Ti73  1  0.11361458  0.86958194  0.11145004  1
  Bi  Bi74  1  0.24067371  -0.03396149  0.25526109  1
  Bi  Bi75  1  0.25229494  0.01388174  0.78492749  1
  Bi  Bi76  1  0.52345633  0.48536219  0.73362902  1
  Bi  Bi77  1  0.28791023  0.79258233  0.73324713  1
  Bi  Bi78  1  0.51852790  0.77577182  0.74549643  1
  Bi  Bi79  1  0.48554605  0.51432575  0.51545860  1
  Bi  Bi80  1  0.48975994  0.27958255  0.25664895  1
  Bi  Bi81  1  -0.00143964  0.51868906  -0.02869109  1
  Bi  Bi82  1  0.47094520  -0.00473245  0.28659439  1
  Bi  Bi83  1  0.27636562  0.22834745  0.01175266  1
  Bi  Bi84  1  0.50561381  0.00808490  0.52273170  1
  Bi  Bi85  1  0.74781290  0.02389826  0.77803504  1
  Bi  Bi86  1  0.26903079  0.50737008  -0.00295369  1
  Bi  Bi87  1  0.02126149  0.26639239  0.23034181  1
  Bi  Bi88  1  -0.00459995  0.25890066  0.72361828  1
  Bi  Bi89  1  0.75871848  0.72895593  0.72002789  1
  Bi  Bi90  1  0.48456932  0.26741413  0.74723085  1
  Bi  Bi91  1  0.01556693  0.02195951  -0.01781033  1
  Bi  Bi92  1  0.73770419  0.50681044  0.23920436  1
  Bi  Bi93  1  0.00175145  0.76890638  0.73486853  1
  Bi  Bi94  1  0.50099674  0.27728988  0.00183819  1
  Bi  Bi95  1  0.74120105  0.50776537  0.51814013  1
  Bi  Bi96  1  0.00072247  0.01650550  0.23063472  1
  Bi  Bi97  1  0.25961655  0.27113531  0.23926775  1
  Bi  Bi98  1  0.73835462  0.52564852  -0.00646792  1
  Bi  Bi99  1  0.45747663  0.78856303  0.21301102  1
  Bi  Bi100  1  0.26546739  0.25432163  0.49179061  1
  Bi  Bi101  1  0.76709733  0.02503211  0.00896630  1
  Bi  Bi102  1  0.00545005  0.03019066  0.48821537  1
  Bi  Bi103  1  -0.01526945  0.49143986  0.47867159  1
  Bi  Bi104  1  0.74888757  0.75714558  0.48403332  1
  Bi  Bi105  1  0.21615451  0.72193907  0.27225012  1
  Bi  Bi106  1  0.27822052  0.73951111  0.02315281  1
  Bi  Bi107  1  0.51039353  0.00174500  0.02939481  1
  Bi  Bi108  1  0.23553047  0.54209733  0.47909021  1
  Bi  Bi109  1  0.27209230  -0.04629740  0.52239514  1
  Bi  Bi110  1  0.24631883  0.25180706  0.71758812  1
  Bi  Bi111  1  0.48613514  0.25561638  0.49235044  1
  Bi  Bi112  1  0.77087477  0.24765554  0.74849503  1
  Bi  Bi113  1  0.75498051  0.27287510  0.01416663  1
  Bi  Bi114  1  0.78193874  0.26307637  0.49856868  1
  Bi  Bi115  1  0.25416354  0.49897130  0.26605064  1
  Bi  Bi116  1  0.00149516  0.28293451  -0.01744123  1
  Bi  Bi117  1  0.53696362  0.76836287  0.00101018  1
  Bi  Bi118  1  -0.01833816  0.76396890  0.24175819  1
  Bi  Bi119  1  -0.01399645  0.75753208  -0.02304907  1
  Bi  Bi120  1  0.01028881  0.02647419  0.73903197  1
  Bi  Bi121  1  0.27055718  -0.02252925  0.02077556  1
  Bi  Bi122  1  0.45701505  0.77320291  0.52876702  1
  Bi  Bi123  1  0.73401900  0.76543984  0.24294160  1
  Bi  Bi124  1  0.03285485  0.51201849  0.74372655  1
  O  O125  1  0.10500247  0.13735452  -0.00777115  1
  O  O126  1  0.12987397  0.08753701  0.25575194  1
  O  O127  1  0.08577495  0.14643638  0.49095403  1
  O  O128  1  0.13050765  0.09556057  0.75540247  1
  O  O129  1  0.12632612  0.35049042  -0.00370057  1
  O  O130  1  0.10381153  0.39378043  0.23861570  1
  O  O131  1  0.10249448  0.34531310  0.50332929  1
  O  O132  1  0.12326638  0.39906298  0.75679244  1
  O  O133  1  0.08451868  0.63873100  0.00580804  1
  O  O134  1  0.14957134  0.59624867  0.24231831  1
  O  O135  1  0.11996236  0.65568165  0.51536728  1
  O  O136  1  0.14639938  0.59248613  0.75227378  1
  O  O137  1  0.13043954  0.84829405  0.00228023  1
  O  O138  1  0.10509833  0.90243938  0.26139225  1
  O  O139  1  0.14427101  0.85421361  0.50850210  1
  O  O140  1  0.09162525  0.89179882  0.75620883  1
  O  O141  1  0.38284256  0.14555893  -0.01214754  1
  O  O142  1  0.36747307  0.09909938  0.24945122  1
  O  O143  1  0.37909695  0.16508917  0.50128542  1
  O  O144  1  0.37203054  0.08271308  0.74985171  1
  O  O145  1  0.36837900  0.33607663  -0.00179713  1
  O  O146  1  0.37136883  0.36049448  0.24698198  1
  O  O147  1  0.38398011  0.34800167  0.50101719  1
  O  O148  1  0.41855057  0.39112008  0.75688988  1
  O  O149  1  0.39130526  0.66079350  0.01734351  1
  O  O150  1  0.34052153  0.60857227  0.25283594  1
  O  O151  1  0.40970153  0.64256891  0.49012927  1
  O  O152  1  0.35154324  0.58575472  0.75422956  1
  O  O153  1  0.34965891  0.85871397  -0.00735097  1
  O  O154  1  0.38081192  0.89241073  0.25131260  1
  O  O155  1  0.33406662  0.82959091  0.49631244  1
  O  O156  1  0.38612255  0.89077107  0.75748549  1
  O  O157  1  0.61163701  0.13998002  0.00334121  1
  O  O158  1  0.64423559  0.09148516  0.25136507  1
  O  O159  1  0.61891721  0.12424740  0.48777294  1
  O  O160  1  0.65115788  0.11999920  0.74440413  1
  O  O161  1  0.62962930  0.34459666  0.01592582  1
  O  O162  1  0.66708576  0.36589811  0.24969471  1
  O  O163  1  0.60066957  0.37247706  0.48049375  1
  O  O164  1  0.61786308  0.37746057  0.76137391  1
  O  O165  1  0.59433289  0.59742317  0.01764091  1
  O  O166  1  0.64071941  0.61041000  0.25812283  1
  O  O167  1  0.61010501  0.59915795  0.49683486  1
  O  O168  1  0.65535725  0.61606087  0.75399635  1
  O  O169  1  0.65415108  0.83916469  -0.00967351  1
  O  O170  1  0.62227911  0.86054401  0.25953354  1
  O  O171  1  0.64648482  0.85788861  0.50170288  1
  O  O172  1  0.60963112  0.88453159  0.75142232  1
  O  O173  1  0.87688082  0.13163761  0.00789995  1
  O  O174  1  0.85921888  0.09123045  0.24622324  1
  O  O175  1  0.90161164  0.14849015  0.48307333  1
  O  O176  1  0.83870042  0.12156357  0.74910941  1
  O  O177  1  0.87438661  0.34733441  0.00151695  1
  O  O178  1  0.87383265  0.38974205  0.24669247  1
  O  O179  1  0.90307911  0.33499661  0.48636652  1
  O  O180  1  0.83024052  0.40328191  0.75379285  1
  O  O181  1  0.89715966  0.63883191  0.01565953  1
  O  O182  1  0.85337972  0.59783203  0.25749569  1
  O  O183  1  0.91861918  0.63236033  0.50564943  1
  O  O184  1  0.83861839  0.61302937  0.74430891  1
  O  O185  1  0.84918860  0.84092601  0.00949838  1
  O  O186  1  0.89956457  0.88034698  0.26266687  1
  O  O187  1  0.85819450  0.85428896  0.49985997  1
  O  O188  1  0.89602812  0.88406610  0.75073309  1
  O  O189  1  -0.00614883  0.13428218  0.14858136  1
  O  O190  1  -0.00855644  0.08903936  0.35504965  1
  O  O191  1  -0.00636968  0.13617467  0.65282322  1
  O  O192  1  0.00119034  0.11344901  0.85854102  1
  O  O193  1  -0.00231063  0.35492022  0.10744583  1
  O  O194  1  -0.00060726  0.40658583  0.36762355  1
  O  O195  1  -0.00214103  0.37569045  0.64437557  1
  O  O196  1  -0.01536725  0.38566187  0.88254598  1
  O  O197  1  -0.00184796  0.62579859  0.16188469  1
  O  O198  1  -0.00192038  0.58226573  0.37242991  1
  O  O199  1  0.00397792  0.62996965  0.65829545  1
  O  O200  1  -0.00617080  0.59888708  0.85982394  1
  O  O201  1  -0.00827371  0.84607855  0.11836471  1
  O  O202  1  -0.00502068  0.89563088  0.40315311  1
  O  O203  1  -0.00275744  0.85514464  0.61768637  1
  O  O204  1  -0.01090557  0.88930116  0.90490212  1
  O  O205  1  0.25510303  0.10637826  0.10226500  1
  O  O206  1  0.24195630  0.14983566  0.38590712  1
  O  O207  1  0.24606700  0.15383991  0.62135357  1
  O  O208  1  0.24608083  0.12857181  0.87231545  1
  O  O209  1  0.24375459  0.37418103  0.13661288  1
  O  O210  1  0.25092738  0.33692196  0.36997561  1
  O  O211  1  0.24315181  0.35656830  0.62526352  1
  O  O212  1  0.25666810  0.40980078  0.85951370  1
  O  O213  1  0.23882690  0.61711405  0.09497788  1
  O  O214  1  0.26351318  0.65895998  0.40308837  1
  O  O215  1  0.25486735  0.64457895  0.61634369  1
  O  O216  1  0.25099259  0.61417229  0.90403058  1
  O  O217  1  0.22965203  0.89483523  0.13769908  1
  O  O218  1  0.23733555  0.86482614  0.35436693  1
  O  O219  1  0.23499904  0.89905148  0.64726289  1
  O  O220  1  0.23706049  0.86437310  0.84871236  1
  O  O221  1  0.50192599  0.10997155  0.13156986  1
  O  O222  1  0.50384635  0.10556681  0.36746547  1
  O  O223  1  0.50921087  0.09455317  0.63043222  1
  O  O224  1  0.50565433  0.10176271  0.86759445  1
  O  O225  1  0.50559692  0.35443941  0.12291652  1
  O  O226  1  0.51812891  0.40342774  0.32246626  1
  O  O227  1  0.50764217  0.41194418  0.61994600  1
  O  O228  1  0.51101185  0.38914874  0.91358729  1
  O  O229  1  0.49493827  0.61325885  0.16777458  1
  O  O230  1  0.50411722  0.59300675  0.35584671  1
  O  O231  1  0.49650946  0.59113552  0.63344421  1
  O  O232  1  0.50997253  0.61185798  0.86491581  1
  O  O233  1  0.51193380  0.87160507  0.09328658  1
  O  O234  1  0.50988293  0.89012541  0.38863191  1
  O  O235  1  0.50743252  0.89511061  0.61303982  1
  O  O236  1  0.50444138  0.87502102  0.90245471  1
  O  O237  1  0.74966279  0.11729600  0.11181602  1
  O  O238  1  0.75469133  0.15120219  0.36262263  1
  O  O239  1  0.74688310  0.12101331  0.58939617  1
  O  O240  1  0.74255458  0.12070941  0.88890464  1
  O  O241  1  0.75374145  0.38235315  0.10710585  1
  O  O242  1  0.75900880  0.33887518  0.38048482  1
  O  O243  1  0.75420548  0.37358809  0.57390791  1
  O  O244  1  0.74402919  0.36269487  0.90101888  1
  O  O245  1  0.74008111  0.60334009  0.12155125  1
  O  O246  1  0.75824848  0.63575450  0.39897362  1
  O  O247  1  0.75288481  0.65201346  0.60170318  1
  O  O248  1  0.73885843  0.64535310  0.91928185  1
  O  O249  1  0.75678627  0.86963153  0.15737960  1
  O  O250  1  0.76106648  0.83814096  0.36304430  1
  O  O251  1  0.75357476  0.86248088  0.64009238  1
  O  O252  1  0.75126588  0.85552991  0.85659969  1
  O  O253  1  0.09142145  -0.00974344  0.10355203  1
  O  O254  1  0.13092394  0.00115076  0.41233629  1
  O  O255  1  0.09637981  -0.00128956  0.61062249  1
  O  O256  1  0.12776095  -0.00868897  0.90256967  1
  O  O257  1  0.13328765  0.24870611  0.15145272  1
  O  O258  1  0.09030616  0.24063588  0.35466794  1
  O  O259  1  0.11653086  0.25658210  0.65754118  1
  O  O260  1  0.12141508  0.25647924  0.85608231  1
  O  O261  1  0.11292769  0.49864251  0.09873051  1
  O  O262  1  0.15902127  0.49049881  0.37544006  1
  O  O263  1  0.11651519  0.49871849  0.60802405  1
  O  O264  1  0.11920032  0.49619877  0.89865024  1
  O  O265  1  0.13067942  0.74496881  0.15200998  1
  O  O266  1  0.11050390  0.75690080  0.37122029  1
  O  O267  1  0.12801564  0.75364042  0.66350116  1
  O  O268  1  0.08886088  0.75516454  0.86563157  1
  O  O269  1  0.38280391  0.00151071  0.09473868  1
  O  O270  1  0.37423722  -0.00549260  0.38748722  1
  O  O271  1  0.37751929  0.00421831  0.59020287  1
  O  O272  1  0.35518067  -0.00492783  0.89445134  1
  O  O273  1  0.35651576  0.23533823  0.13163819  1
  O  O274  1  0.41814832  0.25435169  0.36964128  1
  O  O275  1  0.38345259  0.25401590  0.65782355  1
  O  O276  1  0.39277829  0.23691281  0.84384458  1
  O  O277  1  0.36868239  0.50421430  0.10845092  1
  O  O278  1  0.34124155  0.50650583  0.38704800  1
  O  O279  1  0.35903437  0.50716861  0.58976740  1
  O  O280  1  0.38719641  0.50823284  0.92544795  1
  O  O281  1  0.34529830  0.73983520  0.15170709  1
  O  O282  1  0.40411703  0.74476543  0.34207858  1
  O  O283  1  0.40116014  0.73385460  0.64672791  1
  O  O284  1  0.37610034  0.75655110  0.85055219  1
  O  O285  1  0.63250096  0.00070111  0.09615276  1
  O  O286  1  0.66169166  -0.00790027  0.38698722  1
  O  O287  1  0.64108555  -0.00515803  0.59434479  1
  O  O288  1  0.64204231  -0.00578372  0.88868276  1
  O  O289  1  0.64114432  0.23819189  0.15861644  1
  O  O290  1  0.60913535  0.24516383  0.35193899  1
  O  O291  1  0.61740710  0.24532694  0.62414433  1
  O  O292  1  0.60931340  0.24858777  0.87157151  1
  O  O293  1  0.61167455  0.48623741  0.15598758  1
  O  O294  1  0.66173197  0.49456837  0.36853334  1
  O  O295  1  0.66631525  0.49834287  0.63693078  1
  O  O296  1  0.63568025  0.49854260  0.89128332  1
  O  O297  1  0.61806031  0.73833389  0.12767291  1
  O  O298  1  0.62239780  0.73962573  0.38775695  1
  O  O299  1  0.60544259  0.75267001  0.64045439  1
  O  O300  1  0.60965080  0.74749688  0.85898960  1
  O  O301  1  0.87842047  -0.01249709  0.10117052  1
  O  O302  1  0.83677212  -0.00242321  0.39206030  1
  O  O303  1  0.88424036  -0.00664617  0.60937159  1
  O  O304  1  0.85398395  -0.00422552  0.88328059  1
  O  O305  1  0.85804510  0.25010937  0.14542860  1
  O  O306  1  0.90543680  0.24851492  0.34458166  1
  O  O307  1  0.86471574  0.25564724  0.64890474  1
  O  O308  1  0.86684091  0.26022119  0.84834002  1
  O  O309  1  0.88128638  0.49776747  0.11066793  1
  O  O310  1  0.86086715  0.48856795  0.40847177  1
  O  O311  1  0.85701505  0.50967391  0.60986188  1
  O  O312  1  0.85274753  0.50067199  0.90401717  1
  O  O313  1  0.86605303  0.73860605  0.16447140  1
  O  O314  1  0.91258068  0.72905195  0.36592744  1
  O  O315  1  0.87849719  0.74712548  0.64718643  1
  O  O316  1  0.88378436  0.75284034  0.87353702  1
