# generated using pymatgen
data_Mg32Ti42(Bi17O64)3
_symmetry_space_group_name_H-M   'P 1'
_cell_length_a   15.93586509
_cell_length_b   15.95213901
_cell_length_c   15.89930755
_cell_angle_alpha   89.91599178
_cell_angle_beta   89.93882056
_cell_angle_gamma   90.03257453
_symmetry_Int_Tables_number   1
_chemical_formula_structural   Mg32Ti42(Bi17O64)3
_chemical_formula_sum   'Mg32 Ti42 Bi51 O192'
_cell_volume   4041.77371508
_cell_formula_units_Z   1
loop_
 _symmetry_equiv_pos_site_id
 _symmetry_equiv_pos_as_xyz
  1  'x, y, z'
loop_
 _atom_site_type_symbol
 _atom_site_label
 _atom_site_symmetry_multiplicity
 _atom_site_fract_x
 _atom_site_fract_y
 _atom_site_fract_z
 _atom_site_occupancy
  Mg  Mg0  1  0.62713930  0.62808870  0.87725441  1
  Mg  Mg1  1  0.11517906  0.13046285  0.62943222  1
  Mg  Mg2  1  0.61759908  0.12907857  0.38292428  1
  Mg  Mg3  1  0.12925405  0.87057447  0.12521059  1
  Mg  Mg4  1  0.36781277  0.11961413  0.86707421  1
  Mg  Mg5  1  0.62809099  0.87157609  0.37971417  1
  Mg  Mg6  1  0.86538445  0.38371097  0.12592025  1
  Mg  Mg7  1  0.12127809  0.12334962  0.11986404  1
  Mg  Mg8  1  0.62138416  0.61823518  0.12841242  1
  Mg  Mg9  1  0.62285657  0.88218499  0.11360214  1
  Mg  Mg10  1  0.86679009  0.12209164  0.11789681  1
  Mg  Mg11  1  0.88770139  0.11549802  0.37073976  1
  Mg  Mg12  1  0.38499984  0.12670117  0.12775162  1
  Mg  Mg13  1  0.37052093  0.87363107  0.37926505  1
  Mg  Mg14  1  0.11529461  0.37150238  0.13192980  1
  Mg  Mg15  1  0.88264359  0.62372433  0.62681087  1
  Mg  Mg16  1  0.87168632  0.87574258  0.11624291  1
  Mg  Mg17  1  0.62053133  0.36921929  0.62356374  1
  Mg  Mg18  1  0.12272110  0.62332700  0.37080001  1
  Mg  Mg19  1  0.20789276  0.00752772  0.55232998  1
  Mg  Mg20  1  0.76382370  0.44490871  0.29661762  1
  Mg  Mg21  1  0.75076640  0.69674512  0.53217195  1
  Mg  Mg22  1  -0.04236178  0.31819016  0.28335337  1
  Mg  Mg23  1  0.83267505  0.29866195  0.47230314  1
  Mg  Mg24  1  0.23585469  -0.05654846  0.75613363  1
  Mg  Mg25  1  0.74427915  0.01502030  0.01713400  1
  Mg  Mg26  1  0.44684531  0.21059827  0.50042947  1
  Mg  Mg27  1  0.00632837  0.20712470  0.46586022  1
  Mg  Mg28  1  0.71735594  0.01426489  0.72122314  1
  Mg  Mg29  1  0.52238376  0.22790886  -0.03021394  1
  Mg  Mg30  1  -0.02064567  0.03884747  0.74003969  1
  Mg  Mg31  1  0.55724056  0.50056552  0.28593182  1
  Ti  Ti32  1  0.61106195  0.62849802  0.62285771  1
  Ti  Ti33  1  0.38829928  0.63129307  0.86757883  1
  Ti  Ti34  1  0.12795884  0.37096491  0.62622834  1
  Ti  Ti35  1  0.86549674  0.63544374  0.38455911  1
  Ti  Ti36  1  0.86887407  0.62738969  0.12705104  1
  Ti  Ti37  1  0.61694312  0.12388315  0.12742991  1
  Ti  Ti38  1  0.12024180  0.88417948  0.88461582  1
  Ti  Ti39  1  0.12701328  0.62246966  0.13984208  1
  Ti  Ti40  1  0.12838453  0.10661476  0.36698561  1
  Ti  Ti41  1  0.86660489  0.87290437  0.62624138  1
  Ti  Ti42  1  0.12567267  0.11358324  0.86277357  1
  Ti  Ti43  1  0.87400817  0.37578080  0.87870998  1
  Ti  Ti44  1  0.12656279  0.87520862  0.38014864  1
  Ti  Ti45  1  0.12042059  0.61570417  0.62215180  1
  Ti  Ti46  1  0.11699267  0.87366831  0.62503849  1
  Ti  Ti47  1  0.86796086  0.87532449  0.38102071  1
  Ti  Ti48  1  0.37976847  0.87803863  0.11993449  1
  Ti  Ti49  1  0.88645395  0.37993867  0.63757364  1
  Ti  Ti50  1  0.37877041  0.63018506  0.12315541  1
  Ti  Ti51  1  0.62113234  0.37013593  0.13606497  1
  Ti  Ti52  1  0.87105757  0.12253859  0.87233058  1
  Ti  Ti53  1  0.63699984  0.62898175  0.37135024  1
  Ti  Ti54  1  0.36707394  0.36832860  0.61420709  1
  Ti  Ti55  1  0.36446224  0.87173449  0.62609436  1
  Ti  Ti56  1  0.38327602  0.61843897  0.36340386  1
  Ti  Ti57  1  0.38759932  0.37085903  0.13993547  1
  Ti  Ti58  1  0.11777749  0.36853313  0.88670228  1
  Ti  Ti59  1  0.63168897  0.88132220  0.62854022  1
  Ti  Ti60  1  0.12404810  0.37639579  0.37440982  1
  Ti  Ti61  1  0.63455883  0.36101404  0.86410286  1
  Ti  Ti62  1  0.36685926  0.62627748  0.62484850  1
  Ti  Ti63  1  0.64316867  0.88316375  0.88062659  1
  Ti  Ti64  1  0.60605689  0.13460938  0.61821666  1
  Ti  Ti65  1  0.36005227  0.11558640  0.62840381  1
  Ti  Ti66  1  0.86562432  0.63091124  0.88202050  1
  Ti  Ti67  1  0.63410635  0.11181404  0.86969884  1
  Ti  Ti68  1  0.36452289  0.10979647  0.37738366  1
  Ti  Ti69  1  0.62259936  0.36857743  0.38447247  1
  Ti  Ti70  1  0.36621990  0.37974687  0.37652732  1
  Ti  Ti71  1  0.87212865  0.89350908  0.87250049  1
  Ti  Ti72  1  0.36768534  0.87447247  0.87876088  1
  Ti  Ti73  1  0.87549867  0.14051991  0.61502775  1
  Bi  Bi74  1  0.73391334  0.22814033  0.72443861  1
  Bi  Bi75  1  0.24605529  0.01398590  0.01121007  1
  Bi  Bi76  1  0.46839616  0.47740897  0.74452481  1
  Bi  Bi77  1  0.77020706  0.01937215  0.24634659  1
  Bi  Bi78  1  0.23882497  0.73263772  0.48370073  1
  Bi  Bi79  1  0.52158258  -0.00884844  0.25416601  1
  Bi  Bi80  1  0.51108419  0.76738022  0.75992706  1
  Bi  Bi81  1  0.21732584  0.73111196  0.75653466  1
  Bi  Bi82  1  0.51620002  0.46206142  -0.01755180  1
  Bi  Bi83  1  0.48525472  -0.01709495  0.75115210  1
  Bi  Bi84  1  -0.00800765  0.00275896  0.52681675  1
  Bi  Bi85  1  0.00253944  0.75045870  0.50841477  1
  Bi  Bi86  1  -0.00431091  0.25266631  0.76738480  1
  Bi  Bi87  1  0.74702671  0.02210380  0.47874782  1
  Bi  Bi88  1  0.73401580  0.74028736  0.01466937  1
  Bi  Bi89  1  0.73519435  0.50126024  0.00490219  1
  Bi  Bi90  1  -0.00866902  0.01809159  -0.00191257  1
  Bi  Bi91  1  0.28536625  0.48693772  -0.00407061  1
  Bi  Bi92  1  0.22696522  0.71257566  -0.01741108  1
  Bi  Bi93  1  0.50885772  0.74525576  0.01063998  1
  Bi  Bi94  1  0.24901334  0.48942543  0.22278176  1
  Bi  Bi95  1  -0.00610832  0.77528115  0.25162919  1
  Bi  Bi96  1  0.24172268  0.49460271  0.48341585  1
  Bi  Bi97  1  0.00144736  0.74520029  0.01051669  1
  Bi  Bi98  1  0.47711391  0.02020980  -0.00818976  1
  Bi  Bi99  1  0.48732490  0.23240465  0.28547067  1
  Bi  Bi100  1  -0.02931066  0.52724827  0.26296869  1
  Bi  Bi101  1  0.49784992  0.76911738  0.48377011  1
  Bi  Bi102  1  -0.01160002  0.51984236  0.77161463  1
  Bi  Bi103  1  0.30350603  0.26246565  -0.01067991  1
  Bi  Bi104  1  0.74992137  0.48077700  0.49367839  1
  Bi  Bi105  1  -0.00147254  0.00085578  0.22324829  1
  Bi  Bi106  1  0.25642098  0.75999361  0.25678750  1
  Bi  Bi107  1  -0.01418074  0.27166446  0.03441073  1
  Bi  Bi108  1  0.74058445  0.25688805  0.01939478  1
  Bi  Bi109  1  0.03702058  0.52287382  -0.00817427  1
  Bi  Bi110  1  0.24688384  -0.00127471  0.22885102  1
  Bi  Bi111  1  0.22394994  0.24504449  0.22165350  1
  Bi  Bi112  1  0.50105751  0.76686754  0.24914345  1
  Bi  Bi113  1  0.23883622  0.51144592  0.77658026  1
  Bi  Bi114  1  -0.00443400  0.48618327  0.48686584  1
  Bi  Bi115  1  0.22659434  0.22874904  0.49053741  1
  Bi  Bi116  1  0.50499985  -0.01367559  0.48143393  1
  Bi  Bi117  1  0.23783982  0.26348274  0.77318092  1
  Bi  Bi118  1  -0.01268202  0.75639068  0.77625516  1
  Bi  Bi119  1  0.74070309  0.49754100  0.72293253  1
  Bi  Bi120  1  0.50220742  0.49216173  0.49606062  1
  Bi  Bi121  1  0.46912941  0.26072138  0.77202796  1
  Bi  Bi122  1  0.74410210  0.77760306  0.24036865  1
  Bi  Bi123  1  0.73796053  0.73633050  0.73572546  1
  Bi  Bi124  1  0.77281931  0.24385017  0.28387504  1
  O  O125  1  0.13224967  0.09063726  -0.00936685  1
  O  O126  1  0.12755659  0.14661318  0.25588650  1
  O  O127  1  0.15304426  0.10799945  0.49412638  1
  O  O128  1  0.07931500  0.12589407  0.75046220  1
  O  O129  1  0.09792890  0.37170334  -0.00029153  1
  O  O130  1  0.13233984  0.34538337  0.26306587  1
  O  O131  1  0.11419711  0.40871623  0.50542261  1
  O  O132  1  0.14833698  0.37023879  0.74577547  1
  O  O133  1  0.15469986  0.59727546  0.01052773  1
  O  O134  1  0.09140431  0.64380381  0.24797686  1
  O  O135  1  0.15791981  0.61204293  0.50260275  1
  O  O136  1  0.10522955  0.65482925  0.73625173  1
  O  O137  1  0.12464436  0.90246087  -0.00326681  1
  O  O138  1  0.13768121  0.83567306  0.25588149  1
  O  O139  1  0.13765912  0.90763791  0.49468045  1
  O  O140  1  0.13277421  0.86287769  0.74090744  1
  O  O141  1  0.36194478  0.10129485  -0.00163721  1
  O  O142  1  0.39150408  0.13640397  0.25821177  1
  O  O143  1  0.35560779  0.11991032  0.50071170  1
  O  O144  1  0.38396817  0.15327148  0.74323787  1
  O  O145  1  0.38224249  0.38135061  0.01290201  1
  O  O146  1  0.35984461  0.37338961  0.25923273  1
  O  O147  1  0.39104084  0.40704887  0.49970628  1
  O  O148  1  0.37070866  0.35705497  0.74281970  1
  O  O149  1  0.34734754  0.61271279  -0.00124270  1
  O  O150  1  0.39355506  0.63272822  0.24851186  1
  O  O151  1  0.35276734  0.61804891  0.50872307  1
  O  O152  1  0.40163981  0.63441857  0.75248660  1
  O  O153  1  0.38174754  0.88946289  -0.00183822  1
  O  O154  1  0.38614507  0.85132069  0.24763199  1
  O  O155  1  0.39448506  0.88210427  0.51223656  1
  O  O156  1  0.36753084  0.88882587  0.75179827  1
  O  O157  1  0.65999734  0.10548764  -0.01763192  1
  O  O158  1  0.58322975  0.12742447  0.24349551  1
  O  O159  1  0.63814463  0.10032801  0.50829342  1
  O  O160  1  0.62052375  0.14528659  0.74252772  1
  O  O161  1  0.58007469  0.34383139  0.01197403  1
  O  O162  1  0.64634977  0.39602527  0.25317995  1
  O  O163  1  0.61663067  0.40149251  0.49974451  1
  O  O164  1  0.65360146  0.36519657  0.75276832  1
  O  O165  1  0.66353881  0.62036408  0.00131371  1
  O  O166  1  0.60703193  0.61585852  0.25601367  1
  O  O167  1  0.64679401  0.61636855  0.50563022  1
  O  O168  1  0.61645012  0.66275246  0.74770667  1
  O  O169  1  0.65312139  0.92115788  -0.01097404  1
  O  O170  1  0.60446877  0.86588990  0.25011783  1
  O  O171  1  0.60707607  0.88925195  0.51233915  1
  O  O172  1  0.63284570  0.83938154  0.74806828  1
  O  O173  1  0.85513333  0.08773734  -0.01535548  1
  O  O174  1  0.85398514  0.13902706  0.24641143  1
  O  O175  1  0.85915485  0.09853220  0.49942291  1
  O  O176  1  0.90540375  0.14448589  0.73465054  1
  O  O177  1  0.90708590  0.38248472  -0.00666604  1
  O  O178  1  0.84285508  0.35621464  0.24866101  1
  O  O179  1  0.88118039  0.40599384  0.51190503  1
  O  O180  1  0.86481531  0.34878391  0.75059039  1
  O  O181  1  0.84808693  0.61658849  -0.00292209  1
  O  O182  1  0.90188269  0.64836466  0.24209682  1
  O  O183  1  0.84730210  0.61389062  0.49740853  1
  O  O184  1  0.90810489  0.64134376  0.75357125  1
  O  O185  1  0.86747906  0.91056327  -0.01338274  1
  O  O186  1  0.86736826  0.84070328  0.25339808  1
  O  O187  1  0.87883011  0.89915059  0.49753865  1
  O  O188  1  0.88647229  0.84738319  0.74121440  1
  O  O189  1  -0.00491557  0.10326775  0.11108863  1
  O  O190  1  0.01372293  0.10896991  0.38725128  1
  O  O191  1  -0.00513597  0.14374789  0.57682243  1
  O  O192  1  0.00082594  0.10620254  0.89253966  1
  O  O193  1  -0.01100164  0.34332028  0.15320409  1
  O  O194  1  0.00617499  0.40489676  0.36631429  1
  O  O195  1  0.00207163  0.36454050  0.63729203  1
  O  O196  1  0.00249657  0.38461396  0.84845061  1
  O  O197  1  0.00310382  0.62361185  0.08605333  1
  O  O198  1  -0.00762060  0.59804019  0.38783930  1
  O  O199  1  0.00579910  0.63302481  0.59001627  1
  O  O200  1  -0.00622508  0.60731011  0.89233466  1
  O  O201  1  0.00118824  0.88274419  0.14749597  1
  O  O202  1  0.00887259  0.87970721  0.35889988  1
  O  O203  1  0.00021849  0.85702615  0.60877927  1
  O  O204  1  0.00320359  0.87707023  0.87401212  1
  O  O205  1  0.25517213  0.09725058  0.12849320  1
  O  O206  1  0.25201452  0.15035001  0.36592759  1
  O  O207  1  0.24821940  0.09856413  0.63851874  1
  O  O208  1  0.24200762  0.14730245  0.86360789  1
  O  O209  1  0.24929102  0.38448128  0.13002068  1
  O  O210  1  0.25186169  0.36245252  0.40144092  1
  O  O211  1  0.25064361  0.38917260  0.60614845  1
  O  O212  1  0.24429638  0.34445753  0.88596567  1
  O  O213  1  0.24426614  0.62139576  0.15702462  1
  O  O214  1  0.25491641  0.65877426  0.36055185  1
  O  O215  1  0.24847537  0.62601643  0.65739034  1
  O  O216  1  0.25384299  0.63536827  0.85083481  1
  O  O217  1  0.25874000  0.89573881  0.13033433  1
  O  O218  1  0.25097022  0.84023385  0.37483905  1
  O  O219  1  0.24989254  0.91110896  0.62878583  1
  O  O220  1  0.25394404  0.88043351  0.87118262  1
  O  O221  1  0.51311308  0.14608499  0.07070294  1
  O  O222  1  0.48849349  0.13722427  0.39612701  1
  O  O223  1  0.49673467  0.14676408  0.59801983  1
  O  O224  1  0.51667771  0.11151477  0.88820567  1
  O  O225  1  0.50197893  0.37689987  0.16230599  1
  O  O226  1  0.50862439  0.41312302  0.36920062  1
  O  O227  1  0.49396280  0.38474426  0.64048125  1
  O  O228  1  0.51503563  0.38570738  0.85646392  1
  O  O229  1  0.49315092  0.63409270  0.10066866  1
  O  O230  1  0.49938063  0.58628616  0.38509471  1
  O  O231  1  0.49808361  0.63751385  0.60852669  1
  O  O232  1  0.50013440  0.61907841  0.89736948  1
  O  O233  1  0.49636045  0.84329474  0.11860231  1
  O  O234  1  0.49744540  0.87797166  0.39082575  1
  O  O235  1  0.50216026  0.86510721  0.65490365  1
  O  O236  1  0.51261571  0.87796285  0.85587915  1
  O  O237  1  0.73640109  0.09317032  0.12425342  1
  O  O238  1  0.74420825  0.11100224  0.37047775  1
  O  O239  1  0.76166083  0.10946856  0.64822126  1
  O  O240  1  0.75963304  0.13156166  0.83841016  1
  O  O241  1  0.73985483  0.37603667  0.09011034  1
  O  O242  1  0.74729327  0.36340595  0.40268867  1
  O  O243  1  0.75225303  0.40699471  0.61802831  1
  O  O244  1  0.75714922  0.36162512  0.90372587  1
  O  O245  1  0.75716281  0.66102050  0.14187139  1
  O  O246  1  0.74860447  0.66395626  0.37054240  1
  O  O247  1  0.75342441  0.61713705  0.64624537  1
  O  O248  1  0.75476592  0.63346205  0.84538853  1
  O  O249  1  0.74657283  0.85866743  0.12989556  1
  O  O250  1  0.75261322  0.86681411  0.37634813  1
  O  O251  1  0.75189550  0.91022831  0.64115998  1
  O  O252  1  0.75895003  0.86727229  0.85806217  1
  O  O253  1  0.12724299  -0.00302726  0.16066345  1
  O  O254  1  0.14712196  -0.00561609  0.34498680  1
  O  O255  1  0.09704575  -0.00170423  0.62766136  1
  O  O256  1  0.14814261  -0.00148381  0.84025731  1
  O  O257  1  0.14481682  0.24518586  0.11191558  1
  O  O258  1  0.10924396  0.25978253  0.41767641  1
  O  O259  1  0.14083519  0.25610565  0.61338126  1
  O  O260  1  0.11104457  0.24656323  0.85894126  1
  O  O261  1  0.11846783  0.50181891  0.15179119  1
  O  O262  1  0.15402906  0.49608393  0.36704194  1
  O  O263  1  0.11566852  0.50561603  0.64667830  1
  O  O264  1  0.14217192  0.48568316  0.87473058  1
  O  O265  1  0.12540810  0.74368631  0.09154244  1
  O  O266  1  0.11320336  0.75159175  0.41360031  1
  O  O267  1  0.13490417  0.75838875  0.59398193  1
  O  O268  1  0.13525804  0.76184011  0.88365015  1
  O  O269  1  0.40366260  -0.00712774  0.13539121  1
  O  O270  1  0.36955448  -0.00069087  0.36787976  1
  O  O271  1  0.39866567  0.00717262  0.63640218  1
  O  O272  1  0.39238861  -0.00330770  0.86954046  1
  O  O273  1  0.37096222  0.25562826  0.12320306  1
  O  O274  1  0.39934086  0.26907642  0.39653181  1
  O  O275  1  0.36918601  0.25620824  0.59482235  1
  O  O276  1  0.41101558  0.23989748  0.90152168  1
  O  O277  1  0.36173310  0.50220330  0.12684015  1
  O  O278  1  0.34527591  0.50598206  0.37064885  1
  O  O279  1  0.37289623  0.50761255  0.64550694  1
  O  O280  1  0.35529967  0.50672978  0.86286595  1
  O  O281  1  0.35805549  0.74492500  0.10844183  1
  O  O282  1  0.40636968  0.73841198  0.38699821  1
  O  O283  1  0.35593978  0.75725162  0.62613267  1
  O  O284  1  0.38137884  0.75393913  0.88135532  1
  O  O285  1  0.59491685  0.00402650  0.13677262  1
  O  O286  1  0.60449919  0.00053380  0.37273028  1
  O  O287  1  0.61166800  -0.00152047  0.64988684  1
  O  O288  1  0.64629257  -0.00114644  0.82925313  1
  O  O289  1  0.64996901  0.24643098  0.13501356  1
  O  O290  1  0.61004062  0.25701425  0.37220367  1
  O  O291  1  0.64419135  0.24472850  0.61392423  1
  O  O292  1  0.61910399  0.24495256  0.88142948  1
  O  O293  1  0.62083073  0.48870998  0.09611106  1
  O  O294  1  0.66132173  0.50639786  0.36915152  1
  O  O295  1  0.61592479  0.51388184  0.65564357  1
  O  O296  1  0.63769730  0.48342138  0.90353602  1
  O  O297  1  0.62078867  0.75014099  0.09299276  1
  O  O298  1  0.59470144  0.74197290  0.38431415  1
  O  O299  1  0.65879498  0.75284237  0.60708611  1
  O  O300  1  0.62659866  0.76311247  0.91257808  1
  O  O301  1  0.87167496  -0.00362894  0.15511555  1
  O  O302  1  0.87228410  -0.00974986  0.34553090  1
  O  O303  1  0.91144250  -0.00050591  0.63789193  1
  O  O304  1  0.88647546  0.00238759  0.83111411  1
  O  O305  1  0.85755456  0.24434533  0.08939129  1
  O  O306  1  0.89798429  0.24527445  0.38168602  1
  O  O307  1  0.85422987  0.25478784  0.59136294  1
  O  O308  1  0.90024080  0.24220231  0.88115006  1
  O  O309  1  0.86976445  0.51197783  0.14245285  1
  O  O310  1  0.85232008  0.52149281  0.34138170  1
  O  O311  1  0.89004933  0.49730456  0.66309843  1
  O  O312  1  0.87093828  0.49440499  0.85398226  1
  O  O313  1  0.90012828  0.75111478  0.09900834  1
  O  O314  1  0.90163034  0.75021718  0.38975605  1
  O  O315  1  0.84883473  0.75951236  0.59656999  1
  O  O316  1  0.89393617  0.74777737  0.88677135  1
