# generated using pymatgen
data_Mg32Ti42(Bi17O64)3
_symmetry_space_group_name_H-M   'P 1'
_cell_length_a   15.96965836
_cell_length_b   15.95192230
_cell_length_c   15.94672540
_cell_angle_alpha   90.17247515
_cell_angle_beta   89.97766682
_cell_angle_gamma   89.84690932
_symmetry_Int_Tables_number   1
_chemical_formula_structural   Mg32Ti42(Bi17O64)3
_chemical_formula_sum   'Mg32 Ti42 Bi51 O192'
_cell_volume   4062.34323009
_cell_formula_units_Z   1
loop_
 _symmetry_equiv_pos_site_id
 _symmetry_equiv_pos_as_xyz
  1  'x, y, z'
loop_
 _atom_site_type_symbol
 _atom_site_label
 _atom_site_symmetry_multiplicity
 _atom_site_fract_x
 _atom_site_fract_y
 _atom_site_fract_z
 _atom_site_occupancy
  Mg  Mg0  1  0.36256359  0.63430540  0.62117456  1
  Mg  Mg1  1  0.36279673  0.12469943  0.11889508  1
  Mg  Mg2  1  0.37925013  0.37052924  0.37375916  1
  Mg  Mg3  1  0.87564970  0.12906966  0.87228657  1
  Mg  Mg4  1  0.12856500  0.86854507  0.62534883  1
  Mg  Mg5  1  0.63815601  0.12765966  0.37543119  1
  Mg  Mg6  1  0.63392842  0.87347208  0.87321507  1
  Mg  Mg7  1  0.37436537  0.37784209  0.12129268  1
  Mg  Mg8  1  0.87317094  0.37081433  0.61641232  1
  Mg  Mg9  1  0.87606594  0.87681256  0.12411106  1
  Mg  Mg10  1  0.87449484  0.87026362  0.62811046  1
  Mg  Mg11  1  0.37869539  0.11958185  0.37321121  1
  Mg  Mg12  1  0.11651741  0.37377316  0.12521763  1
  Mg  Mg13  1  0.62692161  0.37644310  0.62962968  1
  Mg  Mg14  1  0.62695061  0.62609474  0.63535219  1
  Mg  Mg15  1  0.37637932  0.87424720  0.61647834  1
  Mg  Mg16  1  0.11749714  0.62639302  0.88358075  1
  Mg  Mg17  1  0.62279808  0.38279022  0.36681782  1
  Mg  Mg18  1  0.36927549  0.62837759  0.12576121  1
  Mg  Mg19  1  0.04564271  0.49465457  0.44296759  1
  Mg  Mg20  1  0.21360445  0.71420933  0.00150647  1
  Mg  Mg21  1  0.75992334  0.68771462  0.76527579  1
  Mg  Mg22  1  0.73139641  0.31194018  0.49241906  1
  Mg  Mg23  1  0.47277299  0.70540785  0.26004632  1
  Mg  Mg24  1  0.69873315  0.26801155  -0.01430525  1
  Mg  Mg25  1  0.67987547  0.75022397  0.26537195  1
  Mg  Mg26  1  0.29566084  0.76077649  0.45499200  1
  Mg  Mg27  1  0.74481223  0.23144185  0.30661438  1
  Mg  Mg28  1  -0.03185146  0.52335512  0.00551775  1
  Mg  Mg29  1  0.00267730  0.71357532  0.28996885  1
  Mg  Mg30  1  0.51991245  0.03644617  0.45312195  1
  Mg  Mg31  1  0.30511031  0.00718480  0.23188141  1
  Ti  Ti32  1  0.88346261  0.36119192  0.11978240  1
  Ti  Ti33  1  0.11717711  0.87370456  0.37114425  1
  Ti  Ti34  1  0.88009855  0.12132079  0.11654251  1
  Ti  Ti35  1  0.87520276  0.62409534  0.62342196  1
  Ti  Ti36  1  0.36054178  0.12428264  0.86932066  1
  Ti  Ti37  1  0.11975949  0.62774167  0.13959153  1
  Ti  Ti38  1  0.85302013  0.63013488  0.37323248  1
  Ti  Ti39  1  0.12672873  0.87274824  0.12863510  1
  Ti  Ti40  1  0.12271698  0.38473272  0.86911862  1
  Ti  Ti41  1  0.62825155  0.88585553  0.13039011  1
  Ti  Ti42  1  0.61356843  0.12267041  0.62579579  1
  Ti  Ti43  1  0.61855805  0.62520379  0.37198244  1
  Ti  Ti44  1  0.36298050  0.62622305  0.88675167  1
  Ti  Ti45  1  0.36460535  0.37615812  0.87718431  1
  Ti  Ti46  1  0.61817632  0.88082686  0.37302977  1
  Ti  Ti47  1  0.62548745  0.13263489  0.87303738  1
  Ti  Ti48  1  0.86743649  0.12701540  0.61864954  1
  Ti  Ti49  1  0.86927971  0.37170097  0.88226303  1
  Ti  Ti50  1  0.38578588  0.11492937  0.62346872  1
  Ti  Ti51  1  0.86533275  0.62898284  0.13487168  1
  Ti  Ti52  1  0.87350444  0.62438664  0.88590456  1
  Ti  Ti53  1  0.37482997  0.61848263  0.38181122  1
  Ti  Ti54  1  0.61614859  0.38285170  0.87540460  1
  Ti  Ti55  1  0.12020334  0.11172279  0.38028963  1
  Ti  Ti56  1  0.88392536  0.12212655  0.38835642  1
  Ti  Ti57  1  0.64453796  0.14739444  0.12593175  1
  Ti  Ti58  1  0.62548395  0.63093809  0.12414625  1
  Ti  Ti59  1  0.39233834  0.86219350  0.13531946  1
  Ti  Ti60  1  0.13038068  0.12150450  0.86349688  1
  Ti  Ti61  1  0.86848050  0.36809890  0.37716347  1
  Ti  Ti62  1  0.62732250  0.63113512  0.87735528  1
  Ti  Ti63  1  0.62117714  0.37844079  0.11982516  1
  Ti  Ti64  1  0.87421588  0.86358908  0.36329371  1
  Ti  Ti65  1  0.12343748  0.62703931  0.61630807  1
  Ti  Ti66  1  0.86486644  0.86469838  0.87340867  1
  Ti  Ti67  1  0.11357862  0.87183431  0.88458346  1
  Ti  Ti68  1  0.10833960  0.37908430  0.62752367  1
  Ti  Ti69  1  0.13481116  0.63356988  0.38167799  1
  Ti  Ti70  1  0.38777704  0.88499310  0.37127047  1
  Ti  Ti71  1  0.13252917  0.10641727  0.11786173  1
  Ti  Ti72  1  0.12504478  0.11984282  0.61184025  1
  Ti  Ti73  1  0.61241417  0.88117287  0.62530295  1
  Bi  Bi74  1  0.76090838  0.02689937  0.25382878  1
  Bi  Bi75  1  0.27050980  -0.04924714  -0.00941992  1
  Bi  Bi76  1  0.73917042  0.51272174  0.50600986  1
  Bi  Bi77  1  0.02653110  0.28324240  0.47416624  1
  Bi  Bi78  1  0.00256230  0.73753015  0.03050266  1
  Bi  Bi79  1  0.47859999  0.51736135  0.76552863  1
  Bi  Bi80  1  -0.00321372  0.02038583  -0.01688768  1
  Bi  Bi81  1  0.46674517  0.28176342  0.72222759  1
  Bi  Bi82  1  0.73218971  0.00459407  0.74336296  1
  Bi  Bi83  1  0.45791204  0.24093390  0.25232054  1
  Bi  Bi84  1  0.24613755  0.26215218  0.70790744  1
  Bi  Bi85  1  0.24309092  0.77737199  0.77619098  1
  Bi  Bi86  1  0.22737475  0.23515285  0.23578970  1
  Bi  Bi87  1  0.53286179  0.25624500  0.46695937  1
  Bi  Bi88  1  0.25998779  0.76916433  0.26044396  1
  Bi  Bi89  1  0.46872762  0.74953595  0.75120474  1
  Bi  Bi90  1  -0.01084480  -0.02187543  0.23375384  1
  Bi  Bi91  1  -0.03118120  0.50445529  0.26020166  1
  Bi  Bi92  1  0.48276312  0.49181060  0.24609700  1
  Bi  Bi93  1  0.50408609  0.02237105  0.21391928  1
  Bi  Bi94  1  0.00188849  0.76638497  0.51632949  1
  Bi  Bi95  1  -0.01208314  0.23430318  0.73241524  1
  Bi  Bi96  1  0.73559163  -0.02530818  0.49811577  1
  Bi  Bi97  1  0.25967776  0.49167942  0.71350373  1
  Bi  Bi98  1  0.27695690  0.00919447  0.49290295  1
  Bi  Bi99  1  0.22380899  0.45530696  0.27455773  1
  Bi  Bi100  1  0.75373602  0.48929495  0.73183122  1
  Bi  Bi101  1  0.00478993  0.26306208  -0.02971553  1
  Bi  Bi102  1  0.25740515  0.24032107  0.48113727  1
  Bi  Bi103  1  0.74265128  0.26035470  0.72476242  1
  Bi  Bi104  1  0.23853838  0.50156470  0.03551349  1
  Bi  Bi105  1  0.47229332  0.46783190  0.53969583  1
  Bi  Bi106  1  -0.02253781  -0.00560098  0.75324946  1
  Bi  Bi107  1  0.24803826  -0.01126646  0.73255641  1
  Bi  Bi108  1  0.49890537  0.71860110  0.51964509  1
  Bi  Bi109  1  -0.00444089  0.23256538  0.23827193  1
  Bi  Bi110  1  0.01202413  0.53120035  0.75281486  1
  Bi  Bi111  1  -0.00158776  0.75345768  0.76185408  1
  Bi  Bi112  1  0.73538599  0.75098788  0.53101286  1
  Bi  Bi113  1  0.26470601  0.46286614  0.49927844  1
  Bi  Bi114  1  0.23059531  0.27228721  0.00267253  1
  Bi  Bi115  1  0.75359664  0.77319534  0.02860756  1
  Bi  Bi116  1  0.49501441  0.77336437  -0.03040821  1
  Bi  Bi117  1  0.48623008  -0.03225779  0.76338147  1
  Bi  Bi118  1  0.74569095  0.02032322  -0.01921853  1
  Bi  Bi119  1  0.48952954  0.51737490  0.01843392  1
  Bi  Bi120  1  0.46541707  0.23779852  -0.00424438  1
  Bi  Bi121  1  0.50072308  -0.00761722  -0.02312648  1
  Bi  Bi122  1  0.74762522  0.47298782  0.25366747  1
  Bi  Bi123  1  -0.01233806  -0.02050820  0.51236170  1
  Bi  Bi124  1  0.74479388  0.49397239  0.00669029  1
  O  O125  1  0.13439059  0.09491175  0.00628315  1
  O  O126  1  0.12066128  0.15284014  0.26255266  1
  O  O127  1  0.10828929  0.09489856  0.50090671  1
  O  O128  1  0.13443462  0.14352870  0.74975485  1
  O  O129  1  0.11713802  0.36498600  -0.00486788  1
  O  O130  1  0.14704191  0.34833645  0.24710896  1
  O  O131  1  0.09872500  0.40289891  0.51349516  1
  O  O132  1  0.14326050  0.34816569  0.75559230  1
  O  O133  1  0.07372419  0.61066189  0.00862468  1
  O  O134  1  0.12896651  0.65301281  0.25107130  1
  O  O135  1  0.11648866  0.59574419  0.49633232  1
  O  O136  1  0.10031666  0.64057288  0.74429631  1
  O  O137  1  0.13353475  0.90188243  -0.00180187  1
  O  O138  1  0.14820403  0.85327586  0.24163083  1
  O  O139  1  0.10282780  0.88086817  0.48734612  1
  O  O140  1  0.11702493  0.83778631  0.75786809  1
  O  O141  1  0.36595207  0.14358635  -0.00425980  1
  O  O142  1  0.39014492  0.11523829  0.24633549  1
  O  O143  1  0.39908409  0.08147353  0.50038528  1
  O  O144  1  0.36020814  0.12253937  0.74835129  1
  O  O145  1  0.39620944  0.36482193  -0.00995517  1
  O  O146  1  0.37851300  0.40104645  0.24891365  1
  O  O147  1  0.37396488  0.37735537  0.50289044  1
  O  O148  1  0.35373235  0.35987445  0.75312463  1
  O  O149  1  0.40147979  0.63117115  -0.00347467  1
  O  O150  1  0.38805566  0.60623001  0.25978578  1
  O  O151  1  0.36632832  0.66481105  0.49485352  1
  O  O152  1  0.38255542  0.62774274  0.75360737  1
  O  O153  1  0.39529670  0.87069145  0.01473281  1
  O  O154  1  0.34586437  0.88575480  0.24870377  1
  O  O155  1  0.35822154  0.86993130  0.48664856  1
  O  O156  1  0.39664471  0.86747581  0.74879215  1
  O  O157  1  0.66738426  0.14246089  0.00044675  1
  O  O158  1  0.66537858  0.14666484  0.24555113  1
  O  O159  1  0.60337130  0.12275942  0.51148964  1
  O  O160  1  0.62405352  0.09375464  0.75985443  1
  O  O161  1  0.60629017  0.35574793  -0.00558005  1
  O  O162  1  0.64104610  0.38262917  0.23609471  1
  O  O163  1  0.61807050  0.37163325  0.50188477  1
  O  O164  1  0.65979727  0.38296349  0.76189339  1
  O  O165  1  0.60707016  0.64182777  0.00987116  1
  O  O166  1  0.59401618  0.65367552  0.24977128  1
  O  O167  1  0.64741311  0.62870271  0.49087651  1
  O  O168  1  0.64508936  0.62234144  0.76122777  1
  O  O169  1  0.60385465  0.86139858  0.01581887  1
  O  O170  1  0.64993888  0.87621059  0.25661187  1
  O  O171  1  0.63002843  0.88366151  0.49857794  1
  O  O172  1  0.62321097  0.89920209  0.74676765  1
  O  O173  1  0.88169877  0.11414995  -0.00017245  1
  O  O174  1  0.88171263  0.10492405  0.24867950  1
  O  O175  1  0.87521553  0.14635902  0.50339019  1
  O  O176  1  0.89982511  0.11243534  0.74806446  1
  O  O177  1  0.91401893  0.38266406  0.00591368  1
  O  O178  1  0.86558274  0.39683715  0.24255911  1
  O  O179  1  0.85484550  0.35198474  0.49013588  1
  O  O180  1  0.84865136  0.38576994  0.76668769  1
  O  O181  1  0.89086413  0.63618979  0.00129401  1
  O  O182  1  0.87885920  0.61702971  0.24844989  1
  O  O183  1  0.83941425  0.62555797  0.49213773  1
  O  O184  1  0.86251634  0.60745531  0.74369071  1
  O  O185  1  0.87138550  0.85189222  -0.00840722  1
  O  O186  1  0.86334320  0.90635832  0.25155655  1
  O  O187  1  0.90445434  0.86955293  0.48511510  1
  O  O188  1  0.88211835  0.89304903  0.75137246  1
  O  O189  1  0.00765567  0.14317527  0.13036117  1
  O  O190  1  0.00212167  0.15397146  0.37831938  1
  O  O191  1  0.00885756  0.14339066  0.62762816  1
  O  O192  1  0.00977703  0.13327893  0.89090492  1
  O  O193  1  -0.00221437  0.35314856  0.15265977  1
  O  O194  1  -0.01200724  0.38992950  0.38373564  1
  O  O195  1  -0.00346892  0.35717880  0.64614708  1
  O  O196  1  0.00785733  0.35795234  0.86505150  1
  O  O197  1  0.00011982  0.66644510  0.15100805  1
  O  O198  1  -0.00643318  0.60458489  0.36715893  1
  O  O199  1  -0.00938749  0.60087890  0.62412207  1
  O  O200  1  -0.01101788  0.64540742  0.85661383  1
  O  O201  1  0.00795049  0.86300766  0.13696388  1
  O  O202  1  0.00256033  0.87085238  0.33579939  1
  O  O203  1  0.00282964  0.87533633  0.61561579  1
  O  O204  1  -0.00117456  0.84154077  0.87648864  1
  O  O205  1  0.24550379  0.09623170  0.15724429  1
  O  O206  1  0.24419200  0.12296070  0.40223846  1
  O  O207  1  0.25153073  0.13200037  0.58763757  1
  O  O208  1  0.24860090  0.10153324  0.87753137  1
  O  O209  1  0.24696534  0.37877520  0.10079994  1
  O  O210  1  0.25176621  0.38304707  0.38807188  1
  O  O211  1  0.23830556  0.38380291  0.62426400  1
  O  O212  1  0.25045552  0.37743377  0.89529945  1
  O  O213  1  0.24032620  0.63276023  0.09746413  1
  O  O214  1  0.25132878  0.65606418  0.37972891  1
  O  O215  1  0.23699420  0.61275124  0.63562092  1
  O  O216  1  0.25081811  0.62878171  0.90818260  1
  O  O217  1  0.25889238  0.88029626  0.10791048  1
  O  O218  1  0.23501021  0.83797857  0.37777916  1
  O  O219  1  0.25018528  0.86358978  0.66414336  1
  O  O220  1  0.24056211  0.88758089  0.86209126  1
  O  O221  1  0.52568411  0.13986845  0.13184586  1
  O  O222  1  0.51012410  0.13759872  0.37106512  1
  O  O223  1  0.49863712  0.10504884  0.64499491  1
  O  O224  1  0.51199637  0.13014233  0.90225431  1
  O  O225  1  0.50554466  0.39913160  0.13266129  1
  O  O226  1  0.50405994  0.34999135  0.36668326  1
  O  O227  1  0.50439292  0.39012696  0.64819016  1
  O  O228  1  0.50402150  0.38839965  0.84415018  1
  O  O229  1  0.50391507  0.59168504  0.13473704  1
  O  O230  1  0.49725341  0.63058197  0.38846304  1
  O  O231  1  0.50363391  0.61105240  0.60527725  1
  O  O232  1  0.50898600  0.60072763  0.86957855  1
  O  O233  1  0.50650866  0.87941233  0.16102064  1
  O  O234  1  0.49853161  0.91746526  0.37855920  1
  O  O235  1  0.50311311  0.90572929  0.62264303  1
  O  O236  1  0.50816846  0.88714508  0.88238932  1
  O  O237  1  0.76368624  0.09552178  0.12660909  1
  O  O238  1  0.76625603  0.11682335  0.36933279  1
  O  O239  1  0.75265281  0.12827420  0.64459375  1
  O  O240  1  0.75422967  0.09573708  0.86329491  1
  O  O241  1  0.76190323  0.39953834  0.10777362  1
  O  O242  1  0.74836524  0.38475514  0.36778429  1
  O  O243  1  0.74801632  0.34628714  0.61900308  1
  O  O244  1  0.75954678  0.36992469  0.92437874  1
  O  O245  1  0.74862888  0.60536310  0.12659945  1
  O  O246  1  0.74074483  0.65502369  0.34222404  1
  O  O247  1  0.75246854  0.66486425  0.63752456  1
  O  O248  1  0.75191466  0.62898167  0.88589363  1
  O  O249  1  0.74655459  0.88835087  0.10379518  1
  O  O250  1  0.75980660  0.87358589  0.39217125  1
  O  O251  1  0.75209739  0.87034419  0.60589101  1
  O  O252  1  0.75442211  0.90097898  0.87768828  1
  O  O253  1  0.10923676  -0.00606833  0.14561406  1
  O  O254  1  0.12093167  -0.00336267  0.35758657  1
  O  O255  1  0.13919488  0.00413612  0.64413135  1
  O  O256  1  0.09738678  -0.00520292  0.85650472  1
  O  O257  1  0.15270383  0.23528191  0.11569487  1
  O  O258  1  0.13743692  0.24230179  0.41246953  1
  O  O259  1  0.14017450  0.25372207  0.60363419  1
  O  O260  1  0.13568356  0.23685682  0.89957207  1
  O  O261  1  0.13187321  0.50837299  0.14007082  1
  O  O262  1  0.12918444  0.51470586  0.35204962  1
  O  O263  1  0.11922082  0.49403787  0.66372169  1
  O  O264  1  0.11556890  0.49817282  0.85551149  1
  O  O265  1  0.13280197  0.75354728  0.09071008  1
  O  O266  1  0.09155612  0.74298161  0.38305060  1
  O  O267  1  0.11524273  0.73937741  0.60148791  1
  O  O268  1  0.14559971  0.75380682  0.90224461  1
  O  O269  1  0.39563344  -0.00100630  0.13055131  1
  O  O270  1  0.34160293  -0.00545957  0.36216896  1
  O  O271  1  0.34257418  -0.00191700  0.63093769  1
  O  O272  1  0.39637745  0.01231784  0.88034060  1
  O  O273  1  0.37976299  0.25113514  0.13392525  1
  O  O274  1  0.36254286  0.24498525  0.35762210  1
  O  O275  1  0.38117526  0.23421791  0.62141891  1
  O  O276  1  0.38917867  0.24940232  0.87266207  1
  O  O277  1  0.36331846  0.50370376  0.09461839  1
  O  O278  1  0.37019895  0.50855721  0.40484200  1
  O  O279  1  0.36435004  0.50785908  0.61728493  1
  O  O280  1  0.37354269  0.49841134  0.86038256  1
  O  O281  1  0.39931119  0.74751517  0.15637748  1
  O  O282  1  0.38863436  0.76205945  0.34873995  1
  O  O283  1  0.40801738  0.75238519  0.62678250  1
  O  O284  1  0.38848494  0.74157107  0.86972276  1
  O  O285  1  0.61778150  0.00311710  0.12607078  1
  O  O286  1  0.63633204  0.00331101  0.39078447  1
  O  O287  1  0.65229884  0.00265198  0.61845607  1
  O  O288  1  0.62268666  0.00514337  0.91069368  1
  O  O289  1  0.65729453  0.26018208  0.11268973  1
  O  O290  1  0.65757427  0.25081543  0.39838619  1
  O  O291  1  0.61790212  0.23918078  0.65098921  1
  O  O292  1  0.64246602  0.24871145  0.86938116  1
  O  O293  1  0.63232070  0.49793806  0.09256535  1
  O  O294  1  0.62876245  0.51281414  0.35716264  1
  O  O295  1  0.66106958  0.50313796  0.62040991  1
  O  O296  1  0.63847567  0.49543050  0.90011246  1
  O  O297  1  0.65587180  0.74786940  0.13756073  1
  O  O298  1  0.60885400  0.76526120  0.37470215  1
  O  O299  1  0.61290315  0.75941767  0.61446925  1
  O  O300  1  0.61022411  0.74661286  0.87393404  1
  O  O301  1  0.91013143  0.00199205  0.11377096  1
  O  O302  1  0.89789771  0.00713453  0.39523257  1
  O  O303  1  0.88447158  0.00663884  0.60995484  1
  O  O304  1  0.90901716  -0.00908575  0.87877572  1
  O  O305  1  0.86905744  0.24680415  0.12780896  1
  O  O306  1  0.86361644  0.25525691  0.34364325  1
  O  O307  1  0.87490872  0.24468346  0.65561413  1
  O  O308  1  0.88345642  0.25606124  0.88183464  1
  O  O309  1  0.91041960  0.51679187  0.11747597  1
  O  O310  1  0.85763293  0.50713444  0.36271672  1
  O  O311  1  0.83753060  0.50069868  0.61066239  1
  O  O312  1  0.89303599  0.50777399  0.89540876  1
  O  O313  1  0.85134284  0.74813530  0.12284459  1
  O  O314  1  0.89190488  0.74725337  0.35550881  1
  O  O315  1  0.89493060  0.74178263  0.61277951  1
  O  O316  1  0.85181967  0.74924043  0.83884653  1
