# generated using pymatgen
data_Mg32Ti42(Bi17O64)3
_symmetry_space_group_name_H-M   'P 1'
_cell_length_a   15.97478853
_cell_length_b   15.97465136
_cell_length_c   15.96331324
_cell_angle_alpha   89.75349779
_cell_angle_beta   89.99395218
_cell_angle_gamma   89.95949564
_symmetry_Int_Tables_number   1
_chemical_formula_structural   Mg32Ti42(Bi17O64)3
_chemical_formula_sum   'Mg32 Ti42 Bi51 O192'
_cell_volume   4073.66594128
_cell_formula_units_Z   1
loop_
 _symmetry_equiv_pos_site_id
 _symmetry_equiv_pos_as_xyz
  1  'x, y, z'
loop_
 _atom_site_type_symbol
 _atom_site_label
 _atom_site_symmetry_multiplicity
 _atom_site_fract_x
 _atom_site_fract_y
 _atom_site_fract_z
 _atom_site_occupancy
  Mg  Mg0  1  0.13008039  0.87523801  0.62754248  1
  Mg  Mg1  1  0.12915284  0.12335558  0.12565212  1
  Mg  Mg2  1  0.62103258  0.37209355  0.37222176  1
  Mg  Mg3  1  0.37116315  0.63143214  0.87289778  1
  Mg  Mg4  1  0.62125795  0.62233541  0.61443744  1
  Mg  Mg5  1  0.86560273  0.62443486  0.13001235  1
  Mg  Mg6  1  0.13470004  0.12313740  0.61781264  1
  Mg  Mg7  1  0.12429203  0.88811454  0.37189663  1
  Mg  Mg8  1  0.12148428  0.63358705  0.87118316  1
  Mg  Mg9  1  0.87908827  0.37351803  0.37547988  1
  Mg  Mg10  1  0.87570853  0.37656967  0.13236354  1
  Mg  Mg11  1  0.12411369  0.62890271  0.12243367  1
  Mg  Mg12  1  0.61510381  0.12155984  0.13123558  1
  Mg  Mg13  1  0.11987542  0.12760255  0.87767749  1
  Mg  Mg14  1  0.39273365  0.87193015  0.62639459  1
  Mg  Mg15  1  0.10302922  0.61831960  0.62888967  1
  Mg  Mg16  1  0.87368897  0.88545952  0.37263979  1
  Mg  Mg17  1  0.86692017  0.86792715  0.63497510  1
  Mg  Mg18  1  0.37280874  0.61525253  0.37513574  1
  Mg  Mg19  1  0.46052691  0.01266580  0.24865839  1
  Mg  Mg20  1  -0.00957017  -0.03884773  0.00216797  1
  Mg  Mg21  1  -0.04250737  0.52016780  0.77325552  1
  Mg  Mg22  1  0.25104345  0.46621051  0.44929266  1
  Mg  Mg23  1  0.76221623  0.81572474  0.49493015  1
  Mg  Mg24  1  0.52142276  -0.07724746  0.49788104  1
  Mg  Mg25  1  0.01442345  -0.01641378  0.19727142  1
  Mg  Mg26  1  -0.09689690  0.00585310  0.51931902  1
  Mg  Mg27  1  0.47934257  0.72276252  0.46631961  1
  Mg  Mg28  1  0.74164823  0.71962219  0.70019443  1
  Mg  Mg29  1  0.72106951  0.72901624  0.03418864  1
  Mg  Mg30  1  0.44190373  0.51013682  0.74318072  1
  Mg  Mg31  1  0.80475625  0.04663434  0.72662246  1
  Ti  Ti32  1  0.85825535  0.62430210  0.38073979  1
  Ti  Ti33  1  0.12710370  0.86966728  0.12133148  1
  Ti  Ti34  1  0.37485964  0.62012587  0.12448851  1
  Ti  Ti35  1  0.38031440  0.37597046  0.36862441  1
  Ti  Ti36  1  0.63323273  0.37114607  0.12214563  1
  Ti  Ti37  1  0.38385931  0.62188372  0.60915061  1
  Ti  Ti38  1  0.12282721  0.61860731  0.38404712  1
  Ti  Ti39  1  0.63174396  0.86366759  0.63162262  1
  Ti  Ti40  1  0.11791531  0.87682632  0.87120964  1
  Ti  Ti41  1  0.62609052  0.10843260  0.62658293  1
  Ti  Ti42  1  0.12254017  0.37229372  0.36683413  1
  Ti  Ti43  1  0.65260400  0.86098834  0.87671512  1
  Ti  Ti44  1  0.13250907  0.12302909  0.36937628  1
  Ti  Ti45  1  0.61766564  0.38473850  0.85879392  1
  Ti  Ti46  1  0.89175149  0.12478622  0.37211679  1
  Ti  Ti47  1  0.88805242  0.38742150  0.62113789  1
  Ti  Ti48  1  0.84962606  0.65060660  0.88715446  1
  Ti  Ti49  1  0.12778111  0.38099132  0.11533622  1
  Ti  Ti50  1  0.59918487  0.11306752  0.35458364  1
  Ti  Ti51  1  0.87639225  0.62271000  0.59767043  1
  Ti  Ti52  1  0.63247063  0.63153014  0.87211451  1
  Ti  Ti53  1  0.89273517  0.11673401  0.11167035  1
  Ti  Ti54  1  0.62105739  0.86763854  0.36007177  1
  Ti  Ti55  1  0.62580118  0.87247508  0.12085698  1
  Ti  Ti56  1  0.36935353  0.85997129  0.13413466  1
  Ti  Ti57  1  0.87924141  0.88476293  0.86932902  1
  Ti  Ti58  1  0.37741136  0.37913656  0.10934594  1
  Ti  Ti59  1  0.12210228  0.37096771  0.86025798  1
  Ti  Ti60  1  0.37700236  0.86963488  0.37199005  1
  Ti  Ti61  1  0.37818701  0.12004815  0.36961844  1
  Ti  Ti62  1  0.37458645  0.13169150  0.11734878  1
  Ti  Ti63  1  0.37702781  0.11900199  0.61907769  1
  Ti  Ti64  1  0.62394101  0.62448918  0.38725962  1
  Ti  Ti65  1  0.88826144  0.11050151  0.88579025  1
  Ti  Ti66  1  0.61630406  0.37249214  0.62402078  1
  Ti  Ti67  1  0.62911517  0.61553437  0.12772943  1
  Ti  Ti68  1  0.37628446  0.36960388  0.86457768  1
  Ti  Ti69  1  0.37044470  0.37153292  0.62205653  1
  Ti  Ti70  1  0.13502557  0.37753825  0.62258996  1
  Ti  Ti71  1  0.37560164  0.12146288  0.87113707  1
  Ti  Ti72  1  0.86345615  0.87960350  0.11511357  1
  Ti  Ti73  1  0.36947245  0.87375350  0.86600502  1
  Bi  Bi74  1  0.26487728  0.25141475  0.47846567  1
  Bi  Bi75  1  -0.00553692  0.51776894  -0.02805710  1
  Bi  Bi76  1  0.24730678  0.73327948  0.72032042  1
  Bi  Bi77  1  0.51853054  0.74026226  0.24877807  1
  Bi  Bi78  1  0.49418071  0.73075801  0.72503390  1
  Bi  Bi79  1  0.00680228  0.76793556  0.27438540  1
  Bi  Bi80  1  0.23953240  -0.00102339  0.24016368  1
  Bi  Bi81  1  -0.00356790  0.52315985  0.23712836  1
  Bi  Bi82  1  0.51941573  0.22375280  -0.02132941  1
  Bi  Bi83  1  0.48043245  -0.02354336  0.02076716  1
  Bi  Bi84  1  0.75604689  0.48457501  0.74887259  1
  Bi  Bi85  1  0.51083177  0.21779784  0.73924870  1
  Bi  Bi86  1  0.23141436  0.51560234  -0.01790039  1
  Bi  Bi87  1  0.51467042  0.50676668  0.23866246  1
  Bi  Bi88  1  0.74159252  0.46524570  0.50587218  1
  Bi  Bi89  1  0.76451249  0.49585893  0.25612846  1
  Bi  Bi90  1  -0.03182081  0.29534042  -0.02030385  1
  Bi  Bi91  1  -0.02344186  0.74243644  0.02026770  1
  Bi  Bi92  1  0.23125015  0.51043563  0.74126768  1
  Bi  Bi93  1  0.22028091  0.75939923  0.50971359  1
  Bi  Bi94  1  0.71047068  0.00946135  0.47587966  1
  Bi  Bi95  1  -0.01000509  0.21031531  0.73722478  1
  Bi  Bi96  1  0.50824175  0.26687084  0.22455949  1
  Bi  Bi97  1  0.23980459  0.23953755  0.74417038  1
  Bi  Bi98  1  0.22966160  0.01707456  0.74526140  1
  Bi  Bi99  1  0.24352608  0.25095943  0.22327166  1
  Bi  Bi100  1  0.23712922  -0.00129727  -0.01728880  1
  Bi  Bi101  1  0.77514196  0.01955446  0.23877203  1
  Bi  Bi102  1  0.78252413  0.23431789  0.51454309  1
  Bi  Bi103  1  0.24828701  0.72751296  0.28384259  1
  Bi  Bi104  1  0.76308441  0.47015946  -0.02834336  1
  Bi  Bi105  1  -0.00315651  -0.00707176  0.70780013  1
  Bi  Bi106  1  0.50043018  0.73955513  -0.02323075  1
  Bi  Bi107  1  0.51446116  0.24251618  0.47813351  1
  Bi  Bi108  1  -0.03218978  0.73247749  0.74383453  1
  Bi  Bi109  1  0.50767650  0.49190138  0.50057057  1
  Bi  Bi110  1  0.53391543  -0.00857699  0.79295433  1
  Bi  Bi111  1  0.24252818  0.51325159  0.23098918  1
  Bi  Bi112  1  0.73658310  0.23797234  -0.03789937  1
  Bi  Bi113  1  -0.00310979  0.79993412  0.50724435  1
  Bi  Bi114  1  0.76868904  0.26330614  0.26340612  1
  Bi  Bi115  1  0.77059353  0.76227402  0.26709723  1
  Bi  Bi116  1  0.01423381  0.48582591  0.49682441  1
  Bi  Bi117  1  0.24461690  0.75332213  -0.01997693  1
  Bi  Bi118  1  0.71743300  0.02445571  -0.00502023  1
  Bi  Bi119  1  0.02739702  0.22319147  0.50323890  1
  Bi  Bi120  1  0.23365688  0.23519014  -0.01444867  1
  Bi  Bi121  1  0.27910809  -0.02023647  0.51482789  1
  Bi  Bi122  1  0.76277450  0.24309275  0.73593487  1
  Bi  Bi123  1  0.49207831  0.50986230  -0.03334897  1
  Bi  Bi124  1  0.00446460  0.25016249  0.22094592  1
  O  O125  1  0.15674664  0.11938689  0.00148512  1
  O  O126  1  0.12942328  0.16656850  0.25862809  1
  O  O127  1  0.11590359  0.11863797  0.49210313  1
  O  O128  1  0.13850601  0.14312424  0.75062305  1
  O  O129  1  0.13485877  0.40056500  0.00302058  1
  O  O130  1  0.11383169  0.34775237  0.25649648  1
  O  O131  1  0.14361315  0.41520735  0.50822474  1
  O  O132  1  0.11798292  0.34182475  0.74937012  1
  O  O133  1  0.11181768  0.59002170  -0.00149895  1
  O  O134  1  0.15887202  0.62933709  0.24662236  1
  O  O135  1  0.10527635  0.60390374  0.49790349  1
  O  O136  1  0.15824579  0.63369586  0.74856914  1
  O  O137  1  0.12698840  0.91355612  0.00833290  1
  O  O138  1  0.09310957  0.86985965  0.24209107  1
  O  O139  1  0.12651101  0.86725736  0.49628097  1
  O  O140  1  0.13238052  0.86851606  0.75942910  1
  O  O141  1  0.34725513  0.12375829  0.00429114  1
  O  O142  1  0.39674374  0.14053669  0.25752529  1
  O  O143  1  0.35335930  0.11195075  0.50553548  1
  O  O144  1  0.39619086  0.12987029  0.75471293  1
  O  O145  1  0.36804324  0.39654862  -0.00175807  1
  O  O146  1  0.39688406  0.36396188  0.25728814  1
  O  O147  1  0.33955828  0.38541690  0.50983215  1
  O  O148  1  0.39950497  0.38334554  0.74965264  1
  O  O149  1  0.40301333  0.62310662  0.00878839  1
  O  O150  1  0.34434104  0.62874847  0.24715162  1
  O  O151  1  0.40923657  0.61769010  0.49778632  1
  O  O152  1  0.35705671  0.64539584  0.74719975  1
  O  O153  1  0.36203374  0.89483321  0.02065566  1
  O  O154  1  0.40377190  0.87803320  0.25184102  1
  O  O155  1  0.39274171  0.90898390  0.48983955  1
  O  O156  1  0.37616005  0.85978941  0.75510716  1
  O  O157  1  0.64048028  0.14432488  0.00695231  1
  O  O158  1  0.56999312  0.08470602  0.24927726  1
  O  O159  1  0.64119264  0.13401518  0.51046243  1
  O  O160  1  0.59746734  0.11001323  0.74993976  1
  O  O161  1  0.65231299  0.37160513  0.00599605  1
  O  O162  1  0.58857072  0.38354328  0.24749385  1
  O  O163  1  0.65052655  0.35112762  0.50532168  1
  O  O164  1  0.61350262  0.40884077  0.74582097  1
  O  O165  1  0.60203091  0.64526075  0.01388466  1
  O  O166  1  0.63327993  0.59301591  0.25174869  1
  O  O167  1  0.58817698  0.65265972  0.49275965  1
  O  O168  1  0.66624627  0.62843821  0.76617838  1
  O  O169  1  0.65142120  0.83655950  0.00867015  1
  O  O170  1  0.60802926  0.88824771  0.24912785  1
  O  O171  1  0.64545161  0.86690101  0.50949573  1
  O  O172  1  0.62538459  0.89158522  0.76030369  1
  O  O173  1  0.91786184  0.07785748  0.00036235  1
  O  O174  1  0.85965692  0.13486194  0.25321886  1
  O  O175  1  0.87323288  0.12760567  0.49604142  1
  O  O176  1  0.86505912  0.15024435  0.76355242  1
  O  O177  1  0.87053944  0.38871950  0.00726103  1
  O  O178  1  0.88770721  0.33287702  0.25263412  1
  O  O179  1  0.84848433  0.35888738  0.50003038  1
  O  O180  1  0.88529230  0.43023029  0.73003336  1
  O  O181  1  0.90237398  0.62261875  0.00198821  1
  O  O182  1  0.84543508  0.64517448  0.25888384  1
  O  O183  1  0.90835932  0.63483355  0.48809188  1
  O  O184  1  0.84373995  0.67868756  0.77215964  1
  O  O185  1  0.87248430  0.90707871  0.00110006  1
  O  O186  1  0.88517653  0.84658484  0.24321337  1
  O  O187  1  0.87100080  0.88220807  0.50351562  1
  O  O188  1  0.90139507  0.85636592  0.75868773  1
  O  O189  1  0.00369425  0.11131776  0.14901103  1
  O  O190  1  0.00187902  0.15057898  0.36889713  1
  O  O191  1  0.00506099  0.11999443  0.63805337  1
  O  O192  1  -0.00031865  0.11850300  0.84615922  1
  O  O193  1  0.00933546  0.35832561  0.12347571  1
  O  O194  1  0.00766263  0.38618049  0.39526256  1
  O  O195  1  0.00282323  0.38291613  0.60030416  1
  O  O196  1  0.00943158  0.39770173  0.87796018  1
  O  O197  1  -0.00317222  0.63142424  0.15093001  1
  O  O198  1  0.00633059  0.61523035  0.34803096  1
  O  O199  1  -0.02521871  0.59979321  0.67163400  1
  O  O200  1  0.00005139  0.59864304  0.85930325  1
  O  O201  1  0.00119811  0.88585963  0.10614543  1
  O  O202  1  -0.00402468  0.85762168  0.37761573  1
  O  O203  1  0.00353421  0.88958448  0.61607454  1
  O  O204  1  0.00333308  0.90654190  0.89015658  1
  O  O205  1  0.25867482  0.11855007  0.15865393  1
  O  O206  1  0.25341920  0.14353539  0.37434188  1
  O  O207  1  0.25978113  0.13477717  0.64652619  1
  O  O208  1  0.25874166  0.15841510  0.86399627  1
  O  O209  1  0.25227572  0.38909663  0.14404076  1
  O  O210  1  0.25212571  0.35436663  0.37503542  1
  O  O211  1  0.24966581  0.37653238  0.65265880  1
  O  O212  1  0.26034374  0.35842058  0.86286908  1
  O  O213  1  0.25630597  0.59531579  0.10502484  1
  O  O214  1  0.24593820  0.63399717  0.39018879  1
  O  O215  1  0.26854633  0.65325559  0.60654980  1
  O  O216  1  0.24796604  0.63478475  0.90565802  1
  O  O217  1  0.25184509  0.88229430  0.15338975  1
  O  O218  1  0.26056448  0.88534816  0.37258903  1
  O  O219  1  0.26374711  0.85934966  0.59942554  1
  O  O220  1  0.24752747  0.86798923  0.89508855  1
  O  O221  1  0.49218773  0.15401570  0.09997719  1
  O  O222  1  0.49222024  0.12338314  0.41145949  1
  O  O223  1  0.50046020  0.14008799  0.61929565  1
  O  O224  1  0.49093134  0.11288283  0.90293310  1
  O  O225  1  0.49403717  0.35044728  0.10955684  1
  O  O226  1  0.49435712  0.37674515  0.41029438  1
  O  O227  1  0.50009853  0.37820967  0.59999083  1
  O  O228  1  0.50720616  0.38690617  0.89299202  1
  O  O229  1  0.49642520  0.63430731  0.15915207  1
  O  O230  1  0.50231063  0.64091600  0.35051918  1
  O  O231  1  0.50162529  0.60437430  0.67135202  1
  O  O232  1  0.50735914  0.62523069  0.87575840  1
  O  O233  1  0.50292692  0.86449490  0.10542519  1
  O  O234  1  0.51097776  0.83826190  0.40380537  1
  O  O235  1  0.51724445  0.89083021  0.61935614  1
  O  O236  1  0.48383444  0.88798204  0.89680868  1
  O  O237  1  0.76157928  0.09680106  0.12328033  1
  O  O238  1  0.71627558  0.09745489  0.35651849  1
  O  O239  1  0.73934966  0.13331557  0.65917810  1
  O  O240  1  0.76355320  0.12003937  0.89879152  1
  O  O241  1  0.74450062  0.38452151  0.15637670  1
  O  O242  1  0.74590207  0.37924076  0.34193126  1
  O  O243  1  0.74683745  0.39445156  0.63771335  1
  O  O244  1  0.74612598  0.39193790  0.85748542  1
  O  O245  1  0.74052451  0.61885564  0.10538634  1
  O  O246  1  0.74476833  0.60800581  0.40152388  1
  O  O247  1  0.76165050  0.62810422  0.61531229  1
  O  O248  1  0.74290221  0.66639095  0.92428491  1
  O  O249  1  0.74923738  0.89427165  0.14088601  1
  O  O250  1  0.74016311  0.88716960  0.37348012  1
  O  O251  1  0.75020426  0.82759814  0.63048602  1
  O  O252  1  0.76295157  0.85541155  0.86996212  1
  O  O253  1  0.13226219  0.00007250  0.15578542  1
  O  O254  1  0.13110235  0.01284753  0.34323678  1
  O  O255  1  0.13833117  -0.00025331  0.64659112  1
  O  O256  1  0.15399144  0.00334892  0.86648987  1
  O  O257  1  0.15047825  0.25560569  0.11518339  1
  O  O258  1  0.12572852  0.26132699  0.41353972  1
  O  O259  1  0.12572452  0.25748734  0.59953500  1
  O  O260  1  0.11936571  0.25868510  0.90364028  1
  O  O261  1  0.11939606  0.49394597  0.15565459  1
  O  O262  1  0.15100872  0.49436730  0.36203365  1
  O  O263  1  0.12531026  0.49417118  0.65817602  1
  O  O264  1  0.15479764  0.49204796  0.85531574  1
  O  O265  1  0.13609606  0.75706678  0.10223899  1
  O  O266  1  0.12403936  0.74153262  0.36779421  1
  O  O267  1  0.12860913  0.74424918  0.61558258  1
  O  O268  1  0.11934165  0.76016876  0.90707316  1
  O  O269  1  0.40122958  0.01272760  0.13903495  1
  O  O270  1  0.38626820  0.00642375  0.35202567  1
  O  O271  1  0.35831824  0.00256204  0.63139249  1
  O  O272  1  0.35279844  0.00431298  0.87197315  1
  O  O273  1  0.35104381  0.25553603  0.12186829  1
  O  O274  1  0.38632672  0.25097277  0.40518719  1
  O  O275  1  0.37449489  0.25539982  0.62344342  1
  O  O276  1  0.40086472  0.25443799  0.88257534  1
  O  O277  1  0.39506080  0.49800504  0.14057799  1
  O  O278  1  0.35555575  0.48980807  0.37561491  1
  O  O279  1  0.37581606  0.50466992  0.63408671  1
  O  O280  1  0.38992801  0.50363298  0.86402507  1
  O  O281  1  0.36315876  0.74757364  0.12258854  1
  O  O282  1  0.36966278  0.75494701  0.38807948  1
  O  O283  1  0.42372978  0.74356696  0.60645067  1
  O  O284  1  0.37370152  0.75705936  0.90024010  1
  O  O285  1  0.61209504  -0.00879004  0.09404252  1
  O  O286  1  0.59352192  -0.01109913  0.40623053  1
  O  O287  1  0.64742332  -0.00171619  0.61460455  1
  O  O288  1  0.62445111  -0.02313503  0.89931728  1
  O  O289  1  0.63055012  0.25363441  0.14888822  1
  O  O290  1  0.59782270  0.23618055  0.35933364  1
  O  O291  1  0.62570055  0.25858597  0.65583199  1
  O  O292  1  0.63194331  0.26574396  0.86558072  1
  O  O293  1  0.59668217  0.49716131  0.12025323  1
  O  O294  1  0.60980121  0.50393763  0.40141388  1
  O  O295  1  0.62365283  0.49768430  0.58691648  1
  O  O296  1  0.63217555  0.51056184  0.89608943  1
  O  O297  1  0.63178020  0.74605343  0.15151178  1
  O  O298  1  0.63942471  0.74604715  0.34521367  1
  O  O299  1  0.61351361  0.74617855  0.65452995  1
  O  O300  1  0.60004228  0.75399530  0.87100940  1
  O  O301  1  0.89121098  -0.00666596  0.16124879  1
  O  O302  1  0.87999789  0.01007297  0.38304584  1
  O  O303  1  0.87292082  -0.00492202  0.64099415  1
  O  O304  1  0.86025573  0.00035743  0.83732368  1
  O  O305  1  0.89026698  0.23211142  0.10107370  1
  O  O306  1  0.83546277  0.23718310  0.38355575  1
  O  O307  1  0.86459443  0.26916113  0.64327922  1
  O  O308  1  0.87737879  0.23332000  0.90260581  1
  O  O309  1  0.87666161  0.49975351  0.16422172  1
  O  O310  1  0.87076789  0.50414135  0.35620369  1
  O  O311  1  0.87261281  0.50025268  0.57537776  1
  O  O312  1  0.84636929  0.53259487  0.86618302  1
  O  O313  1  0.85429048  0.75931255  0.09066011  1
  O  O314  1  0.83698343  0.75054939  0.38782321  1
  O  O315  1  0.90324077  0.74119803  0.62260024  1
  O  O316  1  0.90847093  0.75897621  0.90216341  1
