# generated using pymatgen
data_Mg32Ti42(Bi17O64)3
_symmetry_space_group_name_H-M   'P 1'
_cell_length_a   15.95661039
_cell_length_b   15.94726479
_cell_length_c   15.93441423
_cell_angle_alpha   89.85825635
_cell_angle_beta   90.05050231
_cell_angle_gamma   90.03973703
_symmetry_Int_Tables_number   1
_chemical_formula_structural   Mg32Ti42(Bi17O64)3
_chemical_formula_sum   'Mg32 Ti42 Bi51 O192'
_cell_volume   4054.72446859
_cell_formula_units_Z   1
loop_
 _symmetry_equiv_pos_site_id
 _symmetry_equiv_pos_as_xyz
  1  'x, y, z'
loop_
 _atom_site_type_symbol
 _atom_site_label
 _atom_site_symmetry_multiplicity
 _atom_site_fract_x
 _atom_site_fract_y
 _atom_site_fract_z
 _atom_site_occupancy
  Mg  Mg0  1  0.60783753  0.11741771  0.37597808  1
  Mg  Mg1  1  0.38614814  0.62757993  0.36725517  1
  Mg  Mg2  1  0.62327468  0.37728283  0.88328523  1
  Mg  Mg3  1  0.88748858  0.62265199  0.62935984  1
  Mg  Mg4  1  0.88631966  0.62011726  0.87787699  1
  Mg  Mg5  1  0.62983216  0.12799384  0.63049632  1
  Mg  Mg6  1  0.63106935  0.38037440  0.62597203  1
  Mg  Mg7  1  0.62098794  0.62347608  0.12268667  1
  Mg  Mg8  1  0.14074468  0.37750329  0.87667419  1
  Mg  Mg9  1  0.37208005  0.38514232  0.11823176  1
  Mg  Mg10  1  0.36990391  0.88185751  0.62164916  1
  Mg  Mg11  1  0.36773689  0.13627154  0.87939111  1
  Mg  Mg12  1  0.37418519  0.61520144  0.88142837  1
  Mg  Mg13  1  0.11640446  0.12879085  0.36773743  1
  Mg  Mg14  1  0.12391366  0.88124949  0.12563044  1
  Mg  Mg15  1  0.87175313  0.63329643  0.37902535  1
  Mg  Mg16  1  0.86899473  0.62218157  0.12961928  1
  Mg  Mg17  1  0.37950152  0.12962428  0.12372265  1
  Mg  Mg18  1  0.88094433  0.87550240  0.88618911  1
  Mg  Mg19  1  0.50217340  0.73218223  0.21856421  1
  Mg  Mg20  1  0.52269552  0.01290441  0.54924098  1
  Mg  Mg21  1  0.52973674  0.48533609  0.02984340  1
  Mg  Mg22  1  0.21833991  0.55065856  0.03953741  1
  Mg  Mg23  1  0.19150400  0.51457580  0.50352267  1
  Mg  Mg24  1  0.50215055  -0.03261239  0.29029120  1
  Mg  Mg25  1  0.52664406  0.54646708  0.25008186  1
  Mg  Mg26  1  0.25202704  0.73991952  0.74754050  1
  Mg  Mg27  1  0.75870804  0.20954542  -0.01858752  1
  Mg  Mg28  1  -0.03367484  0.26380060  0.30359547  1
  Mg  Mg29  1  -0.03957340  0.05974699  0.24275399  1
  Mg  Mg30  1  0.24758855  -0.05860140  0.47660239  1
  Mg  Mg31  1  -0.03821314  0.74669803  0.78972982  1
  Ti  Ti32  1  0.37661465  0.11714095  0.60394124  1
  Ti  Ti33  1  0.38281851  0.62450201  0.12404484  1
  Ti  Ti34  1  0.60917848  0.38085455  0.36865449  1
  Ti  Ti35  1  0.11964454  0.62012687  0.37363249  1
  Ti  Ti36  1  0.87642976  0.11360364  0.86881572  1
  Ti  Ti37  1  0.36840777  0.62388890  0.61619200  1
  Ti  Ti38  1  0.14083111  0.85497472  0.62117483  1
  Ti  Ti39  1  0.87917363  0.11849925  0.38611046  1
  Ti  Ti40  1  0.61436806  0.87489651  0.63414975  1
  Ti  Ti41  1  0.37497228  0.88323478  0.14064841  1
  Ti  Ti42  1  0.38572231  0.39237013  0.36854274  1
  Ti  Ti43  1  0.37191062  0.86726287  0.37335460  1
  Ti  Ti44  1  0.12320733  0.38120063  0.61966289  1
  Ti  Ti45  1  0.87736624  0.37574236  0.14027143  1
  Ti  Ti46  1  0.87416586  0.87688225  0.36776654  1
  Ti  Ti47  1  0.85414632  0.37731621  0.38113751  1
  Ti  Ti48  1  0.62427430  0.63886617  0.62991641  1
  Ti  Ti49  1  0.12788475  0.61473504  0.86527597  1
  Ti  Ti50  1  0.62371870  0.87594271  0.38437754  1
  Ti  Ti51  1  0.12528633  0.35614031  0.13185695  1
  Ti  Ti52  1  0.61949736  0.64300412  0.37111848  1
  Ti  Ti53  1  0.12046611  0.12207512  0.13485082  1
  Ti  Ti54  1  0.63254508  0.12588303  0.87167154  1
  Ti  Ti55  1  0.35812020  0.87799562  0.86577452  1
  Ti  Ti56  1  0.37816164  0.10955450  0.37172494  1
  Ti  Ti57  1  0.61443511  0.62258472  0.88432993  1
  Ti  Ti58  1  0.86969147  0.13424843  0.63547813  1
  Ti  Ti59  1  0.86770629  0.37115204  0.88614587  1
  Ti  Ti60  1  0.61699248  0.86360073  0.86853194  1
  Ti  Ti61  1  0.63080809  0.37751489  0.12932273  1
  Ti  Ti62  1  0.13123464  0.12036669  0.87220087  1
  Ti  Ti63  1  0.61558295  0.86917808  0.12839462  1
  Ti  Ti64  1  0.62736953  0.12510200  0.11439111  1
  Ti  Ti65  1  0.13106710  0.62381733  0.63254488  1
  Ti  Ti66  1  0.87625368  0.88291257  0.12874677  1
  Ti  Ti67  1  0.12570742  0.37224670  0.36799297  1
  Ti  Ti68  1  0.12461056  0.12745888  0.60322580  1
  Ti  Ti69  1  0.37742930  0.38798948  0.89048702  1
  Ti  Ti70  1  0.13513885  0.85720026  0.87371703  1
  Ti  Ti71  1  0.86996641  0.37975556  0.62803623  1
  Ti  Ti72  1  0.86666322  0.14467267  0.11639246  1
  Ti  Ti73  1  0.11133018  0.87357009  0.37429121  1
  Bi  Bi74  1  0.49757832  0.01926310  -0.02809403  1
  Bi  Bi75  1  0.28519401  0.47314583  0.72850538  1
  Bi  Bi76  1  0.72509806  0.24177713  0.25936164  1
  Bi  Bi77  1  0.76710903  0.74604999  0.76786637  1
  Bi  Bi78  1  0.77860630  0.73735365  -0.00237141  1
  Bi  Bi79  1  0.27130528  0.49971652  0.23902809  1
  Bi  Bi80  1  0.76062708  0.50427698  0.01189120  1
  Bi  Bi81  1  0.02692885  0.73441174  0.02787143  1
  Bi  Bi82  1  0.24075431  0.73539197  0.46400401  1
  Bi  Bi83  1  0.01000195  0.24592545  -0.02858112  1
  Bi  Bi84  1  -0.00473632  0.74509872  0.51385078  1
  Bi  Bi85  1  0.47732887  0.76898127  0.50818631  1
  Bi  Bi86  1  -0.01364363  0.46959610  0.75940405  1
  Bi  Bi87  1  0.23563152  0.00665580  0.71114757  1
  Bi  Bi88  1  0.02658125  0.52266301  0.20829784  1
  Bi  Bi89  1  0.50260859  0.23601271  0.23875425  1
  Bi  Bi90  1  0.50827412  0.50867790  0.73982672  1
  Bi  Bi91  1  0.23122314  -0.00102105  0.27410955  1
  Bi  Bi92  1  0.01549577  -0.03725774  0.76172520  1
  Bi  Bi93  1  -0.01450514  0.24368028  0.51339098  1
  Bi  Bi94  1  0.77544541  0.77998738  0.52079760  1
  Bi  Bi95  1  0.73180778  -0.02315453  -0.01669020  1
  Bi  Bi96  1  0.24957224  0.72849625  -0.01616849  1
  Bi  Bi97  1  0.27095800  0.25408984  0.71276913  1
  Bi  Bi98  1  0.26583988  0.01790911  0.01967246  1
  Bi  Bi99  1  0.74455721  0.51345273  0.77449204  1
  Bi  Bi100  1  0.00616403  0.01731399  0.01780744  1
  Bi  Bi101  1  0.01764322  0.46890478  0.00028341  1
  Bi  Bi102  1  0.48693698  0.27216038  0.00928942  1
  Bi  Bi103  1  0.26645898  0.24730176  0.27572059  1
  Bi  Bi104  1  0.47417334  0.03660597  0.75172547  1
  Bi  Bi105  1  0.73476895  0.26429126  0.77331393  1
  Bi  Bi106  1  0.47237137  0.77094391  -0.00752043  1
  Bi  Bi107  1  0.72283552  -0.00715127  0.24666877  1
  Bi  Bi108  1  0.76105808  0.76068087  0.23933537  1
  Bi  Bi109  1  0.27237048  0.29354826  0.49523410  1
  Bi  Bi110  1  0.02121058  0.75051657  0.23613737  1
  Bi  Bi111  1  0.46138868  0.73704733  0.74982653  1
  Bi  Bi112  1  -0.02232262  0.49740040  0.46899411  1
  Bi  Bi113  1  0.75802976  0.52907590  0.25095271  1
  Bi  Bi114  1  0.24289417  0.73905121  0.21777878  1
  Bi  Bi115  1  0.50159229  0.28211354  0.52433798  1
  Bi  Bi116  1  0.78922206  -0.04592527  0.72857432  1
  Bi  Bi117  1  0.49694991  0.27873589  0.74916682  1
  Bi  Bi118  1  0.03820973  0.24433929  0.74538335  1
  Bi  Bi119  1  0.50458325  0.51025962  0.49566905  1
  Bi  Bi120  1  0.74634757  0.52893203  0.50671307  1
  Bi  Bi121  1  0.25797373  0.26208737  0.00180472  1
  Bi  Bi122  1  0.73288875  0.24210017  0.49716732  1
  Bi  Bi123  1  0.72076776  0.01548757  0.49760766  1
  Bi  Bi124  1  -0.02893090  -0.03010557  0.53133060  1
  O  O125  1  0.08963019  0.12940155  -0.00606612  1
  O  O126  1  0.11533938  0.08387657  0.24284114  1
  O  O127  1  0.10385847  0.13788480  0.49389424  1
  O  O128  1  0.13380540  0.13534275  0.75457150  1
  O  O129  1  0.10253403  0.35812939  0.00484780  1
  O  O130  1  0.12465163  0.39402679  0.24777948  1
  O  O131  1  0.14873840  0.38273350  0.49929598  1
  O  O132  1  0.11934073  0.37797991  0.74608425  1
  O  O133  1  0.12657098  0.65062864  -0.01002569  1
  O  O134  1  0.11722504  0.62543555  0.25630016  1
  O  O135  1  0.13475493  0.63500000  0.50252717  1
  O  O136  1  0.16065911  0.61061072  0.74831449  1
  O  O137  1  0.12062050  0.84222431  -0.01148222  1
  O  O138  1  0.10305832  0.87681194  0.25835537  1
  O  O139  1  0.14911442  0.85612645  0.49967996  1
  O  O140  1  0.13863587  0.89017245  0.74309197  1
  O  O141  1  0.38359678  0.09812253  0.00013125  1
  O  O142  1  0.37937641  0.16476243  0.24464719  1
  O  O143  1  0.39646494  0.09838807  0.49313344  1
  O  O144  1  0.37760146  0.13710435  0.75398872  1
  O  O145  1  0.42907259  0.40743934  0.00146219  1
  O  O146  1  0.36117257  0.39241180  0.24628799  1
  O  O147  1  0.38679092  0.36932075  0.49033539  1
  O  O148  1  0.35655743  0.35374076  0.76472128  1
  O  O149  1  0.39710000  0.64321322  0.00883677  1
  O  O150  1  0.37000687  0.58929806  0.24589557  1
  O  O151  1  0.41679459  0.62825762  0.50555587  1
  O  O152  1  0.34801158  0.65804548  0.74262362  1
  O  O153  1  0.37080581  0.86283019  0.01241338  1
  O  O154  1  0.40588002  0.89126377  0.25759932  1
  O  O155  1  0.36279152  0.88030539  0.49191124  1
  O  O156  1  0.34527040  0.84808333  0.75372646  1
  O  O157  1  0.60708517  0.12119541  -0.00162880  1
  O  O158  1  0.64864122  0.12653134  0.24742858  1
  O  O159  1  0.60802558  0.09168388  0.50108508  1
  O  O160  1  0.64173562  0.14850695  0.75732297  1
  O  O161  1  0.61314985  0.39215986  0.00955216  1
  O  O162  1  0.63896094  0.35892075  0.25482635  1
  O  O163  1  0.59707847  0.38445480  0.49294687  1
  O  O164  1  0.62418981  0.34155051  0.75089186  1
  O  O165  1  0.59707296  0.59268084  -0.00582709  1
  O  O166  1  0.64748774  0.61356787  0.25549225  1
  O  O167  1  0.60212089  0.61039716  0.48980188  1
  O  O168  1  0.65547958  0.64478175  0.74009155  1
  O  O169  1  0.63854958  0.87365678  0.00891909  1
  O  O170  1  0.60718360  0.90430780  0.25163700  1
  O  O171  1  0.64468581  0.88607196  0.49967779  1
  O  O172  1  0.60329025  0.85827698  0.75246262  1
  O  O173  1  0.89848790  0.11211599  -0.01091492  1
  O  O174  1  0.85764616  0.14554724  0.23204723  1
  O  O175  1  0.91064241  0.11103458  0.49691167  1
  O  O176  1  0.85142423  0.14237556  0.74729046  1
  O  O177  1  0.86819581  0.40716505  -0.00209672  1
  O  O178  1  0.87794068  0.34291161  0.25291753  1
  O  O179  1  0.87508298  0.39725490  0.49883650  1
  O  O180  1  0.89809590  0.35752009  0.74536481  1
  O  O181  1  0.85843688  0.61209667  0.00206963  1
  O  O182  1  0.84359553  0.63815101  0.25628721  1
  O  O183  1  0.87585164  0.58456573  0.50312348  1
  O  O184  1  0.87178065  0.66129515  0.74948956  1
  O  O185  1  0.84528577  0.88276192  0.00900097  1
  O  O186  1  0.88706137  0.84017037  0.25211688  1
  O  O187  1  0.85664282  0.90214989  0.49118593  1
  O  O188  1  0.87487345  0.85257991  0.75575733  1
  O  O189  1  -0.00614188  0.11019076  0.12778331  1
  O  O190  1  -0.01009502  0.14581270  0.33772329  1
  O  O191  1  0.00002879  0.15606703  0.63290958  1
  O  O192  1  -0.01244815  0.15432538  0.85321195  1
  O  O193  1  -0.00558614  0.37961392  0.12284067  1
  O  O194  1  0.01110199  0.35806318  0.38080471  1
  O  O195  1  0.00740177  0.35790816  0.60809270  1
  O  O196  1  -0.00987484  0.37295715  0.88331813  1
  O  O197  1  -0.00869219  0.64246747  0.13979323  1
  O  O198  1  0.00055005  0.62014188  0.38873988  1
  O  O199  1  0.02092107  0.65157389  0.62911087  1
  O  O200  1  0.01640407  0.64960983  0.85468009  1
  O  O201  1  -0.01007483  0.85715780  0.11474492  1
  O  O202  1  -0.00046986  0.88152035  0.40381442  1
  O  O203  1  0.02052972  0.85738755  0.60766240  1
  O  O204  1  0.01301074  0.85004839  0.84842836  1
  O  O205  1  0.23938057  0.12613983  0.10470822  1
  O  O206  1  0.24920430  0.12214812  0.33605839  1
  O  O207  1  0.24761395  0.11261908  0.61421048  1
  O  O208  1  0.24099820  0.11030716  0.89962727  1
  O  O209  1  0.23896140  0.35589246  0.11243127  1
  O  O210  1  0.26164033  0.37610884  0.37596266  1
  O  O211  1  0.25069033  0.37293656  0.63352691  1
  O  O212  1  0.26221191  0.38107238  0.91642321  1
  O  O213  1  0.25589316  0.65448303  0.10980109  1
  O  O214  1  0.25043946  0.63147618  0.37434263  1
  O  O215  1  0.26149055  0.59667441  0.58942417  1
  O  O216  1  0.25283987  0.60621686  0.91901225  1
  O  O217  1  0.25536391  0.86084154  0.15011206  1
  O  O218  1  0.25337201  0.85369359  0.36296717  1
  O  O219  1  0.24535971  0.91506807  0.60960917  1
  O  O220  1  0.24750483  0.90203043  0.88605841  1
  O  O221  1  0.51066818  0.14618081  0.13069592  1
  O  O222  1  0.48799145  0.08287600  0.34106449  1
  O  O223  1  0.49633086  0.11206230  0.62937859  1
  O  O224  1  0.50671017  0.12203256  0.87090826  1
  O  O225  1  0.50441831  0.33397368  0.13874771  1
  O  O226  1  0.49543150  0.34512444  0.35646652  1
  O  O227  1  0.50131837  0.35902638  0.63742108  1
  O  O228  1  0.49884531  0.35864944  0.85905252  1
  O  O229  1  0.49831770  0.62570516  0.14971769  1
  O  O230  1  0.51029855  0.65261458  0.32640230  1
  O  O231  1  0.50006276  0.62942727  0.66309194  1
  O  O232  1  0.50158684  0.62843387  0.84088663  1
  O  O233  1  0.49873669  0.86487808  0.11739158  1
  O  O234  1  0.50788870  0.88779505  0.39068999  1
  O  O235  1  0.50045699  0.89492429  0.59965658  1
  O  O236  1  0.49987344  0.86958385  0.89182429  1
  O  O237  1  0.75605166  0.12678604  0.08178549  1
  O  O238  1  0.76082267  0.12528663  0.40571483  1
  O  O239  1  0.75805961  0.12876301  0.59459411  1
  O  O240  1  0.75437183  0.10679596  0.89512033  1
  O  O241  1  0.75001304  0.40250428  0.12401027  1
  O  O242  1  0.74179368  0.38897331  0.38517311  1
  O  O243  1  0.75767406  0.39037057  0.63309127  1
  O  O244  1  0.75170920  0.39262209  0.85518390  1
  O  O245  1  0.74165205  0.58974689  0.12023387  1
  O  O246  1  0.74132242  0.60098920  0.39121162  1
  O  O247  1  0.74154027  0.63531397  0.59437502  1
  O  O248  1  0.74281834  0.61191356  0.87600744  1
  O  O249  1  0.74542980  0.87810348  0.15630079  1
  O  O250  1  0.75719624  0.87698752  0.34824849  1
  O  O251  1  0.73876214  0.85059507  0.64608398  1
  O  O252  1  0.74250075  0.88976454  0.86670240  1
  O  O253  1  0.12722788  0.00104011  0.09237050  1
  O  O254  1  0.15427807  -0.01278331  0.39074972  1
  O  O255  1  0.10831004  0.01328336  0.63051880  1
  O  O256  1  0.09139094  0.00325587  0.87327325  1
  O  O257  1  0.11257753  0.24118853  0.14400166  1
  O  O258  1  0.14332856  0.25661783  0.35724146  1
  O  O259  1  0.13944935  0.25049016  0.63012957  1
  O  O260  1  0.11896062  0.24735649  0.87786582  1
  O  O261  1  0.11831857  0.49597144  0.10261375  1
  O  O262  1  0.13096029  0.50235978  0.38961457  1
  O  O263  1  0.12169740  0.50247066  0.61292498  1
  O  O264  1  0.10965070  0.50241781  0.89031379  1
  O  O265  1  0.11655583  0.75579669  0.13766122  1
  O  O266  1  0.12139451  0.74853124  0.37568179  1
  O  O267  1  0.17615698  0.74738036  0.64369067  1
  O  O268  1  0.17512245  0.75090807  0.84895311  1
  O  O269  1  0.35815992  -0.00308891  0.13241426  1
  O  O270  1  0.33826687  -0.00341676  0.37215781  1
  O  O271  1  0.37323705  0.00466805  0.65572328  1
  O  O272  1  0.39289957  -0.00736804  0.86438170  1
  O  O273  1  0.36965300  0.25725213  0.08461549  1
  O  O274  1  0.35346397  0.23385014  0.38833519  1
  O  O275  1  0.36430684  0.23547812  0.60919809  1
  O  O276  1  0.37267157  0.25852990  0.91423645  1
  O  O277  1  0.32454469  0.50981082  0.10927994  1
  O  O278  1  0.40612609  0.50121113  0.38593000  1
  O  O279  1  0.39046572  0.50898904  0.64958541  1
  O  O280  1  0.37964298  0.49552709  0.84209034  1
  O  O281  1  0.38256526  0.74398980  0.16796188  1
  O  O282  1  0.38302131  0.75264542  0.38804492  1
  O  O283  1  0.38835996  0.75231663  0.61371058  1
  O  O284  1  0.37782883  0.75456714  0.88601980  1
  O  O285  1  0.63721927  0.00611230  0.12397813  1
  O  O286  1  0.64865272  -0.00357378  0.37188696  1
  O  O287  1  0.63332620  -0.00766476  0.63404038  1
  O  O288  1  0.61861892  -0.00268236  0.88429828  1
  O  O289  1  0.65544395  0.24901260  0.13242788  1
  O  O290  1  0.63793806  0.24555714  0.38322555  1
  O  O291  1  0.63038976  0.24992045  0.59187229  1
  O  O292  1  0.66329546  0.24390022  0.89603157  1
  O  O293  1  0.58386193  0.48510707  0.14672705  1
  O  O294  1  0.58207275  0.49449185  0.36150110  1
  O  O295  1  0.61203915  0.51028362  0.63473246  1
  O  O296  1  0.62102657  0.50459252  0.84401673  1
  O  O297  1  0.61991126  0.75387010  0.15318464  1
  O  O298  1  0.64106150  0.75554509  0.37892233  1
  O  O299  1  0.60031495  0.75249864  0.60318903  1
  O  O300  1  0.62892493  0.74659433  0.88874420  1
  O  O301  1  0.88266411  -0.00564492  0.14865201  1
  O  O302  1  0.88838481  0.00682117  0.34488158  1
  O  O303  1  0.89000477  0.01154693  0.64050291  1
  O  O304  1  0.89250182  0.00013369  0.85007041  1
  O  O305  1  0.86767154  0.25716343  0.09214658  1
  O  O306  1  0.87459205  0.25377193  0.39525777  1
  O  O307  1  0.87019655  0.25406098  0.59671703  1
  O  O308  1  0.84686665  0.25575648  0.89789534  1
  O  O309  1  0.88652272  0.49525339  0.15497619  1
  O  O310  1  0.89102830  0.48768307  0.35835121  1
  O  O311  1  0.89880316  0.49548361  0.65103955  1
  O  O312  1  0.87931896  0.49889168  0.84450163  1
  O  O313  1  0.84207955  0.74824074  0.11821059  1
  O  O314  1  0.87470985  0.75945707  0.40735521  1
  O  O315  1  0.88368224  0.74276764  0.58860553  1
  O  O316  1  0.86813253  0.74893401  0.89308266  1
