# generated using pymatgen
data_Mg32Ti42(Bi17O64)3
_symmetry_space_group_name_H-M   'P 1'
_cell_length_a   15.93083313
_cell_length_b   15.95297099
_cell_length_c   15.92762142
_cell_angle_alpha   89.97567809
_cell_angle_beta   89.97985658
_cell_angle_gamma   90.09127784
_symmetry_Int_Tables_number   1
_chemical_formula_structural   Mg32Ti42(Bi17O64)3
_chemical_formula_sum   'Mg32 Ti42 Bi51 O192'
_cell_volume   4047.90555603
_cell_formula_units_Z   1
loop_
 _symmetry_equiv_pos_site_id
 _symmetry_equiv_pos_as_xyz
  1  'x, y, z'
loop_
 _atom_site_type_symbol
 _atom_site_label
 _atom_site_symmetry_multiplicity
 _atom_site_fract_x
 _atom_site_fract_y
 _atom_site_fract_z
 _atom_site_occupancy
  Mg  Mg0  1  0.12993872  0.38753106  0.87831770  1
  Mg  Mg1  1  0.62695117  0.88099944  0.89243635  1
  Mg  Mg2  1  0.62587598  0.11179796  0.63293761  1
  Mg  Mg3  1  0.87364499  0.63182932  0.63693419  1
  Mg  Mg4  1  0.62775462  0.38534119  0.12551872  1
  Mg  Mg5  1  0.11595561  0.87062870  0.87707236  1
  Mg  Mg6  1  0.12776817  0.87057746  0.61644885  1
  Mg  Mg7  1  0.62714665  0.37068588  0.87912437  1
  Mg  Mg8  1  0.88568967  0.36452582  0.63000488  1
  Mg  Mg9  1  0.38516226  0.88372300  0.87011028  1
  Mg  Mg10  1  0.62329006  0.36903600  0.62140094  1
  Mg  Mg11  1  0.12515224  0.12967931  0.64149098  1
  Mg  Mg12  1  0.37165599  0.38977528  0.13221536  1
  Mg  Mg13  1  0.37269702  0.87579201  0.12207618  1
  Mg  Mg14  1  0.63046680  0.62408474  0.86444939  1
  Mg  Mg15  1  0.11508863  0.63134066  0.12767203  1
  Mg  Mg16  1  0.61849845  0.62723137  0.37666673  1
  Mg  Mg17  1  0.87906451  0.11664224  0.63594891  1
  Mg  Mg18  1  0.86933952  0.11992161  0.36910064  1
  Mg  Mg19  1  0.47188197  0.55523174  0.43989134  1
  Mg  Mg20  1  -0.02454981  0.76666123  0.02301989  1
  Mg  Mg21  1  0.44168017  0.03521510  0.69558121  1
  Mg  Mg22  1  0.05174450  0.00486547  0.53934324  1
  Mg  Mg23  1  0.05401337  0.27886401  0.76342490  1
  Mg  Mg24  1  -0.02607028  0.77782373  0.77559932  1
  Mg  Mg25  1  0.49136740  -0.00196223  0.00788765  1
  Mg  Mg26  1  0.28511860  0.49220753  0.51448836  1
  Mg  Mg27  1  0.44267409  0.54891925  0.25393378  1
  Mg  Mg28  1  0.71221487  0.72779507  -0.01266790  1
  Mg  Mg29  1  0.72326144  0.02750911  0.24574258  1
  Mg  Mg30  1  0.76214997  0.70095877  0.29977753  1
  Mg  Mg31  1  0.18632879  0.76808712  0.73982352  1
  Ti  Ti32  1  0.12520114  0.87757694  0.38718831  1
  Ti  Ti33  1  0.88313708  0.87687598  0.62817375  1
  Ti  Ti34  1  0.62638345  0.87004580  0.35788799  1
  Ti  Ti35  1  0.37431978  0.61516735  0.63978444  1
  Ti  Ti36  1  0.36371512  0.86216581  0.61929068  1
  Ti  Ti37  1  0.87650199  0.87015166  0.89792590  1
  Ti  Ti38  1  0.12546084  0.38588513  0.12639346  1
  Ti  Ti39  1  0.61955377  0.61234826  0.62482347  1
  Ti  Ti40  1  0.62878600  0.12362349  0.12127803  1
  Ti  Ti41  1  0.87451132  0.63574910  0.86613934  1
  Ti  Ti42  1  0.12126132  0.62159177  0.37184554  1
  Ti  Ti43  1  0.12648633  0.37058697  0.38476450  1
  Ti  Ti44  1  0.11815236  0.13519203  0.12316541  1
  Ti  Ti45  1  0.85056545  0.89058633  0.36650835  1
  Ti  Ti46  1  0.86744284  0.87437232  0.12831340  1
  Ti  Ti47  1  0.36464825  0.88381462  0.36711554  1
  Ti  Ti48  1  0.37598031  0.38201668  0.87657397  1
  Ti  Ti49  1  0.37711536  0.13292683  0.36018701  1
  Ti  Ti50  1  0.37847744  0.62756106  0.86935088  1
  Ti  Ti51  1  0.13961823  0.63221408  0.61894368  1
  Ti  Ti52  1  0.88465077  0.12100483  0.88011037  1
  Ti  Ti53  1  0.62145057  0.37318776  0.38775094  1
  Ti  Ti54  1  0.62885129  0.12136318  0.36910610  1
  Ti  Ti55  1  0.38816600  0.37967904  0.62456835  1
  Ti  Ti56  1  0.35885679  0.12301025  0.12314277  1
  Ti  Ti57  1  0.87702641  0.36381224  0.38927673  1
  Ti  Ti58  1  0.61565509  0.10725032  0.88335960  1
  Ti  Ti59  1  0.87396372  0.63610929  0.13192757  1
  Ti  Ti60  1  0.13564807  0.12479875  0.87304902  1
  Ti  Ti61  1  0.61745586  0.87241183  0.62533637  1
  Ti  Ti62  1  0.12324033  0.37310478  0.61018637  1
  Ti  Ti63  1  0.87825337  0.38807490  0.88070695  1
  Ti  Ti64  1  0.87085277  0.13377245  0.12765599  1
  Ti  Ti65  1  0.38773164  0.12546955  0.88958108  1
  Ti  Ti66  1  0.36798929  0.62779269  0.11195686  1
  Ti  Ti67  1  0.11574005  0.63017764  0.85366543  1
  Ti  Ti68  1  0.86558644  0.37724501  0.11865150  1
  Ti  Ti69  1  0.61661952  0.63109227  0.13576015  1
  Ti  Ti70  1  0.13281562  0.11871219  0.36806576  1
  Ti  Ti71  1  0.11461437  0.85792724  0.11443342  1
  Ti  Ti72  1  0.38730720  0.37611117  0.38193147  1
  Ti  Ti73  1  0.64757275  0.86744596  0.13023837  1
  Bi  Bi74  1  -0.01058184  -0.00159332  0.25626806  1
  Bi  Bi75  1  0.49615555  0.73019786  0.52613649  1
  Bi  Bi76  1  0.27037452  0.24944813  0.75042546  1
  Bi  Bi77  1  0.74801244  0.52600494  0.00960807  1
  Bi  Bi78  1  -0.02244528  0.73767721  0.51333731  1
  Bi  Bi79  1  0.74774971  0.00699440  0.51886782  1
  Bi  Bi80  1  0.26420071  -0.01841030  0.74933339  1
  Bi  Bi81  1  0.73806756  0.25205908  0.75245953  1
  Bi  Bi82  1  0.49794805  0.27958876  0.02630962  1
  Bi  Bi83  1  0.74488614  0.27525730  0.26073620  1
  Bi  Bi84  1  0.50045574  0.20701911  0.50839701  1
  Bi  Bi85  1  0.26161060  0.26458233  0.23706855  1
  Bi  Bi86  1  0.50288148  0.00071695  0.22061517  1
  Bi  Bi87  1  0.73597153  0.50943413  0.27962951  1
  Bi  Bi88  1  0.77092537  0.23895768  0.53314349  1
  Bi  Bi89  1  -0.00741224  0.48743100  0.73432337  1
  Bi  Bi90  1  0.52621476  0.51711862  -0.00348701  1
  Bi  Bi91  1  0.24641961  0.48701356  0.27723308  1
  Bi  Bi92  1  0.22671915  0.52264215  0.00457691  1
  Bi  Bi93  1  -0.02338405  0.75715521  0.28236226  1
  Bi  Bi94  1  0.25714167  0.27273583  -0.01119621  1
  Bi  Bi95  1  -0.01027853  0.52840923  0.01072954  1
  Bi  Bi96  1  0.24417857  0.73352569  0.26807859  1
  Bi  Bi97  1  0.26589799  -0.02429391  -0.00768824  1
  Bi  Bi98  1  0.50535164  0.48005115  0.76576283  1
  Bi  Bi99  1  0.76967835  -0.00366523  0.75942347  1
  Bi  Bi100  1  0.22962267  0.48314602  0.73244621  1
  Bi  Bi101  1  0.73815890  0.76960354  0.50627180  1
  Bi  Bi102  1  0.01865686  0.26843811  -0.01473208  1
  Bi  Bi103  1  0.73692792  0.76725474  0.76304042  1
  Bi  Bi104  1  0.75186450  0.25193034  -0.02079943  1
  Bi  Bi105  1  0.02365083  -0.01731402  0.74105587  1
  Bi  Bi106  1  0.51703004  0.75715926  0.78276683  1
  Bi  Bi107  1  0.75902196  0.01037632  0.00057600  1
  Bi  Bi108  1  0.26279523  0.23113106  0.52439801  1
  Bi  Bi109  1  -0.02155704  0.48158567  0.25836209  1
  Bi  Bi110  1  0.74748711  0.47585761  0.72501197  1
  Bi  Bi111  1  0.02999528  0.00523849  0.00958027  1
  Bi  Bi112  1  0.27209270  0.70229798  0.47889290  1
  Bi  Bi113  1  0.46716867  0.73867122  0.26467872  1
  Bi  Bi114  1  0.51120935  0.21818758  0.74068296  1
  Bi  Bi115  1  -0.00881199  0.52566729  0.50162196  1
  Bi  Bi116  1  -0.01058558  0.23826305  0.26059074  1
  Bi  Bi117  1  0.50654424  0.77580388  0.02091845  1
  Bi  Bi118  1  0.28113000  0.02275654  0.51132491  1
  Bi  Bi119  1  0.51548809  0.26973805  0.24113543  1
  Bi  Bi120  1  0.00298061  0.20526010  0.50427499  1
  Bi  Bi121  1  0.50917988  -0.02475470  0.47902998  1
  Bi  Bi122  1  0.77939662  0.52993732  0.49535473  1
  Bi  Bi123  1  0.21823568  -0.02570381  0.22947182  1
  Bi  Bi124  1  0.25747993  0.74923639  -0.03260115  1
  O  O125  1  0.13378336  0.10644745  0.00042561  1
  O  O126  1  0.10910387  0.14565126  0.24517971  1
  O  O127  1  0.11479879  0.10468063  0.48436536  1
  O  O128  1  0.10841638  0.16406423  0.76189614  1
  O  O129  1  0.10467835  0.38913891  0.00741984  1
  O  O130  1  0.15489593  0.37469071  0.25890261  1
  O  O131  1  0.08966398  0.39274681  0.50076624  1
  O  O132  1  0.16163922  0.35354329  0.75308292  1
  O  O133  1  0.11155465  0.60062470  -0.01812446  1
  O  O134  1  0.12791321  0.65511912  0.25232731  1
  O  O135  1  0.15063688  0.61351444  0.49163303  1
  O  O136  1  0.15732797  0.64335884  0.73933785  1
  O  O137  1  0.13622153  0.90042395  -0.00031207  1
  O  O138  1  0.11790119  0.86972771  0.23814441  1
  O  O139  1  0.13315248  0.91295072  0.49508535  1
  O  O140  1  0.08069931  0.85083068  0.74799989  1
  O  O141  1  0.36053274  0.15678099  0.00912298  1
  O  O142  1  0.39380340  0.09844375  0.24772805  1
  O  O143  1  0.37138610  0.13992437  0.48897964  1
  O  O144  1  0.39295746  0.12444408  0.76947478  1
  O  O145  1  0.39217465  0.36721533  -0.00092383  1
  O  O146  1  0.33841647  0.37810093  0.26233474  1
  O  O147  1  0.38060414  0.39016732  0.50245472  1
  O  O148  1  0.34162616  0.37236873  0.75169752  1
  O  O149  1  0.40514557  0.61722910  -0.00116423  1
  O  O150  1  0.36162823  0.65078358  0.23645401  1
  O  O151  1  0.37387467  0.59800224  0.50551303  1
  O  O152  1  0.35510978  0.61897113  0.75351238  1
  O  O153  1  0.34729597  0.86624791  -0.00622435  1
  O  O154  1  0.39347644  0.89072915  0.25404115  1
  O  O155  1  0.34001120  0.86590862  0.50601354  1
  O  O156  1  0.39419721  0.92508971  0.74770741  1
  O  O157  1  0.66372469  0.12601776  0.00791287  1
  O  O158  1  0.60957436  0.10326740  0.24603631  1
  O  O159  1  0.61181655  0.12272061  0.49233333  1
  O  O160  1  0.60018551  0.10584275  0.76629358  1
  O  O161  1  0.59172872  0.37478715  0.00032805  1
  O  O162  1  0.63084397  0.36215239  0.25085130  1
  O  O163  1  0.61857565  0.34932454  0.49719014  1
  O  O164  1  0.66333873  0.37204819  0.75727271  1
  O  O165  1  0.61301255  0.63282353  0.00094566  1
  O  O166  1  0.66581789  0.62673665  0.24383030  1
  O  O167  1  0.57514397  0.61283318  0.49783677  1
  O  O168  1  0.63879524  0.64902684  0.73559185  1
  O  O169  1  0.65458883  0.84086141  0.01269224  1
  O  O170  1  0.59459819  0.87278272  0.24620907  1
  O  O171  1  0.65573675  0.88123565  0.48722052  1
  O  O172  1  0.62069146  0.86018977  0.73997397  1
  O  O173  1  0.84232286  0.12494116  0.00506173  1
  O  O174  1  0.90474908  0.11396260  0.24191552  1
  O  O175  1  0.87143588  0.15098478  0.49315823  1
  O  O176  1  0.87807879  0.08978736  0.76442022  1
  O  O177  1  0.90396482  0.36100488  0.00320447  1
  O  O178  1  0.86279330  0.40022196  0.24048065  1
  O  O179  1  0.88597105  0.33619284  0.49850150  1
  O  O180  1  0.86138834  0.39456513  0.76095194  1
  O  O181  1  0.92547576  0.64809339  -0.01529148  1
  O  O182  1  0.84246289  0.61547612  0.23969754  1
  O  O183  1  0.88402061  0.62859866  0.50809499  1
  O  O184  1  0.86536208  0.60051023  0.75607554  1
  O  O185  1  0.85096810  0.83765004  0.00453308  1
  O  O186  1  0.90468401  0.88307517  0.24448621  1
  O  O187  1  0.84241398  0.87219035  0.48460876  1
  O  O188  1  0.89327713  0.89154999  0.74607139  1
  O  O189  1  -0.00500214  0.11962727  0.10048151  1
  O  O190  1  0.00525263  0.15442246  0.37330699  1
  O  O191  1  0.00124072  0.10716845  0.60408916  1
  O  O192  1  -0.00626393  0.13960533  0.89966146  1
  O  O193  1  0.00672651  0.39086530  0.15588717  1
  O  O194  1  0.00074146  0.36495850  0.34851049  1
  O  O195  1  0.01280454  0.35799145  0.66946853  1
  O  O196  1  -0.00026384  0.34377384  0.86123498  1
  O  O197  1  -0.00941353  0.59363398  0.13718280  1
  O  O198  1  0.01121823  0.66213166  0.39247967  1
  O  O199  1  0.01864467  0.63403521  0.59879211  1
  O  O200  1  0.00923105  0.65947015  0.82932638  1
  O  O201  1  -0.00475279  0.88320549  0.09462891  1
  O  O202  1  0.01082431  0.85070162  0.38090190  1
  O  O203  1  -0.00769136  0.90213571  0.59500323  1
  O  O204  1  -0.01031719  0.83949068  0.90177874  1
  O  O205  1  0.24488327  0.13211684  0.13957188  1
  O  O206  1  0.25010375  0.11258287  0.36262232  1
  O  O207  1  0.24631806  0.12350924  0.60526259  1
  O  O208  1  0.24850115  0.10742254  0.86615827  1
  O  O209  1  0.24718611  0.35445176  0.11802128  1
  O  O210  1  0.23979368  0.42189648  0.40420481  1
  O  O211  1  0.24012637  0.40980740  0.60526365  1
  O  O212  1  0.25586469  0.39372046  0.90780412  1
  O  O213  1  0.25283614  0.63764344  0.08907145  1
  O  O214  1  0.24753616  0.62820787  0.36082498  1
  O  O215  1  0.25512040  0.58834679  0.61217481  1
  O  O216  1  0.25922973  0.61220544  0.90267895  1
  O  O217  1  0.24060314  0.87613705  0.13114107  1
  O  O218  1  0.25111354  0.90263732  0.35242707  1
  O  O219  1  0.25199663  0.86384507  0.67355418  1
  O  O220  1  0.24915669  0.90560936  0.86082595  1
  O  O221  1  0.51572535  0.08739602  0.10119473  1
  O  O222  1  0.49551573  0.14925484  0.37801985  1
  O  O223  1  0.49918920  0.12965983  0.62861706  1
  O  O224  1  0.50212484  0.15253188  0.89971807  1
  O  O225  1  0.49672222  0.36550342  0.14157118  1
  O  O226  1  0.49927700  0.34779344  0.36868164  1
  O  O227  1  0.49586910  0.35550003  0.65137936  1
  O  O228  1  0.49293780  0.36144537  0.84323603  1
  O  O229  1  0.50755419  0.60532581  0.15623508  1
  O  O230  1  0.50038760  0.62795739  0.33978907  1
  O  O231  1  0.49497886  0.64182692  0.63869981  1
  O  O232  1  0.49921783  0.63932889  0.85383729  1
  O  O233  1  0.50530063  0.89720105  0.08659963  1
  O  O234  1  0.50541390  0.86043352  0.40058723  1
  O  O235  1  0.49799611  0.86400556  0.60548633  1
  O  O236  1  0.50403694  0.84657968  0.88482041  1
  O  O237  1  0.75407914  0.12586826  0.15988760  1
  O  O238  1  0.74197882  0.09594307  0.35595287  1
  O  O239  1  0.74787491  0.11923545  0.60741835  1
  O  O240  1  0.74048018  0.08005294  0.86760086  1
  O  O241  1  0.75351935  0.36095000  0.11061429  1
  O  O242  1  0.75393127  0.37308954  0.37211462  1
  O  O243  1  0.75657160  0.39744120  0.61583917  1
  O  O244  1  0.76222385  0.37824517  0.90689209  1
  O  O245  1  0.76196647  0.64633687  0.07936068  1
  O  O246  1  0.74450875  0.60402768  0.38624387  1
  O  O247  1  0.74047527  0.61903256  0.59741690  1
  O  O248  1  0.76126809  0.63000635  0.90168070  1
  O  O249  1  0.75680121  0.84382225  0.15565450  1
  O  O250  1  0.74308830  0.91781949  0.33236897  1
  O  O251  1  0.75081536  0.84556725  0.62910061  1
  O  O252  1  0.75464848  0.88645094  0.85107293  1
  O  O253  1  0.11326911  0.00780971  0.13480125  1
  O  O254  1  0.11277123  0.00331575  0.34249787  1
  O  O255  1  0.12773823  -0.00188397  0.65053896  1
  O  O256  1  0.09775156  0.00667869  0.85732308  1
  O  O257  1  0.11142763  0.25239159  0.11000127  1
  O  O258  1  0.14362348  0.25984009  0.39007597  1
  O  O259  1  0.13902792  0.25671849  0.60266737  1
  O  O260  1  0.13911885  0.24943241  0.90441829  1
  O  O261  1  0.14773666  0.50072986  0.13410000  1
  O  O262  1  0.10123353  0.51008733  0.35215967  1
  O  O263  1  0.10679239  0.49885099  0.65098597  1
  O  O264  1  0.11594962  0.50863182  0.83620067  1
  O  O265  1  0.09477900  0.75007053  0.08658609  1
  O  O266  1  0.16312385  0.76521350  0.38874850  1
  O  O267  1  0.14973313  0.74629464  0.61031557  1
  O  O268  1  0.16051317  0.74944662  0.86633687  1
  O  O269  1  0.36719393  0.00574662  0.10473629  1
  O  O270  1  0.39284540  0.00087861  0.40201729  1
  O  O271  1  0.37114626  -0.01052604  0.60467238  1
  O  O272  1  0.39661087  0.01258668  0.91940505  1
  O  O273  1  0.38372961  0.24099312  0.15718969  1
  O  O274  1  0.35406074  0.25024047  0.35819666  1
  O  O275  1  0.34643318  0.26498684  0.62717953  1
  O  O276  1  0.34631271  0.25419362  0.87379756  1
  O  O277  1  0.36641177  0.51360250  0.14943323  1
  O  O278  1  0.40312735  0.48794949  0.35724813  1
  O  O279  1  0.39507558  0.49575499  0.64623105  1
  O  O280  1  0.40077335  0.49783629  0.86820699  1
  O  O281  1  0.40331990  0.74980880  0.11819495  1
  O  O282  1  0.36169736  0.76382553  0.36665102  1
  O  O283  1  0.36830688  0.74175049  0.61874459  1
  O  O284  1  0.35991603  0.74534633  0.87222840  1
  O  O285  1  0.66026992  -0.01406416  0.13577383  1
  O  O286  1  0.59119107  -0.00184296  0.37005709  1
  O  O287  1  0.63886357  -0.01275642  0.61439451  1
  O  O288  1  0.59206136  0.00061372  0.92291780  1
  O  O289  1  0.60753229  0.23798853  0.12824625  1
  O  O290  1  0.64546408  0.23925532  0.35627731  1
  O  O291  1  0.63277213  0.24064657  0.65680561  1
  O  O292  1  0.65547059  0.23850567  0.87720822  1
  O  O293  1  0.64082701  0.50935093  0.10421068  1
  O  O294  1  0.62058570  0.48775615  0.37145170  1
  O  O295  1  0.61484117  0.49965083  0.64737676  1
  O  O296  1  0.60316087  0.50026823  0.87475654  1
  O  O297  1  0.59938028  0.74748987  0.13387984  1
  O  O298  1  0.66218744  0.75721997  0.36746173  1
  O  O299  1  0.61948036  0.75027665  0.58920691  1
  O  O300  1  0.64314753  0.75148042  0.86724821  1
  O  O301  1  0.85628056  -0.01061799  0.11253846  1
  O  O302  1  0.90380312  -0.00452665  0.36976673  1
  O  O303  1  0.84541999  -0.00890415  0.61544936  1
  O  O304  1  0.88182192  -0.01130997  0.91051543  1
  O  O305  1  0.88140235  0.24980398  0.13665864  1
  O  O306  1  0.86743716  0.25165676  0.33958992  1
  O  O307  1  0.85137659  0.24398506  0.64333233  1
  O  O308  1  0.84676049  0.23332436  0.87486908  1
  O  O309  1  0.85945560  0.50093357  0.09400266  1
  O  O310  1  0.89040392  0.48435076  0.40006342  1
  O  O311  1  0.91202000  0.49426685  0.61234118  1
  O  O312  1  0.89574678  0.50203525  0.89388973  1
  O  O313  1  0.90584844  0.74635169  0.13596995  1
  O  O314  1  0.85619505  0.76721301  0.34853802  1
  O  O315  1  0.90440177  0.75643588  0.64289479  1
  O  O316  1  0.86361976  0.75204442  0.84234810  1
