# generated using pymatgen
data_Mg32Ti42(Bi17O64)3
_symmetry_space_group_name_H-M   'P 1'
_cell_length_a   15.92055491
_cell_length_b   15.90643998
_cell_length_c   15.98072074
_cell_angle_alpha   90.17936323
_cell_angle_beta   90.14831855
_cell_angle_gamma   89.79927456
_symmetry_Int_Tables_number   1
_chemical_formula_structural   Mg32Ti42(Bi17O64)3
_chemical_formula_sum   'Mg32 Ti42 Bi51 O192'
_cell_volume   4046.88924310
_cell_formula_units_Z   1
loop_
 _symmetry_equiv_pos_site_id
 _symmetry_equiv_pos_as_xyz
  1  'x, y, z'
loop_
 _atom_site_type_symbol
 _atom_site_label
 _atom_site_symmetry_multiplicity
 _atom_site_fract_x
 _atom_site_fract_y
 _atom_site_fract_z
 _atom_site_occupancy
  Mg  Mg0  1  0.87550174  0.37424877  0.12639642  1
  Mg  Mg1  1  0.13065117  0.62018431  0.86543200  1
  Mg  Mg2  1  0.61826638  0.87510524  0.86632930  1
  Mg  Mg3  1  0.87753364  0.87202895  0.87294627  1
  Mg  Mg4  1  0.87666579  0.62559302  0.87446970  1
  Mg  Mg5  1  0.38288128  0.12455077  0.11858685  1
  Mg  Mg6  1  0.12947478  0.62362218  0.12526645  1
  Mg  Mg7  1  0.13349805  0.88105975  0.37756746  1
  Mg  Mg8  1  0.37796496  0.88085860  0.87847673  1
  Mg  Mg9  1  0.13012929  0.62475533  0.37724911  1
  Mg  Mg10  1  0.13167638  0.37448120  0.87240897  1
  Mg  Mg11  1  0.13220303  0.37598245  0.37690432  1
  Mg  Mg12  1  0.88421174  0.86541709  0.11652702  1
  Mg  Mg13  1  0.62177996  0.13240990  0.38387289  1
  Mg  Mg14  1  0.88067631  0.12424344  0.12998685  1
  Mg  Mg15  1  0.87207027  0.87236460  0.37881381  1
  Mg  Mg16  1  0.86726831  0.37269258  0.87175028  1
  Mg  Mg17  1  0.38232255  0.62842286  0.12217829  1
  Mg  Mg18  1  0.12853545  0.12651673  0.37043213  1
  Mg  Mg19  1  0.04318558  0.69512741  -0.00692883  1
  Mg  Mg20  1  0.48358392  0.77200339  0.45834950  1
  Mg  Mg21  1  0.47969865  0.31135077  0.06614423  1
  Mg  Mg22  1  0.48538366  0.49669784  0.04348131  1
  Mg  Mg23  1  0.49362527  0.77985052  0.75289036  1
  Mg  Mg24  1  0.02010290  -0.00804827  0.05332856  1
  Mg  Mg25  1  0.28881042  0.03859728  0.24648486  1
  Mg  Mg26  1  0.25348128  0.52174210  0.45575354  1
  Mg  Mg27  1  0.02704645  0.27056614  0.47186128  1
  Mg  Mg28  1  0.52351787  -0.06788608  0.04830727  1
  Mg  Mg29  1  0.04923264  0.75193711  0.29162131  1
  Mg  Mg30  1  0.27850260  0.48268925  0.17859335  1
  Mg  Mg31  1  0.79088568  0.51615726  0.47469731  1
  Ti  Ti32  1  0.12634161  0.38107795  0.62695813  1
  Ti  Ti33  1  0.88813977  0.63429181  0.11745130  1
  Ti  Ti34  1  0.62347662  0.62492197  0.86641681  1
  Ti  Ti35  1  0.62422883  0.86394620  0.61886526  1
  Ti  Ti36  1  0.36444467  0.38486088  0.62319872  1
  Ti  Ti37  1  0.12180032  0.37706053  0.10938980  1
  Ti  Ti38  1  0.12966974  0.88087615  0.62736987  1
  Ti  Ti39  1  0.62562164  0.87845337  0.39123981  1
  Ti  Ti40  1  0.38967487  0.62569409  0.86681311  1
  Ti  Ti41  1  0.11719945  0.88019594  0.88892458  1
  Ti  Ti42  1  0.88413542  0.62808960  0.36700613  1
  Ti  Ti43  1  0.36677589  0.87321062  0.12179405  1
  Ti  Ti44  1  0.62074477  0.62535285  0.11918814  1
  Ti  Ti45  1  0.37733426  0.63397905  0.62774517  1
  Ti  Ti46  1  0.39175347  0.12150567  0.87305520  1
  Ti  Ti47  1  0.37433218  0.87815241  0.62728918  1
  Ti  Ti48  1  0.62818937  0.63858856  0.62145488  1
  Ti  Ti49  1  0.63946962  0.38159003  0.37906674  1
  Ti  Ti50  1  0.88088395  0.87482211  0.62448706  1
  Ti  Ti51  1  0.36837275  0.88604688  0.35412060  1
  Ti  Ti52  1  0.12313244  0.12850763  0.88672426  1
  Ti  Ti53  1  0.12850167  0.11649722  0.13492254  1
  Ti  Ti54  1  0.63137943  0.62712702  0.36831199  1
  Ti  Ti55  1  0.37203652  0.39072082  0.38382240  1
  Ti  Ti56  1  0.12554682  0.86844579  0.12683722  1
  Ti  Ti57  1  0.63348364  0.11705618  0.62891366  1
  Ti  Ti58  1  0.88294345  0.12965980  0.63002804  1
  Ti  Ti59  1  0.88242540  0.37896684  0.36760818  1
  Ti  Ti60  1  0.87218698  0.13327517  0.86853289  1
  Ti  Ti61  1  0.88093235  0.36660956  0.62048640  1
  Ti  Ti62  1  0.12588540  0.13203928  0.61946185  1
  Ti  Ti63  1  0.62184070  0.12675196  0.10825722  1
  Ti  Ti64  1  0.37510034  0.14023856  0.37581531  1
  Ti  Ti65  1  0.62621452  0.12346228  0.87530204  1
  Ti  Ti66  1  0.13315978  0.62637970  0.62926826  1
  Ti  Ti67  1  0.37312346  0.12886235  0.62733590  1
  Ti  Ti68  1  0.63003653  0.38471957  0.12763117  1
  Ti  Ti69  1  0.88327343  0.62864829  0.61806313  1
  Ti  Ti70  1  0.37922797  0.37336800  0.87163208  1
  Ti  Ti71  1  0.62027381  0.38853062  0.89059638  1
  Ti  Ti72  1  0.88069212  0.12814978  0.37581780  1
  Ti  Ti73  1  0.38435697  0.62903600  0.37406164  1
  Bi  Bi74  1  0.27385132  0.26344119  0.00400575  1
  Bi  Bi75  1  0.24687746  0.74371441  0.00388664  1
  Bi  Bi76  1  0.51382278  0.27909084  0.53123723  1
  Bi  Bi77  1  0.51456675  -0.01399063  0.74315925  1
  Bi  Bi78  1  0.75924617  0.53105825  -0.00394955  1
  Bi  Bi79  1  0.76598333  -0.01593858  0.21207357  1
  Bi  Bi80  1  0.26805741  0.76355153  0.48889634  1
  Bi  Bi81  1  0.00191492  -0.04240714  0.25970271  1
  Bi  Bi82  1  0.52931176  0.51755487  0.50621114  1
  Bi  Bi83  1  0.51044216  0.48293424  0.26131005  1
  Bi  Bi84  1  0.72366289  0.27629792  0.73422503  1
  Bi  Bi85  1  0.50485237  0.22415852  0.23696476  1
  Bi  Bi86  1  0.25603993  0.51692055  0.75891588  1
  Bi  Bi87  1  0.75628756  0.75976512  0.22643078  1
  Bi  Bi88  1  0.74404746  0.21130843  0.26391441  1
  Bi  Bi89  1  0.76156106  0.26262626  0.00114147  1
  Bi  Bi90  1  0.77069246  0.75439992  0.76450465  1
  Bi  Bi91  1  0.25461632  0.70205537  0.25128116  1
  Bi  Bi92  1  0.76871168  0.01882023  0.49616256  1
  Bi  Bi93  1  0.51915423  0.50250838  0.72128790  1
  Bi  Bi94  1  0.25697493  0.01561400  0.76253041  1
  Bi  Bi95  1  0.51160201  0.03030942  0.49984300  1
  Bi  Bi96  1  0.76036609  0.50135981  0.70740293  1
  Bi  Bi97  1  0.76783458  0.26564189  0.49198627  1
  Bi  Bi98  1  0.01279095  0.01319806  0.76386241  1
  Bi  Bi99  1  0.50434165  0.74469546  -0.02485327  1
  Bi  Bi100  1  0.01432431  0.76250972  0.76701399  1
  Bi  Bi101  1  0.53450430  -0.00549148  0.23676502  1
  Bi  Bi102  1  0.02389512  0.76459449  0.49156799  1
  Bi  Bi103  1  0.73261712  0.78104542  0.00280114  1
  Bi  Bi104  1  0.53059194  0.77242646  0.24406414  1
  Bi  Bi105  1  0.76963488  0.51531146  0.22901919  1
  Bi  Bi106  1  0.25965591  0.76815490  0.76087866  1
  Bi  Bi107  1  0.03981154  0.49138109  0.24119411  1
  Bi  Bi108  1  0.27025553  0.01609582  0.01177151  1
  Bi  Bi109  1  0.76737219  0.75507376  0.48736265  1
  Bi  Bi110  1  0.24498888  0.26723164  0.49152332  1
  Bi  Bi111  1  0.26378295  0.25475282  0.75744716  1
  Bi  Bi112  1  0.01691601  0.01604450  0.48702779  1
  Bi  Bi113  1  -0.00985021  0.49200724  0.74977821  1
  Bi  Bi114  1  -0.01567624  0.23187741  0.01776178  1
  Bi  Bi115  1  0.02003376  0.26071145  0.23841329  1
  Bi  Bi116  1  0.02662903  0.50756911  0.48668697  1
  Bi  Bi117  1  0.26524870  0.01381009  0.48330735  1
  Bi  Bi118  1  0.77285134  -0.00413533  -0.00758125  1
  Bi  Bi119  1  0.51399864  0.27154825  0.75672955  1
  Bi  Bi120  1  0.74772154  0.00182299  0.76638631  1
  Bi  Bi121  1  0.01607244  0.25636340  0.76210874  1
  Bi  Bi122  1  0.26424534  0.51760132  -0.00623892  1
  Bi  Bi123  1  0.27845335  0.28463694  0.22781440  1
  Bi  Bi124  1  -0.01147612  0.48810280  -0.02424644  1
  O  O125  1  0.14859861  0.12127844  -0.00186667  1
  O  O126  1  0.10557816  0.14500873  0.24522380  1
  O  O127  1  0.13540617  0.09166953  0.50423370  1
  O  O128  1  0.09422421  0.13811871  0.74073937  1
  O  O129  1  0.12072463  0.39430166  -0.00149519  1
  O  O130  1  0.11990534  0.36552070  0.25075824  1
  O  O131  1  0.08956034  0.38584516  0.50929689  1
  O  O132  1  0.13541176  0.33756550  0.74222098  1
  O  O133  1  0.15929274  0.63050735  -0.00576044  1
  O  O134  1  0.11644524  0.65460031  0.24924163  1
  O  O135  1  0.14652125  0.58229327  0.50689530  1
  O  O136  1  0.09990340  0.64071604  0.74215384  1
  O  O137  1  0.10363725  0.91460501  -0.00528277  1
  O  O138  1  0.12149286  0.85367492  0.24239391  1
  O  O139  1  0.09475037  0.88701329  0.50670990  1
  O  O140  1  0.13496859  0.84508793  0.74416120  1
  O  O141  1  0.35400695  0.14042440  -0.01119624  1
  O  O142  1  0.39204197  0.11258229  0.26156788  1
  O  O143  1  0.34706666  0.13088931  0.50269832  1
  O  O144  1  0.37456969  0.09763437  0.74801161  1
  O  O145  1  0.38862966  0.33812660  -0.01469315  1
  O  O146  1  0.32961347  0.40451398  0.26725735  1
  O  O147  1  0.39420216  0.35187021  0.50232341  1
  O  O148  1  0.34743085  0.37850348  0.74679468  1
  O  O149  1  0.34429521  0.63561315  -0.01275112  1
  O  O150  1  0.39046620  0.62325459  0.26013598  1
  O  O151  1  0.35695692  0.64664697  0.51319224  1
  O  O152  1  0.39824912  0.58830052  0.75408869  1
  O  O153  1  0.41438759  0.86160657  0.00526228  1
  O  O154  1  0.34011371  0.91789384  0.24701013  1
  O  O155  1  0.38826095  0.83175195  0.51840149  1
  O  O156  1  0.33721635  0.88772810  0.74974444  1
  O  O157  1  0.63171528  0.13321685  -0.00398661  1
  O  O158  1  0.61660919  0.13282640  0.25474340  1
  O  O159  1  0.62299961  0.12887878  0.50946643  1
  O  O160  1  0.62095793  0.09773786  0.75048643  1
  O  O161  1  0.58044657  0.38286186  0.00425221  1
  O  O162  1  0.63079208  0.40060505  0.25273880  1
  O  O163  1  0.59292936  0.37955011  0.48906423  1
  O  O164  1  0.62940866  0.37315680  0.76213808  1
  O  O165  1  0.64210995  0.64380055  0.00396127  1
  O  O166  1  0.60511591  0.60820506  0.25484268  1
  O  O167  1  0.62844038  0.63028614  0.50349779  1
  O  O168  1  0.61035781  0.60321709  0.75202668  1
  O  O169  1  0.60111868  0.85037063  -0.00871175  1
  O  O170  1  0.62109413  0.88497976  0.26610576  1
  O  O171  1  0.58584445  0.84276178  0.49997911  1
  O  O172  1  0.63618843  0.90473865  0.73768038  1
  O  O173  1  0.86693389  0.14654068  -0.00964641  1
  O  O174  1  0.87575949  0.11899560  0.25990284  1
  O  O175  1  0.84427981  0.14148594  0.50654086  1
  O  O176  1  0.88426061  0.09668058  0.74531644  1
  O  O177  1  0.87806942  0.33745438  -0.00142927  1
  O  O178  1  0.86114992  0.39289948  0.25679894  1
  O  O179  1  0.89310436  0.33654383  0.50724520  1
  O  O180  1  0.86578023  0.40921445  0.74655109  1
  O  O181  1  0.84576202  0.64600055  0.00783879  1
  O  O182  1  0.88649327  0.59576670  0.25262761  1
  O  O183  1  0.85471872  0.63175524  0.49845492  1
  O  O184  1  0.87382889  0.58632829  0.73700663  1
  O  O185  1  0.84593488  0.87187566  -0.00435874  1
  O  O186  1  0.86335690  0.90016931  0.25573634  1
  O  O187  1  0.87876433  0.83742693  0.50430147  1
  O  O188  1  0.84030112  0.88226788  0.73821407  1
  O  O189  1  0.00755543  0.10931801  0.09382945  1
  O  O190  1  -0.00914129  0.15159500  0.41025505  1
  O  O191  1  -0.00546057  0.10999858  0.60770844  1
  O  O192  1  -0.00235235  0.09804927  0.87781551  1
  O  O193  1  0.00320078  0.39676179  0.13554362  1
  O  O194  1  -0.00674432  0.34935200  0.36911604  1
  O  O195  1  -0.00261023  0.38504972  0.65230742  1
  O  O196  1  0.00067398  0.40372478  0.86182958  1
  O  O197  1  0.00064840  0.62218920  0.09135199  1
  O  O198  1  -0.00411836  0.64953621  0.38206480  1
  O  O199  1  -0.00361274  0.60585408  0.60621778  1
  O  O200  1  0.00365598  0.60452567  0.90507643  1
  O  O201  1  0.00425367  0.89078792  0.12643043  1
  O  O202  1  -0.00452247  0.85147431  0.35129655  1
  O  O203  1  -0.00640780  0.87420666  0.64420965  1
  O  O204  1  0.00142123  0.89009267  0.84625251  1
  O  O205  1  0.25212659  0.11138675  0.14338995  1
  O  O206  1  0.25534562  0.08990979  0.36045058  1
  O  O207  1  0.24101852  0.12525132  0.64386387  1
  O  O208  1  0.23592221  0.13874216  0.84691080  1
  O  O209  1  0.24550445  0.36429421  0.11778901  1
  O  O210  1  0.25070000  0.39545084  0.42290606  1
  O  O211  1  0.24317407  0.36282042  0.60581516  1
  O  O212  1  0.25581308  0.33213798  0.88328625  1
  O  O213  1  0.25664290  0.61306571  0.14975343  1
  O  O214  1  0.25610528  0.61503526  0.36674040  1
  O  O215  1  0.24853523  0.63108400  0.65203235  1
  O  O216  1  0.26024977  0.63608688  0.83952716  1
  O  O217  1  0.24728536  0.88292620  0.09591849  1
  O  O218  1  0.25653779  0.88458832  0.40342095  1
  O  O219  1  0.24481752  0.85836288  0.60815032  1
  O  O220  1  0.23924946  0.84100756  0.88950779  1
  O  O221  1  0.50431602  0.12818232  0.13599101  1
  O  O222  1  0.49054362  0.14347406  0.40286940  1
  O  O223  1  0.49048533  0.11987176  0.61755250  1
  O  O224  1  0.50162288  0.09713197  0.87697723  1
  O  O225  1  0.50675031  0.41174575  0.13958202  1
  O  O226  1  0.48414289  0.37238604  0.34657583  1
  O  O227  1  0.48672875  0.36573846  0.63910324  1
  O  O228  1  0.49469707  0.38083711  0.84995171  1
  O  O229  1  0.50677877  0.60750131  0.10263266  1
  O  O230  1  0.49666028  0.65209311  0.40426142  1
  O  O231  1  0.49505677  0.61053741  0.62116624  1
  O  O232  1  0.49581547  0.59622349  0.90843266  1
  O  O233  1  0.48752249  0.88242743  0.15976153  1
  O  O234  1  0.48630619  0.85491096  0.36004732  1
  O  O235  1  0.48891158  0.87476035  0.65789731  1
  O  O236  1  0.49617983  0.88721227  0.83488229  1
  O  O237  1  0.74080778  0.13491233  0.13485097  1
  O  O238  1  0.74819900  0.11737157  0.36635058  1
  O  O239  1  0.74830347  0.11278903  0.63553292  1
  O  O240  1  0.75072020  0.14220024  0.85887235  1
  O  O241  1  0.74246572  0.35027964  0.11066047  1
  O  O242  1  0.74972678  0.40240489  0.41527101  1
  O  O243  1  0.75971649  0.34916738  0.62503090  1
  O  O244  1  0.73553074  0.35561792  0.90048221  1
  O  O245  1  0.75052259  0.63628665  0.15487518  1
  O  O246  1  0.74461381  0.59474036  0.37218482  1
  O  O247  1  0.74351681  0.63119844  0.63624493  1
  O  O248  1  0.73942605  0.64190721  0.86204083  1
  O  O249  1  0.75102044  0.86644267  0.13346957  1
  O  O250  1  0.73999757  0.88174693  0.40922497  1
  O  O251  1  0.73592124  0.85281994  0.59883337  1
  O  O252  1  0.73930819  0.83431711  0.87349883  1
  O  O253  1  0.12240054  0.00142382  0.14052790  1
  O  O254  1  0.09027039  0.00090563  0.36720968  1
  O  O255  1  0.12834746  -0.00748297  0.64818268  1
  O  O256  1  0.13473428  -0.00120910  0.84850753  1
  O  O257  1  0.10327181  0.25363031  0.11729720  1
  O  O258  1  0.13839105  0.25103209  0.40432517  1
  O  O259  1  0.11288788  0.24335175  0.58864791  1
  O  O260  1  0.09328516  0.24316671  0.88077436  1
  O  O261  1  0.14354970  0.49550899  0.14989503  1
  O  O262  1  0.10461708  0.49977869  0.36750293  1
  O  O263  1  0.13181960  0.49310266  0.65346780  1
  O  O264  1  0.15804885  0.49652307  0.85248593  1
  O  O265  1  0.12067638  0.75891723  0.08623905  1
  O  O266  1  0.12849109  0.75256275  0.39830682  1
  O  O267  1  0.11670940  0.73963290  0.59635266  1
  O  O268  1  0.08818338  0.75662146  0.89017288  1
  O  O269  1  0.38140951  -0.00191244  0.09372313  1
  O  O270  1  0.38693933  -0.00840691  0.40148412  1
  O  O271  1  0.36608026  -0.00815813  0.60410496  1
  O  O272  1  0.34090060  0.00508251  0.88548234  1
  O  O273  1  0.38942639  0.25439587  0.14563290  1
  O  O274  1  0.34662998  0.25381118  0.36486003  1
  O  O275  1  0.36841032  0.24280600  0.63968960  1
  O  O276  1  0.38910353  0.23857014  0.84134807  1
  O  O277  1  0.36584119  0.50199258  0.08798494  1
  O  O278  1  0.38028289  0.50698152  0.40600200  1
  O  O279  1  0.36499530  0.49595713  0.61167734  1
  O  O280  1  0.35086112  0.48772770  0.88480386  1
  O  O281  1  0.36297745  0.75771770  0.13626680  1
  O  O282  1  0.35595723  0.75364852  0.37278624  1
  O  O283  1  0.38494126  0.74245786  0.67078509  1
  O  O284  1  0.40462659  0.74258680  0.85596216  1
  O  O285  1  0.60909550  0.00534985  0.11763859  1
  O  O286  1  0.60264620  -0.00522501  0.39447519  1
  O  O287  1  0.61040220  -0.00822771  0.60144220  1
  O  O288  1  0.66157872  -0.00045034  0.88293626  1
  O  O289  1  0.59047063  0.26275642  0.12906741  1
  O  O290  1  0.64870450  0.26482505  0.37147464  1
  O  O291  1  0.61955999  0.23645839  0.64724387  1
  O  O292  1  0.60654964  0.23996369  0.85950734  1
  O  O293  1  0.65525280  0.50312496  0.11663632  1
  O  O294  1  0.59838648  0.50419755  0.38334933  1
  O  O295  1  0.61710918  0.50865161  0.61744620  1
  O  O296  1  0.63934005  0.49976213  0.88767158  1
  O  O297  1  0.62520668  0.74208879  0.14791505  1
  O  O298  1  0.63429443  0.74737090  0.35670032  1
  O  O299  1  0.60167349  0.75043938  0.65667193  1
  O  O300  1  0.58193589  0.73826632  0.85541768  1
  O  O301  1  0.86276770  0.00072615  0.11276575  1
  O  O302  1  0.87942577  0.00801365  0.40618272  1
  O  O303  1  0.86576560  -0.01038607  0.59487183  1
  O  O304  1  0.84716540  0.00070134  0.87976575  1
  O  O305  1  0.91298682  0.24764718  0.13624457  1
  O  O306  1  0.84259981  0.25533019  0.37080800  1
  O  O307  1  0.88647944  0.24391388  0.65077428  1
  O  O308  1  0.89242706  0.24564312  0.84777616  1
  O  O309  1  0.84933452  0.50538083  0.11014585  1
  O  O310  1  0.89155279  0.49635749  0.39918082  1
  O  O311  1  0.84269589  0.48805133  0.59299748  1
  O  O312  1  0.86385044  0.49928490  0.90830883  1
  O  O313  1  0.88003695  0.74458560  0.15414656  1
  O  O314  1  0.84358090  0.73908335  0.36330680  1
  O  O315  1  0.88158122  0.73993817  0.64354073  1
  O  O316  1  0.88621617  0.74617885  0.84043393  1
