# generated using pymatgen
data_Mg32Ti42(Bi17O64)3
_symmetry_space_group_name_H-M   'P 1'
_cell_length_a   15.95791795
_cell_length_b   15.97600321
_cell_length_c   15.93199372
_cell_angle_alpha   89.92361575
_cell_angle_beta   90.11594567
_cell_angle_gamma   89.91623763
_symmetry_Int_Tables_number   1
_chemical_formula_structural   Mg32Ti42(Bi17O64)3
_chemical_formula_sum   'Mg32 Ti42 Bi51 O192'
_cell_volume   4061.74591569
_cell_formula_units_Z   1
loop_
 _symmetry_equiv_pos_site_id
 _symmetry_equiv_pos_as_xyz
  1  'x, y, z'
loop_
 _atom_site_type_symbol
 _atom_site_label
 _atom_site_symmetry_multiplicity
 _atom_site_fract_x
 _atom_site_fract_y
 _atom_site_fract_z
 _atom_site_occupancy
  Mg  Mg0  1  0.86950988  0.36782014  0.37431089  1
  Mg  Mg1  1  0.61708144  0.11756715  0.87249857  1
  Mg  Mg2  1  0.12396349  0.62370183  0.87190258  1
  Mg  Mg3  1  0.63224677  0.86656386  0.12928075  1
  Mg  Mg4  1  0.12903955  0.37660157  0.62412652  1
  Mg  Mg5  1  0.87380187  0.11669825  0.13720593  1
  Mg  Mg6  1  0.88784520  0.62469629  0.37247732  1
  Mg  Mg7  1  0.38835036  0.12532809  0.37823655  1
  Mg  Mg8  1  0.88915660  0.61658678  0.13079358  1
  Mg  Mg9  1  0.87986936  0.36365144  0.61563505  1
  Mg  Mg10  1  0.87347343  0.88401806  0.36452043  1
  Mg  Mg11  1  0.11642409  0.87596658  0.87358129  1
  Mg  Mg12  1  0.63302949  0.12166136  0.11525056  1
  Mg  Mg13  1  0.87527893  0.62504143  0.87468164  1
  Mg  Mg14  1  0.37938828  0.12172937  0.86850063  1
  Mg  Mg15  1  0.37342011  0.62579599  0.87365897  1
  Mg  Mg16  1  0.62925536  0.38129346  0.12985520  1
  Mg  Mg17  1  0.62232935  0.35706904  0.60783880  1
  Mg  Mg18  1  0.61526830  0.37875617  0.86900037  1
  Mg  Mg19  1  -0.01960798  0.42877739  -0.04686572  1
  Mg  Mg20  1  0.49918067  0.20255437  0.52899907  1
  Mg  Mg21  1  -0.09825112  0.23367482  -0.00199565  1
  Mg  Mg22  1  0.53272559  0.01736915  0.49556878  1
  Mg  Mg23  1  -0.00865036  -0.03093568  0.45723112  1
  Mg  Mg24  1  -0.00083773  0.76472465  0.23122065  1
  Mg  Mg25  1  0.74677161  -0.00114058  0.18712873  1
  Mg  Mg26  1  -0.00308939  0.45027919  0.26788154  1
  Mg  Mg27  1  0.78437369  0.23190799  0.53381076  1
  Mg  Mg28  1  0.77618270  0.04827281  -0.05542281  1
  Mg  Mg29  1  0.56788398  0.25349167  0.74483703  1
  Mg  Mg30  1  0.01882461  0.00273509  0.19536686  1
  Mg  Mg31  1  0.27254542  0.45999366  0.73457575  1
  Ti  Ti32  1  0.12710248  0.89324326  0.36904955  1
  Ti  Ti33  1  0.36929784  0.61573945  0.63534609  1
  Ti  Ti34  1  0.36544346  0.62514905  0.11423131  1
  Ti  Ti35  1  0.38078038  0.11795055  0.63300305  1
  Ti  Ti36  1  0.38072017  0.87874954  0.88694458  1
  Ti  Ti37  1  0.11238954  0.61735220  0.37142569  1
  Ti  Ti38  1  0.38819159  0.88942898  0.38576240  1
  Ti  Ti39  1  0.11603186  0.88707285  0.62365719  1
  Ti  Ti40  1  0.13140661  0.36644427  0.37471194  1
  Ti  Ti41  1  0.12137559  0.12961756  0.11807361  1
  Ti  Ti42  1  0.36874082  0.11778740  0.12207463  1
  Ti  Ti43  1  0.13694758  0.38420187  0.86963160  1
  Ti  Ti44  1  0.63533161  0.87572582  0.87856396  1
  Ti  Ti45  1  0.85747583  0.11823691  0.38036597  1
  Ti  Ti46  1  0.11388870  0.11946093  0.36583123  1
  Ti  Ti47  1  0.62769007  0.35467600  0.37078915  1
  Ti  Ti48  1  0.88966656  0.87989100  0.62623612  1
  Ti  Ti49  1  0.63093454  0.62111665  0.36815160  1
  Ti  Ti50  1  0.62479183  0.62902680  0.61541051  1
  Ti  Ti51  1  0.63295637  0.62325739  0.86132845  1
  Ti  Ti52  1  0.61825794  0.86804740  0.62207440  1
  Ti  Ti53  1  0.37346842  0.86281190  0.13296576  1
  Ti  Ti54  1  0.62485764  0.12839523  0.38674971  1
  Ti  Ti55  1  0.12709478  0.86908809  0.13315712  1
  Ti  Ti56  1  0.87843804  0.87024768  0.88137114  1
  Ti  Ti57  1  0.37275322  0.37462451  0.86599911  1
  Ti  Ti58  1  0.38056985  0.36779522  0.36541563  1
  Ti  Ti59  1  0.63281817  0.61574948  0.12734535  1
  Ti  Ti60  1  0.12806436  0.61315081  0.62324899  1
  Ti  Ti61  1  0.11773707  0.63203200  0.13725019  1
  Ti  Ti62  1  0.36649584  0.37893465  0.11250218  1
  Ti  Ti63  1  0.63148608  0.12504234  0.63320945  1
  Ti  Ti64  1  0.38074704  0.36117564  0.61133196  1
  Ti  Ti65  1  0.87352942  0.37811152  0.12982150  1
  Ti  Ti66  1  0.38018166  0.87352345  0.62021216  1
  Ti  Ti67  1  0.62473072  0.87619834  0.37979997  1
  Ti  Ti68  1  0.11251698  0.36761525  0.11462852  1
  Ti  Ti69  1  0.87524279  0.88130841  0.12653598  1
  Ti  Ti70  1  0.12324084  0.12616505  0.61998936  1
  Ti  Ti71  1  0.89561335  0.11601401  0.61460118  1
  Ti  Ti72  1  0.87182957  0.62188514  0.61153415  1
  Ti  Ti73  1  0.13321301  0.12401830  0.87078977  1
  Bi  Bi74  1  0.50690637  0.23630859  0.21972821  1
  Bi  Bi75  1  0.75499689  0.76124579  0.48320148  1
  Bi  Bi76  1  0.26004923  0.22926339  0.50347354  1
  Bi  Bi77  1  0.76288708  0.24117076  0.22174480  1
  Bi  Bi78  1  0.27006570  0.73010969  0.29059135  1
  Bi  Bi79  1  0.25830321  0.50588648  -0.02803117  1
  Bi  Bi80  1  0.47682592  0.74468939  0.76593591  1
  Bi  Bi81  1  0.21956879  -0.01972935  0.00382500  1
  Bi  Bi82  1  0.50834099  0.48671293  0.46765623  1
  Bi  Bi83  1  0.76900916  0.71584601  0.00849370  1
  Bi  Bi84  1  0.49101224  0.49548022  0.22693278  1
  Bi  Bi85  1  0.79080580  0.21603138  0.77683263  1
  Bi  Bi86  1  -0.02691611  0.02710299  -0.00962554  1
  Bi  Bi87  1  0.26167195  0.23071294  -0.01423303  1
  Bi  Bi88  1  0.26428822  0.22858534  0.26110938  1
  Bi  Bi89  1  0.70482291  0.25389131  -0.00880447  1
  Bi  Bi90  1  0.25964936  -0.01974483  0.76029458  1
  Bi  Bi91  1  0.78333405  0.51108832  0.26168431  1
  Bi  Bi92  1  0.26949598  -0.00562522  0.26042517  1
  Bi  Bi93  1  0.53092240  -0.00912238  0.25065058  1
  Bi  Bi94  1  0.78113191  0.75262102  0.24648407  1
  Bi  Bi95  1  0.47106873  0.72088129  0.47516409  1
  Bi  Bi96  1  0.78412876  0.47641216  -0.03093989  1
  Bi  Bi97  1  0.51863491  0.49208547  0.72088042  1
  Bi  Bi98  1  0.49844325  0.72534062  0.24267213  1
  Bi  Bi99  1  0.49343360  0.23519435  -0.01550478  1
  Bi  Bi100  1  -0.00410349  0.25414673  0.79118219  1
  Bi  Bi101  1  0.22588464  0.49016772  0.22612381  1
  Bi  Bi102  1  0.23639342  0.25673643  0.73020882  1
  Bi  Bi103  1  -0.01298950  0.24893399  0.24774115  1
  Bi  Bi104  1  0.25752282  -0.00172172  0.51442307  1
  Bi  Bi105  1  0.23584401  0.74676075  0.51461046  1
  Bi  Bi106  1  0.50467174  -0.00530284  0.75969196  1
  Bi  Bi107  1  0.22982458  0.73940987  -0.01238355  1
  Bi  Bi108  1  0.75108808  0.46331406  0.50133945  1
  Bi  Bi109  1  0.28805428  0.51642104  0.46378019  1
  Bi  Bi110  1  0.22480442  0.75225437  0.74898210  1
  Bi  Bi111  1  -0.03950254  0.47837434  0.74734098  1
  Bi  Bi112  1  0.51734853  0.48595404  -0.01506629  1
  Bi  Bi113  1  0.01072109  0.76312414  0.46278532  1
  Bi  Bi114  1  0.00762480  0.48446334  0.51343685  1
  Bi  Bi115  1  0.74890518  -0.00868569  0.51945578  1
  Bi  Bi116  1  0.50877558  -0.02003904  0.03165245  1
  Bi  Bi117  1  0.76618259  0.74774554  0.72675180  1
  Bi  Bi118  1  0.74345306  -0.02050999  0.75613700  1
  Bi  Bi119  1  -0.01539384  0.25895942  0.48163464  1
  Bi  Bi120  1  0.74527458  0.45043599  0.74734549  1
  Bi  Bi121  1  -0.00803594  0.73024439  -0.00632603  1
  Bi  Bi122  1  -0.00342946  0.72013487  0.74230288  1
  Bi  Bi123  1  -0.01593707  0.02713673  0.77850718  1
  Bi  Bi124  1  0.52970261  0.73598439  -0.00431164  1
  O  O125  1  0.14316134  0.13395764  0.00350046  1
  O  O126  1  0.09209825  0.10464261  0.25320612  1
  O  O127  1  0.14651772  0.13915987  0.50379663  1
  O  O128  1  0.10969679  0.10816154  0.75403310  1
  O  O129  1  0.08693621  0.37808030  0.00417727  1
  O  O130  1  0.12390575  0.39975181  0.25624131  1
  O  O131  1  0.10383934  0.38074316  0.49285751  1
  O  O132  1  0.16855195  0.38947627  0.75744061  1
  O  O133  1  0.11304844  0.66288257  0.01244861  1
  O  O134  1  0.14851628  0.62097307  0.25579241  1
  O  O135  1  0.10926822  0.63755429  0.50055213  1
  O  O136  1  0.12916327  0.64260303  0.74352570  1
  O  O137  1  0.13088845  0.86592211  0.01051162  1
  O  O138  1  0.13382066  0.91356801  0.25583713  1
  O  O139  1  0.08682662  0.89003311  0.51040701  1
  O  O140  1  0.15694067  0.87975770  0.74615012  1
  O  O141  1  0.34428195  0.11523273  0.00781351  1
  O  O142  1  0.38963880  0.15954164  0.24664006  1
  O  O143  1  0.34164059  0.11768583  0.49753601  1
  O  O144  1  0.39716999  0.13911692  0.74134572  1
  O  O145  1  0.37728253  0.40847254  0.00038012  1
  O  O146  1  0.37212086  0.36055696  0.25044092  1
  O  O147  1  0.37071226  0.39288619  0.50173064  1
  O  O148  1  0.35600990  0.35721578  0.75137331  1
  O  O149  1  0.38954874  0.60247597  0.00227256  1
  O  O150  1  0.37066148  0.65833251  0.24250582  1
  O  O151  1  0.39404134  0.61086839  0.51340468  1
  O  O152  1  0.36642943  0.65436580  0.74694630  1
  O  O153  1  0.39890087  0.89692178  -0.00012072  1
  O  O154  1  0.35866605  0.85519801  0.25074034  1
  O  O155  1  0.39511530  0.92312012  0.49845724  1
  O  O156  1  0.34325385  0.86790247  0.73488781  1
  O  O157  1  0.67302675  0.11924741  -0.00811845  1
  O  O158  1  0.58813606  0.13352880  0.26618859  1
  O  O159  1  0.64208551  0.09358254  0.50847361  1
  O  O160  1  0.59438169  0.13434703  0.74504545  1
  O  O161  1  0.61976579  0.39379800  -0.00075780  1
  O  O162  1  0.61780031  0.34691098  0.25759163  1
  O  O163  1  0.62159955  0.40531296  0.49091321  1
  O  O164  1  0.63084827  0.36174300  0.73906481  1
  O  O165  1  0.59706978  0.61042363  0.00715836  1
  O  O166  1  0.63234155  0.65023359  0.25187341  1
  O  O167  1  0.60365579  0.61478870  0.50155037  1
  O  O168  1  0.65059854  0.64514594  0.75158390  1
  O  O169  1  0.59567192  0.88015465  -0.00409797  1
  O  O170  1  0.62756738  0.87844783  0.26351339  1
  O  O171  1  0.60201769  0.90465622  0.51111495  1
  O  O172  1  0.65487748  0.85971840  0.75422673  1
  O  O173  1  0.86651733  0.10831700  0.00825953  1
  O  O174  1  0.87509591  0.16042142  0.26773810  1
  O  O175  1  0.84297444  0.10871804  0.50805156  1
  O  O176  1  0.89747728  0.13100688  0.73724638  1
  O  O177  1  0.89024572  0.36931088  0.01117617  1
  O  O178  1  0.87286879  0.33506999  0.25289903  1
  O  O179  1  0.90087621  0.39961958  0.49438573  1
  O  O180  1  0.86478922  0.37761319  0.73983171  1
  O  O181  1  0.88809262  0.63732621  0.00469231  1
  O  O182  1  0.84963163  0.63536018  0.25004559  1
  O  O183  1  0.89682125  0.61897268  0.50064226  1
  O  O184  1  0.87215541  0.64721881  0.74779885  1
  O  O185  1  0.89427502  0.88906652  0.00836424  1
  O  O186  1  0.88822120  0.83460464  0.24735266  1
  O  O187  1  0.89961132  0.89483600  0.51150218  1
  O  O188  1  0.84818659  0.87049958  0.75662825  1
  O  O189  1  0.00308098  0.11693400  0.11593205  1
  O  O190  1  0.00243476  0.15845097  0.38816018  1
  O  O191  1  0.00638282  0.09606729  0.59997875  1
  O  O192  1  0.00679225  0.11695859  0.88354879  1
  O  O193  1  0.00123006  0.36959769  0.15798434  1
  O  O194  1  0.00341754  0.34351071  0.35667443  1
  O  O195  1  0.00372110  0.40385107  0.63667236  1
  O  O196  1  0.01432785  0.38365617  0.84093577  1
  O  O197  1  0.00519246  0.66515269  0.14462793  1
  O  O198  1  0.00905181  0.67762330  0.34730035  1
  O  O199  1  0.00093917  0.61813190  0.64232602  1
  O  O200  1  0.00061449  0.65824661  0.87014019  1
  O  O201  1  0.00940966  0.87658068  0.14794674  1
  O  O202  1  0.00426608  0.86755827  0.36937091  1
  O  O203  1  0.00181952  0.89012516  0.65901906  1
  O  O204  1  -0.00886598  0.85990878  0.86299167  1
  O  O205  1  0.24859893  0.12624403  0.15530792  1
  O  O206  1  0.24195780  0.11219609  0.34019082  1
  O  O207  1  0.25226389  0.15268915  0.63530546  1
  O  O208  1  0.24992946  0.13760809  0.86662615  1
  O  O209  1  0.23961524  0.39172652  0.12234054  1
  O  O210  1  0.24444855  0.40603084  0.37771175  1
  O  O211  1  0.25645205  0.34533352  0.62254875  1
  O  O212  1  0.24638619  0.36144271  0.90879433  1
  O  O213  1  0.24884251  0.63813235  0.10632190  1
  O  O214  1  0.23730404  0.62509080  0.38777895  1
  O  O215  1  0.25215314  0.64144436  0.61480656  1
  O  O216  1  0.24989570  0.63001938  0.90476104  1
  O  O217  1  0.25654632  0.88706145  0.11558782  1
  O  O218  1  0.24767842  0.91391876  0.38335888  1
  O  O219  1  0.25300123  0.87144949  0.58287142  1
  O  O220  1  0.26280349  0.89509415  0.88907103  1
  O  O221  1  0.49307667  0.14428014  0.11003764  1
  O  O222  1  0.50715249  0.13542288  0.42341511  1
  O  O223  1  0.49042234  0.09138018  0.59500908  1
  O  O224  1  0.49726319  0.12158966  0.91576016  1
  O  O225  1  0.48836749  0.39218921  0.12771572  1
  O  O226  1  0.49758712  0.36314675  0.38438036  1
  O  O227  1  0.49463385  0.39380285  0.62569934  1
  O  O228  1  0.48632532  0.39102343  0.87011494  1
  O  O229  1  0.49508334  0.61906192  0.15052608  1
  O  O230  1  0.50465625  0.65374442  0.36052059  1
  O  O231  1  0.50239792  0.61448854  0.65067892  1
  O  O232  1  0.50638464  0.64752773  0.86008939  1
  O  O233  1  0.49617842  0.88619123  0.13715098  1
  O  O234  1  0.49779752  0.85564583  0.37291100  1
  O  O235  1  0.49663701  0.88833291  0.65107903  1
  O  O236  1  0.50112853  0.87129268  0.84136626  1
  O  O237  1  0.74905854  0.11717623  0.16127469  1
  O  O238  1  0.74333629  0.10469297  0.36608079  1
  O  O239  1  0.74235340  0.15731247  0.63960872  1
  O  O240  1  0.74461223  0.11002945  0.84019262  1
  O  O241  1  0.75714605  0.38053735  0.13220376  1
  O  O242  1  0.74320530  0.39739569  0.37806027  1
  O  O243  1  0.75341763  0.34913631  0.58134122  1
  O  O244  1  0.74342412  0.38995905  0.87197355  1
  O  O245  1  0.74571689  0.60893740  0.10595822  1
  O  O246  1  0.74387778  0.59387613  0.38187792  1
  O  O247  1  0.74948768  0.64850469  0.61068941  1
  O  O248  1  0.74649000  0.60371461  0.90145895  1
  O  O249  1  0.75743556  0.88811267  0.13737648  1
  O  O250  1  0.74384663  0.88704051  0.40772182  1
  O  O251  1  0.74389781  0.86286572  0.60503234  1
  O  O252  1  0.74498433  0.91315037  0.89826672  1
  O  O253  1  0.12413838  0.00460596  0.11290774  1
  O  O254  1  0.09843206  0.00970252  0.40031342  1
  O  O255  1  0.15572327  0.00454347  0.62551995  1
  O  O256  1  0.12777291  0.00251365  0.89299637  1
  O  O257  1  0.12792440  0.25260429  0.13386586  1
  O  O258  1  0.15308968  0.25293837  0.36719968  1
  O  O259  1  0.11433405  0.24373852  0.64933392  1
  O  O260  1  0.11519459  0.25025754  0.86575922  1
  O  O261  1  0.12271188  0.51574959  0.12901795  1
  O  O262  1  0.07806211  0.50967023  0.37406814  1
  O  O263  1  0.15008967  0.50525563  0.62385933  1
  O  O264  1  0.13442972  0.49850657  0.89222426  1
  O  O265  1  0.13408280  0.76213009  0.16900022  1
  O  O266  1  0.14026886  0.77542352  0.39782250  1
  O  O267  1  0.13349145  0.76472688  0.62487853  1
  O  O268  1  0.15189855  0.75581864  0.86992177  1
  O  O269  1  0.38298547  0.00681552  0.14235206  1
  O  O270  1  0.38829522  0.00118808  0.34133922  1
  O  O271  1  0.34259343  0.00358607  0.63718139  1
  O  O272  1  0.38684153  -0.00396444  0.84313194  1
  O  O273  1  0.36282791  0.26244154  0.09720270  1
  O  O274  1  0.34565924  0.25354145  0.38384166  1
  O  O275  1  0.39716861  0.24710875  0.59136817  1
  O  O276  1  0.37750775  0.25461225  0.90284731  1
  O  O277  1  0.36308896  0.50795235  0.14994215  1
  O  O278  1  0.38671658  0.49334729  0.37276136  1
  O  O279  1  0.35794870  0.50214514  0.65232878  1
  O  O280  1  0.33224170  0.49252218  0.85044813  1
  O  O281  1  0.38343911  0.75340727  0.10282612  1
  O  O282  1  0.35170352  0.77071290  0.40532142  1
  O  O283  1  0.38305497  0.76038716  0.59892716  1
  O  O284  1  0.38298604  0.76123036  0.87713695  1
  O  O285  1  0.62059089  -0.00025932  0.14097544  1
  O  O286  1  0.59851897  -0.00131016  0.37624277  1
  O  O287  1  0.64535482  -0.00107935  0.64841552  1
  O  O288  1  0.61112102  -0.00769031  0.85179497  1
  O  O289  1  0.62925754  0.25054377  0.10644744  1
  O  O290  1  0.64389713  0.24529241  0.40081757  1
  O  O291  1  0.58652883  0.23635555  0.61267825  1
  O  O292  1  0.60797139  0.25132667  0.88260143  1
  O  O293  1  0.61504739  0.50412468  0.15712631  1
  O  O294  1  0.59260811  0.50916508  0.35807092  1
  O  O295  1  0.63374640  0.50926706  0.64209560  1
  O  O296  1  0.60454181  0.50906007  0.85883771  1
  O  O297  1  0.61667324  0.74206607  0.10808429  1
  O  O298  1  0.64286654  0.75360049  0.39971412  1
  O  O299  1  0.60738948  0.75281294  0.61421023  1
  O  O300  1  0.63391271  0.75071001  0.89996158  1
  O  O301  1  0.88497653  -0.00642689  0.16739005  1
  O  O302  1  0.89750120  0.01047573  0.37888341  1
  O  O303  1  0.85052703  -0.00017979  0.63964995  1
  O  O304  1  0.88586485  -0.00280861  0.87710116  1
  O  O305  1  0.86488904  0.24500439  0.11847941  1
  O  O306  1  0.85841368  0.24639955  0.42571170  1
  O  O307  1  0.89452245  0.23691071  0.60314459  1
  O  O308  1  0.88754536  0.24643488  0.87440134  1
  O  O309  1  0.88885308  0.49212757  0.15760865  1
  O  O310  1  0.89533914  0.49443063  0.33699780  1
  O  O311  1  0.85561369  0.50931851  0.63346691  1
  O  O312  1  0.89385535  0.50000230  0.89095118  1
  O  O313  1  0.85158024  0.75282818  0.11745813  1
  O  O314  1  0.84797685  0.75221951  0.38403385  1
  O  O315  1  0.88203010  0.75957014  0.62682257  1
  O  O316  1  0.84537071  0.75773280  0.89104292  1
