# generated using pymatgen
data_Mg32Ti42(Bi17O64)3
_symmetry_space_group_name_H-M   'P 1'
_cell_length_a   15.96426614
_cell_length_b   15.91454421
_cell_length_c   15.90885048
_cell_angle_alpha   89.93629360
_cell_angle_beta   89.95150135
_cell_angle_gamma   90.21277967
_symmetry_Int_Tables_number   1
_chemical_formula_structural   Mg32Ti42(Bi17O64)3
_chemical_formula_sum   'Mg32 Ti42 Bi51 O192'
_cell_volume   4041.83466219
_cell_formula_units_Z   1
loop_
 _symmetry_equiv_pos_site_id
 _symmetry_equiv_pos_as_xyz
  1  'x, y, z'
loop_
 _atom_site_type_symbol
 _atom_site_label
 _atom_site_symmetry_multiplicity
 _atom_site_fract_x
 _atom_site_fract_y
 _atom_site_fract_z
 _atom_site_occupancy
  Mg  Mg0  1  0.12804032  0.87501614  0.63784657  1
  Mg  Mg1  1  0.36350721  0.38121496  0.38298520  1
  Mg  Mg2  1  0.86935406  0.62598957  0.36728055  1
  Mg  Mg3  1  0.62309110  0.88041122  0.12850026  1
  Mg  Mg4  1  0.36799431  0.13024445  0.87220985  1
  Mg  Mg5  1  0.87789138  0.87911124  0.12734719  1
  Mg  Mg6  1  0.11790963  0.12611553  0.63108321  1
  Mg  Mg7  1  0.88327907  0.13298500  0.88169250  1
  Mg  Mg8  1  0.62721903  0.14258890  0.62156648  1
  Mg  Mg9  1  0.87313985  0.88394098  0.38415293  1
  Mg  Mg10  1  0.86999138  0.37652848  0.87326629  1
  Mg  Mg11  1  0.62095494  0.37285662  0.38940268  1
  Mg  Mg12  1  0.12790048  0.62709795  0.62291595  1
  Mg  Mg13  1  0.38046748  0.62570220  0.37367688  1
  Mg  Mg14  1  0.63697190  0.62704096  0.11969466  1
  Mg  Mg15  1  0.61991738  0.11261531  0.12372898  1
  Mg  Mg16  1  0.86883972  0.86905950  0.87187531  1
  Mg  Mg17  1  0.38073204  0.62899232  0.62446091  1
  Mg  Mg18  1  0.38302219  0.12617770  0.62714446  1
  Mg  Mg19  1  0.19210148  0.22063253  -0.00283416  1
  Mg  Mg20  1  0.47663780  0.48261196  0.49261101  1
  Mg  Mg21  1  0.71988870  0.28085460  0.72194471  1
  Mg  Mg22  1  -0.05514764  0.26210687  0.00715987  1
  Mg  Mg23  1  0.55992459  0.21068503  0.79484775  1
  Mg  Mg24  1  -0.05336184  0.22117718  0.24859433  1
  Mg  Mg25  1  0.25250732  0.72750685  0.70623321  1
  Mg  Mg26  1  0.52448838  0.01241386  0.56044785  1
  Mg  Mg27  1  0.27086374  0.47244153  0.76040175  1
  Mg  Mg28  1  0.49905492  0.02661848  -0.04982489  1
  Mg  Mg29  1  0.76287306  0.81083895  0.26196378  1
  Mg  Mg30  1  0.72659435  0.08174094  0.78385052  1
  Mg  Mg31  1  0.23309926  0.76848586  0.52108529  1
  Ti  Ti32  1  0.86874121  0.86230999  0.62095171  1
  Ti  Ti33  1  0.12100153  0.36272786  0.13034754  1
  Ti  Ti34  1  0.11892018  0.12923757  0.13509639  1
  Ti  Ti35  1  0.11132928  0.12020503  0.37328009  1
  Ti  Ti36  1  0.86615620  0.12387844  0.11742687  1
  Ti  Ti37  1  0.13755021  0.36715808  0.87933904  1
  Ti  Ti38  1  0.61708996  0.61970030  0.62311002  1
  Ti  Ti39  1  0.12322975  0.88400178  0.37743830  1
  Ti  Ti40  1  0.12264084  0.62471067  0.13403834  1
  Ti  Ti41  1  0.38143974  0.38528438  0.62248642  1
  Ti  Ti42  1  0.38250046  0.85914092  0.38395908  1
  Ti  Ti43  1  0.37972741  0.37326455  0.88761054  1
  Ti  Ti44  1  0.36517482  0.62908799  0.87746380  1
  Ti  Ti45  1  0.62854324  0.13654122  0.38389178  1
  Ti  Ti46  1  0.62645325  0.87656539  0.37842826  1
  Ti  Ti47  1  0.14078684  0.61983251  0.86347536  1
  Ti  Ti48  1  0.38279609  0.87574208  0.12016793  1
  Ti  Ti49  1  0.12195835  0.63243895  0.37958188  1
  Ti  Ti50  1  0.87214907  0.12394320  0.38312604  1
  Ti  Ti51  1  0.61946036  0.38513601  0.61593451  1
  Ti  Ti52  1  0.37700515  0.61651036  0.12472683  1
  Ti  Ti53  1  0.12937261  0.86831881  0.87296911  1
  Ti  Ti54  1  0.61728248  0.38536406  0.85788111  1
  Ti  Ti55  1  0.12154919  0.88904916  0.12698515  1
  Ti  Ti56  1  0.87510213  0.62892513  0.12807510  1
  Ti  Ti57  1  0.36192629  0.36588943  0.12295309  1
  Ti  Ti58  1  0.62487122  0.62456385  0.87243274  1
  Ti  Ti59  1  0.12557278  0.36890432  0.36323747  1
  Ti  Ti60  1  0.36298766  0.87389360  0.87614768  1
  Ti  Ti61  1  0.63346068  0.86888354  0.87598431  1
  Ti  Ti62  1  0.88365431  0.62184190  0.62166273  1
  Ti  Ti63  1  0.88547963  0.36708942  0.36992250  1
  Ti  Ti64  1  0.88017613  0.37486210  0.63614575  1
  Ti  Ti65  1  0.62604353  0.86603098  0.62416162  1
  Ti  Ti66  1  0.86278959  0.62369789  0.87836376  1
  Ti  Ti67  1  0.87176032  0.12631490  0.63101875  1
  Ti  Ti68  1  0.62711579  0.62332661  0.35943380  1
  Ti  Ti69  1  0.12267214  0.11350462  0.87624838  1
  Ti  Ti70  1  0.36562268  0.12587245  0.11757829  1
  Ti  Ti71  1  0.13455859  0.37802704  0.62347400  1
  Ti  Ti72  1  0.37479685  0.86624629  0.62011924  1
  Ti  Ti73  1  0.89135948  0.37548044  0.12736165  1
  Bi  Bi74  1  0.01684165  -0.01486184  0.52611831  1
  Bi  Bi75  1  0.22938246  0.50083576  0.02085514  1
  Bi  Bi76  1  0.48233499  0.50460182  0.75446064  1
  Bi  Bi77  1  0.01645565  0.24332455  0.51561496  1
  Bi  Bi78  1  0.72633194  0.01466892  0.26207305  1
  Bi  Bi79  1  0.74572381  0.51494192  0.72976530  1
  Bi  Bi80  1  -0.01427797  0.76587385  -0.00790737  1
  Bi  Bi81  1  0.71925285  0.47412369  0.24876712  1
  Bi  Bi82  1  0.47805367  0.73721608  0.75365221  1
  Bi  Bi83  1  -0.00898462  0.51469433  -0.00891124  1
  Bi  Bi84  1  0.47091358  0.20984647  0.47365437  1
  Bi  Bi85  1  0.25777020  0.51395439  0.26493202  1
  Bi  Bi86  1  0.27212281  0.75987804  0.25362761  1
  Bi  Bi87  1  0.51583279  0.26426089  0.20578017  1
  Bi  Bi88  1  0.49950826  0.21375226  -0.01754354  1
  Bi  Bi89  1  0.72857434  0.26008725  -0.03645883  1
  Bi  Bi90  1  0.72755806  0.25758775  0.21265791  1
  Bi  Bi91  1  -0.01592513  0.77363745  0.26459995  1
  Bi  Bi92  1  0.25095251  0.03278563  0.73508013  1
  Bi  Bi93  1  0.75086961  0.48119342  0.03267481  1
  Bi  Bi94  1  0.76765117  0.73578070  0.47968705  1
  Bi  Bi95  1  0.27758089  -0.00959304  0.25940124  1
  Bi  Bi96  1  0.75684027  0.74662008  0.74708986  1
  Bi  Bi97  1  0.71851505  0.02551890  -0.02676192  1
  Bi  Bi98  1  0.72802072  0.00308278  0.52494724  1
  Bi  Bi99  1  0.51751099  0.72568984  0.48627943  1
  Bi  Bi100  1  0.28775077  0.00859457  0.49510564  1
  Bi  Bi101  1  -0.01964870  -0.00538546  -0.00392516  1
  Bi  Bi102  1  0.49846557  0.02478296  0.25677980  1
  Bi  Bi103  1  0.02005752  0.74616115  0.51121931  1
  Bi  Bi104  1  0.02495196  0.48475497  0.75888291  1
  Bi  Bi105  1  0.00369258  0.25128635  0.77477465  1
  Bi  Bi106  1  0.25284376  0.01627082  -0.01590438  1
  Bi  Bi107  1  0.76224917  0.25052494  0.51341482  1
  Bi  Bi108  1  0.24330859  0.76668203  0.02624246  1
  Bi  Bi109  1  -0.02667002  0.01343143  0.25178371  1
  Bi  Bi110  1  0.25703697  0.22270737  0.50037956  1
  Bi  Bi111  1  -0.04239759  -0.00133531  0.75751291  1
  Bi  Bi112  1  0.75006396  0.78183282  0.02671502  1
  Bi  Bi113  1  0.51191077  -0.03258070  0.75453811  1
  Bi  Bi114  1  0.02232718  0.48323127  0.49369267  1
  Bi  Bi115  1  0.26701566  0.53029117  0.51263509  1
  Bi  Bi116  1  0.53033300  0.46997320  0.03158925  1
  Bi  Bi117  1  0.27885689  0.26677558  0.73744448  1
  Bi  Bi118  1  0.26569254  0.22091660  0.28626482  1
  Bi  Bi119  1  0.48658187  0.46838964  0.27004800  1
  Bi  Bi120  1  0.76934118  0.48784852  0.48402764  1
  Bi  Bi121  1  -0.01451356  0.51743957  0.26534218  1
  Bi  Bi122  1  0.01755745  0.73215442  0.76659176  1
  Bi  Bi123  1  0.52845456  0.74455074  0.22661035  1
  Bi  Bi124  1  0.50757866  0.72611434  0.00273011  1
  O  O125  1  0.10783040  0.11511366  -0.00190237  1
  O  O126  1  0.15474803  0.13656310  0.24814571  1
  O  O127  1  0.09188168  0.11615868  0.49159199  1
  O  O128  1  0.15632158  0.13027003  0.75716727  1
  O  O129  1  0.15852008  0.37314547  -0.00741943  1
  O  O130  1  0.10111977  0.36076518  0.24435129  1
  O  O131  1  0.13563443  0.39818832  0.50024876  1
  O  O132  1  0.10296659  0.36192231  0.74553424  1
  O  O133  1  0.12009361  0.58660325  -0.01693655  1
  O  O134  1  0.14501503  0.62736073  0.24894321  1
  O  O135  1  0.10096341  0.60556047  0.49389632  1
  O  O136  1  0.14862090  0.66658285  0.74794831  1
  O  O137  1  0.15578598  0.88118191  0.00480980  1
  O  O138  1  0.09590393  0.85601886  0.24508932  1
  O  O139  1  0.13651063  0.90280643  0.49277100  1
  O  O140  1  0.10353489  0.85921507  0.76132130  1
  O  O141  1  0.40338910  0.09527634  0.00647365  1
  O  O142  1  0.34482948  0.12025055  0.24323903  1
  O  O143  1  0.36435187  0.12890019  0.49953628  1
  O  O144  1  0.34726588  0.13241959  0.74761406  1
  O  O145  1  0.36169513  0.39439581  -0.00105201  1
  O  O146  1  0.39576649  0.35967065  0.24310916  1
  O  O147  1  0.35981019  0.41409275  0.50914426  1
  O  O148  1  0.38698064  0.35356103  0.74729907  1
  O  O149  1  0.39549282  0.62078754  -0.00575240  1
  O  O150  1  0.34854295  0.63282367  0.24165005  1
  O  O151  1  0.39414011  0.58529909  0.49955969  1
  O  O152  1  0.35518549  0.66853466  0.75465866  1
  O  O153  1  0.35751389  0.88072919  0.00243208  1
  O  O154  1  0.37180569  0.86179435  0.25439900  1
  O  O155  1  0.33766120  0.85975838  0.49992136  1
  O  O156  1  0.40208314  0.87726115  0.75311303  1
  O  O157  1  0.59943845  0.08113846  0.00408232  1
  O  O158  1  0.65287271  0.14106571  0.26186761  1
  O  O159  1  0.61866558  0.08208754  0.49077551  1
  O  O160  1  0.65788862  0.16967272  0.73877490  1
  O  O161  1  0.64162816  0.40076029  -0.01650159  1
  O  O162  1  0.63657471  0.35698315  0.26001071  1
  O  O163  1  0.64683888  0.41656797  0.50736813  1
  O  O164  1  0.60092486  0.34216997  0.74905991  1
  O  O165  1  0.59795239  0.61312467  -0.01097502  1
  O  O166  1  0.63914215  0.65278892  0.24952176  1
  O  O167  1  0.58513892  0.59933469  0.51222851  1
  O  O168  1  0.65091235  0.65158739  0.75343879  1
  O  O169  1  0.65405896  0.88712004  -0.00424494  1
  O  O170  1  0.62816506  0.83480742  0.26425833  1
  O  O171  1  0.63256238  0.89270801  0.50130992  1
  O  O172  1  0.60429637  0.86230106  0.75080239  1
  O  O173  1  0.90569155  0.14048378  0.00828238  1
  O  O174  1  0.86662371  0.11075543  0.24866442  1
  O  O175  1  0.88961062  0.15526095  0.49535671  1
  O  O176  1  0.85172215  0.10247800  0.74644985  1
  O  O177  1  0.85346499  0.35349064  0.00409474  1
  O  O178  1  0.90875449  0.38062881  0.24921053  1
  O  O179  1  0.85303242  0.36859996  0.50169341  1
  O  O180  1  0.90900439  0.37465682  0.74939228  1
  O  O181  1  0.90717744  0.63212943  -0.00457791  1
  O  O182  1  0.86725501  0.59858356  0.24190228  1
  O  O183  1  0.87911369  0.63625582  0.50385831  1
  O  O184  1  0.85519690  0.62952905  0.75393702  1
  O  O185  1  0.86657859  0.85656228  0.00019912  1
  O  O186  1  0.89232364  0.88254959  0.25446351  1
  O  O187  1  0.84639036  0.86557005  0.50486629  1
  O  O188  1  0.88602881  0.88142030  0.74402820  1
  O  O189  1  0.00766467  0.13547812  0.15944838  1
  O  O190  1  -0.00021405  0.14816802  0.34109153  1
  O  O191  1  -0.01318373  0.16154290  0.63740791  1
  O  O192  1  0.00953547  0.11630749  0.84512580  1
  O  O193  1  0.00516451  0.35787454  0.08552574  1
  O  O194  1  -0.00261057  0.35767039  0.40298953  1
  O  O195  1  -0.00676840  0.36109066  0.60317040  1
  O  O196  1  0.02580005  0.41311885  0.88410971  1
  O  O197  1  0.00713665  0.61319500  0.13345215  1
  O  O198  1  0.00384977  0.64228336  0.34855321  1
  O  O199  1  -0.00397519  0.64107342  0.63801402  1
  O  O200  1  0.01586110  0.60569679  0.84641900  1
  O  O201  1  0.00681126  0.88088339  0.09541614  1
  O  O202  1  0.00235919  0.84211620  0.38783617  1
  O  O203  1  -0.00934995  0.86123129  0.59744091  1
  O  O204  1  0.01124538  0.88469872  0.90689503  1
  O  O205  1  0.25170237  0.12383070  0.08992075  1
  O  O206  1  0.23438718  0.12491373  0.38941755  1
  O  O207  1  0.24300844  0.10084533  0.60987749  1
  O  O208  1  0.24497542  0.13971940  0.91061739  1
  O  O209  1  0.24918045  0.37696009  0.13840006  1
  O  O210  1  0.23775569  0.39443460  0.35075661  1
  O  O211  1  0.24590824  0.38771920  0.65574970  1
  O  O212  1  0.25827880  0.37073840  0.84696809  1
  O  O213  1  0.24809186  0.61775769  0.10044600  1
  O  O214  1  0.24069549  0.59111738  0.38432664  1
  O  O215  1  0.25778947  0.65552285  0.59209937  1
  O  O216  1  0.25342759  0.64375814  0.89633044  1
  O  O217  1  0.24351340  0.86240021  0.14279796  1
  O  O218  1  0.23449913  0.87609141  0.34771386  1
  O  O219  1  0.26142180  0.84338715  0.64894646  1
  O  O220  1  0.25327157  0.84712105  0.86356459  1
  O  O221  1  0.49416516  0.12860517  0.15774039  1
  O  O222  1  0.51100610  0.13281617  0.36188579  1
  O  O223  1  0.50334273  0.13248998  0.59968019  1
  O  O224  1  0.49669345  0.12767680  0.86775977  1
  O  O225  1  0.49320668  0.35630799  0.10357515  1
  O  O226  1  0.49527082  0.39935271  0.39204068  1
  O  O227  1  0.49855453  0.39996755  0.60032046  1
  O  O228  1  0.49805061  0.40738010  0.88381790  1
  O  O229  1  0.49382753  0.63289191  0.13412938  1
  O  O230  1  0.50717093  0.64970618  0.36368153  1
  O  O231  1  0.50304846  0.61919589  0.66495082  1
  O  O232  1  0.50263505  0.61571702  0.84239957  1
  O  O233  1  0.49421262  0.86452585  0.12540015  1
  O  O234  1  0.49662906  0.85210255  0.39288796  1
  O  O235  1  0.50677874  0.89825601  0.61950264  1
  O  O236  1  0.50965621  0.91809613  0.88743659  1
  O  O237  1  0.75253454  0.12153216  0.10986992  1
  O  O238  1  0.75533174  0.10111422  0.38979345  1
  O  O239  1  0.75528663  0.12511918  0.59102749  1
  O  O240  1  0.75642902  0.14007196  0.89521587  1
  O  O241  1  0.76643684  0.38616624  0.14309449  1
  O  O242  1  0.75961224  0.40355051  0.36975537  1
  O  O243  1  0.74677468  0.39364794  0.65662200  1
  O  O244  1  0.74177981  0.33965211  0.84906317  1
  O  O245  1  0.76204774  0.61546443  0.09780694  1
  O  O246  1  0.74095183  0.60989928  0.40064036  1
  O  O247  1  0.74279435  0.60871758  0.61764387  1
  O  O248  1  0.74996812  0.64253897  0.89221314  1
  O  O249  1  0.75152193  0.85963739  0.14264628  1
  O  O250  1  0.74304044  0.89753562  0.35759981  1
  O  O251  1  0.74368552  0.86604898  0.64270620  1
  O  O252  1  0.74592960  0.83414726  0.86294139  1
  O  O253  1  0.12592268  0.00242757  0.14021293  1
  O  O254  1  0.10187131  0.00083550  0.35461656  1
  O  O255  1  0.09138195  -0.00040745  0.63738375  1
  O  O256  1  0.15016037  -0.00333428  0.87187136  1
  O  O257  1  0.13727908  0.24643970  0.10784770  1
  O  O258  1  0.13539958  0.25429503  0.38871858  1
  O  O259  1  0.13151820  0.25573658  0.60377139  1
  O  O260  1  0.11644841  0.25246723  0.88207406  1
  O  O261  1  0.13216412  0.49084160  0.12133368  1
  O  O262  1  0.09078260  0.49493191  0.36611892  1
  O  O263  1  0.11030561  0.49696264  0.63387969  1
  O  O264  1  0.15937049  0.50827159  0.82285240  1
  O  O265  1  0.12625758  0.73836744  0.10393701  1
  O  O266  1  0.14324426  0.74417598  0.41124262  1
  O  O267  1  0.12666690  0.75637202  0.59288725  1
  O  O268  1  0.10149075  0.74674329  0.89107974  1
  O  O269  1  0.36869624  -0.00651706  0.14626833  1
  O  O270  1  0.36567670  -0.01730300  0.37181102  1
  O  O271  1  0.38054021  -0.00748782  0.60027181  1
  O  O272  1  0.34636496  -0.00374557  0.87119580  1
  O  O273  1  0.37376864  0.24460903  0.11508901  1
  O  O274  1  0.35197059  0.25960166  0.40105892  1
  O  O275  1  0.35329585  0.26323577  0.61075560  1
  O  O276  1  0.39501139  0.25919404  0.89709352  1
  O  O277  1  0.37890718  0.49780044  0.13673728  1
  O  O278  1  0.37623047  0.50256467  0.34126529  1
  O  O279  1  0.36199014  0.50170902  0.66340776  1
  O  O280  1  0.36194140  0.51260514  0.84424056  1
  O  O281  1  0.35840799  0.74978047  0.12003252  1
  O  O282  1  0.34844496  0.74657045  0.37678999  1
  O  O283  1  0.41226175  0.75670737  0.61812623  1
  O  O284  1  0.40675671  0.75735399  0.88565097  1
  O  O285  1  0.61372819  -0.00292461  0.17433783  1
  O  O286  1  0.61047524  -0.00793207  0.34546361  1
  O  O287  1  0.63482788  0.00017246  0.63369626  1
  O  O288  1  0.66632620  -0.00996643  0.85018327  1
  O  O289  1  0.62836481  0.24192891  0.12003071  1
  O  O290  1  0.63433189  0.24575386  0.41355282  1
  O  O291  1  0.64912579  0.27119916  0.60033634  1
  O  O292  1  0.60080784  0.26436630  0.90002122  1
  O  O293  1  0.63524740  0.50024904  0.12379123  1
  O  O294  1  0.61574018  0.50730522  0.34345526  1
  O  O295  1  0.62153329  0.50194176  0.66390681  1
  O  O296  1  0.63969542  0.50414920  0.84403232  1
  O  O297  1  0.61345305  0.75062618  0.10709098  1
  O  O298  1  0.63681298  0.74636511  0.41236890  1
  O  O299  1  0.61568743  0.74632022  0.60413746  1
  O  O300  1  0.59873782  0.75054978  0.89171889  1
  O  O301  1  0.89242084  0.00622418  0.11635883  1
  O  O302  1  0.90488806  0.01034110  0.38142614  1
  O  O303  1  0.89326060  0.00806843  0.61461085  1
  O  O304  1  0.88520101  -0.00114037  0.88464087  1
  O  O305  1  0.88317010  0.24840320  0.14017695  1
  O  O306  1  0.86286364  0.25117882  0.34871951  1
  O  O307  1  0.83669309  0.25759788  0.63869491  1
  O  O308  1  0.91800994  0.25795928  0.88122318  1
  O  O309  1  0.89040743  0.49222384  0.10420569  1
  O  O310  1  0.90213581  0.49657829  0.38132016  1
  O  O311  1  0.88035653  0.50042903  0.62735225  1
  O  O312  1  0.87056864  0.50541243  0.89199233  1
  O  O313  1  0.88166987  0.74309817  0.13477743  1
  O  O314  1  0.83438946  0.75202847  0.35748172  1
  O  O315  1  0.86110355  0.74667889  0.63246534  1
  O  O316  1  0.90902918  0.74292472  0.87064641  1
