# generated using pymatgen
data_Mg32Ti42(Bi17O64)3
_symmetry_space_group_name_H-M   'P 1'
_cell_length_a   15.94497151
_cell_length_b   15.95322834
_cell_length_c   15.93916570
_cell_angle_alpha   90.11664099
_cell_angle_beta   89.99594261
_cell_angle_gamma   89.82103840
_symmetry_Int_Tables_number   1
_chemical_formula_structural   Mg32Ti42(Bi17O64)3
_chemical_formula_sum   'Mg32 Ti42 Bi51 O192'
_cell_volume   4054.47750044
_cell_formula_units_Z   1
loop_
 _symmetry_equiv_pos_site_id
 _symmetry_equiv_pos_as_xyz
  1  'x, y, z'
loop_
 _atom_site_type_symbol
 _atom_site_label
 _atom_site_symmetry_multiplicity
 _atom_site_fract_x
 _atom_site_fract_y
 _atom_site_fract_z
 _atom_site_occupancy
  Mg  Mg0  1  0.61383009  0.37720413  0.62087382  1
  Mg  Mg1  1  0.63697754  0.62230849  0.87775200  1
  Mg  Mg2  1  0.87354685  0.87840984  0.62542235  1
  Mg  Mg3  1  0.61672996  0.12793823  0.36374356  1
  Mg  Mg4  1  0.64515791  0.61767441  0.36538211  1
  Mg  Mg5  1  0.12320951  0.12624438  0.86343980  1
  Mg  Mg6  1  0.62970785  0.38218090  0.36241066  1
  Mg  Mg7  1  0.61728182  0.13040885  0.62468466  1
  Mg  Mg8  1  0.62540864  0.87536282  0.37228263  1
  Mg  Mg9  1  0.37510478  0.87261164  0.62551786  1
  Mg  Mg10  1  0.37388490  0.12925817  0.61299622  1
  Mg  Mg11  1  0.86952054  0.12746236  0.35954448  1
  Mg  Mg12  1  0.87384735  0.88670676  0.36937793  1
  Mg  Mg13  1  0.37897342  0.87770827  0.87395580  1
  Mg  Mg14  1  0.12183302  0.62018565  0.87504476  1
  Mg  Mg15  1  0.88912845  0.62776191  0.13486383  1
  Mg  Mg16  1  0.87385381  0.12068330  0.88309920  1
  Mg  Mg17  1  0.37005687  0.62197242  0.12652348  1
  Mg  Mg18  1  0.37910085  0.13766088  0.88189763  1
  Mg  Mg19  1  0.26376319  0.28263965  0.46145191  1
  Mg  Mg20  1  0.79468996  0.51686756  0.02447383  1
  Mg  Mg21  1  0.80576717  0.51124838  0.27814752  1
  Mg  Mg22  1  0.24253359  0.24936232  -0.07076515  1
  Mg  Mg23  1  0.73524430  0.19963963  0.20627426  1
  Mg  Mg24  1  0.29009779  0.05532518  0.74921522  1
  Mg  Mg25  1  -0.01604017  0.47593378  0.20243316  1
  Mg  Mg26  1  0.48021873  0.26717902  0.69594126  1
  Mg  Mg27  1  0.54368906  0.74046686  0.45341970  1
  Mg  Mg28  1  0.06306962  -0.03222640  0.30242204  1
  Mg  Mg29  1  0.01720518  0.19720657  0.27946681  1
  Mg  Mg30  1  0.52546277  0.06879218  0.20438887  1
  Mg  Mg31  1  0.26289358  0.51416066  -0.02658032  1
  Ti  Ti32  1  0.87743015  0.36676741  0.35845905  1
  Ti  Ti33  1  0.12402967  0.87744409  0.63318561  1
  Ti  Ti34  1  0.37910762  0.37094472  0.87830361  1
  Ti  Ti35  1  0.12659148  0.87004101  0.87039052  1
  Ti  Ti36  1  0.87579982  0.61992587  0.86543401  1
  Ti  Ti37  1  0.37145955  0.38461850  0.60918615  1
  Ti  Ti38  1  0.36667349  0.64042303  0.37326931  1
  Ti  Ti39  1  0.87319476  0.63070639  0.61553309  1
  Ti  Ti40  1  0.12744532  0.61912035  0.36991032  1
  Ti  Ti41  1  0.35444441  0.37879418  0.11240451  1
  Ti  Ti42  1  0.38952562  0.13181838  0.36617665  1
  Ti  Ti43  1  0.88478565  0.10660353  0.13358829  1
  Ti  Ti44  1  0.12119570  0.61585466  0.12741215  1
  Ti  Ti45  1  0.37607869  0.37403469  0.36013915  1
  Ti  Ti46  1  0.61931849  0.87100647  0.11904208  1
  Ti  Ti47  1  0.86790667  0.37334050  0.88879517  1
  Ti  Ti48  1  0.64820291  0.38693496  0.11600630  1
  Ti  Ti49  1  0.89180549  0.62558987  0.36883674  1
  Ti  Ti50  1  0.62879933  0.62160521  0.62076087  1
  Ti  Ti51  1  0.62088506  0.13516554  0.87702184  1
  Ti  Ti52  1  0.37161876  0.62170554  0.87289176  1
  Ti  Ti53  1  0.87757099  0.87875503  0.88223172  1
  Ti  Ti54  1  0.12974846  0.87951423  0.12499200  1
  Ti  Ti55  1  0.37559145  0.62929767  0.62221791  1
  Ti  Ti56  1  0.63284791  0.37673954  0.87880702  1
  Ti  Ti57  1  0.36074305  0.13262733  0.12058310  1
  Ti  Ti58  1  0.37907431  0.88164022  0.38430329  1
  Ti  Ti59  1  0.12277166  0.13490143  0.62763073  1
  Ti  Ti60  1  0.61916513  0.86866759  0.61899524  1
  Ti  Ti61  1  0.62032439  0.86648826  0.87614906  1
  Ti  Ti62  1  0.37021179  0.87265671  0.12962895  1
  Ti  Ti63  1  0.11775421  0.37438054  0.87972934  1
  Ti  Ti64  1  0.86962213  0.12568663  0.61476218  1
  Ti  Ti65  1  0.86782437  0.87746579  0.12940244  1
  Ti  Ti66  1  0.63078292  0.63036030  0.11866459  1
  Ti  Ti67  1  0.11610076  0.36824514  0.12170833  1
  Ti  Ti68  1  0.12118750  0.62989103  0.63643137  1
  Ti  Ti69  1  0.12189461  0.37498299  0.36438921  1
  Ti  Ti70  1  0.14377753  0.13476550  0.39051383  1
  Ti  Ti71  1  0.13105719  0.36569824  0.61438457  1
  Ti  Ti72  1  0.87167069  0.36466123  0.12233380  1
  Ti  Ti73  1  0.11758672  0.11308077  0.14237574  1
  Bi  Bi74  1  0.50747483  0.52543579  0.47165409  1
  Bi  Bi75  1  0.71842509  0.01440379  0.22617354  1
  Bi  Bi76  1  0.74905546  0.75106031  0.27291279  1
  Bi  Bi77  1  0.26604308  0.75713587  0.77621916  1
  Bi  Bi78  1  0.01955351  0.50312978  0.49857021  1
  Bi  Bi79  1  0.52697460  0.51147527  0.24183041  1
  Bi  Bi80  1  0.22992906  0.48521954  0.76764232  1
  Bi  Bi81  1  0.26017693  0.00260215  -0.04498224  1
  Bi  Bi82  1  0.26001386  0.00066947  0.27154857  1
  Bi  Bi83  1  0.51647918  0.27405672  0.47764223  1
  Bi  Bi84  1  -0.01753683  0.02300497  0.47475610  1
  Bi  Bi85  1  0.78587507  0.45998641  0.51588448  1
  Bi  Bi86  1  0.51436203  0.51147322  -0.01364833  1
  Bi  Bi87  1  -0.01140389  0.77374348  0.23551435  1
  Bi  Bi88  1  0.00355681  0.22778052  -0.01118691  1
  Bi  Bi89  1  0.23425522  0.72258330  0.00926892  1
  Bi  Bi90  1  0.73359995  0.75955143  0.74169332  1
  Bi  Bi91  1  0.01760825  0.00215004  -0.02260734  1
  Bi  Bi92  1  0.51121130  0.76806320  0.26027473  1
  Bi  Bi93  1  0.48521350  0.76384004  0.73643344  1
  Bi  Bi94  1  0.73554998  -0.01237026  -0.02250503  1
  Bi  Bi95  1  0.77045850  0.72857457  0.00781770  1
  Bi  Bi96  1  0.00135630  0.74766860  0.00652359  1
  Bi  Bi97  1  0.48217835  0.73041065  0.01661195  1
  Bi  Bi98  1  0.73946646  0.02799937  0.47161362  1
  Bi  Bi99  1  -0.01782605  0.47823220  0.71877980  1
  Bi  Bi100  1  0.51145892  0.25652867  -0.00052413  1
  Bi  Bi101  1  0.50496871  0.02284283  0.51230568  1
  Bi  Bi102  1  0.22118820  0.74899202  0.50298196  1
  Bi  Bi103  1  -0.01220931  0.26489508  0.48165444  1
  Bi  Bi104  1  0.74670208  0.21129943  0.01555598  1
  Bi  Bi105  1  0.50827423  0.51395634  0.74878628  1
  Bi  Bi106  1  0.48855113  0.03346970  0.75900153  1
  Bi  Bi107  1  -0.00747307  0.02189340  0.73184111  1
  Bi  Bi108  1  0.76022875  0.77106467  0.49866135  1
  Bi  Bi109  1  0.28022239  0.25682942  0.73172446  1
  Bi  Bi110  1  -0.03703830  0.25286701  0.74969367  1
  Bi  Bi111  1  0.24987905  0.51997308  0.51012023  1
  Bi  Bi112  1  0.51985230  0.27093979  0.21941211  1
  Bi  Bi113  1  0.73078466  0.00409580  0.72415820  1
  Bi  Bi114  1  0.73486800  0.25432951  0.71603753  1
  Bi  Bi115  1  -0.00342435  0.50425851  -0.01282393  1
  Bi  Bi116  1  -0.01843631  0.77107887  0.74892575  1
  Bi  Bi117  1  0.24362521  0.24555824  0.22447039  1
  Bi  Bi118  1  0.25442730  -0.01183899  0.54016000  1
  Bi  Bi119  1  0.22395856  0.77412396  0.26781905  1
  Bi  Bi120  1  0.48282592  -0.00133494  0.02206333  1
  Bi  Bi121  1  0.00399793  0.79310085  0.48508008  1
  Bi  Bi122  1  0.27378161  0.50816073  0.24940364  1
  Bi  Bi123  1  0.73348471  0.48350367  0.73122747  1
  Bi  Bi124  1  0.73390531  0.26104415  0.46700106  1
  O  O125  1  0.09873421  0.11999643  0.02665879  1
  O  O126  1  0.13742601  0.14629790  0.26338399  1
  O  O127  1  0.10153343  0.13286203  0.50345907  1
  O  O128  1  0.09904782  0.11087230  0.74344208  1
  O  O129  1  0.13127433  0.37324356  0.00975364  1
  O  O130  1  0.09536648  0.39784522  0.25927372  1
  O  O131  1  0.15526817  0.34071436  0.50664308  1
  O  O132  1  0.10898087  0.39976291  0.75867224  1
  O  O133  1  0.10979093  0.63953707  0.00601882  1
  O  O134  1  0.14351220  0.61713374  0.25336403  1
  O  O135  1  0.12804272  0.63940475  0.50784644  1
  O  O136  1  0.14002791  0.59747424  0.74822265  1
  O  O137  1  0.13841199  0.88842739  0.01021128  1
  O  O138  1  0.11342209  0.85938035  0.25151489  1
  O  O139  1  0.12724628  0.85031641  0.50885388  1
  O  O140  1  0.10956937  0.88012919  0.75358793  1
  O  O141  1  0.37300966  0.09832704  0.00732755  1
  O  O142  1  0.34272833  0.13754735  0.25446678  1
  O  O143  1  0.40111250  0.10645929  0.48806377  1
  O  O144  1  0.38925964  0.14164810  0.74922424  1
  O  O145  1  0.33642960  0.40933162  0.00417290  1
  O  O146  1  0.38565620  0.34977896  0.24975584  1
  O  O147  1  0.34215288  0.38083276  0.49825718  1
  O  O148  1  0.39471672  0.33931689  0.76364841  1
  O  O149  1  0.39682223  0.61364580  -0.00449436  1
  O  O150  1  0.34658623  0.63386613  0.25528482  1
  O  O151  1  0.38132440  0.60305192  0.50207053  1
  O  O152  1  0.35963196  0.64128082  0.75131552  1
  O  O153  1  0.37351972  0.91385139  0.00356294  1
  O  O154  1  0.40054606  0.85733526  0.24143298  1
  O  O155  1  0.36968363  0.89769137  0.49700352  1
  O  O156  1  0.36876515  0.84335380  0.74942662  1
  O  O157  1  0.61644230  0.15266913  -0.00391955  1
  O  O158  1  0.63896965  0.12306767  0.24056477  1
  O  O159  1  0.59872924  0.11980476  0.49520996  1
  O  O160  1  0.62471293  0.09320553  0.75521243  1
  O  O161  1  0.62630261  0.34821225  0.00265082  1
  O  O162  1  0.60511165  0.39816093  0.23637739  1
  O  O163  1  0.63185183  0.36223527  0.49548865  1
  O  O164  1  0.61622453  0.40578640  0.76049890  1
  O  O165  1  0.59215786  0.63336230  -0.00094776  1
  O  O166  1  0.62808845  0.60442785  0.23474636  1
  O  O167  1  0.60416993  0.63783443  0.50498335  1
  O  O168  1  0.63291761  0.58711682  0.75212385  1
  O  O169  1  0.64179276  0.86360097  -0.00276155  1
  O  O170  1  0.61154979  0.86275056  0.24182825  1
  O  O171  1  0.61833633  0.83519731  0.50616781  1
  O  O172  1  0.65335602  0.88442643  0.75165268  1
  O  O173  1  0.88608038  0.15279224  0.01896850  1
  O  O174  1  0.83267295  0.11354877  0.24189076  1
  O  O175  1  0.88827100  0.14745246  0.50047680  1
  O  O176  1  0.89155965  0.11400298  0.75611403  1
  O  O177  1  0.87047254  0.34749683  0.00457510  1
  O  O178  1  0.87832411  0.41087511  0.24820059  1
  O  O179  1  0.85906132  0.34478155  0.48732735  1
  O  O180  1  0.89583174  0.38022710  0.76573863  1
  O  O181  1  0.89140708  0.65845674  0.00567689  1
  O  O182  1  0.90544934  0.58432852  0.25565478  1
  O  O183  1  0.87507087  0.64562716  0.50034328  1
  O  O184  1  0.86251824  0.59197478  0.75594150  1
  O  O185  1  0.87423779  0.84075334  0.00387633  1
  O  O186  1  0.89850876  0.88810806  0.24385745  1
  O  O187  1  0.87302047  0.84837653  0.49980766  1
  O  O188  1  0.89474887  0.88175745  0.75947509  1
  O  O189  1  -0.00687047  0.14357373  0.16657990  1
  O  O190  1  0.00153052  0.08988959  0.35545362  1
  O  O191  1  -0.00796671  0.10924907  0.62458436  1
  O  O192  1  0.00072839  0.11973759  0.89777589  1
  O  O193  1  -0.00762999  0.36404119  0.12805641  1
  O  O194  1  0.00011719  0.39030541  0.40956181  1
  O  O195  1  0.01249821  0.38984233  0.60978002  1
  O  O196  1  0.00202669  0.38934143  0.89748516  1
  O  O197  1  0.01302237  0.66795368  0.13357241  1
  O  O198  1  0.00908592  0.60983350  0.38843170  1
  O  O199  1  0.00134321  0.61359862  0.63318379  1
  O  O200  1  -0.00570078  0.59706988  0.87554293  1
  O  O201  1  0.00896542  0.84886929  0.11573284  1
  O  O202  1  -0.00000154  0.90288891  0.39518462  1
  O  O203  1  0.00244752  0.86141529  0.61469071  1
  O  O204  1  0.00391233  0.87330912  0.89612344  1
  O  O205  1  0.23922458  0.11433029  0.13120967  1
  O  O206  1  0.24934513  0.16646328  0.41061240  1
  O  O207  1  0.23975662  0.12381049  0.64042280  1
  O  O208  1  0.24872417  0.13484480  0.86938653  1
  O  O209  1  0.23908751  0.38822186  0.15502536  1
  O  O210  1  0.24421278  0.35930761  0.35918686  1
  O  O211  1  0.25022923  0.37179922  0.65621036  1
  O  O212  1  0.24810320  0.35274792  0.85205147  1
  O  O213  1  0.24445166  0.60348461  0.08819723  1
  O  O214  1  0.24918938  0.60756027  0.39487775  1
  O  O215  1  0.25482519  0.62791339  0.60947741  1
  O  O216  1  0.25359610  0.62168616  0.89970193  1
  O  O217  1  0.25725794  0.89737432  0.15022586  1
  O  O218  1  0.26343395  0.88114720  0.34600605  1
  O  O219  1  0.24486485  0.86640961  0.61375600  1
  O  O220  1  0.24556278  0.87229945  0.87372389  1
  O  O221  1  0.48053381  0.16560072  0.13247156  1
  O  O222  1  0.49452555  0.11712297  0.32690315  1
  O  O223  1  0.49704011  0.09381441  0.62979171  1
  O  O224  1  0.50341681  0.11329280  0.87601783  1
  O  O225  1  0.47994395  0.34675701  0.10729757  1
  O  O226  1  0.48959320  0.38374772  0.39837665  1
  O  O227  1  0.48814878  0.37538553  0.61526285  1
  O  O228  1  0.49518352  0.37897223  0.90035098  1
  O  O229  1  0.49658653  0.65456391  0.13126406  1
  O  O230  1  0.48816497  0.63659344  0.38105508  1
  O  O231  1  0.50247631  0.60656725  0.64358019  1
  O  O232  1  0.49453862  0.60042183  0.85846459  1
  O  O233  1  0.50227361  0.86044956  0.09766931  1
  O  O234  1  0.49589799  0.84066489  0.38243867  1
  O  O235  1  0.50558954  0.87676612  0.65020918  1
  O  O236  1  0.50686741  0.86661350  0.86216520  1
  O  O237  1  0.75518254  0.10956347  0.10633079  1
  O  O238  1  0.74601388  0.14098302  0.39225034  1
  O  O239  1  0.74509410  0.13645076  0.63132459  1
  O  O240  1  0.74765477  0.11792695  0.90132022  1
  O  O241  1  0.75474603  0.42290435  0.10873680  1
  O  O242  1  0.75796542  0.35040956  0.35880927  1
  O  O243  1  0.74087654  0.36825399  0.64249044  1
  O  O244  1  0.75136521  0.36957928  0.86497541  1
  O  O245  1  0.74751794  0.61187837  0.09503356  1
  O  O246  1  0.76715677  0.62049050  0.34023284  1
  O  O247  1  0.74944202  0.64312902  0.62455840  1
  O  O248  1  0.76112324  0.62526804  0.90990911  1
  O  O249  1  0.75248647  0.88989732  0.12930679  1
  O  O250  1  0.75269563  0.84763205  0.37580913  1
  O  O251  1  0.74738180  0.84570746  0.62143986  1
  O  O252  1  0.75996633  0.88474315  0.87872945  1
  O  O253  1  0.10512595  -0.00121400  0.16666656  1
  O  O254  1  0.15936342  0.01835399  0.37198871  1
  O  O255  1  0.12851055  -0.00649729  0.61564611  1
  O  O256  1  0.12410007  -0.00135409  0.88650040  1
  O  O257  1  0.12964741  0.25481121  0.13858010  1
  O  O258  1  0.09018340  0.25426687  0.37407408  1
  O  O259  1  0.11645594  0.24991376  0.64614498  1
  O  O260  1  0.11939142  0.25316139  0.89162549  1
  O  O261  1  0.08756158  0.50747133  0.12994969  1
  O  O262  1  0.13182232  0.49311191  0.41007733  1
  O  O263  1  0.13578812  0.49534017  0.59807735  1
  O  O264  1  0.15939908  0.48995053  0.89448190  1
  O  O265  1  0.16052303  0.75744773  0.12752959  1
  O  O266  1  0.14167746  0.73649070  0.37693903  1
  O  O267  1  0.13047187  0.74337506  0.64895734  1
  O  O268  1  0.12530386  0.75156992  0.87283349  1
  O  O269  1  0.41811196  0.01299732  0.14444371  1
  O  O270  1  0.37005298  0.00046205  0.35838754  1
  O  O271  1  0.34605479  0.00038163  0.64231872  1
  O  O272  1  0.35331230  0.00370371  0.84938888  1
  O  O273  1  0.33401014  0.25061382  0.11159883  1
  O  O274  1  0.39012837  0.25102208  0.39432480  1
  O  O275  1  0.37290738  0.25482682  0.62096893  1
  O  O276  1  0.36953274  0.25923539  0.92014362  1
  O  O277  1  0.37545140  0.49216141  0.15345329  1
  O  O278  1  0.37284041  0.49406957  0.35315516  1
  O  O279  1  0.36382102  0.49684608  0.63928311  1
  O  O280  1  0.35369547  0.49449237  0.86343529  1
  O  O281  1  0.35829973  0.75941943  0.09582077  1
  O  O282  1  0.35026956  0.75095013  0.38991151  1
  O  O283  1  0.39908827  0.74141075  0.61748681  1
  O  O284  1  0.36476032  0.74331340  0.88349068  1
  O  O285  1  0.60602485  -0.00950192  0.13158299  1
  O  O286  1  0.65018452  -0.00258343  0.37267593  1
  O  O287  1  0.64283292  -0.01417906  0.61465075  1
  O  O288  1  0.62680951  -0.00479833  0.89669607  1
  O  O289  1  0.64717769  0.27215002  0.14790931  1
  O  O290  1  0.60941863  0.25466786  0.37643404  1
  O  O291  1  0.60173415  0.25106102  0.65607319  1
  O  O292  1  0.61915704  0.24996706  0.85632412  1
  O  O293  1  0.59205389  0.49964216  0.10779167  1
  O  O294  1  0.60256673  0.50457526  0.37115137  1
  O  O295  1  0.64708267  0.50422994  0.61384035  1
  O  O296  1  0.62907279  0.49072022  0.90771683  1
  O  O297  1  0.64619769  0.74578595  0.12767074  1
  O  O298  1  0.62741539  0.73918275  0.35540610  1
  O  O299  1  0.61773494  0.74292859  0.66126186  1
  O  O300  1  0.63929117  0.75070397  0.85322425  1
  O  O301  1  0.89420026  -0.00442602  0.10866138  1
  O  O302  1  0.85680474  0.00631300  0.40447941  1
  O  O303  1  0.85575743  0.00503021  0.62169493  1
  O  O304  1  0.88251613  -0.00695715  0.90759820  1
  O  O305  1  0.83059582  0.26488185  0.15165495  1
  O  O306  1  0.91776985  0.25227938  0.35206442  1
  O  O307  1  0.86848377  0.24202884  0.65324034  1
  O  O308  1  0.89499569  0.25199685  0.86989030  1
  O  O309  1  0.90081590  0.50495223  0.09864771  1
  O  O310  1  0.85922168  0.49126583  0.39677025  1
  O  O311  1  0.87174596  0.50612147  0.61081539  1
  O  O312  1  0.86767739  0.49431893  0.92024572  1
  O  O313  1  0.86366455  0.75372886  0.15505687  1
  O  O314  1  0.88580644  0.73982575  0.34864335  1
  O  O315  1  0.88380442  0.74169782  0.65668151  1
  O  O316  1  0.88454222  0.74087799  0.84989249  1
