# generated using pymatgen
data_Mg32Ti42(Bi17O64)3
_symmetry_space_group_name_H-M   'P 1'
_cell_length_a   15.96827212
_cell_length_b   15.96514101
_cell_length_c   15.94024035
_cell_angle_alpha   90.16382405
_cell_angle_beta   89.88802664
_cell_angle_gamma   89.97878639
_symmetry_Int_Tables_number   1
_chemical_formula_structural   Mg32Ti42(Bi17O64)3
_chemical_formula_sum   'Mg32 Ti42 Bi51 O192'
_cell_volume   4063.71193088
_cell_formula_units_Z   1
loop_
 _symmetry_equiv_pos_site_id
 _symmetry_equiv_pos_as_xyz
  1  'x, y, z'
loop_
 _atom_site_type_symbol
 _atom_site_label
 _atom_site_symmetry_multiplicity
 _atom_site_fract_x
 _atom_site_fract_y
 _atom_site_fract_z
 _atom_site_occupancy
  Mg  Mg0  1  0.87751442  0.87415414  0.62860889  1
  Mg  Mg1  1  0.38094406  0.62630785  0.37565643  1
  Mg  Mg2  1  0.88530232  0.36490320  0.87315850  1
  Mg  Mg3  1  0.37114147  0.36980053  0.12378690  1
  Mg  Mg4  1  0.62073341  0.36647647  0.11875190  1
  Mg  Mg5  1  0.36891180  0.12502548  0.37264181  1
  Mg  Mg6  1  0.12934493  0.88593495  0.63299265  1
  Mg  Mg7  1  0.62785547  0.62662965  0.12306122  1
  Mg  Mg8  1  0.61980208  0.38203142  0.36832326  1
  Mg  Mg9  1  0.13512213  0.86151291  0.13396987  1
  Mg  Mg10  1  0.12512088  0.61903917  0.62618326  1
  Mg  Mg11  1  0.11784024  0.87963280  0.37230842  1
  Mg  Mg12  1  0.86637895  0.13242086  0.61902952  1
  Mg  Mg13  1  0.60967072  0.86478693  0.86740984  1
  Mg  Mg14  1  0.62270640  0.63188548  0.62300229  1
  Mg  Mg15  1  0.11557295  0.12729619  0.87593813  1
  Mg  Mg16  1  0.62038308  0.87300618  0.12241563  1
  Mg  Mg17  1  0.86697016  0.11906795  0.12434827  1
  Mg  Mg18  1  0.87191149  0.62907760  0.37690061  1
  Mg  Mg19  1  0.72873051  0.77605629  0.28647941  1
  Mg  Mg20  1  0.49815362  0.79141012  0.71145047  1
  Mg  Mg21  1  0.20139420  0.25503012  0.72786881  1
  Mg  Mg22  1  0.25126192  0.71367361  0.22289505  1
  Mg  Mg23  1  0.75757796  -0.06818833  0.50322121  1
  Mg  Mg24  1  0.68525132  0.73518410  0.74755451  1
  Mg  Mg25  1  0.53703166  0.53823275  0.49319956  1
  Mg  Mg26  1  -0.05080051  0.01614954  0.73338585  1
  Mg  Mg27  1  0.25416086  0.28446599  0.24478255  1
  Mg  Mg28  1  0.54367018  0.28710480  0.72873518  1
  Mg  Mg29  1  0.01843914  -0.07154113  0.02233656  1
  Mg  Mg30  1  -0.01454633  0.20389445  0.00141126  1
  Mg  Mg31  1  0.51783304  0.74771726  0.01690477  1
  Ti  Ti32  1  0.61234978  0.62298597  0.87609391  1
  Ti  Ti33  1  0.61795376  0.13013752  0.37691155  1
  Ti  Ti34  1  0.37778341  0.37555529  0.86026924  1
  Ti  Ti35  1  0.38240886  0.61930184  0.86821628  1
  Ti  Ti36  1  0.12998561  0.36060487  0.12642435  1
  Ti  Ti37  1  0.87866213  0.62603159  0.61566115  1
  Ti  Ti38  1  0.12243504  0.12509941  0.62030210  1
  Ti  Ti39  1  0.37337478  0.87146300  0.12255264  1
  Ti  Ti40  1  0.12780700  0.63881408  0.37287733  1
  Ti  Ti41  1  0.12527374  0.62832901  0.12529246  1
  Ti  Ti42  1  0.61920621  0.12612696  0.61882299  1
  Ti  Ti43  1  0.86669021  0.86994809  0.11931617  1
  Ti  Ti44  1  0.12361375  0.88853930  0.87671318  1
  Ti  Ti45  1  0.35834695  0.36707158  0.62322891  1
  Ti  Ti46  1  0.62135757  0.89020140  0.37809142  1
  Ti  Ti47  1  0.12857190  0.37763266  0.36707733  1
  Ti  Ti48  1  0.12033251  0.36935942  0.86588902  1
  Ti  Ti49  1  0.39310024  0.85338736  0.87491763  1
  Ti  Ti50  1  0.61876740  0.87838528  0.62034800  1
  Ti  Ti51  1  0.87513464  0.38652339  0.37295734  1
  Ti  Ti52  1  0.37544053  0.88517870  0.62252189  1
  Ti  Ti53  1  0.87670835  0.87039213  0.36830937  1
  Ti  Ti54  1  0.63063183  0.13059730  0.87029953  1
  Ti  Ti55  1  0.62507442  0.62820767  0.35532279  1
  Ti  Ti56  1  0.11701972  0.37476096  0.61780301  1
  Ti  Ti57  1  0.13960750  0.61616486  0.87186350  1
  Ti  Ti58  1  0.87729774  0.12499730  0.87379085  1
  Ti  Ti59  1  0.62180241  0.12159236  0.11985363  1
  Ti  Ti60  1  0.11878888  0.12519567  0.11166937  1
  Ti  Ti61  1  0.37681296  0.62978765  0.62788718  1
  Ti  Ti62  1  0.37437317  0.87604209  0.37369150  1
  Ti  Ti63  1  0.37654460  0.62096031  0.11357811  1
  Ti  Ti64  1  0.37249026  0.37500186  0.37433713  1
  Ti  Ti65  1  0.86716880  0.63049080  0.13157133  1
  Ti  Ti66  1  0.86676476  0.11405524  0.37124903  1
  Ti  Ti67  1  0.63002869  0.38153366  0.87992082  1
  Ti  Ti68  1  0.88590041  0.89054160  0.86944512  1
  Ti  Ti69  1  0.37429680  0.14220758  0.62340473  1
  Ti  Ti70  1  0.89084396  0.38273776  0.62095616  1
  Ti  Ti71  1  0.35472425  0.12581643  0.13070206  1
  Ti  Ti72  1  0.11914561  0.12172810  0.36506648  1
  Ti  Ti73  1  0.87782335  0.37369369  0.11355708  1
  Bi  Bi74  1  -0.00115347  0.50237770  0.23733596  1
  Bi  Bi75  1  0.72954334  0.72578191  0.48992687  1
  Bi  Bi76  1  0.74991993  0.00226379  0.71682823  1
  Bi  Bi77  1  0.23979742  -0.01104756  0.24905760  1
  Bi  Bi78  1  0.25872071  0.23666990  -0.04479950  1
  Bi  Bi79  1  0.72644801  -0.01454573  -0.03127493  1
  Bi  Bi80  1  0.77797055  0.52483305  -0.03337159  1
  Bi  Bi81  1  0.24409128  0.49969667  0.73130518  1
  Bi  Bi82  1  -0.01067416  0.25121109  0.47535569  1
  Bi  Bi83  1  0.48391869  0.74638210  0.22545783  1
  Bi  Bi84  1  -0.01028829  0.22982776  0.73873079  1
  Bi  Bi85  1  0.26179620  0.51408742  0.49794949  1
  Bi  Bi86  1  0.49151948  0.04297151  0.76006158  1
  Bi  Bi87  1  0.72290032  0.75171562  -0.00676366  1
  Bi  Bi88  1  0.00841400  0.76097919  0.52719180  1
  Bi  Bi89  1  -0.02718727  0.00060499  0.52180133  1
  Bi  Bi90  1  0.49320117  0.48680636  -0.00376621  1
  Bi  Bi91  1  0.48684474  0.00000175  0.24157765  1
  Bi  Bi92  1  0.49437101  0.47987538  0.23251903  1
  Bi  Bi93  1  0.24383411  0.24050910  0.46431215  1
  Bi  Bi94  1  0.76885620  0.25820303  -0.01747444  1
  Bi  Bi95  1  -0.00496544  0.74197565  0.26608425  1
  Bi  Bi96  1  0.72332065  0.47302310  0.52559944  1
  Bi  Bi97  1  -0.03585329  0.72086226  -0.02310225  1
  Bi  Bi98  1  0.27512183  0.01104599  -0.02940594  1
  Bi  Bi99  1  -0.01647068  0.52228092  0.78925821  1
  Bi  Bi100  1  0.73129453  0.23949599  0.23243430  1
  Bi  Bi101  1  0.23775869  0.75824505  0.52993428  1
  Bi  Bi102  1  0.75658020  0.28140250  0.72511364  1
  Bi  Bi103  1  0.25145327  0.04883780  0.74898812  1
  Bi  Bi104  1  0.48532398  0.02708172  0.49069102  1
  Bi  Bi105  1  0.01923365  0.50756873  0.01202456  1
  Bi  Bi106  1  0.00640544  0.51237163  0.47956214  1
  Bi  Bi107  1  0.23189574  -0.00855188  0.48532865  1
  Bi  Bi108  1  0.48021692  0.23728233  0.23546098  1
  Bi  Bi109  1  0.52150706  0.50129100  0.71572297  1
  Bi  Bi110  1  0.23936371  0.47994931  -0.00169196  1
  Bi  Bi111  1  0.73052315  0.48051164  0.22641327  1
  Bi  Bi112  1  0.52095534  0.30859187  0.52696743  1
  Bi  Bi113  1  0.49149636  0.25788673  -0.03518000  1
  Bi  Bi114  1  0.75363203  0.25103341  0.47342004  1
  Bi  Bi115  1  0.23544044  0.76725162  0.76254111  1
  Bi  Bi116  1  0.24137924  0.76538827  -0.01694174  1
  Bi  Bi117  1  0.00751358  -0.01223894  0.22723126  1
  Bi  Bi118  1  -0.02427045  0.75152311  0.75640780  1
  Bi  Bi119  1  0.75564800  0.52951356  0.73747435  1
  Bi  Bi120  1  0.75778304  -0.01528167  0.23064126  1
  Bi  Bi121  1  -0.02688139  0.24369930  0.23323954  1
  Bi  Bi122  1  0.49408851  0.75340609  0.47562095  1
  Bi  Bi123  1  0.49523739  0.02389944  -0.01500252  1
  Bi  Bi124  1  0.26935935  0.51585386  0.26059981  1
  O  O125  1  0.11254262  0.15624623  0.00287505  1
  O  O126  1  0.12194842  0.09903379  0.25163831  1
  O  O127  1  0.11896753  0.15453495  0.50793147  1
  O  O128  1  0.13862747  0.13169288  0.74990437  1
  O  O129  1  0.11891388  0.38177466  0.00535940  1
  O  O130  1  0.15628387  0.37732806  0.25405131  1
  O  O131  1  0.10236344  0.36123015  0.50567025  1
  O  O132  1  0.15671041  0.38186007  0.75331129  1
  O  O133  1  0.14360252  0.60726415  0.00646439  1
  O  O134  1  0.08694029  0.61834555  0.24939816  1
  O  O135  1  0.16263363  0.63068283  0.48633131  1
  O  O136  1  0.11127803  0.60790284  0.75627118  1
  O  O137  1  0.13974691  0.86464978  0.00550929  1
  O  O138  1  0.12670887  0.91422160  0.24886360  1
  O  O139  1  0.15689885  0.86723055  0.49794451  1
  O  O140  1  0.12528488  0.85978878  0.75943091  1
  O  O141  1  0.37196128  0.10974559  0.01340472  1
  O  O142  1  0.38528628  0.10373636  0.24640892  1
  O  O143  1  0.37841314  0.12203249  0.50643970  1
  O  O144  1  0.37542527  0.11367503  0.74538666  1
  O  O145  1  0.41107526  0.37170420  -0.00050881  1
  O  O146  1  0.34420676  0.38604032  0.25591655  1
  O  O147  1  0.38540755  0.36544409  0.50402449  1
  O  O148  1  0.35037506  0.38700758  0.75057442  1
  O  O149  1  0.35274433  0.62286031  0.00290696  1
  O  O150  1  0.38821717  0.59604170  0.24829340  1
  O  O151  1  0.35332176  0.62477892  0.50784165  1
  O  O152  1  0.39884747  0.60165785  0.75398187  1
  O  O153  1  0.34994188  0.85410364  0.01035377  1
  O  O154  1  0.40633659  0.88003260  0.25681309  1
  O  O155  1  0.35973579  0.86116220  0.50680533  1
  O  O156  1  0.40599940  0.86463955  0.75979972  1
  O  O157  1  0.62639620  0.10465701  0.00638834  1
  O  O158  1  0.61214767  0.15485654  0.25939066  1
  O  O159  1  0.61771688  0.10821784  0.50589184  1
  O  O160  1  0.59548532  0.14843214  0.75885021  1
  O  O161  1  0.58644093  0.37454400  -0.00420814  1
  O  O162  1  0.65882564  0.36102695  0.24774774  1
  O  O163  1  0.59574069  0.42498933  0.49131892  1
  O  O164  1  0.64736872  0.35419280  0.76401963  1
  O  O165  1  0.65066802  0.61457112  -0.00771858  1
  O  O166  1  0.61426845  0.66522291  0.24909137  1
  O  O167  1  0.64996464  0.60752106  0.49844379  1
  O  O168  1  0.60507084  0.63337977  0.75400569  1
  O  O169  1  0.64822747  0.87423200  -0.01040620  1
  O  O170  1  0.63274250  0.85770037  0.26319182  1
  O  O171  1  0.63422553  0.91146612  0.50784379  1
  O  O172  1  0.61057514  0.83887713  0.74345603  1
  O  O173  1  0.86963252  0.14431485  -0.00274543  1
  O  O174  1  0.88093835  0.13513514  0.25596641  1
  O  O175  1  0.88710537  0.12390690  0.49461747  1
  O  O176  1  0.88354315  0.12833517  0.75015322  1
  O  O177  1  0.89835814  0.33379444  0.00498256  1
  O  O178  1  0.86613959  0.39082076  0.25808014  1
  O  O179  1  0.90777432  0.37896690  0.50504314  1
  O  O180  1  0.85274353  0.37707433  0.74534587  1
  O  O181  1  0.86327197  0.63263217  0.00655232  1
  O  O182  1  0.90824393  0.62261763  0.24700735  1
  O  O183  1  0.84361752  0.63677783  0.50578033  1
  O  O184  1  0.90977570  0.62597956  0.74197776  1
  O  O185  1  0.88701988  0.88991327  0.00587978  1
  O  O186  1  0.83219457  0.85520131  0.25606461  1
  O  O187  1  0.87714815  0.89718100  0.49223959  1
  O  O188  1  0.91480030  0.88767043  0.75212185  1
  O  O189  1  -0.00066302  0.16308377  0.12354507  1
  O  O190  1  0.00197257  0.14236717  0.37428593  1
  O  O191  1  0.00908946  0.10090407  0.64401709  1
  O  O192  1  -0.00881983  0.16157304  0.88066335  1
  O  O193  1  0.00604909  0.35738644  0.14883809  1
  O  O194  1  0.00602112  0.35793682  0.36609983  1
  O  O195  1  0.00580040  0.40258572  0.64990613  1
  O  O196  1  0.01137481  0.34996926  0.84963634  1
  O  O197  1  0.00720542  0.63716861  0.09345558  1
  O  O198  1  0.00840940  0.62430207  0.40301235  1
  O  O199  1  -0.00179821  0.61677872  0.58563994  1
  O  O200  1  0.01257376  0.61854740  0.89519977  1
  O  O201  1  -0.00481399  0.87255325  0.13873290  1
  O  O202  1  -0.01131956  0.88949389  0.34109900  1
  O  O203  1  0.00797378  0.88689452  0.59865056  1
  O  O204  1  0.01112813  0.87750508  0.90357228  1
  O  O205  1  0.24261429  0.09263082  0.12276877  1
  O  O206  1  0.24268925  0.11117055  0.39067252  1
  O  O207  1  0.25385400  0.15132640  0.64282118  1
  O  O208  1  0.25147121  0.11315141  0.88484931  1
  O  O209  1  0.24702274  0.39729628  0.10891061  1
  O  O210  1  0.24121458  0.37710730  0.41051416  1
  O  O211  1  0.24701884  0.33606644  0.62115556  1
  O  O212  1  0.26283560  0.38150733  0.90386137  1
  O  O213  1  0.24898869  0.60536082  0.14746113  1
  O  O214  1  0.24240944  0.64358556  0.32863448  1
  O  O215  1  0.25923149  0.64201649  0.65133770  1
  O  O216  1  0.25628619  0.59681893  0.86099990  1
  O  O217  1  0.25972586  0.89013547  0.15364733  1
  O  O218  1  0.25906882  0.89338424  0.35966935  1
  O  O219  1  0.25986946  0.84625056  0.64540705  1
  O  O220  1  0.25258862  0.86281796  0.87464853  1
  O  O221  1  0.49928108  0.15721456  0.12421579  1
  O  O222  1  0.50121917  0.12569640  0.38579186  1
  O  O223  1  0.49524337  0.09922507  0.62862728  1
  O  O224  1  0.50454953  0.12043550  0.88976581  1
  O  O225  1  0.49651329  0.35536721  0.16153540  1
  O  O226  1  0.48706448  0.37410479  0.35621469  1
  O  O227  1  0.49272256  0.37957862  0.64713663  1
  O  O228  1  0.50306584  0.33768784  0.84628225  1
  O  O229  1  0.49127308  0.65517263  0.10891103  1
  O  O230  1  0.50892710  0.62063701  0.40296627  1
  O  O231  1  0.49734716  0.58184275  0.60508886  1
  O  O232  1  0.49817206  0.64137467  0.90747851  1
  O  O233  1  0.49267102  0.83609219  0.11499117  1
  O  O234  1  0.50536921  0.87950952  0.40314778  1
  O  O235  1  0.49793400  0.88402660  0.61776150  1
  O  O236  1  0.49547123  0.82845931  0.91418121  1
  O  O237  1  0.73960760  0.10422752  0.14654665  1
  O  O238  1  0.74950285  0.13889662  0.37988139  1
  O  O239  1  0.73900206  0.12093210  0.63836695  1
  O  O240  1  0.74629462  0.09911628  0.86976823  1
  O  O241  1  0.76384074  0.40264818  0.10643505  1
  O  O242  1  0.75658303  0.37873883  0.40771320  1
  O  O243  1  0.76451952  0.35862756  0.60236002  1
  O  O244  1  0.74326521  0.38627382  0.90936134  1
  O  O245  1  0.75831301  0.60557977  0.14369473  1
  O  O246  1  0.74539992  0.66849464  0.35878300  1
  O  O247  1  0.75611409  0.65107048  0.66857749  1
  O  O248  1  0.74066803  0.59694775  0.85755697  1
  O  O249  1  0.74891498  0.89816291  0.11954496  1
  O  O250  1  0.74436982  0.85962549  0.39676536  1
  O  O251  1  0.74899482  0.89046292  0.62704746  1
  O  O252  1  0.76989027  0.90010481  0.86528874  1
  O  O253  1  0.08061950  0.01343755  0.10021189  1
  O  O254  1  0.11667812  0.00677490  0.40901922  1
  O  O255  1  0.15634907  0.01045065  0.61163880  1
  O  O256  1  0.13510388  -0.00081630  0.88261308  1
  O  O257  1  0.15546970  0.25073045  0.14735321  1
  O  O258  1  0.14884679  0.24641987  0.36261036  1
  O  O259  1  0.10219108  0.25512667  0.64796466  1
  O  O260  1  0.16322585  0.25496120  0.85844604  1
  O  O261  1  0.09817762  0.49874798  0.13344757  1
  O  O262  1  0.11959585  0.49730093  0.37966258  1
  O  O263  1  0.15617171  0.49247111  0.61729235  1
  O  O264  1  0.12007122  0.49108928  0.88473580  1
  O  O265  1  0.15030421  0.73931716  0.15155246  1
  O  O266  1  0.10493243  0.75303517  0.35967273  1
  O  O267  1  0.11743729  0.74698186  0.61158431  1
  O  O268  1  0.14351288  0.73511919  0.87897223  1
  O  O269  1  0.40259017  -0.01102300  0.12737074  1
  O  O270  1  0.38927155  -0.00480306  0.38894421  1
  O  O271  1  0.35381858  -0.00598354  0.62463657  1
  O  O272  1  0.39074664  -0.02342311  0.89664322  1
  O  O273  1  0.34695436  0.24082478  0.15585647  1
  O  O274  1  0.34069923  0.25366341  0.35668402  1
  O  O275  1  0.40340016  0.25070663  0.63120464  1
  O  O276  1  0.37045439  0.25648615  0.88233976  1
  O  O277  1  0.40706845  0.50029073  0.11682041  1
  O  O278  1  0.35255311  0.49859598  0.38428508  1
  O  O279  1  0.34003086  0.48934722  0.61911277  1
  O  O280  1  0.40072894  0.49464539  0.88839056  1
  O  O281  1  0.35451105  0.74262870  0.15814275  1
  O  O282  1  0.39681528  0.75382905  0.37256405  1
  O  O283  1  0.41070351  0.73740145  0.63838996  1
  O  O284  1  0.34986304  0.73638073  0.86852242  1
  O  O285  1  0.59204155  0.00392146  0.14253710  1
  O  O286  1  0.62655802  0.00646466  0.35908660  1
  O  O287  1  0.62403034  0.00072444  0.66492891  1
  O  O288  1  0.61134136  -0.00378767  0.88113200  1
  O  O289  1  0.65379447  0.24309376  0.11890825  1
  O  O290  1  0.63071349  0.25334706  0.40730258  1
  O  O291  1  0.60508203  0.24341618  0.62253576  1
  O  O292  1  0.64108193  0.24223959  0.90265206  1
  O  O293  1  0.61026554  0.49854028  0.14999704  1
  O  O294  1  0.63172826  0.51267668  0.33713493  1
  O  O295  1  0.64863388  0.50625098  0.64569130  1
  O  O296  1  0.59890219  0.49373576  0.86792932  1
  O  O297  1  0.62992240  0.74841076  0.08839841  1
  O  O298  1  0.61357297  0.75409579  0.40565129  1
  O  O299  1  0.61741798  0.75751750  0.60298533  1
  O  O300  1  0.65327454  0.73957024  0.87456338  1
  O  O301  1  0.87680826  -0.00748169  0.15481105  1
  O  O302  1  0.85490411  0.00061347  0.36023757  1
  O  O303  1  0.87626159  0.00362630  0.62805210  1
  O  O304  1  0.90512469  0.01045778  0.86087565  1
  O  O305  1  0.85761297  0.25998627  0.14961259  1
  O  O306  1  0.87109784  0.25836898  0.38948053  1
  O  O307  1  0.90283781  0.25701759  0.62727177  1
  O  O308  1  0.83454976  0.24689189  0.86233903  1
  O  O309  1  0.91045630  0.49899145  0.11969031  1
  O  O310  1  0.89303403  0.50172736  0.38983819  1
  O  O311  1  0.86006752  0.50681154  0.62289242  1
  O  O312  1  0.89564042  0.48800227  0.89363132  1
  O  O313  1  0.86757619  0.74973500  0.12320733  1
  O  O314  1  0.90233028  0.75477124  0.37546892  1
  O  O315  1  0.90646992  0.75110978  0.62982711  1
  O  O316  1  0.88811155  0.76500276  0.86350114  1
