# generated using pymatgen
data_Mg32Ti42(Bi17O64)3
_symmetry_space_group_name_H-M   'P 1'
_cell_length_a   15.93885859
_cell_length_b   15.97925831
_cell_length_c   15.95760037
_cell_angle_alpha   89.98470493
_cell_angle_beta   90.05803896
_cell_angle_gamma   89.90693571
_symmetry_Int_Tables_number   1
_chemical_formula_structural   Mg32Ti42(Bi17O64)3
_chemical_formula_sum   'Mg32 Ti42 Bi51 O192'
_cell_volume   4064.25181516
_cell_formula_units_Z   1
loop_
 _symmetry_equiv_pos_site_id
 _symmetry_equiv_pos_as_xyz
  1  'x, y, z'
loop_
 _atom_site_type_symbol
 _atom_site_label
 _atom_site_symmetry_multiplicity
 _atom_site_fract_x
 _atom_site_fract_y
 _atom_site_fract_z
 _atom_site_occupancy
  Mg  Mg0  1  0.62343146  0.38529809  0.37842765  1
  Mg  Mg1  1  0.12199220  0.37711591  0.63072198  1
  Mg  Mg2  1  0.61810207  0.38046825  0.62254024  1
  Mg  Mg3  1  0.62432378  0.37642141  0.87995484  1
  Mg  Mg4  1  0.37479720  0.62101952  0.37571662  1
  Mg  Mg5  1  0.86868446  0.88663597  0.37344234  1
  Mg  Mg6  1  0.36953909  0.37578208  0.87680358  1
  Mg  Mg7  1  0.86862994  0.62548601  0.62832681  1
  Mg  Mg8  1  0.62691533  0.87369240  0.37616036  1
  Mg  Mg9  1  0.62900370  0.12634440  0.61750378  1
  Mg  Mg10  1  0.62350058  0.12129956  0.13480505  1
  Mg  Mg11  1  0.12363096  0.38200357  0.37012210  1
  Mg  Mg12  1  0.62867705  0.63720390  0.87482609  1
  Mg  Mg13  1  0.61943655  0.13088158  0.87815528  1
  Mg  Mg14  1  0.11722059  0.61639524  0.87562916  1
  Mg  Mg15  1  0.87351395  0.37315362  0.62748307  1
  Mg  Mg16  1  0.86829305  0.12803555  0.12354380  1
  Mg  Mg17  1  0.12676541  0.12210850  0.13184909  1
  Mg  Mg18  1  0.62212153  0.63512101  0.13055203  1
  Mg  Mg19  1  0.79003693  -0.01231060  0.55105271  1
  Mg  Mg20  1  0.26382518  0.03811009  0.27165342  1
  Mg  Mg21  1  0.30122646  -0.00226156  0.53194455  1
  Mg  Mg22  1  0.75301555  0.82119729  0.74614198  1
  Mg  Mg23  1  0.69615381  0.29516891  0.24606306  1
  Mg  Mg24  1  0.24882662  -0.16067402  -0.00512292  1
  Mg  Mg25  1  0.24216352  0.72818667  0.81787003  1
  Mg  Mg26  1  0.37417736  0.62695227  -0.11514009  1
  Mg  Mg27  1  0.74482851  0.00176835  0.23045003  1
  Mg  Mg28  1  0.55370435  0.47130773  0.17676198  1
  Mg  Mg29  1  0.20731988  0.74898185  0.29728923  1
  Mg  Mg30  1  0.42027793  0.74332166  0.25540070  1
  Mg  Mg31  1  0.09103779  -0.00503185  0.00115926  1
  Ti  Ti32  1  0.87025116  0.13194210  0.87988092  1
  Ti  Ti33  1  0.37001752  0.38485608  0.62687357  1
  Ti  Ti34  1  0.64692466  0.13372292  0.37174654  1
  Ti  Ti35  1  0.86873412  0.36768433  0.37035359  1
  Ti  Ti36  1  0.13021391  0.64117378  0.12449197  1
  Ti  Ti37  1  0.62846901  0.63495143  0.62772036  1
  Ti  Ti38  1  0.13796267  0.87671222  0.61051444  1
  Ti  Ti39  1  0.37581318  0.13257641  0.62655682  1
  Ti  Ti40  1  0.87490482  0.64229232  0.87880182  1
  Ti  Ti41  1  0.88379617  0.64636785  0.12527128  1
  Ti  Ti42  1  0.11978661  0.62282303  0.38346630  1
  Ti  Ti43  1  0.88154018  0.37396498  0.12455361  1
  Ti  Ti44  1  0.86495325  0.10393101  0.37297674  1
  Ti  Ti45  1  0.37060401  0.12933463  0.38300679  1
  Ti  Ti46  1  0.61881405  0.87349144  0.63020792  1
  Ti  Ti47  1  0.87096039  0.88227477  0.88387183  1
  Ti  Ti48  1  0.13252496  0.63584463  0.63381304  1
  Ti  Ti49  1  0.38989649  0.62067162  0.12869752  1
  Ti  Ti50  1  0.37147807  0.88615586  0.37348092  1
  Ti  Ti51  1  0.86390107  0.62829665  0.38097390  1
  Ti  Ti52  1  0.37843704  0.12457682  0.13952417  1
  Ti  Ti53  1  0.12216315  0.37570830  0.12707211  1
  Ti  Ti54  1  0.12377237  0.89242798  0.37210005  1
  Ti  Ti55  1  0.38413137  0.87880978  0.62545926  1
  Ti  Ti56  1  0.13194947  0.13106930  0.87554123  1
  Ti  Ti57  1  0.36641643  0.89384939  0.13780977  1
  Ti  Ti58  1  0.37984730  0.88182553  0.86625405  1
  Ti  Ti59  1  0.62023453  0.87325341  0.87072460  1
  Ti  Ti60  1  0.11814113  0.11525868  0.37918275  1
  Ti  Ti61  1  0.87867373  0.87752401  0.12072964  1
  Ti  Ti62  1  0.11922335  0.38454936  0.88039981  1
  Ti  Ti63  1  0.61595636  0.88156977  0.12801442  1
  Ti  Ti64  1  0.87194842  0.37437180  0.88537668  1
  Ti  Ti65  1  0.36194195  0.12673548  0.87000440  1
  Ti  Ti66  1  0.86723122  0.12660968  0.62455509  1
  Ti  Ti67  1  0.37214067  0.62965504  0.61938057  1
  Ti  Ti68  1  0.88968783  0.86750287  0.63164517  1
  Ti  Ti69  1  0.61712245  0.62783458  0.36319856  1
  Ti  Ti70  1  0.14088321  0.11157487  0.62409934  1
  Ti  Ti71  1  0.13756580  0.87834715  0.13978694  1
  Ti  Ti72  1  0.36374512  0.38433830  0.12889766  1
  Ti  Ti73  1  0.36450345  0.38604805  0.37268019  1
  Bi  Bi74  1  -0.00642400  0.02501173  0.76722942  1
  Bi  Bi75  1  0.51318895  0.52658083  -0.01595931  1
  Bi  Bi76  1  0.48684945  0.03346337  -0.00658291  1
  Bi  Bi77  1  0.75300888  0.78418508  0.50197368  1
  Bi  Bi78  1  0.74769771  0.53153583  0.01898562  1
  Bi  Bi79  1  0.53337584  0.00153231  0.27087724  1
  Bi  Bi80  1  0.24496286  0.52695232  0.25113105  1
  Bi  Bi81  1  0.47435998  0.77749693  0.00249746  1
  Bi  Bi82  1  -0.01971814  0.24319739  0.25774300  1
  Bi  Bi83  1  0.50027059  0.27709686  0.75299104  1
  Bi  Bi84  1  0.51011457  0.51972572  0.76459047  1
  Bi  Bi85  1  0.24428724  0.27145512  0.76990254  1
  Bi  Bi86  1  0.00671246  0.24539143  0.51554703  1
  Bi  Bi87  1  -0.00616536  0.26767302  0.76493043  1
  Bi  Bi88  1  -0.00587899  0.73426324  0.52339407  1
  Bi  Bi89  1  0.72624498  0.77036503  0.01177556  1
  Bi  Bi90  1  0.26407224  0.75581095  0.48996935  1
  Bi  Bi91  1  0.74086433  0.51849894  0.77453241  1
  Bi  Bi92  1  0.00288191  0.21589188  0.01811385  1
  Bi  Bi93  1  0.51228869  0.52121830  0.48514258  1
  Bi  Bi94  1  0.73897708  0.50273476  0.51734512  1
  Bi  Bi95  1  0.21297355  -0.03678015  0.78973641  1
  Bi  Bi96  1  -0.01979497  0.48230259  0.51465909  1
  Bi  Bi97  1  0.50844665  0.03710554  0.74374087  1
  Bi  Bi98  1  -0.02915982  0.51068279  0.75518934  1
  Bi  Bi99  1  0.71204063  0.27477754  0.04663269  1
  Bi  Bi100  1  0.52289440  0.02114832  0.48314740  1
  Bi  Bi101  1  -0.00163255  0.51508605  0.01243694  1
  Bi  Bi102  1  0.49632764  0.29461632  0.00955226  1
  Bi  Bi103  1  0.50541028  0.75822862  0.47887822  1
  Bi  Bi104  1  -0.01411945  0.49631737  0.27067229  1
  Bi  Bi105  1  0.23146758  0.24294068  0.25906445  1
  Bi  Bi106  1  0.24079540  0.52576861  0.01497887  1
  Bi  Bi107  1  0.73415165  0.27164075  0.52275013  1
  Bi  Bi108  1  -0.00928447  0.76282776  0.28430864  1
  Bi  Bi109  1  0.03460003  0.76741976  0.77398330  1
  Bi  Bi110  1  0.75496720  0.76820351  0.25245270  1
  Bi  Bi111  1  0.48782733  0.27897685  0.49752218  1
  Bi  Bi112  1  0.22206947  0.50029710  0.52041667  1
  Bi  Bi113  1  -0.01262135  0.01089211  0.21700082  1
  Bi  Bi114  1  0.26634200  0.51749885  0.77133232  1
  Bi  Bi115  1  0.00196684  0.01180122  0.51557854  1
  Bi  Bi116  1  0.72747795  0.02232448  0.76065053  1
  Bi  Bi117  1  0.72373038  0.26728188  0.76463465  1
  Bi  Bi118  1  0.50601106  0.29126995  0.25179799  1
  Bi  Bi119  1  0.22672589  0.27154249  0.49623121  1
  Bi  Bi120  1  0.74292626  0.49259310  0.23657039  1
  Bi  Bi121  1  0.46052645  0.73996198  0.74904097  1
  Bi  Bi122  1  0.25897259  0.23606307  0.03033638  1
  Bi  Bi123  1  0.73083872  0.02378712  0.01147879  1
  Bi  Bi124  1  0.03784515  0.78016585  -0.01685900  1
  O  O125  1  0.11670702  0.11560185  -0.00719607  1
  O  O126  1  0.11738729  0.15586371  0.25707887  1
  O  O127  1  0.12461176  0.09085574  0.49377179  1
  O  O128  1  0.12781535  0.12832573  0.73977181  1
  O  O129  1  0.13305298  0.40086677  -0.00602946  1
  O  O130  1  0.12442512  0.35325758  0.24237976  1
  O  O131  1  0.14046466  0.38736499  0.49910027  1
  O  O132  1  0.11224879  0.34271478  0.75061128  1
  O  O133  1  0.11432755  0.59820921  0.00352252  1
  O  O134  1  0.15599479  0.64267363  0.24274018  1
  O  O135  1  0.11496859  0.60106632  0.49618689  1
  O  O136  1  0.15297469  0.66161463  0.74354915  1
  O  O137  1  0.12963403  0.87861773  0.00849069  1
  O  O138  1  0.13685003  0.84615946  0.25040411  1
  O  O139  1  0.12173701  0.89909497  0.48681664  1
  O  O140  1  0.13511767  0.85925376  0.73159376  1
  O  O141  1  0.37262283  0.11362346  0.00149285  1
  O  O142  1  0.36605914  0.12988639  0.25546336  1
  O  O143  1  0.37864478  0.09458355  0.49882227  1
  O  O144  1  0.36753719  0.13240147  0.74785000  1
  O  O145  1  0.38102508  0.37798688  0.00487412  1
  O  O146  1  0.36921885  0.36581001  0.25221680  1
  O  O147  1  0.38605869  0.38163454  0.50223792  1
  O  O148  1  0.37457518  0.34513080  0.74341750  1
  O  O149  1  0.39510159  0.60396699  0.00646220  1
  O  O150  1  0.35881306  0.63419962  0.24537799  1
  O  O151  1  0.40084494  0.61871480  0.50726609  1
  O  O152  1  0.34622953  0.65688557  0.75440068  1
  O  O153  1  0.37195800  0.87500543  0.00965256  1
  O  O154  1  0.37871755  0.85959909  0.25027269  1
  O  O155  1  0.36993521  0.88476859  0.49900676  1
  O  O156  1  0.37543349  0.86249425  0.74921112  1
  O  O157  1  0.61270438  0.09890498  -0.00020702  1
  O  O158  1  0.64818165  0.08947848  0.25716033  1
  O  O159  1  0.60858406  0.13557514  0.48985958  1
  O  O160  1  0.62866030  0.12405299  0.74833071  1
  O  O161  1  0.61142841  0.37224783  0.00677829  1
  O  O162  1  0.60883669  0.39185884  0.25435676  1
  O  O163  1  0.61664213  0.34653311  0.49608207  1
  O  O164  1  0.61967446  0.36176359  0.74824303  1
  O  O165  1  0.61866098  0.60968689  0.00163089  1
  O  O166  1  0.65065446  0.61683770  0.25492021  1
  O  O167  1  0.58255212  0.63954342  0.50786364  1
  O  O168  1  0.63658831  0.61129793  0.74577544  1
  O  O169  1  0.64530565  0.89354351  -0.00289858  1
  O  O170  1  0.63174993  0.88987029  0.24674988  1
  O  O171  1  0.62771953  0.86462161  0.50808636  1
  O  O172  1  0.62798543  0.84925133  0.75266395  1
  O  O173  1  0.88529420  0.12569436  -0.00911633  1
  O  O174  1  0.89333753  0.13727093  0.25471837  1
  O  O175  1  0.86914667  0.08066405  0.49293365  1
  O  O176  1  0.88088614  0.12265437  0.73988254  1
  O  O177  1  0.86421249  0.37544136  0.00417677  1
  O  O178  1  0.90313770  0.37082120  0.24832280  1
  O  O179  1  0.86915755  0.40240085  0.48436454  1
  O  O180  1  0.90336287  0.37662667  0.75326031  1
  O  O181  1  0.88940974  0.60889354  -0.00210097  1
  O  O182  1  0.86553186  0.65899221  0.24227895  1
  O  O183  1  0.89719692  0.60486539  0.49094269  1
  O  O184  1  0.85992252  0.60625202  0.75696338  1
  O  O185  1  0.86317694  0.89228982  -0.00053141  1
  O  O186  1  0.87183690  0.84454660  0.24624255  1
  O  O187  1  0.84974492  0.88936085  0.50073384  1
  O  O188  1  0.87789296  0.84648557  0.74403188  1
  O  O189  1  -0.00027582  0.10742936  0.11739268  1
  O  O190  1  -0.00089986  0.09431583  0.38242464  1
  O  O191  1  -0.00611471  0.12738211  0.60079572  1
  O  O192  1  0.00244137  0.13686593  0.85591604  1
  O  O193  1  0.00448419  0.40506069  0.11470652  1
  O  O194  1  -0.00017570  0.41063544  0.37731333  1
  O  O195  1  -0.00067211  0.35944603  0.59796108  1
  O  O196  1  0.00447239  0.33910817  0.88475541  1
  O  O197  1  0.00264068  0.60411878  0.12734305  1
  O  O198  1  0.00534681  0.61225630  0.34874073  1
  O  O199  1  0.01297723  0.64744537  0.63540673  1
  O  O200  1  -0.00734753  0.64217869  0.85367843  1
  O  O201  1  -0.00207663  0.89620175  0.13169776  1
  O  O202  1  0.00500258  0.88991945  0.35394050  1
  O  O203  1  0.00443488  0.85026800  0.60911099  1
  O  O204  1  -0.00914460  0.85512808  0.87509217  1
  O  O205  1  0.24873595  0.14681151  0.13638602  1
  O  O206  1  0.24569599  0.13788720  0.36211614  1
  O  O207  1  0.25276993  0.09309009  0.61078322  1
  O  O208  1  0.24370694  0.09571412  0.86928208  1
  O  O209  1  0.24812876  0.34598934  0.11883481  1
  O  O210  1  0.25069357  0.34768030  0.37448834  1
  O  O211  1  0.25273443  0.37708083  0.61968913  1
  O  O212  1  0.24303514  0.39014423  0.84683166  1
  O  O213  1  0.24815512  0.63494297  0.09754659  1
  O  O214  1  0.24499717  0.65888488  0.38823781  1
  O  O215  1  0.25486428  0.62400687  0.59943584  1
  O  O216  1  0.24623298  0.60755601  0.88238765  1
  O  O217  1  0.25361070  0.85571308  0.12092540  1
  O  O218  1  0.24792166  0.84125906  0.37668838  1
  O  O219  1  0.25196004  0.89706928  0.60824734  1
  O  O220  1  0.25701680  0.86157418  0.87244108  1
  O  O221  1  0.49263699  0.09548662  0.12763429  1
  O  O222  1  0.48918036  0.09675519  0.36947308  1
  O  O223  1  0.49593443  0.13297130  0.63651754  1
  O  O224  1  0.48774961  0.12185967  0.87347426  1
  O  O225  1  0.48519412  0.37886314  0.13181213  1
  O  O226  1  0.49032755  0.36670919  0.37626565  1
  O  O227  1  0.49301646  0.35197215  0.62831773  1
  O  O228  1  0.49406313  0.34801748  0.87456533  1
  O  O229  1  0.50118979  0.57894753  0.13685586  1
  O  O230  1  0.50391353  0.59857038  0.36287002  1
  O  O231  1  0.49449640  0.62927713  0.66269106  1
  O  O232  1  0.50010210  0.62047218  0.85957343  1
  O  O233  1  0.49994951  0.89694503  0.11870384  1
  O  O234  1  0.49150907  0.90560646  0.37883583  1
  O  O235  1  0.50045099  0.85325698  0.62960612  1
  O  O236  1  0.50157134  0.87389964  0.88744612  1
  O  O237  1  0.74778058  0.13757410  0.09725766  1
  O  O238  1  0.75748025  0.15301540  0.38463650  1
  O  O239  1  0.75483239  0.08818742  0.61716869  1
  O  O240  1  0.75453673  0.10443265  0.87245441  1
  O  O241  1  0.76573102  0.34884793  0.15302996  1
  O  O242  1  0.75419767  0.36046947  0.34780843  1
  O  O243  1  0.74863896  0.38715887  0.60346582  1
  O  O244  1  0.75916229  0.38756019  0.85679155  1
  O  O245  1  0.76061848  0.64640155  0.09756863  1
  O  O246  1  0.75154046  0.64399925  0.39718775  1
  O  O247  1  0.74379549  0.60732648  0.60978187  1
  O  O248  1  0.75469566  0.60156725  0.88430193  1
  O  O249  1  0.75642427  0.84919868  0.13070077  1
  O  O250  1  0.74841942  0.84028823  0.37092410  1
  O  O251  1  0.74893659  0.88488912  0.63357641  1
  O  O252  1  0.75364168  0.88884549  0.85327207  1
  O  O253  1  0.13140959  -0.00607464  0.13246692  1
  O  O254  1  0.15105549  0.00075709  0.33536688  1
  O  O255  1  0.10191094  -0.00523640  0.63056511  1
  O  O256  1  0.10464501  0.00035728  0.86651764  1
  O  O257  1  0.11119867  0.25562117  0.09791494  1
  O  O258  1  0.11320730  0.24100731  0.40905877  1
  O  O259  1  0.12805322  0.23376285  0.59366460  1
  O  O260  1  0.15377871  0.24590176  0.88220273  1
  O  O261  1  0.15665218  0.49506475  0.13775605  1
  O  O262  1  0.14832745  0.50907435  0.35408989  1
  O  O263  1  0.13768252  0.51109209  0.63388753  1
  O  O264  1  0.10035040  0.49288926  0.84933875  1
  O  O265  1  0.11181418  0.75095012  0.11067207  1
  O  O266  1  0.10281381  0.74597742  0.37883636  1
  O  O267  1  0.14202896  0.75335796  0.58302207  1
  O  O268  1  0.12702479  0.74523622  0.88304276  1
  O  O269  1  0.34127875  0.00095622  0.15577963  1
  O  O270  1  0.33744357  -0.00573103  0.36465516  1
  O  O271  1  0.39348365  -0.00749898  0.63042759  1
  O  O272  1  0.37766043  -0.00537887  0.86737778  1
  O  O273  1  0.38174268  0.24223025  0.11497550  1
  O  O274  1  0.38304334  0.24026948  0.39531089  1
  O  O275  1  0.36095937  0.24086738  0.60195950  1
  O  O276  1  0.33961637  0.24109191  0.87997014  1
  O  O277  1  0.34346831  0.49680117  0.13174770  1
  O  O278  1  0.34512859  0.49626167  0.37503260  1
  O  O279  1  0.37324363  0.50026444  0.64866075  1
  O  O280  1  0.38254076  0.49990295  0.84222177  1
  O  O281  1  0.41134012  0.73639510  0.12684969  1
  O  O282  1  0.39984966  0.75142753  0.38107655  1
  O  O283  1  0.37625111  0.74894616  0.61815996  1
  O  O284  1  0.38157556  0.75392121  0.89359279  1
  O  O285  1  0.66327021  -0.00656340  0.12784507  1
  O  O286  1  0.62320324  0.00368373  0.38668580  1
  O  O287  1  0.60695621  -0.00932804  0.64337036  1
  O  O288  1  0.61725915  -0.00467096  0.84637846  1
  O  O289  1  0.62353925  0.24666165  0.14651333  1
  O  O290  1  0.61738844  0.24163179  0.33674369  1
  O  O291  1  0.65907588  0.24683329  0.63043426  1
  O  O292  1  0.64565228  0.25077011  0.87408781  1
  O  O293  1  0.66102916  0.50714739  0.12749881  1
  O  O294  1  0.63665494  0.50906533  0.40759685  1
  O  O295  1  0.61481659  0.50445277  0.59317797  1
  O  O296  1  0.61286901  0.49943581  0.86415969  1
  O  O297  1  0.61817247  0.76064836  0.10546269  1
  O  O298  1  0.59517339  0.74564332  0.37385244  1
  O  O299  1  0.64552178  0.74630924  0.62570016  1
  O  O300  1  0.63252954  0.75859931  0.89869656  1
  O  O301  1  0.85683096  -0.00546377  0.15391995  1
  O  O302  1  0.83000976  0.00390721  0.33487355  1
  O  O303  1  0.89650821  -0.01310470  0.63158250  1
  O  O304  1  0.89219769  -0.00249518  0.85779219  1
  O  O305  1  0.91339819  0.25554517  0.12357766  1
  O  O306  1  0.90349078  0.25743443  0.38079663  1
  O  O307  1  0.85708307  0.24139033  0.60601064  1
  O  O308  1  0.86395714  0.24793855  0.86359909  1
  O  O309  1  0.84878119  0.49974675  0.13664366  1
  O  O310  1  0.86455695  0.51272916  0.33887916  1
  O  O311  1  0.89877796  0.50007925  0.62784856  1
  O  O312  1  0.90388408  0.48846430  0.87741671  1
  O  O313  1  0.90181224  0.75481046  0.10095325  1
  O  O314  1  0.90323027  0.74615093  0.39027209  1
  O  O315  1  0.87156513  0.74841175  0.59595147  1
  O  O316  1  0.85275761  0.75106013  0.88616548  1
