# generated using pymatgen
data_Mg32Ti42(Bi17O64)3
_symmetry_space_group_name_H-M   'P 1'
_cell_length_a   15.93744172
_cell_length_b   15.96175493
_cell_length_c   15.90617665
_cell_angle_alpha   90.03772192
_cell_angle_beta   90.03886328
_cell_angle_gamma   90.19986866
_symmetry_Int_Tables_number   1
_chemical_formula_structural   Mg32Ti42(Bi17O64)3
_chemical_formula_sum   'Mg32 Ti42 Bi51 O192'
_cell_volume   4046.33851065
_cell_formula_units_Z   1
loop_
 _symmetry_equiv_pos_site_id
 _symmetry_equiv_pos_as_xyz
  1  'x, y, z'
loop_
 _atom_site_type_symbol
 _atom_site_label
 _atom_site_symmetry_multiplicity
 _atom_site_fract_x
 _atom_site_fract_y
 _atom_site_fract_z
 _atom_site_occupancy
  Mg  Mg0  1  0.62663440  0.61289437  0.62764693  1
  Mg  Mg1  1  0.62262060  0.36278312  0.62062937  1
  Mg  Mg2  1  0.14683983  0.88056664  0.61488797  1
  Mg  Mg3  1  0.12691864  0.61863003  0.62498251  1
  Mg  Mg4  1  0.62214719  0.37175602  0.37433379  1
  Mg  Mg5  1  0.61676989  0.12067754  0.13398862  1
  Mg  Mg6  1  0.36817627  0.37231494  0.37480676  1
  Mg  Mg7  1  0.12709123  0.12052779  0.63420988  1
  Mg  Mg8  1  0.12445279  0.12548019  0.37050644  1
  Mg  Mg9  1  0.86578716  0.62754197  0.87019785  1
  Mg  Mg10  1  0.11280449  0.37178452  0.87140058  1
  Mg  Mg11  1  0.11943349  0.62049955  0.86476955  1
  Mg  Mg12  1  0.12870512  0.62975471  0.37778504  1
  Mg  Mg13  1  0.63427300  0.86657020  0.87648433  1
  Mg  Mg14  1  0.38489501  0.87995554  0.87311186  1
  Mg  Mg15  1  0.62294813  0.38121086  0.11966470  1
  Mg  Mg16  1  0.87572735  0.12842779  0.38009381  1
  Mg  Mg17  1  0.12740639  0.12346713  0.87166832  1
  Mg  Mg18  1  0.62556973  0.12952310  0.86858417  1
  Mg  Mg19  1  0.49956408  0.25087803  0.75264076  1
  Mg  Mg20  1  0.04333184  -0.01891113  0.72037453  1
  Mg  Mg21  1  0.00900920  0.18107595  0.76999280  1
  Mg  Mg22  1  0.49848273  0.79735319  0.77149234  1
  Mg  Mg23  1  0.56052726  -0.00497908  0.77618944  1
  Mg  Mg24  1  0.53885125  0.48029176  -0.03330486  1
  Mg  Mg25  1  0.49592584  0.75469349  -0.01904061  1
  Mg  Mg26  1  0.21692039  -0.05074168  0.81457274  1
  Mg  Mg27  1  0.24049951  0.03583800  0.48529489  1
  Mg  Mg28  1  0.26790563  0.00582381  0.23871894  1
  Mg  Mg29  1  0.74790102  0.50186581  0.77971529  1
  Mg  Mg30  1  0.79271045  0.22892015  0.52133988  1
  Mg  Mg31  1  0.48690688  0.26182441  0.47446738  1
  Ti  Ti32  1  0.37611984  0.61192211  0.37553777  1
  Ti  Ti33  1  0.37694282  0.38324365  0.87520882  1
  Ti  Ti34  1  0.11739750  0.36747359  0.11022984  1
  Ti  Ti35  1  0.62217241  0.13126532  0.37809217  1
  Ti  Ti36  1  0.62017016  0.62473105  0.87833353  1
  Ti  Ti37  1  0.37164336  0.36849337  0.11465160  1
  Ti  Ti38  1  0.38200134  0.11824274  0.11108153  1
  Ti  Ti39  1  0.87012955  0.61382415  0.62370243  1
  Ti  Ti40  1  0.13318849  0.37229316  0.37450138  1
  Ti  Ti41  1  0.59993002  0.12893183  0.63282502  1
  Ti  Ti42  1  0.88245925  0.37823668  0.87211620  1
  Ti  Ti43  1  0.88482488  0.87533343  0.38022900  1
  Ti  Ti44  1  0.38446873  0.89086536  0.62649543  1
  Ti  Ti45  1  0.14193678  0.88017627  0.36628655  1
  Ti  Ti46  1  0.12883262  0.11860401  0.12397910  1
  Ti  Ti47  1  0.37555208  0.36447689  0.62745642  1
  Ti  Ti48  1  0.87240713  0.36293529  0.36641668  1
  Ti  Ti49  1  0.61912104  0.86887746  0.12778078  1
  Ti  Ti50  1  0.61672865  0.61956108  0.12769770  1
  Ti  Ti51  1  0.87202187  0.86327814  0.62242077  1
  Ti  Ti52  1  0.87818088  0.62715536  0.37841921  1
  Ti  Ti53  1  0.86588548  0.62516511  0.12997562  1
  Ti  Ti54  1  0.36879689  0.12675416  0.38540347  1
  Ti  Ti55  1  0.86741272  0.86676835  0.87143364  1
  Ti  Ti56  1  0.86146445  0.37631194  0.63963104  1
  Ti  Ti57  1  0.62311743  0.88185654  0.62432605  1
  Ti  Ti58  1  0.11302100  0.37824423  0.62499767  1
  Ti  Ti59  1  0.36796764  0.12778583  0.63280661  1
  Ti  Ti60  1  0.88963217  0.11739936  0.62906126  1
  Ti  Ti61  1  0.38425739  0.62055640  0.11592046  1
  Ti  Ti62  1  0.61966928  0.62196133  0.38048758  1
  Ti  Ti63  1  0.39240813  0.63161915  0.88226168  1
  Ti  Ti64  1  0.36763546  0.87909059  0.38877274  1
  Ti  Ti65  1  0.13916645  0.88660685  0.13243299  1
  Ti  Ti66  1  0.88520880  0.86915039  0.13219592  1
  Ti  Ti67  1  0.38719323  0.12749105  0.85473519  1
  Ti  Ti68  1  0.86756947  0.10921800  0.87397259  1
  Ti  Ti69  1  0.63035897  0.36026848  0.86640739  1
  Ti  Ti70  1  0.38607227  0.61345138  0.64224142  1
  Ti  Ti71  1  0.37651577  0.87433471  0.11046331  1
  Ti  Ti72  1  0.87933093  0.37732221  0.12426314  1
  Ti  Ti73  1  0.61833314  0.86816559  0.38394042  1
  Bi  Bi74  1  0.52920888  -0.01842861  -0.02492099  1
  Bi  Bi75  1  0.74537846  0.02558261  0.49403402  1
  Bi  Bi76  1  -0.01709757  0.22468081  -0.01531468  1
  Bi  Bi77  1  0.24061600  0.49273127  0.50725185  1
  Bi  Bi78  1  0.24822768  0.71667873  0.22698623  1
  Bi  Bi79  1  0.72344946  0.73358277  0.75599191  1
  Bi  Bi80  1  0.25037435  0.21869757  0.23983743  1
  Bi  Bi81  1  0.52238157  0.24815607  0.02707018  1
  Bi  Bi82  1  0.50756573  0.48401181  0.23930561  1
  Bi  Bi83  1  0.02623187  -0.01701800  0.49475713  1
  Bi  Bi84  1  0.74512040  0.21762470  0.73187945  1
  Bi  Bi85  1  0.00149402  0.24484147  0.52322316  1
  Bi  Bi86  1  0.74433382  0.72595702  0.51564228  1
  Bi  Bi87  1  0.51911024  0.47784320  0.73555941  1
  Bi  Bi88  1  -0.00956458  0.74710434  -0.01466708  1
  Bi  Bi89  1  0.48801489  -0.01603913  0.25332528  1
  Bi  Bi90  1  0.74981066  0.47485785  0.24854198  1
  Bi  Bi91  1  0.49487337  0.26194542  0.26107573  1
  Bi  Bi92  1  0.22535599  0.53879928  -0.00142240  1
  Bi  Bi93  1  0.77082352  0.21090642  0.22330960  1
  Bi  Bi94  1  0.76433818  0.47078571  0.49909012  1
  Bi  Bi95  1  0.75674860  0.00336007  0.03654920  1
  Bi  Bi96  1  0.76109584  -0.01601200  0.73514686  1
  Bi  Bi97  1  0.22825573  0.26488734  0.76228639  1
  Bi  Bi98  1  0.23801892  0.25139258  -0.00543691  1
  Bi  Bi99  1  0.03364414  0.51984476  0.22311455  1
  Bi  Bi100  1  0.50829152  0.47332818  0.50109690  1
  Bi  Bi101  1  0.25655182  0.48166787  0.22389317  1
  Bi  Bi102  1  0.49219527  0.74147789  0.53589451  1
  Bi  Bi103  1  -0.00334828  0.51931590  0.74937849  1
  Bi  Bi104  1  0.48853383  0.02058752  0.49566671  1
  Bi  Bi105  1  0.76156277  0.74954019  0.27285374  1
  Bi  Bi106  1  0.03911702  0.79350674  0.76170934  1
  Bi  Bi107  1  -0.03541709  0.03031079  0.23017831  1
  Bi  Bi108  1  0.26511969  0.02688391  -0.01725229  1
  Bi  Bi109  1  0.02767055  -0.03186621  -0.03691075  1
  Bi  Bi110  1  0.02396658  0.74725704  0.53373613  1
  Bi  Bi111  1  0.75311921  0.22526963  0.00392844  1
  Bi  Bi112  1  0.26395790  0.71782233  0.50818816  1
  Bi  Bi113  1  0.73050357  0.73802916  0.01109841  1
  Bi  Bi114  1  0.22889107  0.24368530  0.51955149  1
  Bi  Bi115  1  0.02602253  0.73846844  0.23527021  1
  Bi  Bi116  1  0.27577377  0.76938736  0.73275669  1
  Bi  Bi117  1  0.00938726  0.24532728  0.25165940  1
  Bi  Bi118  1  0.48154792  0.73784357  0.26040107  1
  Bi  Bi119  1  0.75974327  0.48045019  -0.00445785  1
  Bi  Bi120  1  0.24449497  0.49879129  0.76994153  1
  Bi  Bi121  1  -0.00347309  0.53040043  -0.00444410  1
  Bi  Bi122  1  0.74326482  -0.01651985  0.27410492  1
  Bi  Bi123  1  0.21349427  0.76570717  -0.03397485  1
  Bi  Bi124  1  0.00056322  0.49877573  0.46891896  1
  O  O125  1  0.11883720  0.15828810  0.00939417  1
  O  O126  1  0.16999268  0.10498672  0.24728020  1
  O  O127  1  0.10834200  0.16215853  0.49891776  1
  O  O128  1  0.09916883  0.08824945  0.75378108  1
  O  O129  1  0.11777046  0.34143197  -0.00158744  1
  O  O130  1  0.13792380  0.40855717  0.25652279  1
  O  O131  1  0.11412761  0.34564597  0.50274603  1
  O  O132  1  0.15355467  0.39028514  0.74273486  1
  O  O133  1  0.10925630  0.61684490  -0.00701865  1
  O  O134  1  0.12603457  0.61669223  0.25216540  1
  O  O135  1  0.12428220  0.66026178  0.50006103  1
  O  O136  1  0.12298140  0.58595545  0.74512116  1
  O  O137  1  0.10122995  0.86219339  0.01401297  1
  O  O138  1  0.16408280  0.91728339  0.25379679  1
  O  O139  1  0.09838016  0.86165675  0.49443300  1
  O  O140  1  0.13375139  0.89266812  0.74210624  1
  O  O141  1  0.39196371  0.11645915  -0.00451631  1
  O  O142  1  0.34958326  0.10883799  0.26770769  1
  O  O143  1  0.42055643  0.14650377  0.50802315  1
  O  O144  1  0.34285079  0.12017641  0.74555061  1
  O  O145  1  0.38807096  0.36454314  -0.00076094  1
  O  O146  1  0.34107657  0.38032174  0.24543768  1
  O  O147  1  0.40882861  0.36050110  0.51067516  1
  O  O148  1  0.34583999  0.38394343  0.75510956  1
  O  O149  1  0.40457964  0.64847260  0.00379897  1
  O  O150  1  0.36796392  0.62978880  0.25210099  1
  O  O151  1  0.39238935  0.64060168  0.49407434  1
  O  O152  1  0.36213388  0.61962775  0.75702385  1
  O  O153  1  0.40205800  0.85518395  0.00198438  1
  O  O154  1  0.36014824  0.92257957  0.27714273  1
  O  O155  1  0.40524958  0.86592116  0.51053089  1
  O  O156  1  0.38124458  0.85444447  0.74526192  1
  O  O157  1  0.61888199  0.16227444  -0.00964573  1
  O  O158  1  0.65130771  0.11401356  0.26486956  1
  O  O159  1  0.60414912  0.11595068  0.51225303  1
  O  O160  1  0.64956617  0.10144589  0.74397866  1
  O  O161  1  0.59689669  0.36255318  -0.00940137  1
  O  O162  1  0.62541913  0.41238997  0.24472104  1
  O  O163  1  0.58065451  0.35677006  0.49647839  1
  O  O164  1  0.64523168  0.41629038  0.76137363  1
  O  O165  1  0.60144855  0.67301435  -0.01024899  1
  O  O166  1  0.63462539  0.60004317  0.24035480  1
  O  O167  1  0.61256127  0.65451693  0.49305011  1
  O  O168  1  0.66294843  0.60342207  0.75615294  1
  O  O169  1  0.58596058  0.85252962  0.00294092  1
  O  O170  1  0.62155623  0.90499168  0.24719858  1
  O  O171  1  0.61484303  0.86304850  0.50215257  1
  O  O172  1  0.65216907  0.89744329  0.74896797  1
  O  O173  1  0.87013959  0.14405503  -0.00708337  1
  O  O174  1  0.84617160  0.10185030  0.25582833  1
  O  O175  1  0.89452077  0.14534470  0.50606381  1
  O  O176  1  0.87907029  0.12996356  0.75418141  1
  O  O177  1  0.87798700  0.37951942  -0.00305691  1
  O  O178  1  0.87608850  0.40053687  0.24544838  1
  O  O179  1  0.85207910  0.34756601  0.48496208  1
  O  O180  1  0.84814604  0.40002502  0.75112148  1
  O  O181  1  0.89760979  0.63515758  -0.00025362  1
  O  O182  1  0.84887538  0.62193567  0.24779132  1
  O  O183  1  0.87618678  0.65191960  0.49155284  1
  O  O184  1  0.85097971  0.59673028  0.73741782  1
  O  O185  1  0.90826991  0.86349950  -0.00361841  1
  O  O186  1  0.85221487  0.88234572  0.24862165  1
  O  O187  1  0.88467763  0.86349462  0.49942022  1
  O  O188  1  0.84554352  0.87384561  0.75014907  1
  O  O189  1  0.01218209  0.13602504  0.15489180  1
  O  O190  1  -0.00022733  0.12286071  0.33347037  1
  O  O191  1  -0.00006386  0.16450002  0.63965484  1
  O  O192  1  -0.00710629  0.12257206  0.88910839  1
  O  O193  1  -0.00019802  0.36039091  0.13113053  1
  O  O194  1  -0.00526691  0.38823757  0.38049195  1
  O  O195  1  -0.00193485  0.37327619  0.63465191  1
  O  O196  1  -0.00765573  0.41589015  0.85975503  1
  O  O197  1  -0.01190751  0.63036188  0.14266454  1
  O  O198  1  -0.00464146  0.60957963  0.37040050  1
  O  O199  1  -0.01197816  0.62441126  0.62784277  1
  O  O200  1  -0.00803518  0.59448687  0.86175612  1
  O  O201  1  -0.00146471  0.86419713  0.15766994  1
  O  O202  1  -0.00619111  0.90254910  0.36098748  1
  O  O203  1  -0.01232798  0.86843658  0.64507095  1
  O  O204  1  -0.00864889  0.91097488  0.84007436  1
  O  O205  1  0.25394783  0.13589025  0.11487355  1
  O  O206  1  0.25558588  0.14242828  0.40934200  1
  O  O207  1  0.25681246  0.11206713  0.58740573  1
  O  O208  1  0.25492128  0.14596066  0.90287973  1
  O  O209  1  0.24517692  0.39397138  0.11118020  1
  O  O210  1  0.24428666  0.36746295  0.40126994  1
  O  O211  1  0.25942539  0.39133269  0.60044031  1
  O  O212  1  0.25677947  0.33643327  0.88640473  1
  O  O213  1  0.26349138  0.63533729  0.11641757  1
  O  O214  1  0.25790561  0.63766583  0.39130533  1
  O  O215  1  0.25867948  0.60969600  0.60091519  1
  O  O216  1  0.26139813  0.64351994  0.90326820  1
  O  O217  1  0.24979760  0.88570114  0.10283052  1
  O  O218  1  0.25029882  0.86820933  0.40507405  1
  O  O219  1  0.26888532  0.87253298  0.62683801  1
  O  O220  1  0.26198461  0.83958755  0.86401296  1
  O  O221  1  0.49158595  0.12903037  0.14160927  1
  O  O222  1  0.50538739  0.09183894  0.36815244  1
  O  O223  1  0.49428725  0.15326357  0.66586094  1
  O  O224  1  0.49500954  0.08685172  0.84528255  1
  O  O225  1  0.48679099  0.37526459  0.15051906  1
  O  O226  1  0.49308846  0.38193849  0.33470195  1
  O  O227  1  0.49526604  0.35382892  0.67574047  1
  O  O228  1  0.49765136  0.40235641  0.86337487  1
  O  O229  1  0.49938724  0.64534500  0.14660880  1
  O  O230  1  0.49975539  0.62762046  0.35227054  1
  O  O231  1  0.50104513  0.64123181  0.63891049  1
  O  O232  1  0.50284471  0.58345163  0.87881539  1
  O  O233  1  0.49127921  0.88123928  0.15113831  1
  O  O234  1  0.50050272  0.90548794  0.36903233  1
  O  O235  1  0.51113371  0.84224307  0.64854998  1
  O  O236  1  0.50897491  0.90130913  0.84937177  1
  O  O237  1  0.74124341  0.12871113  0.10999229  1
  O  O238  1  0.74288387  0.15022509  0.42303244  1
  O  O239  1  0.76561103  0.12991925  0.61705367  1
  O  O240  1  0.75532367  0.15372990  0.87896228  1
  O  O241  1  0.75122299  0.39397407  0.12761856  1
  O  O242  1  0.74968454  0.38515339  0.35944943  1
  O  O243  1  0.74741589  0.38448910  0.60982258  1
  O  O244  1  0.74192255  0.35648424  0.89659769  1
  O  O245  1  0.74022551  0.61847987  0.09250030  1
  O  O246  1  0.74186476  0.65014413  0.37877119  1
  O  O247  1  0.74885267  0.60824220  0.58676883  1
  O  O248  1  0.74162294  0.65891339  0.89519253  1
  O  O249  1  0.73985933  0.88537074  0.10868291  1
  O  O250  1  0.74093263  0.85734388  0.36835577  1
  O  O251  1  0.75147088  0.90935175  0.61286690  1
  O  O252  1  0.75704344  0.84497453  0.89743443  1
  O  O253  1  0.11489977  0.00602185  0.10569919  1
  O  O254  1  0.13699474  0.00364675  0.41476595  1
  O  O255  1  0.10788259  -0.00007144  0.60151234  1
  O  O256  1  0.15030695  0.00245495  0.90570435  1
  O  O257  1  0.13483817  0.25482936  0.15851413  1
  O  O258  1  0.11959765  0.25696318  0.34056641  1
  O  O259  1  0.14975337  0.25620515  0.64015259  1
  O  O260  1  0.10727874  0.24710566  0.83186405  1
  O  O261  1  0.10525262  0.48817800  0.10746707  1
  O  O262  1  0.12690310  0.49689977  0.40662173  1
  O  O263  1  0.12350232  0.49248734  0.58911439  1
  O  O264  1  0.16035155  0.49292904  0.88388367  1
  O  O265  1  0.13348466  0.76735724  0.15443214  1
  O  O266  1  0.11903909  0.76801237  0.34291839  1
  O  O267  1  0.11883651  0.75141893  0.63939825  1
  O  O268  1  0.10718216  0.74474952  0.88095750  1
  O  O269  1  0.36470395  0.00223060  0.12894798  1
  O  O270  1  0.35502826  0.01054454  0.42865666  1
  O  O271  1  0.39747600  0.00493212  0.62077796  1
  O  O272  1  0.32980731  -0.00343674  0.86890464  1
  O  O273  1  0.36701257  0.25067927  0.13028414  1
  O  O274  1  0.40290310  0.24438474  0.37144221  1
  O  O275  1  0.35075105  0.25011934  0.63246571  1
  O  O276  1  0.41120006  0.24062606  0.84787094  1
  O  O277  1  0.37849730  0.50598437  0.12261962  1
  O  O278  1  0.37011745  0.50126290  0.38278242  1
  O  O279  1  0.40218149  0.49653538  0.62380801  1
  O  O280  1  0.34636832  0.49505222  0.88685858  1
  O  O281  1  0.36490621  0.76661621  0.15532125  1
  O  O282  1  0.38621473  0.76706121  0.36481748  1
  O  O283  1  0.36667620  0.73639487  0.62297902  1
  O  O284  1  0.42878771  0.73980948  0.86765414  1
  O  O285  1  0.62078946  -0.00187547  0.09040368  1
  O  O286  1  0.65477619  -0.00125300  0.39096507  1
  O  O287  1  0.59127044  -0.00484297  0.63118235  1
  O  O288  1  0.63763248  0.00036285  0.89645939  1
  O  O289  1  0.61007829  0.25414634  0.13492555  1
  O  O290  1  0.58868231  0.24343008  0.36876518  1
  O  O291  1  0.63870609  0.24011779  0.64263828  1
  O  O292  1  0.60501591  0.25555386  0.82725195  1
  O  O293  1  0.59163043  0.51266263  0.08594914  1
  O  O294  1  0.62025051  0.50875899  0.40084098  1
  O  O295  1  0.59296273  0.49009507  0.60986666  1
  O  O296  1  0.64659537  0.51151670  0.90506988  1
  O  O297  1  0.63436334  0.75456184  0.14129649  1
  O  O298  1  0.60538236  0.75811585  0.34908005  1
  O  O299  1  0.65684406  0.75410079  0.63478692  1
  O  O300  1  0.60381565  0.74509621  0.82711875  1
  O  O301  1  0.87645097  -0.01357646  0.11300467  1
  O  O302  1  0.84223784  -0.00461455  0.39008652  1
  O  O303  1  0.89759875  0.00509092  0.62937373  1
  O  O304  1  0.84791007  -0.00194987  0.87920936  1
  O  O305  1  0.86158423  0.26073409  0.13041744  1
  O  O306  1  0.87763795  0.25258676  0.33880171  1
  O  O307  1  0.85718830  0.26079737  0.63346125  1
  O  O308  1  0.90665028  0.26519071  0.86633797  1
  O  O309  1  0.87848842  0.50651822  0.10658782  1
  O  O310  1  0.86651686  0.50763957  0.39733054  1
  O  O311  1  0.87596769  0.49494163  0.58911509  1
  O  O312  1  0.83240228  0.50180762  0.88044651  1
  O  O313  1  0.85538238  0.74969270  0.12784999  1
  O  O314  1  0.88076444  0.75414187  0.35073551  1
  O  O315  1  0.85027829  0.74887345  0.62735942  1
  O  O316  1  0.90996744  0.75472346  0.86724311  1
