# generated using pymatgen
data_Mg32Ti42(Bi17O64)3
_symmetry_space_group_name_H-M   'P 1'
_cell_length_a   15.94307699
_cell_length_b   15.92543369
_cell_length_c   15.98634735
_cell_angle_alpha   89.89537158
_cell_angle_beta   89.86302551
_cell_angle_gamma   89.99630517
_symmetry_Int_Tables_number   1
_chemical_formula_structural   Mg32Ti42(Bi17O64)3
_chemical_formula_sum   'Mg32 Ti42 Bi51 O192'
_cell_volume   4058.92185921
_cell_formula_units_Z   1
loop_
 _symmetry_equiv_pos_site_id
 _symmetry_equiv_pos_as_xyz
  1  'x, y, z'
loop_
 _atom_site_type_symbol
 _atom_site_label
 _atom_site_symmetry_multiplicity
 _atom_site_fract_x
 _atom_site_fract_y
 _atom_site_fract_z
 _atom_site_occupancy
  Mg  Mg0  1  0.37666109  0.87627493  0.86753837  1
  Mg  Mg1  1  0.88156764  0.36978681  0.37451988  1
  Mg  Mg2  1  0.87724107  0.37977667  0.87478358  1
  Mg  Mg3  1  0.13091828  0.62320048  0.37733276  1
  Mg  Mg4  1  0.63156866  0.12600462  0.11681321  1
  Mg  Mg5  1  0.12556085  0.86980443  0.38400175  1
  Mg  Mg6  1  0.62338204  0.37311196  0.63092654  1
  Mg  Mg7  1  0.87532815  0.88164229  0.12967484  1
  Mg  Mg8  1  0.61406316  0.62827087  0.63627932  1
  Mg  Mg9  1  0.62328390  0.37822913  0.36551898  1
  Mg  Mg10  1  0.88306096  0.62221554  0.12527248  1
  Mg  Mg11  1  0.37572120  0.13200840  0.12965103  1
  Mg  Mg12  1  0.86926724  0.87776614  0.38188847  1
  Mg  Mg13  1  0.11837646  0.13200393  0.12528455  1
  Mg  Mg14  1  0.12077171  0.87165484  0.12239124  1
  Mg  Mg15  1  0.37600204  0.87800819  0.13187299  1
  Mg  Mg16  1  0.12928308  0.37818072  0.87185534  1
  Mg  Mg17  1  0.86760690  0.62693087  0.36718130  1
  Mg  Mg18  1  0.12774821  0.12847634  0.86815006  1
  Mg  Mg19  1  0.57976368  0.22986348  0.25618989  1
  Mg  Mg20  1  0.82533660  0.72946549  0.72688885  1
  Mg  Mg21  1  0.29447700  0.48984875  0.77778306  1
  Mg  Mg22  1  0.01947370  0.25242052  0.28746915  1
  Mg  Mg23  1  0.46061016  0.75226207  0.69782401  1
  Mg  Mg24  1  0.50931618  0.02261597  0.04744079  1
  Mg  Mg25  1  0.79069611  0.74980662  0.04718523  1
  Mg  Mg26  1  0.25973686  0.23791697  0.58500810  1
  Mg  Mg27  1  0.51127853  0.52770145  0.20170983  1
  Mg  Mg28  1  0.00219787  0.53285272  -0.02824942  1
  Mg  Mg29  1  0.70598124  0.05094131  0.49567332  1
  Mg  Mg30  1  0.27323440  0.26177878  0.79498437  1
  Mg  Mg31  1  0.74538698  0.56411300  0.74637898  1
  Ti  Ti32  1  0.10916172  0.12570767  0.62596514  1
  Ti  Ti33  1  0.63067637  0.12615613  0.63727592  1
  Ti  Ti34  1  0.39520579  0.62871312  0.87492105  1
  Ti  Ti35  1  0.86730497  0.85870157  0.87408675  1
  Ti  Ti36  1  0.12740467  0.88120740  0.88317147  1
  Ti  Ti37  1  0.37094981  0.62207896  0.11045559  1
  Ti  Ti38  1  0.62493964  0.85809864  0.87342710  1
  Ti  Ti39  1  0.63561043  0.63158291  0.11274533  1
  Ti  Ti40  1  0.13249922  0.38416070  0.62673982  1
  Ti  Ti41  1  0.12055834  0.62979121  0.11395885  1
  Ti  Ti42  1  0.86618520  0.88774771  0.62049969  1
  Ti  Ti43  1  0.63164427  0.61868915  0.36792229  1
  Ti  Ti44  1  0.63075548  0.37631441  0.87693901  1
  Ti  Ti45  1  0.12962222  0.12610570  0.38802451  1
  Ti  Ti46  1  0.89014066  0.37137909  0.12505555  1
  Ti  Ti47  1  0.37883469  0.11168014  0.88866311  1
  Ti  Ti48  1  0.63254620  0.63067697  0.87671562  1
  Ti  Ti49  1  0.36962313  0.61384770  0.62690306  1
  Ti  Ti50  1  0.37993361  0.37303834  0.88090211  1
  Ti  Ti51  1  0.87599018  0.12092004  0.12167330  1
  Ti  Ti52  1  0.63025706  0.88117214  0.12018764  1
  Ti  Ti53  1  0.12381123  0.87220694  0.62127341  1
  Ti  Ti54  1  0.89072863  0.12569894  0.39157786  1
  Ti  Ti55  1  0.38065724  0.37751731  0.63321775  1
  Ti  Ti56  1  0.37821157  0.61258951  0.36286118  1
  Ti  Ti57  1  0.35981920  0.87206309  0.61498868  1
  Ti  Ti58  1  0.12042869  0.37083460  0.12645144  1
  Ti  Ti59  1  0.62436068  0.87021894  0.38950706  1
  Ti  Ti60  1  0.62372141  0.87402039  0.62580243  1
  Ti  Ti61  1  0.86883533  0.62202298  0.88704770  1
  Ti  Ti62  1  0.61758558  0.37341597  0.13134878  1
  Ti  Ti63  1  0.36949747  0.37187699  0.12411789  1
  Ti  Ti64  1  0.36990153  0.13764991  0.37106636  1
  Ti  Ti65  1  0.86709428  0.36238971  0.61582790  1
  Ti  Ti66  1  0.87291097  0.12424329  0.62993477  1
  Ti  Ti67  1  0.12227032  0.62090941  0.86412544  1
  Ti  Ti68  1  0.88358747  0.12231420  0.86649850  1
  Ti  Ti69  1  0.13678976  0.62154965  0.61998743  1
  Ti  Ti70  1  0.13048009  0.38240679  0.36930255  1
  Ti  Ti71  1  0.37158212  0.37348850  0.35747738  1
  Ti  Ti72  1  0.38182753  0.87424690  0.36983995  1
  Ti  Ti73  1  0.61421065  0.11427501  0.87685642  1
  Bi  Bi74  1  0.27041611  0.73970488  0.76272190  1
  Bi  Bi75  1  -0.00289069  0.51969352  0.26892542  1
  Bi  Bi76  1  -0.03327438  0.52117993  0.71746820  1
  Bi  Bi77  1  0.71472558  0.25001871  0.47230267  1
  Bi  Bi78  1  0.02788481  0.75916597  0.75281090  1
  Bi  Bi79  1  0.03644548  -0.00801536  0.26476113  1
  Bi  Bi80  1  0.25727487  -0.00952524  0.02391546  1
  Bi  Bi81  1  0.52974545  0.02552192  0.25557291  1
  Bi  Bi82  1  0.23457526  0.51407052  -0.02105983  1
  Bi  Bi83  1  0.52142721  0.48282781  0.49152791  1
  Bi  Bi84  1  0.02036741  0.27122911  0.50902905  1
  Bi  Bi85  1  0.23218821  0.23802386  -0.01137201  1
  Bi  Bi86  1  0.00920079  -0.00559341  0.02812293  1
  Bi  Bi87  1  0.50610573  0.24526510  0.00913555  1
  Bi  Bi88  1  0.73664635  0.25066068  0.75595709  1
  Bi  Bi89  1  0.25963078  0.00775324  0.25200188  1
  Bi  Bi90  1  0.48783662  -0.01938868  0.73562630  1
  Bi  Bi91  1  0.01944083  -0.01909913  0.75226201  1
  Bi  Bi92  1  0.23463240  0.51292740  0.22537885  1
  Bi  Bi93  1  0.74467385  -0.01982524  0.76409362  1
  Bi  Bi94  1  0.76520546  0.23415305  -0.01585197  1
  Bi  Bi95  1  0.74596920  0.78253364  0.25170850  1
  Bi  Bi96  1  0.26887085  0.73024606  0.48370489  1
  Bi  Bi97  1  0.74757643  0.51408456  0.54205108  1
  Bi  Bi98  1  0.50416674  0.48945513  0.00722886  1
  Bi  Bi99  1  0.74065104  0.74233244  0.53668657  1
  Bi  Bi100  1  0.22963078  0.23942520  0.23092794  1
  Bi  Bi101  1  0.00566270  0.24803557  -0.01765321  1
  Bi  Bi102  1  0.50366982  0.26235949  0.47482032  1
  Bi  Bi103  1  0.26188296  0.47248894  0.48855677  1
  Bi  Bi104  1  -0.03594189  0.73443262  0.51087792  1
  Bi  Bi105  1  -0.00896487  0.74365945  0.01589128  1
  Bi  Bi106  1  0.00033280  0.28546923  0.75045606  1
  Bi  Bi107  1  0.51174665  0.02646004  0.48574668  1
  Bi  Bi108  1  0.49733290  0.79085064  0.00508434  1
  Bi  Bi109  1  0.74814011  0.02747807  0.29693123  1
  Bi  Bi110  1  0.50522086  0.73608831  0.24571287  1
  Bi  Bi111  1  0.76965463  0.47578113  0.00872481  1
  Bi  Bi112  1  0.75534711  0.00568209  -0.00151494  1
  Bi  Bi113  1  0.27997060  0.02263359  0.49889437  1
  Bi  Bi114  1  0.50803088  0.72609358  0.48854469  1
  Bi  Bi115  1  -0.02073464  0.76211833  0.26350542  1
  Bi  Bi116  1  -0.02393172  0.51935092  0.50236183  1
  Bi  Bi117  1  0.00443170  -0.02252960  0.49089965  1
  Bi  Bi118  1  0.27359751  0.76938937  0.00472909  1
  Bi  Bi119  1  0.22467609  0.76857279  0.26597912  1
  Bi  Bi120  1  0.26693424  0.04664758  0.72727097  1
  Bi  Bi121  1  0.52432056  0.48477467  0.76467109  1
  Bi  Bi122  1  0.46685827  0.22180892  0.72925407  1
  Bi  Bi123  1  0.78647712  0.25113526  0.25501710  1
  Bi  Bi124  1  0.76786924  0.49298544  0.25203456  1
  O  O125  1  0.11319219  0.16043615  -0.00332406  1
  O  O126  1  0.15633894  0.11191167  0.25675493  1
  O  O127  1  0.09863323  0.12155361  0.49996968  1
  O  O128  1  0.14057737  0.11609256  0.74071258  1
  O  O129  1  0.12070833  0.34119566  0.01398983  1
  O  O130  1  0.15464083  0.38978088  0.25063256  1
  O  O131  1  0.10791761  0.37610920  0.49430225  1
  O  O132  1  0.11387922  0.37551030  0.74155102  1
  O  O133  1  0.15212790  0.63562745  -0.00329465  1
  O  O134  1  0.11221330  0.59776504  0.23618540  1
  O  O135  1  0.15187959  0.63993437  0.50710783  1
  O  O136  1  0.09514098  0.61521607  0.75141440  1
  O  O137  1  0.08648179  0.86576861  -0.00791932  1
  O  O138  1  0.14286573  0.89117016  0.24717290  1
  O  O139  1  0.09423163  0.86701920  0.50839148  1
  O  O140  1  0.12118094  0.88069248  0.75351467  1
  O  O141  1  0.41101485  0.09378809  -0.00221958  1
  O  O142  1  0.34222900  0.12934469  0.25775032  1
  O  O143  1  0.39215483  0.10347549  0.49232223  1
  O  O144  1  0.34204386  0.15858788  0.76073576  1
  O  O145  1  0.39119848  0.39645044  -0.00170874  1
  O  O146  1  0.36499702  0.36655037  0.24698805  1
  O  O147  1  0.38675987  0.40945943  0.51724984  1
  O  O148  1  0.34334552  0.36260173  0.75547308  1
  O  O149  1  0.35645446  0.61256331  -0.00698831  1
  O  O150  1  0.40624922  0.61602168  0.25087856  1
  O  O151  1  0.34705367  0.60692502  0.51066634  1
  O  O152  1  0.38692283  0.65923124  0.75243743  1
  O  O153  1  0.37660399  0.86819697  -0.00453640  1
  O  O154  1  0.36531207  0.85537066  0.25632958  1
  O  O155  1  0.37959318  0.89666017  0.50305064  1
  O  O156  1  0.37039051  0.84180996  0.74267470  1
  O  O157  1  0.58785157  0.12160790  -0.00580887  1
  O  O158  1  0.63803031  0.11651171  0.24591777  1
  O  O159  1  0.59762998  0.13231957  0.51378594  1
  O  O160  1  0.66516660  0.12431514  0.75516534  1
  O  O161  1  0.58664290  0.36987972  -0.00012491  1
  O  O162  1  0.62614367  0.35297842  0.24420279  1
  O  O163  1  0.60411736  0.35944889  0.50326467  1
  O  O164  1  0.63764651  0.39408904  0.75937844  1
  O  O165  1  0.63833444  0.63487021  0.00017336  1
  O  O166  1  0.58512919  0.61962855  0.25174241  1
  O  O167  1  0.63291301  0.64745905  0.48908750  1
  O  O168  1  0.62365518  0.59907684  0.75938302  1
  O  O169  1  0.62592702  0.85661030  -0.00687054  1
  O  O170  1  0.64056428  0.88338178  0.24333283  1
  O  O171  1  0.60909266  0.84527272  0.49962082  1
  O  O172  1  0.64001489  0.89014401  0.74409300  1
  O  O173  1  0.88425039  0.15552343  -0.00607719  1
  O  O174  1  0.84383284  0.11187310  0.23668762  1
  O  O175  1  0.90179538  0.13932475  0.50166703  1
  O  O176  1  0.85753142  0.10930877  0.74959135  1
  O  O177  1  0.87004087  0.37051000  0.00946882  1
  O  O178  1  0.84545017  0.37584457  0.24110888  1
  O  O179  1  0.89395667  0.35286651  0.50037413  1
  O  O180  1  0.89525698  0.38516443  0.74531750  1
  O  O181  1  0.85633404  0.65507762  -0.00298137  1
  O  O182  1  0.91528235  0.63198561  0.24694673  1
  O  O183  1  0.87943184  0.61820599  0.49205925  1
  O  O184  1  0.86749560  0.60706164  0.75622067  1
  O  O185  1  0.87279748  0.84198414  -0.01190815  1
  O  O186  1  0.85782439  0.86221894  0.25426052  1
  O  O187  1  0.90724717  0.87314432  0.50461370  1
  O  O188  1  0.83875615  0.87393542  0.73978851  1
  O  O189  1  -0.00766118  0.10345905  0.12545761  1
  O  O190  1  0.00492175  0.11931761  0.34976179  1
  O  O191  1  -0.00578032  0.13874848  0.64498523  1
  O  O192  1  -0.00432099  0.15534585  0.86525383  1
  O  O193  1  0.00122230  0.39259866  0.13479530  1
  O  O194  1  0.01220827  0.37493774  0.34661966  1
  O  O195  1  0.00414129  0.35537249  0.62132920  1
  O  O196  1  0.00260551  0.34375064  0.87662515  1
  O  O197  1  0.00708442  0.60089802  0.07910165  1
  O  O198  1  0.00839897  0.59146102  0.38476941  1
  O  O199  1  0.01012879  0.60888840  0.60606573  1
  O  O200  1  -0.00456460  0.63542521  0.89323686  1
  O  O201  1  -0.00085062  0.91025992  0.13693107  1
  O  O202  1  -0.00026057  0.90080143  0.36128045  1
  O  O203  1  -0.00731965  0.86920930  0.65802292  1
  O  O204  1  -0.01703902  0.87141793  0.84457086  1
  O  O205  1  0.24697625  0.16096643  0.11652232  1
  O  O206  1  0.25116117  0.13104184  0.41021183  1
  O  O207  1  0.24294439  0.11292544  0.60666893  1
  O  O208  1  0.26262461  0.11391669  0.90838886  1
  O  O209  1  0.25384027  0.34556814  0.12011840  1
  O  O210  1  0.25871243  0.36189900  0.39879010  1
  O  O211  1  0.24718731  0.36555925  0.60545845  1
  O  O212  1  0.25648511  0.41299288  0.87885904  1
  O  O213  1  0.24732309  0.63496538  0.14251655  1
  O  O214  1  0.26040359  0.65340443  0.36108063  1
  O  O215  1  0.25014186  0.63488427  0.65461552  1
  O  O216  1  0.24130082  0.59449810  0.84851215  1
  O  O217  1  0.24501076  0.86873564  0.09831555  1
  O  O218  1  0.25226375  0.84084070  0.38341927  1
  O  O219  1  0.24138344  0.88309861  0.61397504  1
  O  O220  1  0.23989152  0.88074576  0.90170522  1
  O  O221  1  0.49944167  0.09958535  0.14884554  1
  O  O222  1  0.48896190  0.10301937  0.35939715  1
  O  O223  1  0.51212744  0.10806638  0.66913031  1
  O  O224  1  0.49857041  0.14348129  0.84807893  1
  O  O225  1  0.49525233  0.41848144  0.13639082  1
  O  O226  1  0.48954638  0.38286924  0.38575480  1
  O  O227  1  0.49432272  0.38423493  0.65233729  1
  O  O228  1  0.49457480  0.36787356  0.85115805  1
  O  O229  1  0.48901495  0.60592225  0.10613750  1
  O  O230  1  0.49013036  0.60887106  0.40671567  1
  O  O231  1  0.48882504  0.64543793  0.62116738  1
  O  O232  1  0.50371677  0.64562338  0.89157494  1
  O  O233  1  0.50318295  0.89795187  0.10292906  1
  O  O234  1  0.49875057  0.89149588  0.36828989  1
  O  O235  1  0.50407724  0.85989942  0.64226651  1
  O  O236  1  0.50734702  0.85668432  0.87256115  1
  O  O237  1  0.75233157  0.13072860  0.08486672  1
  O  O238  1  0.75804815  0.13134606  0.39686561  1
  O  O239  1  0.74966524  0.11435080  0.59663894  1
  O  O240  1  0.74070720  0.11631003  0.90738830  1
  O  O241  1  0.73055596  0.37193847  0.10072228  1
  O  O242  1  0.75097670  0.33983734  0.37838560  1
  O  O243  1  0.75247706  0.38419525  0.60956277  1
  O  O244  1  0.74439581  0.39246210  0.89730449  1
  O  O245  1  0.74589752  0.65683700  0.13309215  1
  O  O246  1  0.74114685  0.62984535  0.34017036  1
  O  O247  1  0.74604126  0.61793545  0.63193801  1
  O  O248  1  0.74846645  0.59807588  0.86889014  1
  O  O249  1  0.74608283  0.84536071  0.11628739  1
  O  O250  1  0.73974420  0.84438209  0.38142688  1
  O  O251  1  0.75067522  0.87969508  0.59409808  1
  O  O252  1  0.74861032  0.89886647  0.87733399  1
  O  O253  1  0.13601917  0.00698601  0.09209875  1
  O  O254  1  0.13026663  0.00228656  0.38294681  1
  O  O255  1  0.09943721  -0.00446611  0.62310191  1
  O  O256  1  0.10384957  -0.00282279  0.87519325  1
  O  O257  1  0.09831141  0.25495606  0.17588593  1
  O  O258  1  0.11919598  0.24627764  0.36543988  1
  O  O259  1  0.13266485  0.24400686  0.60886878  1
  O  O260  1  0.16995624  0.25421501  0.86094310  1
  O  O261  1  0.15251854  0.48912390  0.11188878  1
  O  O262  1  0.15528631  0.49586896  0.38220949  1
  O  O263  1  0.13646940  0.50003853  0.61763390  1
  O  O264  1  0.10612924  0.50369859  0.90748101  1
  O  O265  1  0.09666021  0.74265524  0.12730052  1
  O  O266  1  0.11137220  0.74659119  0.34429780  1
  O  O267  1  0.11923927  0.75060116  0.64321114  1
  O  O268  1  0.12733277  0.74738898  0.85735349  1
  O  O269  1  0.34295952  0.00367426  0.13453389  1
  O  O270  1  0.34891406  -0.00770027  0.36622951  1
  O  O271  1  0.37978327  -0.01100778  0.65109302  1
  O  O272  1  0.38484174  0.00413251  0.84065365  1
  O  O273  1  0.40567050  0.25993936  0.10755115  1
  O  O274  1  0.38944132  0.25051781  0.37985682  1
  O  O275  1  0.38017422  0.25987322  0.61397964  1
  O  O276  1  0.36224635  0.25763456  0.89319327  1
  O  O277  1  0.34613180  0.49995983  0.12912052  1
  O  O278  1  0.35131309  0.49859611  0.36952373  1
  O  O279  1  0.36090824  0.50524485  0.66566538  1
  O  O280  1  0.39716412  0.50972074  0.85243318  1
  O  O281  1  0.37998318  0.74266993  0.10873066  1
  O  O282  1  0.39346234  0.74554045  0.39772018  1
  O  O283  1  0.36552987  0.75302793  0.60492947  1
  O  O284  1  0.34710524  0.74308650  0.88304798  1
  O  O285  1  0.63705231  -0.00525225  0.10047546  1
  O  O286  1  0.64245389  -0.01090749  0.40521115  1
  O  O287  1  0.62181321  -0.00451286  0.60238361  1
  O  O288  1  0.61526601  0.00190302  0.86701895  1
  O  O289  1  0.59062019  0.25187797  0.12321939  1
  O  O290  1  0.60335486  0.24787917  0.38078964  1
  O  O291  1  0.62653816  0.24262033  0.64401360  1
  O  O292  1  0.64454540  0.25463181  0.87093604  1
  O  O293  1  0.63043231  0.50952563  0.12810828  1
  O  O294  1  0.62862893  0.50223567  0.38873568  1
  O  O295  1  0.62143029  0.50268609  0.60083286  1
  O  O296  1  0.59884518  0.49892676  0.88983034  1
  O  O297  1  0.59184913  0.74924281  0.13524787  1
  O  O298  1  0.59001848  0.74702215  0.35886971  1
  O  O299  1  0.64472378  0.75385965  0.63349403  1
  O  O300  1  0.64580080  0.74613468  0.85821569  1
  O  O301  1  0.86211816  0.00347227  0.09064022  1
  O  O302  1  0.86346013  0.00861469  0.38265505  1
  O  O303  1  0.88839708  0.00349571  0.61529158  1
  O  O304  1  0.87821963  0.00818925  0.89306290  1
  O  O305  1  0.87869403  0.25103177  0.14169771  1
  O  O306  1  0.89563379  0.24170921  0.33944821  1
  O  O307  1  0.85714879  0.24601703  0.64574677  1
  O  O308  1  0.83999850  0.24602944  0.85941351  1
  O  O309  1  0.85069264  0.49727374  0.13250250  1
  O  O310  1  0.86285308  0.49772931  0.34915567  1
  O  O311  1  0.88098922  0.48840390  0.61214236  1
  O  O312  1  0.89117970  0.50623019  0.91348826  1
  O  O313  1  0.90278569  0.75253003  0.12399163  1
  O  O314  1  0.90386132  0.74929317  0.38213978  1
  O  O315  1  0.86713143  0.75556554  0.61444781  1
  O  O316  1  0.85865605  0.74594844  0.84525887  1
