# generated using pymatgen
data_Mg32Ti42(Bi17O64)3
_symmetry_space_group_name_H-M   'P 1'
_cell_length_a   15.96004310
_cell_length_b   15.90084707
_cell_length_c   15.93436878
_cell_angle_alpha   89.99687043
_cell_angle_beta   90.13045862
_cell_angle_gamma   89.93595211
_symmetry_Int_Tables_number   1
_chemical_formula_structural   Mg32Ti42(Bi17O64)3
_chemical_formula_sum   'Mg32 Ti42 Bi51 O192'
_cell_volume   4043.78248387
_cell_formula_units_Z   1
loop_
 _symmetry_equiv_pos_site_id
 _symmetry_equiv_pos_as_xyz
  1  'x, y, z'
loop_
 _atom_site_type_symbol
 _atom_site_label
 _atom_site_symmetry_multiplicity
 _atom_site_fract_x
 _atom_site_fract_y
 _atom_site_fract_z
 _atom_site_occupancy
  Mg  Mg0  1  0.63711480  0.87541802  0.12534096  1
  Mg  Mg1  1  0.38394058  0.13227764  0.89629230  1
  Mg  Mg2  1  0.13600025  0.62237924  0.62763551  1
  Mg  Mg3  1  0.87791269  0.13063767  0.61457875  1
  Mg  Mg4  1  0.87583352  0.11815075  0.37140228  1
  Mg  Mg5  1  0.12292389  0.87156307  0.12351469  1
  Mg  Mg6  1  0.36691907  0.62884546  0.12913983  1
  Mg  Mg7  1  0.62571943  0.61405908  0.62569108  1
  Mg  Mg8  1  0.13377456  0.37440217  0.87438228  1
  Mg  Mg9  1  0.37512135  0.88207755  0.13044413  1
  Mg  Mg10  1  0.14252441  0.37680383  0.63592880  1
  Mg  Mg11  1  0.87308098  0.87053278  0.61574316  1
  Mg  Mg12  1  0.61748746  0.13439489  0.62022557  1
  Mg  Mg13  1  0.61474860  0.13215294  0.36339710  1
  Mg  Mg14  1  0.63413750  0.61877914  0.12442129  1
  Mg  Mg15  1  0.13509469  0.62017495  0.86871520  1
  Mg  Mg16  1  0.37485883  0.62124014  0.87029911  1
  Mg  Mg17  1  0.12233233  0.87810157  0.87406733  1
  Mg  Mg18  1  0.38819867  0.87204726  0.88179493  1
  Mg  Mg19  1  0.19932420  0.00076156  0.02248322  1
  Mg  Mg20  1  0.74998762  0.00011065  -0.01345158  1
  Mg  Mg21  1  0.73672723  0.04701190  0.47739202  1
  Mg  Mg22  1  0.51575297  -0.04350002  0.22198868  1
  Mg  Mg23  1  0.49921811  0.27685387  0.24747821  1
  Mg  Mg24  1  0.01960421  0.21913047  0.05509514  1
  Mg  Mg25  1  0.50432178  0.26652744  0.80471149  1
  Mg  Mg26  1  0.80641248  0.50935243  -0.01583051  1
  Mg  Mg27  1  0.80818677  0.50192861  0.22321929  1
  Mg  Mg28  1  0.29240860  0.47155286  0.77342100  1
  Mg  Mg29  1  0.80401571  0.50343265  0.49070064  1
  Mg  Mg30  1  0.50020149  0.77563132  0.04315794  1
  Mg  Mg31  1  0.50860963  0.25105040  0.01352284  1
  Ti  Ti32  1  0.11668878  0.12618518  0.87360695  1
  Ti  Ti33  1  0.88373882  0.62533747  0.36586827  1
  Ti  Ti34  1  0.39737810  0.88672872  0.61976734  1
  Ti  Ti35  1  0.37151511  0.61611033  0.63815336  1
  Ti  Ti36  1  0.87172095  0.62921852  0.86860724  1
  Ti  Ti37  1  0.86470520  0.87556810  0.12413121  1
  Ti  Ti38  1  0.86639240  0.12708183  0.87815041  1
  Ti  Ti39  1  0.37462597  0.35796774  0.63639320  1
  Ti  Ti40  1  0.62485611  0.60928295  0.37316305  1
  Ti  Ti41  1  0.37633199  0.63508123  0.36966479  1
  Ti  Ti42  1  0.63255507  0.88015301  0.86923789  1
  Ti  Ti43  1  0.86723797  0.87312373  0.87410345  1
  Ti  Ti44  1  0.38710866  0.87954748  0.36933602  1
  Ti  Ti45  1  0.60501398  0.12891935  0.13474058  1
  Ti  Ti46  1  0.39151362  0.12078495  0.12582065  1
  Ti  Ti47  1  0.63305931  0.87181422  0.36876111  1
  Ti  Ti48  1  0.62905452  0.87714021  0.60287430  1
  Ti  Ti49  1  0.38374702  0.36081689  0.11979626  1
  Ti  Ti50  1  0.87169967  0.38091779  0.36082725  1
  Ti  Ti51  1  0.12950909  0.87142113  0.37233156  1
  Ti  Ti52  1  0.12260178  0.88570753  0.63041445  1
  Ti  Ti53  1  0.87553274  0.37147997  0.61467917  1
  Ti  Ti54  1  0.13647437  0.61627944  0.12234523  1
  Ti  Ti55  1  0.86939472  0.36327366  0.87273943  1
  Ti  Ti56  1  0.62741715  0.37477633  0.37068986  1
  Ti  Ti57  1  0.62009246  0.37046615  0.60767766  1
  Ti  Ti58  1  0.87331698  0.62852743  0.62837979  1
  Ti  Ti59  1  0.87425655  0.87109646  0.37148571  1
  Ti  Ti60  1  0.63594471  0.37937189  0.12778955  1
  Ti  Ti61  1  0.14087830  0.38317667  0.12266667  1
  Ti  Ti62  1  0.37873454  0.10596765  0.36507764  1
  Ti  Ti63  1  0.62222608  0.12448729  0.87357586  1
  Ti  Ti64  1  0.38687156  0.36755529  0.89280994  1
  Ti  Ti65  1  0.11705926  0.11382405  0.37964892  1
  Ti  Ti66  1  0.13731563  0.63862624  0.37942994  1
  Ti  Ti67  1  0.86511489  0.36522031  0.11090967  1
  Ti  Ti68  1  0.63046513  0.37820571  0.88834377  1
  Ti  Ti69  1  0.12455744  0.12004696  0.63401730  1
  Ti  Ti70  1  0.86367237  0.12101174  0.12122069  1
  Ti  Ti71  1  0.87521027  0.62531697  0.11492765  1
  Ti  Ti72  1  0.37862601  0.12005968  0.62637461  1
  Ti  Ti73  1  0.63231637  0.60894488  0.88443344  1
  Bi  Bi74  1  0.51536244  -0.02472136  0.00275974  1
  Bi  Bi75  1  0.00796934  0.50202944  0.76658034  1
  Bi  Bi76  1  0.74819883  0.01419746  0.70925393  1
  Bi  Bi77  1  0.25059745  0.52252911  -0.01306567  1
  Bi  Bi78  1  0.01299200  0.73874031  0.22662863  1
  Bi  Bi79  1  0.26319462  0.77600037  0.77164578  1
  Bi  Bi80  1  0.28405064  0.46768830  0.26894482  1
  Bi  Bi81  1  0.46015716  0.48786816  0.48774257  1
  Bi  Bi82  1  0.03241785  0.27626380  0.47193263  1
  Bi  Bi83  1  0.01122123  0.74283682  0.52093013  1
  Bi  Bi84  1  0.72573897  0.23036676  0.00708143  1
  Bi  Bi85  1  0.50354125  0.49465337  0.23791015  1
  Bi  Bi86  1  0.02522440  0.50005194  0.51642989  1
  Bi  Bi87  1  0.00479272  0.77397062  -0.00302796  1
  Bi  Bi88  1  0.23523366  0.45122794  0.47118535  1
  Bi  Bi89  1  0.49698603  0.71695256  0.51019264  1
  Bi  Bi90  1  0.72752726  0.75819337  0.72419763  1
  Bi  Bi91  1  0.26751574  0.74253075  0.52292737  1
  Bi  Bi92  1  0.25177444  0.76590822  0.24449444  1
  Bi  Bi93  1  0.47308292  0.00649583  0.77062424  1
  Bi  Bi94  1  0.77736597  0.24152827  0.47903036  1
  Bi  Bi95  1  0.02274413  0.27193978  0.24087372  1
  Bi  Bi96  1  0.74734224  0.72378078  0.49042161  1
  Bi  Bi97  1  0.26248380  0.24501870  0.77986537  1
  Bi  Bi98  1  0.72891914  0.24308099  0.73324571  1
  Bi  Bi99  1  0.52753764  0.02336386  0.49266556  1
  Bi  Bi100  1  0.26060617  -0.02389893  0.50173476  1
  Bi  Bi101  1  0.25240855  -0.00273566  0.79286153  1
  Bi  Bi102  1  0.75117369  0.73083684  0.23974549  1
  Bi  Bi103  1  0.01947447  0.26941540  0.74803369  1
  Bi  Bi104  1  0.23043598  0.21245952  0.02471673  1
  Bi  Bi105  1  0.27126806  0.78709152  0.00579220  1
  Bi  Bi106  1  0.48781768  0.54061275  0.01604482  1
  Bi  Bi107  1  0.02356456  0.73801192  0.76232459  1
  Bi  Bi108  1  -0.03240949  0.00078480  0.72717429  1
  Bi  Bi109  1  0.01022036  0.46410894  -0.00819127  1
  Bi  Bi110  1  0.75096310  0.23166369  0.25232024  1
  Bi  Bi111  1  0.01826067  0.02812224  0.22068569  1
  Bi  Bi112  1  0.25308359  0.22331424  0.50199419  1
  Bi  Bi113  1  0.03380913  0.49901712  0.27725750  1
  Bi  Bi114  1  0.51363741  0.72137847  0.76724250  1
  Bi  Bi115  1  0.50273149  0.47384939  0.74182206  1
  Bi  Bi116  1  0.27230480  0.24360591  0.27038997  1
  Bi  Bi117  1  0.47342295  0.26889671  0.45118453  1
  Bi  Bi118  1  0.74747589  -0.00428319  0.27172011  1
  Bi  Bi119  1  -0.01257126  0.01722754  -0.00883952  1
  Bi  Bi120  1  0.75484849  0.48127010  0.73021380  1
  Bi  Bi121  1  0.73996127  0.75397235  -0.01707580  1
  Bi  Bi122  1  -0.00257275  -0.02417246  0.47820485  1
  Bi  Bi123  1  0.52005780  0.73814285  0.23756493  1
  Bi  Bi124  1  0.23689734  0.01020247  0.21362103  1
  O  O125  1  0.10927106  0.15368256  -0.00621426  1
  O  O126  1  0.13620048  0.09741777  0.26081390  1
  O  O127  1  0.11867269  0.15855823  0.50018560  1
  O  O128  1  0.14515118  0.10256731  0.75161240  1
  O  O129  1  0.13045261  0.38154800  0.00230030  1
  O  O130  1  0.10539051  0.38573791  0.24070506  1
  O  O131  1  0.14575642  0.34752576  0.50912788  1
  O  O132  1  0.09090306  0.38886119  0.75114668  1
  O  O133  1  0.15123691  0.62484517  0.00188510  1
  O  O134  1  0.10651773  0.61835794  0.25170186  1
  O  O135  1  0.13368092  0.65742354  0.49559025  1
  O  O136  1  0.09246933  0.61296510  0.74601583  1
  O  O137  1  0.11207943  0.85970000  -0.00239031  1
  O  O138  1  0.15284935  0.88592465  0.25499816  1
  O  O139  1  0.08584857  0.86422447  0.49576808  1
  O  O140  1  0.14688485  0.89943015  0.74409614  1
  O  O141  1  0.41952520  0.15324232  0.01740202  1
  O  O142  1  0.33720479  0.11897695  0.24552403  1
  O  O143  1  0.37445410  0.13648197  0.48281897  1
  O  O144  1  0.36800143  0.11440604  0.74074612  1
  O  O145  1  0.35500400  0.37353318  0.00297268  1
  O  O146  1  0.39167744  0.38373457  0.24042726  1
  O  O147  1  0.36145000  0.38732216  0.51663088  1
  O  O148  1  0.42381101  0.35896966  0.74765163  1
  O  O149  1  0.35909612  0.60449746  -0.00258549  1
  O  O150  1  0.39151177  0.62497553  0.25646550  1
  O  O151  1  0.37149477  0.63442250  0.50857740  1
  O  O152  1  0.39503587  0.64910334  0.74709593  1
  O  O153  1  0.39937443  0.84686222  0.00543086  1
  O  O154  1  0.34184691  0.87276395  0.25616230  1
  O  O155  1  0.38780850  0.89772401  0.49289101  1
  O  O156  1  0.37029361  0.89386881  0.73959224  1
  O  O157  1  0.60184232  0.16191277  0.01271107  1
  O  O158  1  0.65647869  0.11995316  0.24037629  1
  O  O159  1  0.61708519  0.12641391  0.49356878  1
  O  O160  1  0.64434179  0.10914060  0.76095976  1
  O  O161  1  0.64181996  0.35853292  0.00971708  1
  O  O162  1  0.59071074  0.37830054  0.24877470  1
  O  O163  1  0.63554088  0.35709296  0.49659975  1
  O  O164  1  0.58940972  0.36948448  0.77561897  1
  O  O165  1  0.64804954  0.63964331  -0.00214168  1
  O  O166  1  0.59537470  0.61126818  0.25521959  1
  O  O167  1  0.63185667  0.64338748  0.49648350  1
  O  O168  1  0.61979694  0.63103284  0.75734470  1
  O  O169  1  0.59254517  0.85804827  0.00485464  1
  O  O170  1  0.63485738  0.90263428  0.25127811  1
  O  O171  1  0.60675551  0.85783697  0.49285749  1
  O  O172  1  0.65364918  0.89270203  0.75670193  1
  O  O173  1  0.91900132  0.14144405  0.00698252  1
  O  O174  1  0.84306285  0.11744106  0.24006552  1
  O  O175  1  0.84489983  0.12141489  0.49529478  1
  O  O176  1  0.86093284  0.10592857  0.76572906  1
  O  O177  1  0.83599292  0.38103352  -0.00311887  1
  O  O178  1  0.88113300  0.39000314  0.24261754  1
  O  O179  1  0.84837221  0.38600268  0.49892292  1
  O  O180  1  0.87892295  0.38910943  0.75360693  1
  O  O181  1  0.84542212  0.63568256  0.00125631  1
  O  O182  1  0.89292901  0.60356116  0.24948752  1
  O  O183  1  0.84868597  0.62237713  0.49343841  1
  O  O184  1  0.87699623  0.61859368  0.74821395  1
  O  O185  1  0.89274729  0.85467371  0.00290686  1
  O  O186  1  0.84973785  0.88655899  0.24274778  1
  O  O187  1  0.89699380  0.86580726  0.48816826  1
  O  O188  1  0.85874708  0.89234348  0.76141706  1
  O  O189  1  -0.01089629  0.14845240  0.15818094  1
  O  O190  1  -0.00022580  0.09591842  0.36921870  1
  O  O191  1  0.00502274  0.10783958  0.64090010  1
  O  O192  1  0.00238314  0.10729588  0.86654759  1
  O  O193  1  -0.02161743  0.34365112  0.09551466  1
  O  O194  1  -0.01415757  0.39168698  0.38442170  1
  O  O195  1  -0.00985796  0.39854727  0.60698174  1
  O  O196  1  -0.01629819  0.36071001  0.89652001  1
  O  O197  1  -0.00896404  0.65081359  0.11440120  1
  O  O198  1  -0.00573306  0.61126582  0.39159517  1
  O  O199  1  -0.00928917  0.60453300  0.60021359  1
  O  O200  1  -0.01440731  0.65900923  0.87940267  1
  O  O201  1  -0.00457135  0.84576334  0.13499806  1
  O  O202  1  -0.01023269  0.90296177  0.35503312  1
  O  O203  1  0.00181755  0.89967952  0.63841624  1
  O  O204  1  -0.00891349  0.85323770  0.86886490  1
  O  O205  1  0.26833149  0.09381500  0.08632286  1
  O  O206  1  0.24224495  0.15052214  0.38158260  1
  O  O207  1  0.24798468  0.13859606  0.60908563  1
  O  O208  1  0.25032026  0.15049895  0.89525426  1
  O  O209  1  0.25154193  0.39415017  0.14093493  1
  O  O210  1  0.25277601  0.37216588  0.35798465  1
  O  O211  1  0.26503892  0.36851660  0.67377483  1
  O  O212  1  0.26126273  0.37132909  0.85014850  1
  O  O213  1  0.24462682  0.59065678  0.13741536  1
  O  O214  1  0.25142076  0.65157489  0.36648257  1
  O  O215  1  0.25778529  0.65507397  0.63485998  1
  O  O216  1  0.25331384  0.56818516  0.85545407  1
  O  O217  1  0.25232270  0.90360399  0.08773166  1
  O  O218  1  0.23788517  0.85805189  0.40701983  1
  O  O219  1  0.24117325  0.86494916  0.59601142  1
  O  O220  1  0.25553946  0.87853171  0.87139445  1
  O  O221  1  0.50137471  0.16344043  0.17259046  1
  O  O222  1  0.49282983  0.08746991  0.36660883  1
  O  O223  1  0.49482555  0.09948277  0.61631142  1
  O  O224  1  0.50859960  0.13598490  0.85235368  1
  O  O225  1  0.49469853  0.33022426  0.11311077  1
  O  O226  1  0.49910888  0.39448588  0.39679221  1
  O  O227  1  0.50308690  0.39825643  0.60889598  1
  O  O228  1  0.50177756  0.33430048  0.91562187  1
  O  O229  1  0.49466308  0.65736041  0.09530097  1
  O  O230  1  0.49745586  0.61508481  0.40073101  1
  O  O231  1  0.49745571  0.62312119  0.61600538  1
  O  O232  1  0.50924285  0.64291962  0.88237829  1
  O  O233  1  0.49995428  0.85226254  0.14917828  1
  O  O234  1  0.49400313  0.90320561  0.34075361  1
  O  O235  1  0.50971144  0.90584066  0.63209526  1
  O  O236  1  0.51157422  0.89397175  0.85758729  1
  O  O237  1  0.75535374  0.10064305  0.08170710  1
  O  O238  1  0.74018403  0.15607586  0.37616890  1
  O  O239  1  0.74773158  0.14199358  0.63749565  1
  O  O240  1  0.75457810  0.11318877  0.90965586  1
  O  O241  1  0.74221249  0.40642993  0.15352125  1
  O  O242  1  0.73947136  0.34988469  0.35814085  1
  O  O243  1  0.74616920  0.36249666  0.65144798  1
  O  O244  1  0.74264661  0.39268659  0.85893247  1
  O  O245  1  0.75528799  0.60972575  0.16606039  1
  O  O246  1  0.73935287  0.64242027  0.36632435  1
  O  O247  1  0.75094532  0.65586623  0.62571348  1
  O  O248  1  0.74990240  0.59111786  0.87304017  1
  O  O249  1  0.75650151  0.90626859  0.09132853  1
  O  O250  1  0.74540412  0.84755878  0.37817406  1
  O  O251  1  0.74696773  0.84546263  0.61349495  1
  O  O252  1  0.74810725  0.89309156  0.91092646  1
  O  O253  1  0.11580966  0.00011489  0.12176701  1
  O  O254  1  0.12937830  -0.00372515  0.40497912  1
  O  O255  1  0.13718744  0.00263142  0.59778122  1
  O  O256  1  0.15113419  0.00953997  0.90238476  1
  O  O257  1  0.12342298  0.26171104  0.13590675  1
  O  O258  1  0.09530042  0.23890563  0.35531503  1
  O  O259  1  0.11213502  0.24509224  0.65331452  1
  O  O260  1  0.11975836  0.24728998  0.84250293  1
  O  O261  1  0.09415949  0.50090159  0.12315019  1
  O  O262  1  0.13289686  0.51564644  0.38195058  1
  O  O263  1  0.13849614  0.49948077  0.59225975  1
  O  O264  1  0.08772002  0.49960636  0.88155454  1
  O  O265  1  0.13639686  0.74241500  0.14906757  1
  O  O266  1  0.10240001  0.75507414  0.35433380  1
  O  O267  1  0.09908463  0.75822617  0.63228200  1
  O  O268  1  0.14045036  0.74812626  0.83999904  1
  O  O269  1  0.41639791  0.00755808  0.14110192  1
  O  O270  1  0.33923619  -0.00298602  0.36932723  1
  O  O271  1  0.35288193  0.00325127  0.61079023  1
  O  O272  1  0.38259920  0.00584837  0.87608470  1
  O  O273  1  0.34338466  0.24913178  0.13990310  1
  O  O274  1  0.40017840  0.23673793  0.33734230  1
  O  O275  1  0.38350504  0.24599641  0.61443876  1
  O  O276  1  0.37950445  0.25176947  0.85530894  1
  O  O277  1  0.41161933  0.49523585  0.12298579  1
  O  O278  1  0.35779191  0.51440189  0.38651837  1
  O  O279  1  0.36360784  0.50431355  0.66474578  1
  O  O280  1  0.40170150  0.48098153  0.85488720  1
  O  O281  1  0.33103240  0.75128770  0.13115993  1
  O  O282  1  0.39217875  0.75717422  0.38394585  1
  O  O283  1  0.38884749  0.76917729  0.60741533  1
  O  O284  1  0.34670423  0.74622688  0.87457491  1
  O  O285  1  0.59044006  0.01111373  0.11977246  1
  O  O286  1  0.65333693  -0.00402661  0.39091549  1
  O  O287  1  0.66209442  -0.00502390  0.59380327  1
  O  O288  1  0.62613996  0.00796257  0.92083911  1
  O  O289  1  0.65586095  0.25231826  0.13931858  1
  O  O290  1  0.57594236  0.25599977  0.35611285  1
  O  O291  1  0.61591701  0.25788319  0.65194293  1
  O  O292  1  0.64558667  0.24465334  0.87145205  1
  O  O293  1  0.58816522  0.49400836  0.12121821  1
  O  O294  1  0.63528677  0.49555323  0.38121330  1
  O  O295  1  0.64131694  0.48771636  0.64191019  1
  O  O296  1  0.60357917  0.49525568  0.89208951  1
  O  O297  1  0.63843882  0.74750368  0.15542441  1
  O  O298  1  0.60294049  0.75548425  0.35093457  1
  O  O299  1  0.61020823  0.76104272  0.64580945  1
  O  O300  1  0.64867821  0.76059250  0.86940999  1
  O  O301  1  0.90589898  0.00305359  0.11114075  1
  O  O302  1  0.83656569  -0.00907181  0.38224414  1
  O  O303  1  0.86714672  0.00061568  0.62981091  1
  O  O304  1  0.87586123  -0.00108714  0.91388624  1
  O  O305  1  0.83882361  0.24977538  0.12450415  1
  O  O306  1  0.88011800  0.25724084  0.38031328  1
  O  O307  1  0.88760993  0.25857408  0.61796871  1
  O  O308  1  0.85702953  0.24731715  0.86847636  1
  O  O309  1  0.87187159  0.50467123  0.10364030  1
  O  O310  1  0.84030319  0.49909462  0.36950175  1
  O  O311  1  0.83941501  0.50480506  0.61685438  1
  O  O312  1  0.89432071  0.50910778  0.89181129  1
  O  O313  1  0.84552367  0.75102044  0.13499571  1
  O  O314  1  0.88277338  0.74517284  0.35639707  1
  O  O315  1  0.90141742  0.74348551  0.62339581  1
  O  O316  1  0.83516674  0.75122340  0.87200256  1
