# generated using pymatgen
data_Mg32Ti42(Bi17O64)3
_symmetry_space_group_name_H-M   'P 1'
_cell_length_a   15.97290705
_cell_length_b   15.93915961
_cell_length_c   15.95460528
_cell_angle_alpha   90.00061396
_cell_angle_beta   89.95817768
_cell_angle_gamma   90.01598450
_symmetry_Int_Tables_number   1
_chemical_formula_structural   Mg32Ti42(Bi17O64)3
_chemical_formula_sum   'Mg32 Ti42 Bi51 O192'
_cell_volume   4061.95694376
_cell_formula_units_Z   1
loop_
 _symmetry_equiv_pos_site_id
 _symmetry_equiv_pos_as_xyz
  1  'x, y, z'
loop_
 _atom_site_type_symbol
 _atom_site_label
 _atom_site_symmetry_multiplicity
 _atom_site_fract_x
 _atom_site_fract_y
 _atom_site_fract_z
 _atom_site_occupancy
  Mg  Mg0  1  0.38048502  0.62866790  0.37320093  1
  Mg  Mg1  1  0.63155037  0.61642419  0.12735530  1
  Mg  Mg2  1  0.37546604  0.61481537  0.12264260  1
  Mg  Mg3  1  0.87508161  0.88347114  0.87031220  1
  Mg  Mg4  1  0.37159089  0.37073493  0.37000789  1
  Mg  Mg5  1  0.37478511  0.62625120  0.87305992  1
  Mg  Mg6  1  0.12140350  0.86911568  0.61736624  1
  Mg  Mg7  1  0.12713321  0.37712475  0.62446011  1
  Mg  Mg8  1  0.87837017  0.61650693  0.87623602  1
  Mg  Mg9  1  0.88086907  0.62822337  0.61872688  1
  Mg  Mg10  1  0.12195095  0.36229550  0.37937292  1
  Mg  Mg11  1  0.62848950  0.61147930  0.87327356  1
  Mg  Mg12  1  0.62282272  0.62074259  0.61515898  1
  Mg  Mg13  1  0.37931728  0.87107019  0.12701716  1
  Mg  Mg14  1  0.37105481  0.87687220  0.62648279  1
  Mg  Mg15  1  0.61603631  0.11791418  0.37151625  1
  Mg  Mg16  1  0.63512127  0.87685556  0.62466747  1
  Mg  Mg17  1  0.61225389  0.12682730  0.62650632  1
  Mg  Mg18  1  0.37741235  0.13449759  0.37984447  1
  Mg  Mg19  1  0.02414941  0.20882087  0.50351901  1
  Mg  Mg20  1  0.24296918  0.22461855  0.24497416  1
  Mg  Mg21  1  0.00085776  0.80057660  0.45884390  1
  Mg  Mg22  1  0.43950359  0.46544886  -0.04691090  1
  Mg  Mg23  1  0.76662807  0.70924262  0.23759576  1
  Mg  Mg24  1  0.44534582  0.50058271  0.74458741  1
  Mg  Mg25  1  0.74971455  0.50251883  0.67361600  1
  Mg  Mg26  1  0.53215023  0.30409060  0.43701884  1
  Mg  Mg27  1  0.30272116  0.22410658  0.06754829  1
  Mg  Mg28  1  0.00427424  0.28858979  0.70266271  1
  Mg  Mg29  1  0.43941875  0.01716440  0.03490185  1
  Mg  Mg30  1  0.47786289  0.19621490  0.02486125  1
  Mg  Mg31  1  -0.04919745  -0.04440924  0.01690573  1
  Ti  Ti32  1  0.62808797  0.13453719  0.11400564  1
  Ti  Ti33  1  0.12146226  0.63369648  0.87255628  1
  Ti  Ti34  1  0.11775726  0.63826987  0.12112623  1
  Ti  Ti35  1  0.61423498  0.37531906  0.62279007  1
  Ti  Ti36  1  0.87397441  0.87110966  0.62044274  1
  Ti  Ti37  1  0.37153526  0.36776580  0.61792228  1
  Ti  Ti38  1  0.61315807  0.12628710  0.87224605  1
  Ti  Ti39  1  0.11980736  0.62443181  0.36985261  1
  Ti  Ti40  1  0.88564422  0.13356250  0.62103842  1
  Ti  Ti41  1  0.38048390  0.86943217  0.87525388  1
  Ti  Ti42  1  0.87735271  0.61780954  0.12698102  1
  Ti  Ti43  1  0.86508804  0.87689993  0.37517795  1
  Ti  Ti44  1  0.63210751  0.87484322  0.86965958  1
  Ti  Ti45  1  0.87710049  0.11669232  0.37979763  1
  Ti  Ti46  1  0.11537587  0.36724654  0.86902596  1
  Ti  Ti47  1  0.12282764  0.13364489  0.64511631  1
  Ti  Ti48  1  0.11856571  0.12666865  0.11530553  1
  Ti  Ti49  1  0.61801126  0.87298093  0.10705730  1
  Ti  Ti50  1  0.12638395  0.88560940  0.12692056  1
  Ti  Ti51  1  0.62637449  0.37958646  0.86831320  1
  Ti  Ti52  1  0.13192048  0.89107439  0.36898774  1
  Ti  Ti53  1  0.63178878  0.63236924  0.36402022  1
  Ti  Ti54  1  0.13133026  0.12690833  0.37822791  1
  Ti  Ti55  1  0.88287694  0.11755102  0.87054420  1
  Ti  Ti56  1  0.87523246  0.37518869  0.61497749  1
  Ti  Ti57  1  0.61282191  0.38659527  0.11449866  1
  Ti  Ti58  1  0.37718397  0.62665126  0.61554956  1
  Ti  Ti59  1  0.11644636  0.12043528  0.88309974  1
  Ti  Ti60  1  0.87181602  0.11969135  0.12566262  1
  Ti  Ti61  1  0.11845184  0.87256798  0.88060708  1
  Ti  Ti62  1  0.12684731  0.61588738  0.61574320  1
  Ti  Ti63  1  0.62820106  0.87516762  0.36803069  1
  Ti  Ti64  1  0.38232277  0.87998291  0.37389638  1
  Ti  Ti65  1  0.84981648  0.86301189  0.13809203  1
  Ti  Ti66  1  0.13935054  0.35563116  0.12767451  1
  Ti  Ti67  1  0.39417131  0.38485236  0.11794313  1
  Ti  Ti68  1  0.87607486  0.62267893  0.37899008  1
  Ti  Ti69  1  0.38168307  0.12743506  0.63665908  1
  Ti  Ti70  1  0.88293212  0.36207594  0.37373694  1
  Ti  Ti71  1  0.88099925  0.35738609  0.13268211  1
  Ti  Ti72  1  0.37244255  0.12235799  0.88352627  1
  Ti  Ti73  1  0.88211095  0.37228045  0.86629393  1
  Bi  Bi74  1  0.49848314  0.69425658  0.00784698  1
  Bi  Bi75  1  0.74099175  0.71924759  -0.00365294  1
  Bi  Bi76  1  0.46735479  0.23846318  0.24591107  1
  Bi  Bi77  1  0.24210206  0.74443931  0.71496961  1
  Bi  Bi78  1  0.74397721  0.71294582  0.75188490  1
  Bi  Bi79  1  0.50362947  -0.03299954  0.74526141  1
  Bi  Bi80  1  0.01268289  0.50453531  -0.01643201  1
  Bi  Bi81  1  0.26815467  0.76542198  0.01476375  1
  Bi  Bi82  1  0.75084578  0.47444365  -0.01388875  1
  Bi  Bi83  1  0.72703161  0.48120104  0.46236402  1
  Bi  Bi84  1  0.24335651  0.46912505  0.47887265  1
  Bi  Bi85  1  0.25283475  -0.01148498  -0.01828872  1
  Bi  Bi86  1  0.48126494  0.49270713  0.50773976  1
  Bi  Bi87  1  0.74962886  0.24799161  -0.02924944  1
  Bi  Bi88  1  0.49290630  0.48648818  0.27934279  1
  Bi  Bi89  1  0.01543199  0.23210141  0.26496131  1
  Bi  Bi90  1  0.01002880  0.49377944  0.49174818  1
  Bi  Bi91  1  0.50607230  0.01086442  0.49024987  1
  Bi  Bi92  1  0.26766971  0.75547799  0.24731727  1
  Bi  Bi93  1  -0.02427211  0.74459482  0.75113179  1
  Bi  Bi94  1  0.00643965  0.00013360  0.50873375  1
  Bi  Bi95  1  0.51341268  0.72259133  0.76500109  1
  Bi  Bi96  1  0.26853911  0.74248017  0.48033826  1
  Bi  Bi97  1  -0.02286952  0.24668194  -0.00508946  1
  Bi  Bi98  1  0.27107109  -0.00009662  0.49796741  1
  Bi  Bi99  1  0.24510730  0.48334178  -0.01318925  1
  Bi  Bi100  1  0.24420681  0.24385021  0.79375097  1
  Bi  Bi101  1  0.74544679  0.72580936  0.49721666  1
  Bi  Bi102  1  0.75524574  0.01693328  0.72078731  1
  Bi  Bi103  1  0.02679825  0.47397351  0.24275941  1
  Bi  Bi104  1  0.73796582  0.02080085  0.24048489  1
  Bi  Bi105  1  0.25211998  0.52547485  0.24156866  1
  Bi  Bi106  1  -0.01631401  -0.00059734  0.24403540  1
  Bi  Bi107  1  0.70110238  0.27342899  0.25418226  1
  Bi  Bi108  1  0.72520291  0.25652159  0.47257739  1
  Bi  Bi109  1  0.77085079  0.48828122  0.23661758  1
  Bi  Bi110  1  0.52209939  0.00050178  0.21908991  1
  Bi  Bi111  1  0.24965254  -0.01726865  0.73859918  1
  Bi  Bi112  1  0.46926376  0.27963456  0.79892152  1
  Bi  Bi113  1  0.72416645  0.25427362  0.73078913  1
  Bi  Bi114  1  0.72390148  0.00614554  0.49743934  1
  Bi  Bi115  1  0.26104041  0.49813534  0.76897423  1
  Bi  Bi116  1  -0.02712093  0.75289046  -0.01500887  1
  Bi  Bi117  1  0.74111733  0.00442206  -0.03203545  1
  Bi  Bi118  1  -0.00316253  0.50796509  0.72113074  1
  Bi  Bi119  1  0.50608038  0.72320519  0.23447298  1
  Bi  Bi120  1  0.01009060  -0.01596411  0.73740072  1
  Bi  Bi121  1  0.27281908  0.03650251  0.21877175  1
  Bi  Bi122  1  0.51583642  0.76763891  0.51736123  1
  Bi  Bi123  1  0.01120688  0.76222651  0.26576162  1
  Bi  Bi124  1  0.26255741  0.23328088  0.51266907  1
  O  O125  1  0.13204820  0.11125846  0.00333320  1
  O  O126  1  0.13352985  0.15394457  0.25524088  1
  O  O127  1  0.11121239  0.10828744  0.49915250  1
  O  O128  1  0.11546779  0.15149788  0.75919146  1
  O  O129  1  0.14251189  0.39340904  0.01360115  1
  O  O130  1  0.10192628  0.35058829  0.25235907  1
  O  O131  1  0.12064728  0.40765992  0.50091280  1
  O  O132  1  0.10377231  0.34706237  0.75665422  1
  O  O133  1  0.13121940  0.59864781  0.01020763  1
  O  O134  1  0.10156799  0.63891869  0.25186176  1
  O  O135  1  0.12907755  0.59624325  0.50083441  1
  O  O136  1  0.10322062  0.64292875  0.76073615  1
  O  O137  1  0.15523635  0.88993959  0.00708119  1
  O  O138  1  0.12382504  0.85794059  0.24966682  1
  O  O139  1  0.10317272  0.88538896  0.48950661  1
  O  O140  1  0.09950511  0.86963954  0.76458756  1
  O  O141  1  0.36666146  0.13845086  -0.00001725  1
  O  O142  1  0.35503057  0.16062632  0.25409776  1
  O  O143  1  0.34738618  0.12136306  0.50539031  1
  O  O144  1  0.38393262  0.13316481  0.75387782  1
  O  O145  1  0.34964932  0.39380151  0.00975474  1
  O  O146  1  0.40905418  0.36399349  0.24290536  1
  O  O147  1  0.37702076  0.40301156  0.49767040  1
  O  O148  1  0.39653047  0.37690904  0.73422145  1
  O  O149  1  0.40151264  0.58828138  -0.00311374  1
  O  O150  1  0.37356153  0.65872981  0.24845625  1
  O  O151  1  0.34829269  0.61709628  0.49985790  1
  O  O152  1  0.41154141  0.62953021  0.73768093  1
  O  O153  1  0.34805742  0.88110166  -0.00377678  1
  O  O154  1  0.37691945  0.85258751  0.25700919  1
  O  O155  1  0.35579171  0.89114353  0.50179049  1
  O  O156  1  0.37595672  0.89963391  0.75774975  1
  O  O157  1  0.65118111  0.13294296  -0.00038052  1
  O  O158  1  0.62501537  0.11522497  0.24397284  1
  O  O159  1  0.62164901  0.09986606  0.49914134  1
  O  O160  1  0.62476730  0.12279305  0.75763368  1
  O  O161  1  0.65933774  0.36499918  0.00262942  1
  O  O162  1  0.60317643  0.36777001  0.23306718  1
  O  O163  1  0.63585027  0.36261523  0.50357397  1
  O  O164  1  0.61969167  0.36886478  0.75177537  1
  O  O165  1  0.63183607  0.63348309  0.00000896  1
  O  O166  1  0.63989236  0.66397001  0.25004755  1
  O  O167  1  0.66011734  0.61304846  0.48815038  1
  O  O168  1  0.62073734  0.63877242  0.74325128  1
  O  O169  1  0.64105319  0.87641957  -0.00369137  1
  O  O170  1  0.59829278  0.87879754  0.25529843  1
  O  O171  1  0.62286104  0.90637217  0.49369528  1
  O  O172  1  0.62233017  0.89530416  0.75213482  1
  O  O173  1  0.87308931  0.14523573  0.01334175  1
  O  O174  1  0.87372808  0.09693485  0.25734147  1
  O  O175  1  0.91023589  0.14240635  0.50159191  1
  O  O176  1  0.89066229  0.10371037  0.75841938  1
  O  O177  1  0.86100058  0.35236935  0.01632928  1
  O  O178  1  0.88492145  0.39720038  0.25647191  1
  O  O179  1  0.86278474  0.36895277  0.50057004  1
  O  O180  1  0.90725131  0.36838282  0.75801413  1
  O  O181  1  0.86708662  0.65183286  0.00740890  1
  O  O182  1  0.85869525  0.61165789  0.24905841  1
  O  O183  1  0.85842115  0.63633680  0.49375533  1
  O  O184  1  0.89780802  0.62958583  0.75172955  1
  O  O185  1  0.86974663  0.85278556  0.01888166  1
  O  O186  1  0.87169152  0.90409226  0.25480920  1
  O  O187  1  0.89613459  0.86303594  0.49641965  1
  O  O188  1  0.90165459  0.88742213  0.74568154  1
  O  O189  1  0.00102650  0.10420001  0.13930405  1
  O  O190  1  0.00406066  0.10100123  0.35398274  1
  O  O191  1  0.00023229  0.09212171  0.62846755  1
  O  O192  1  0.00295460  0.14298098  0.89583918  1
  O  O193  1  -0.00536968  0.39375419  0.12560202  1
  O  O194  1  -0.00616111  0.40259991  0.38406753  1
  O  O195  1  -0.00358332  0.39566735  0.62402819  1
  O  O196  1  0.00085319  0.36042164  0.91013416  1
  O  O197  1  -0.00514380  0.60663333  0.12061823  1
  O  O198  1  -0.00822773  0.59479149  0.38254747  1
  O  O199  1  0.00694225  0.60373048  0.61743633  1
  O  O200  1  0.00333856  0.62694732  0.90759520  1
  O  O201  1  0.01070411  0.89982287  0.11812703  1
  O  O202  1  0.00322461  0.88966291  0.35762356  1
  O  O203  1  0.00181173  0.91153108  0.61928257  1
  O  O204  1  0.00719761  0.88247804  0.91922347  1
  O  O205  1  0.23792531  0.14436380  0.13637056  1
  O  O206  1  0.24159639  0.16569429  0.38064528  1
  O  O207  1  0.23700347  0.15924890  0.63216968  1
  O  O208  1  0.25262328  0.11966529  0.86302906  1
  O  O209  1  0.24722531  0.31685673  0.14784356  1
  O  O210  1  0.24816713  0.36084336  0.39326756  1
  O  O211  1  0.25497007  0.37724749  0.60873372  1
  O  O212  1  0.23289934  0.40272491  0.86678055  1
  O  O213  1  0.23804302  0.63481103  0.14660267  1
  O  O214  1  0.23624295  0.65325167  0.37003906  1
  O  O215  1  0.25184754  0.61869850  0.65204522  1
  O  O216  1  0.23993729  0.60149237  0.86232126  1
  O  O217  1  0.24875669  0.84142283  0.13249200  1
  O  O218  1  0.24014548  0.84542076  0.37689890  1
  O  O219  1  0.24177077  0.87346906  0.65438020  1
  O  O220  1  0.24678838  0.89822591  0.86783365  1
  O  O221  1  0.51274449  0.10016993  0.10021621  1
  O  O222  1  0.49469337  0.08624268  0.37838742  1
  O  O223  1  0.48923040  0.10223745  0.61850043  1
  O  O224  1  0.50130163  0.15704287  0.90043940  1
  O  O225  1  0.50232407  0.41594885  0.08506571  1
  O  O226  1  0.50670745  0.41521622  0.39190416  1
  O  O227  1  0.50266354  0.38235046  0.59904528  1
  O  O228  1  0.51066615  0.37694188  0.89069230  1
  O  O229  1  0.50452800  0.62243033  0.13991869  1
  O  O230  1  0.51258664  0.61672768  0.35702074  1
  O  O231  1  0.49545087  0.64302805  0.58530752  1
  O  O232  1  0.50557602  0.64089958  0.87172876  1
  O  O233  1  0.49940816  0.91716338  0.10669046  1
  O  O234  1  0.49593803  0.89611474  0.38716580  1
  O  O235  1  0.49893055  0.88917766  0.63070994  1
  O  O236  1  0.49899884  0.87548875  0.86429967  1
  O  O237  1  0.75386820  0.13207303  0.14195111  1
  O  O238  1  0.76319480  0.13972980  0.38934678  1
  O  O239  1  0.76530815  0.14176683  0.64457718  1
  O  O240  1  0.76037388  0.11392848  0.87744129  1
  O  O241  1  0.75648126  0.36056647  0.15802769  1
  O  O242  1  0.75609621  0.35115970  0.36981676  1
  O  O243  1  0.75833493  0.37025574  0.64796398  1
  O  O244  1  0.76254079  0.37131211  0.87552440  1
  O  O245  1  0.75317725  0.65355274  0.12304190  1
  O  O246  1  0.75674521  0.67081185  0.36371027  1
  O  O247  1  0.75379656  0.62708730  0.64355233  1
  O  O248  1  0.75456278  0.63745824  0.86898786  1
  O  O249  1  0.73795647  0.85283055  0.14433514  1
  O  O250  1  0.75185489  0.85543965  0.37517364  1
  O  O251  1  0.76227412  0.85865117  0.62711077  1
  O  O252  1  0.74968796  0.90398913  0.86862201  1
  O  O253  1  0.14976601  0.00167730  0.14660553  1
  O  O254  1  0.15235911  0.00344954  0.36086176  1
  O  O255  1  0.13871219  0.01036898  0.65209790  1
  O  O256  1  0.11886653  0.00699757  0.86746908  1
  O  O257  1  0.09393500  0.24580084  0.11039413  1
  O  O258  1  0.08333554  0.24072809  0.39671655  1
  O  O259  1  0.08424977  0.24459275  0.60901765  1
  O  O260  1  0.14882307  0.25377605  0.89425464  1
  O  O261  1  0.14362531  0.48218057  0.15801225  1
  O  O262  1  0.13905275  0.50448723  0.35394511  1
  O  O263  1  0.12860756  0.50330103  0.66046230  1
  O  O264  1  0.09516658  0.49511906  0.87200216  1
  O  O265  1  0.10580514  0.74907022  0.10922814  1
  O  O266  1  0.08501927  0.74186853  0.38721673  1
  O  O267  1  0.14111685  0.73987729  0.61817743  1
  O  O268  1  0.12768520  0.75193327  0.89574257  1
  O  O269  1  0.34811441  -0.00396213  0.11820703  1
  O  O270  1  0.34220298  -0.00511082  0.37572882  1
  O  O271  1  0.33852546  0.01249822  0.62931272  1
  O  O272  1  0.39080785  0.00757773  0.90608260  1
  O  O273  1  0.41312975  0.26567512  0.10574677  1
  O  O274  1  0.42802677  0.25639118  0.38237220  1
  O  O275  1  0.37703461  0.25126714  0.60627172  1
  O  O276  1  0.35952665  0.25232039  0.87287838  1
  O  O277  1  0.34890847  0.49216701  0.14850792  1
  O  O278  1  0.36972652  0.50369849  0.34465786  1
  O  O279  1  0.39191968  0.50544315  0.63079258  1
  O  O280  1  0.37927707  0.50225726  0.84759202  1
  O  O281  1  0.38052772  0.74354148  0.09044733  1
  O  O282  1  0.38227953  0.75655286  0.40599350  1
  O  O283  1  0.35222837  0.74904363  0.62214257  1
  O  O284  1  0.36030384  0.75571029  0.88329158  1
  O  O285  1  0.64147348  -0.00285343  0.13779104  1
  O  O286  1  0.66054756  -0.00468226  0.36263113  1
  O  O287  1  0.65904716  0.00469188  0.62597050  1
  O  O288  1  0.61883345  0.01028736  0.89085217  1
  O  O289  1  0.60711454  0.24780949  0.12167072  1
  O  O290  1  0.62281166  0.24162853  0.38297219  1
  O  O291  1  0.63098552  0.25197434  0.63127471  1
  O  O292  1  0.64705528  0.25029555  0.87196163  1
  O  O293  1  0.65783466  0.49265292  0.11974965  1
  O  O294  1  0.65742121  0.51711658  0.35044467  1
  O  O295  1  0.63709331  0.49201430  0.62294337  1
  O  O296  1  0.64656844  0.49069241  0.88680229  1
  O  O297  1  0.58751098  0.76323081  0.11765207  1
  O  O298  1  0.61087605  0.75730278  0.40681666  1
  O  O299  1  0.62353430  0.75257494  0.59776523  1
  O  O300  1  0.63597540  0.76125832  0.86150229  1
  O  O301  1  0.86719818  -0.00176884  0.11137632  1
  O  O302  1  0.86661170  -0.00052814  0.39958646  1
  O  O303  1  0.85163874  0.00554483  0.61652042  1
  O  O304  1  0.88647433  0.00557883  0.91498129  1
  O  O305  1  0.89698862  0.24441828  0.14948870  1
  O  O306  1  0.89990096  0.24973877  0.36373126  1
  O  O307  1  0.90191409  0.24862872  0.63941646  1
  O  O308  1  0.87420546  0.24546099  0.88455884  1
  O  O309  1  0.85077143  0.50394554  0.11737571  1
  O  O310  1  0.83950620  0.50591212  0.38080968  1
  O  O311  1  0.86792173  0.49389836  0.63530955  1
  O  O312  1  0.88623724  0.48936477  0.89978899  1
  O  O313  1  0.87908333  0.75508245  0.16769481  1
  O  O314  1  0.90709378  0.75581080  0.36680837  1
  O  O315  1  0.90147086  0.75628297  0.63396463  1
  O  O316  1  0.89549256  0.75736707  0.87003834  1
