# generated using pymatgen
data_Mg32Ti42(Bi17O64)3
_symmetry_space_group_name_H-M   'P 1'
_cell_length_a   15.92993989
_cell_length_b   15.93385229
_cell_length_c   15.98808202
_cell_angle_alpha   90.01177868
_cell_angle_beta   90.00388309
_cell_angle_gamma   89.94891392
_symmetry_Int_Tables_number   1
_chemical_formula_structural   Mg32Ti42(Bi17O64)3
_chemical_formula_sum   'Mg32 Ti42 Bi51 O192'
_cell_volume   4058.17815295
_cell_formula_units_Z   1
loop_
 _symmetry_equiv_pos_site_id
 _symmetry_equiv_pos_as_xyz
  1  'x, y, z'
loop_
 _atom_site_type_symbol
 _atom_site_label
 _atom_site_symmetry_multiplicity
 _atom_site_fract_x
 _atom_site_fract_y
 _atom_site_fract_z
 _atom_site_occupancy
  Mg  Mg0  1  0.62087368  0.87970945  0.36787401  1
  Mg  Mg1  1  0.13537380  0.61698341  0.13065846  1
  Mg  Mg2  1  0.88439494  0.86713568  0.11453452  1
  Mg  Mg3  1  0.13040362  0.12842122  0.36359592  1
  Mg  Mg4  1  0.38071071  0.36863702  0.61906226  1
  Mg  Mg5  1  0.37935354  0.63261943  0.37825125  1
  Mg  Mg6  1  0.37421494  0.11907640  0.62272194  1
  Mg  Mg7  1  0.12271369  0.62526509  0.88123557  1
  Mg  Mg8  1  0.12288561  0.37038462  0.13653055  1
  Mg  Mg9  1  0.61676760  0.37472729  0.38070286  1
  Mg  Mg10  1  0.13198345  0.61742013  0.62768812  1
  Mg  Mg11  1  0.62200632  0.11913669  0.88283860  1
  Mg  Mg12  1  0.88178033  0.37779381  0.12173124  1
  Mg  Mg13  1  0.85731780  0.12230938  0.36354483  1
  Mg  Mg14  1  0.37469654  0.13501526  0.88265444  1
  Mg  Mg15  1  0.86875199  0.37351373  0.37545731  1
  Mg  Mg16  1  0.12372283  0.87994274  0.36779142  1
  Mg  Mg17  1  0.62206606  0.38466527  0.86591206  1
  Mg  Mg18  1  0.87493627  0.88300325  0.37706286  1
  Mg  Mg19  1  0.55904348  0.49646984  0.05542090  1
  Mg  Mg20  1  0.48859415  0.32434005  0.19502648  1
  Mg  Mg21  1  0.50905444  0.00947251  0.43632911  1
  Mg  Mg22  1  0.52284510  0.70659918  0.18280394  1
  Mg  Mg23  1  0.73843850  0.57140760  0.01690787  1
  Mg  Mg24  1  0.26192464  0.47760101  0.69858945  1
  Mg  Mg25  1  -0.00266075  0.02009824  0.43441243  1
  Mg  Mg26  1  -0.04157744  0.75687421  0.23726433  1
  Mg  Mg27  1  -0.04584352  0.03549136  0.75690430  1
  Mg  Mg28  1  0.53638311  -0.00638882  0.22350550  1
  Mg  Mg29  1  0.73852377  0.35354593  0.00544475  1
  Mg  Mg30  1  0.71264486  0.01265763  0.48594458  1
  Mg  Mg31  1  0.02969635  0.72862790  0.04924438  1
  Ti  Ti32  1  0.37581025  0.88158657  0.36376836  1
  Ti  Ti33  1  0.87387328  0.62289767  0.60708659  1
  Ti  Ti34  1  0.88321575  0.62361238  0.88030584  1
  Ti  Ti35  1  0.12144119  0.87799017  0.86967071  1
  Ti  Ti36  1  0.36544207  0.87607613  0.62773541  1
  Ti  Ti37  1  0.36585283  0.37775546  0.86181041  1
  Ti  Ti38  1  0.11636515  0.12759490  0.12880023  1
  Ti  Ti39  1  0.37230476  0.62281372  0.63022307  1
  Ti  Ti40  1  0.61856042  0.12859232  0.11630053  1
  Ti  Ti41  1  0.12003588  0.61855153  0.37198504  1
  Ti  Ti42  1  0.87520941  0.62903180  0.36416132  1
  Ti  Ti43  1  0.62813132  0.64105243  0.63225454  1
  Ti  Ti44  1  0.11632143  0.86601870  0.13236105  1
  Ti  Ti45  1  0.85307701  0.13413800  0.12272396  1
  Ti  Ti46  1  0.89166122  0.62379762  0.11886906  1
  Ti  Ti47  1  0.13088040  0.37424395  0.86446752  1
  Ti  Ti48  1  0.12200688  0.36137537  0.62756462  1
  Ti  Ti49  1  0.37168844  0.11757656  0.36883805  1
  Ti  Ti50  1  0.11324484  0.11747345  0.62574625  1
  Ti  Ti51  1  0.87555732  0.38794823  0.87170413  1
  Ti  Ti52  1  0.87395913  0.35397183  0.61896136  1
  Ti  Ti53  1  0.86534487  0.12288920  0.88333469  1
  Ti  Ti54  1  0.62442158  0.12286885  0.35586726  1
  Ti  Ti55  1  0.12127952  0.12409214  0.86957994  1
  Ti  Ti56  1  0.62142701  0.87162994  0.12148087  1
  Ti  Ti57  1  0.62456277  0.61539764  0.87699459  1
  Ti  Ti58  1  0.63079097  0.64268046  0.38630805  1
  Ti  Ti59  1  0.60746838  0.87694625  0.63296989  1
  Ti  Ti60  1  0.62637572  0.35177272  0.61906909  1
  Ti  Ti61  1  0.38805916  0.12617557  0.12935460  1
  Ti  Ti62  1  0.36999366  0.61183021  0.87734001  1
  Ti  Ti63  1  0.36874877  0.87410351  0.87857670  1
  Ti  Ti64  1  0.62202130  0.87668916  0.86510493  1
  Ti  Ti65  1  0.88422636  0.87682867  0.87194393  1
  Ti  Ti66  1  0.38184202  0.36721016  0.38461475  1
  Ti  Ti67  1  0.88667985  0.87802470  0.62492041  1
  Ti  Ti68  1  0.12591884  0.87298793  0.62869756  1
  Ti  Ti69  1  0.87758306  0.11166937  0.61232327  1
  Ti  Ti70  1  0.37258598  0.86824042  0.12753325  1
  Ti  Ti71  1  0.37626123  0.63043787  0.11316986  1
  Ti  Ti72  1  0.13004548  0.36956366  0.36859704  1
  Ti  Ti73  1  0.60885942  0.10864501  0.62044987  1
  Bi  Bi74  1  0.50541096  0.22967925  0.48616523  1
  Bi  Bi75  1  0.50478870  0.24714975  0.76961006  1
  Bi  Bi76  1  -0.02540924  -0.01206855  0.24004962  1
  Bi  Bi77  1  0.75262905  -0.03740582  0.23755609  1
  Bi  Bi78  1  0.25277294  0.72078409  0.25132590  1
  Bi  Bi79  1  0.75451707  0.49639651  0.21698090  1
  Bi  Bi80  1  0.74790465  0.01873836  0.72981218  1
  Bi  Bi81  1  0.73950296  0.47395182  0.73578965  1
  Bi  Bi82  1  -0.02759241  0.23677328  0.23976534  1
  Bi  Bi83  1  -0.01896125  0.47831325  0.26701855  1
  Bi  Bi84  1  0.25936789  0.22864931  0.49668259  1
  Bi  Bi85  1  0.52181709  0.52301800  0.49645213  1
  Bi  Bi86  1  0.47616466  0.01578520  0.76762469  1
  Bi  Bi87  1  0.47837591  0.74166863  0.76154916  1
  Bi  Bi88  1  0.23580306  0.73008421  0.75251805  1
  Bi  Bi89  1  0.26686837  0.45624680  0.02637322  1
  Bi  Bi90  1  0.00221359  0.77437674  0.47035747  1
  Bi  Bi91  1  0.71863653  0.72117041  0.22498492  1
  Bi  Bi92  1  0.75049890  0.49557455  0.51477171  1
  Bi  Bi93  1  -0.00536102  0.24838515  0.75574423  1
  Bi  Bi94  1  0.49543802  0.48022645  0.73931497  1
  Bi  Bi95  1  0.73849618  0.80407907  0.50150833  1
  Bi  Bi96  1  0.51673573  0.30450334  0.01066154  1
  Bi  Bi97  1  0.48146081  0.00734239  0.01215362  1
  Bi  Bi98  1  0.48165665  0.77097233  0.48315505  1
  Bi  Bi99  1  0.26964099  0.23697235  0.73250144  1
  Bi  Bi100  1  -0.01827857  0.27578011  -0.00517795  1
  Bi  Bi101  1  0.02966442  0.50572765  0.74959588  1
  Bi  Bi102  1  0.23896826  0.02385170  -0.00380513  1
  Bi  Bi103  1  0.02647791  0.48309394  0.49863032  1
  Bi  Bi104  1  -0.00616575  -0.00356738  -0.00535257  1
  Bi  Bi105  1  0.74725415  -0.02193663  0.00314919  1
  Bi  Bi106  1  0.22911490  -0.01145806  0.48017953  1
  Bi  Bi107  1  0.24964098  -0.00250855  0.73552059  1
  Bi  Bi108  1  0.22989724  0.74464833  -0.01088349  1
  Bi  Bi109  1  0.73652506  0.24283061  0.78566404  1
  Bi  Bi110  1  0.23014954  0.24588695  0.01558202  1
  Bi  Bi111  1  0.70133524  0.28542654  0.22565320  1
  Bi  Bi112  1  0.75352299  0.75479575  -0.02271906  1
  Bi  Bi113  1  0.49942149  0.74836272  -0.01810300  1
  Bi  Bi114  1  0.23487429  -0.00353566  0.22979894  1
  Bi  Bi115  1  0.53668211  0.50791005  0.24879998  1
  Bi  Bi116  1  0.75046463  0.26082052  0.46688050  1
  Bi  Bi117  1  0.29240244  0.27137000  0.23578844  1
  Bi  Bi118  1  0.77464692  0.75046320  0.73160699  1
  Bi  Bi119  1  0.00276287  0.72795422  0.72394740  1
  Bi  Bi120  1  0.23560433  0.73536107  0.48429084  1
  Bi  Bi121  1  0.03428159  0.49644256  0.01217736  1
  Bi  Bi122  1  -0.00258758  0.22149642  0.47265504  1
  Bi  Bi123  1  0.28827879  0.49587317  0.25405013  1
  Bi  Bi124  1  0.27308378  0.49962473  0.49334249  1
  O  O125  1  0.12387380  0.12737129  0.00335665  1
  O  O126  1  0.15572241  0.11232721  0.24143635  1
  O  O127  1  0.09310521  0.12115355  0.51396063  1
  O  O128  1  0.15326347  0.10739765  0.75793280  1
  O  O129  1  0.14422283  0.36469669  -0.01874945  1
  O  O130  1  0.09529740  0.37558897  0.25847194  1
  O  O131  1  0.13037307  0.38668427  0.51008943  1
  O  O132  1  0.07938007  0.36681711  0.74862554  1
  O  O133  1  0.12702675  0.65708639  0.00564639  1
  O  O134  1  0.15056837  0.61879514  0.25563138  1
  O  O135  1  0.14389383  0.62906289  0.50278331  1
  O  O136  1  0.10174368  0.62771992  0.75594566  1
  O  O137  1  0.12259404  0.83402470  0.01582342  1
  O  O138  1  0.12717590  0.90678707  0.24571835  1
  O  O139  1  0.14539795  0.86712775  0.51477405  1
  O  O140  1  0.11916163  0.89513413  0.76020550  1
  O  O141  1  0.41170527  0.13024106  0.01086440  1
  O  O142  1  0.35729645  0.10660083  0.25525288  1
  O  O143  1  0.37830977  0.15690122  0.50107563  1
  O  O144  1  0.35437715  0.09651194  0.75382472  1
  O  O145  1  0.35013001  0.34726986  -0.02615291  1
  O  O146  1  0.38421114  0.38321343  0.25769676  1
  O  O147  1  0.33917802  0.36630747  0.49599843  1
  O  O148  1  0.37049996  0.41900400  0.74111165  1
  O  O149  1  0.37961970  0.64803501  -0.00376122  1
  O  O150  1  0.35788891  0.62186353  0.25058759  1
  O  O151  1  0.34360347  0.63623970  0.51348386  1
  O  O152  1  0.40803362  0.60726848  0.75536105  1
  O  O153  1  0.38974524  0.85230153  0.00452304  1
  O  O154  1  0.38300536  0.89238826  0.25264088  1
  O  O155  1  0.36144078  0.85129485  0.51642816  1
  O  O156  1  0.38667998  0.88931486  0.76089364  1
  O  O157  1  0.60539150  0.09963596  0.00681311  1
  O  O158  1  0.63546171  0.14881661  0.24825364  1
  O  O159  1  0.59874337  0.07775419  0.50593495  1
  O  O160  1  0.66150294  0.13216713  0.73533091  1
  O  O161  1  0.62110898  0.39185018  -0.00988894  1
  O  O162  1  0.58919956  0.36249563  0.25753182  1
  O  O163  1  0.65441099  0.38680250  0.50602271  1
  O  O164  1  0.63086814  0.36865318  0.73841742  1
  O  O165  1  0.61911865  0.58164266  -0.01233981  1
  O  O166  1  0.60021880  0.65482729  0.26617231  1
  O  O167  1  0.63867277  0.60324703  0.50178637  1
  O  O168  1  0.61883085  0.65288193  0.74572064  1
  O  O169  1  0.62592985  0.89943235  0.00572143  1
  O  O170  1  0.65234126  0.85716169  0.24635029  1
  O  O171  1  0.64186099  0.90319187  0.51966743  1
  O  O172  1  0.62819095  0.84776192  0.75353824  1
  O  O173  1  0.88546493  0.10228621  0.00070590  1
  O  O174  1  0.85644559  0.16242802  0.24147975  1
  O  O175  1  0.91680233  0.09771020  0.50617076  1
  O  O176  1  0.85212384  0.12643597  0.74938485  1
  O  O177  1  0.86456307  0.36445358  -0.00709444  1
  O  O178  1  0.90426908  0.36274730  0.25116154  1
  O  O179  1  0.84091973  0.37860670  0.50411066  1
  O  O180  1  0.88982581  0.35753037  0.74956337  1
  O  O181  1  0.86004574  0.60513929  0.00729470  1
  O  O182  1  0.88909503  0.65081623  0.24634290  1
  O  O183  1  0.86820757  0.61981315  0.49396209  1
  O  O184  1  0.87711778  0.64494204  0.76324794  1
  O  O185  1  0.87662333  0.91509018  -0.00280326  1
  O  O186  1  0.89676444  0.86821625  0.24297711  1
  O  O187  1  0.87251480  0.87085863  0.51184883  1
  O  O188  1  0.88022075  0.85307319  0.75891061  1
  O  O189  1  0.00454375  0.11402851  0.14730872  1
  O  O190  1  0.00204516  0.13777179  0.36324190  1
  O  O191  1  0.00079163  0.10965993  0.66600812  1
  O  O192  1  0.00461675  0.10087073  0.85531999  1
  O  O193  1  0.00560401  0.38627884  0.09024402  1
  O  O194  1  -0.00176511  0.39804271  0.39603988  1
  O  O195  1  -0.01241054  0.38878534  0.60114493  1
  O  O196  1  -0.00454280  0.37864543  0.89572362  1
  O  O197  1  0.00799618  0.60506815  0.10717180  1
  O  O198  1  0.00334982  0.60776748  0.37479764  1
  O  O199  1  -0.00712987  0.61752158  0.62973602  1
  O  O200  1  -0.00646692  0.62350798  0.89477834  1
  O  O201  1  0.00756148  0.91177501  0.11108490  1
  O  O202  1  0.00280333  0.89029252  0.40379478  1
  O  O203  1  0.00738781  0.86611456  0.62851132  1
  O  O204  1  0.00201984  0.88612540  0.89249274  1
  O  O205  1  0.26825691  0.13876912  0.10492550  1
  O  O206  1  0.25232335  0.12076902  0.40356313  1
  O  O207  1  0.23882714  0.15011317  0.61286288  1
  O  O208  1  0.24899260  0.13347089  0.90326692  1
  O  O209  1  0.25059537  0.35577034  0.12244516  1
  O  O210  1  0.24501418  0.37173397  0.34892034  1
  O  O211  1  0.23673362  0.35778558  0.64873108  1
  O  O212  1  0.24297571  0.37158269  0.83384845  1
  O  O213  1  0.25338501  0.66988664  0.12146186  1
  O  O214  1  0.25034561  0.64923864  0.37648599  1
  O  O215  1  0.25827815  0.60975385  0.66812778  1
  O  O216  1  0.25627338  0.62882290  0.86800419  1
  O  O217  1  0.25724679  0.85697509  0.13495749  1
  O  O218  1  0.25602579  0.89142202  0.37632988  1
  O  O219  1  0.25062498  0.85707720  0.66012235  1
  O  O220  1  0.25468113  0.88505310  0.88735480  1
  O  O221  1  0.50484277  0.08702538  0.14700787  1
  O  O222  1  0.49445783  0.13314127  0.38317051  1
  O  O223  1  0.50024977  0.11451475  0.64866047  1
  O  O224  1  0.49943435  0.12919186  0.84495956  1
  O  O225  1  0.48992670  0.39995688  0.09793123  1
  O  O226  1  0.49195808  0.36047232  0.41362291  1
  O  O227  1  0.51190513  0.38452057  0.61924930  1
  O  O228  1  0.49200654  0.37780930  0.84591505  1
  O  O229  1  0.48915744  0.60040105  0.12584462  1
  O  O230  1  0.50068471  0.62955899  0.41257948  1
  O  O231  1  0.50316911  0.60612828  0.60978116  1
  O  O232  1  0.50336243  0.65157643  0.87903433  1
  O  O233  1  0.51130715  0.89737474  0.14185590  1
  O  O234  1  0.49717761  0.88430467  0.40621782  1
  O  O235  1  0.49441976  0.87643006  0.62669663  1
  O  O236  1  0.50531976  0.84911981  0.88069452  1
  O  O237  1  0.74264341  0.14585312  0.10582953  1
  O  O238  1  0.73430501  0.10545217  0.39772957  1
  O  O239  1  0.76158782  0.08062737  0.59577166  1
  O  O240  1  0.75118440  0.13630310  0.88740274  1
  O  O241  1  0.75415140  0.38038617  0.13103028  1
  O  O242  1  0.74188835  0.34763133  0.35467274  1
  O  O243  1  0.75480749  0.36242594  0.64526607  1
  O  O244  1  0.75388966  0.36468236  0.87387542  1
  O  O245  1  0.75887626  0.61604204  0.13501631  1
  O  O246  1  0.74911826  0.64327849  0.35709847  1
  O  O247  1  0.75090557  0.65202995  0.63044634  1
  O  O248  1  0.74550292  0.63250039  0.89746247  1
  O  O249  1  0.75577272  0.88228005  0.11411336  1
  O  O250  1  0.74712227  0.90096532  0.39933912  1
  O  O251  1  0.75872685  0.86046070  0.63793068  1
  O  O252  1  0.75037484  0.87810256  0.89657800  1
  O  O253  1  0.15578058  0.00256036  0.11128038  1
  O  O254  1  0.12269948  0.00533957  0.39734850  1
  O  O255  1  0.15049797  -0.00122601  0.62515199  1
  O  O256  1  0.13334515  -0.00381862  0.90611432  1
  O  O257  1  0.12253704  0.24373450  0.12061298  1
  O  O258  1  0.12111905  0.25578508  0.39332786  1
  O  O259  1  0.09783017  0.24579103  0.63830164  1
  O  O260  1  0.10476498  0.24270567  0.85925442  1
  O  O261  1  0.14497602  0.49476980  0.09942761  1
  O  O262  1  0.13448537  0.50099801  0.38888419  1
  O  O263  1  0.13247314  0.48979143  0.65334817  1
  O  O264  1  0.11713323  0.49287906  0.86248556  1
  O  O265  1  0.07677084  0.76270706  0.16562353  1
  O  O266  1  0.11355746  0.74947525  0.38395749  1
  O  O267  1  0.12731999  0.74882369  0.64854222  1
  O  O268  1  0.14371920  0.75916959  0.86385794  1
  O  O269  1  0.36865489  -0.00884580  0.10565660  1
  O  O270  1  0.38477170  0.00452314  0.40277346  1
  O  O271  1  0.34587973  -0.00824080  0.62212415  1
  O  O272  1  0.39851558  -0.00534779  0.89287230  1
  O  O273  1  0.40621961  0.23764103  0.15885966  1
  O  O274  1  0.36340160  0.25027174  0.36209321  1
  O  O275  1  0.37867274  0.24830081  0.65325560  1
  O  O276  1  0.37855587  0.25665805  0.83382208  1
  O  O277  1  0.33989684  0.51590597  0.12524507  1
  O  O278  1  0.36447906  0.49791442  0.38474699  1
  O  O279  1  0.35867058  0.49781368  0.60231831  1
  O  O280  1  0.37465262  0.49929070  0.89417398  1
  O  O281  1  0.41206493  0.75060059  0.14363556  1
  O  O282  1  0.38653652  0.76197658  0.37757587  1
  O  O283  1  0.38041467  0.73992228  0.65265896  1
  O  O284  1  0.37129062  0.75099009  0.85336816  1
  O  O285  1  0.64764283  0.00227338  0.15396290  1
  O  O286  1  0.59101436  0.00500268  0.33731160  1
  O  O287  1  0.62288427  -0.00606029  0.65943232  1
  O  O288  1  0.61679987  -0.00843271  0.85326625  1
  O  O289  1  0.59275245  0.24573818  0.11558054  1
  O  O290  1  0.62037310  0.23758859  0.40233075  1
  O  O291  1  0.62226876  0.23699092  0.60013580  1
  O  O292  1  0.61853295  0.24945332  0.86249480  1
  O  O293  1  0.63207754  0.50770465  0.15689764  1
  O  O294  1  0.61397927  0.50774771  0.36614984  1
  O  O295  1  0.65733972  0.50819418  0.63181002  1
  O  O296  1  0.62572460  0.50924585  0.83209127  1
  O  O297  1  0.62104957  0.75280560  0.11846718  1
  O  O298  1  0.62071455  0.75640010  0.40940042  1
  O  O299  1  0.61565924  0.75413859  0.60215559  1
  O  O300  1  0.63405771  0.75230353  0.90955459  1
  O  O301  1  0.86312901  0.01504693  0.15355473  1
  O  O302  1  0.89247301  0.00528255  0.35111147  1
  O  O303  1  0.88700967  -0.00809452  0.65596503  1
  O  O304  1  0.87245422  -0.00209907  0.85134232  1
  O  O305  1  0.90085741  0.24669615  0.11210941  1
  O  O306  1  0.87173951  0.24339139  0.40040216  1
  O  O307  1  0.88179950  0.23755856  0.61080824  1
  O  O308  1  0.89633189  0.23660618  0.87867804  1
  O  O309  1  0.88159515  0.50281336  0.15454589  1
  O  O310  1  0.86691857  0.50784198  0.35149147  1
  O  O311  1  0.84466197  0.50751666  0.62730461  1
  O  O312  1  0.86895781  0.50107204  0.86193564  1
  O  O313  1  0.91355561  0.74426756  0.10678126  1
  O  O314  1  0.90557468  0.74968250  0.37507707  1
  O  O315  1  0.88476031  0.74658617  0.63298033  1
  O  O316  1  0.86746865  0.75542957  0.89889191  1
