# generated using pymatgen
data_Mg32Ti42(Bi17O64)3
_symmetry_space_group_name_H-M   'P 1'
_cell_length_a   15.95552935
_cell_length_b   15.96408428
_cell_length_c   15.91198785
_cell_angle_alpha   89.98384652
_cell_angle_beta   89.89168125
_cell_angle_gamma   90.08438121
_symmetry_Int_Tables_number   1
_chemical_formula_structural   Mg32Ti42(Bi17O64)3
_chemical_formula_sum   'Mg32 Ti42 Bi51 O192'
_cell_volume   4053.01679029
_cell_formula_units_Z   1
loop_
 _symmetry_equiv_pos_site_id
 _symmetry_equiv_pos_as_xyz
  1  'x, y, z'
loop_
 _atom_site_type_symbol
 _atom_site_label
 _atom_site_symmetry_multiplicity
 _atom_site_fract_x
 _atom_site_fract_y
 _atom_site_fract_z
 _atom_site_occupancy
  Mg  Mg0  1  0.11435618  0.13299015  0.62581617  1
  Mg  Mg1  1  0.37201129  0.38039546  0.12939291  1
  Mg  Mg2  1  0.37763855  0.63412203  0.62230465  1
  Mg  Mg3  1  0.62010917  0.61976261  0.61758954  1
  Mg  Mg4  1  0.12026333  0.87591427  0.38043217  1
  Mg  Mg5  1  0.37176902  0.13006114  0.87747478  1
  Mg  Mg6  1  0.12768778  0.61510923  0.37353591  1
  Mg  Mg7  1  0.12389479  0.37926884  0.12089160  1
  Mg  Mg8  1  0.63136152  0.11185544  0.38282497  1
  Mg  Mg9  1  0.86476611  0.11676640  0.62063371  1
  Mg  Mg10  1  0.62905941  0.37657068  0.12378366  1
  Mg  Mg11  1  0.11765684  0.62385754  0.88185872  1
  Mg  Mg12  1  0.12880262  0.87815116  0.87473628  1
  Mg  Mg13  1  0.36646425  0.87285162  0.12679254  1
  Mg  Mg14  1  0.88117955  0.36784385  0.86812840  1
  Mg  Mg15  1  0.11944408  0.14222718  0.87362377  1
  Mg  Mg16  1  0.37595382  0.87580769  0.37155372  1
  Mg  Mg17  1  0.37489832  0.13592005  0.36893062  1
  Mg  Mg18  1  0.12013137  0.62270326  0.62510520  1
  Mg  Mg19  1  0.72620646  0.52327845  0.74743504  1
  Mg  Mg20  1  0.76053695  0.78110625  0.01350054  1
  Mg  Mg21  1  0.28825982  0.51173826  0.76167518  1
  Mg  Mg22  1  -0.01145056  0.21680513  0.72322318  1
  Mg  Mg23  1  0.70353627  0.54636173  0.24785185  1
  Mg  Mg24  1  0.69341829  -0.01987330  0.54999471  1
  Mg  Mg25  1  0.55906577  0.24586996  0.25216127  1
  Mg  Mg26  1  0.02215742  0.77612889  0.00006918  1
  Mg  Mg27  1  0.74973234  -0.01482054  0.28152689  1
  Mg  Mg28  1  0.79453841  0.30199823  0.49640303  1
  Mg  Mg29  1  0.30504697  0.20370775  0.52014562  1
  Mg  Mg30  1  0.22168124  0.51455072  0.21651291  1
  Mg  Mg31  1  -0.03284176  0.26549755  -0.00122006  1
  Ti  Ti32  1  0.88433663  0.87539025  0.64113872  1
  Ti  Ti33  1  0.11506830  0.37869473  0.63691193  1
  Ti  Ti34  1  0.88147205  0.88775649  0.12989975  1
  Ti  Ti35  1  0.12438642  0.37771472  0.38326084  1
  Ti  Ti36  1  0.62596102  0.63964280  0.37765352  1
  Ti  Ti37  1  0.88306937  0.12911597  0.12312006  1
  Ti  Ti38  1  0.12123515  0.37581555  0.86713703  1
  Ti  Ti39  1  0.86994722  0.64358194  0.89462375  1
  Ti  Ti40  1  0.89040282  0.13118253  0.88436310  1
  Ti  Ti41  1  0.62674561  0.61771208  0.87880968  1
  Ti  Ti42  1  0.86827479  0.63398836  0.11892303  1
  Ti  Ti43  1  0.61822707  0.87822204  0.36834742  1
  Ti  Ti44  1  0.87276187  0.36396505  0.64961705  1
  Ti  Ti45  1  0.37010056  0.12778457  0.13547754  1
  Ti  Ti46  1  0.37924676  0.37199774  0.86905808  1
  Ti  Ti47  1  0.86379118  0.10487400  0.39196913  1
  Ti  Ti48  1  0.37978092  0.36667513  0.37957054  1
  Ti  Ti49  1  0.63015947  0.12101039  0.12046745  1
  Ti  Ti50  1  0.36527233  0.61904521  0.11979028  1
  Ti  Ti51  1  0.38671936  0.62827789  0.87300847  1
  Ti  Ti52  1  0.13325386  0.13576282  0.13173528  1
  Ti  Ti53  1  0.12036395  0.87553240  0.12629363  1
  Ti  Ti54  1  0.35454088  0.60783290  0.35664050  1
  Ti  Ti55  1  0.63773523  0.37315638  0.63335585  1
  Ti  Ti56  1  0.63130006  0.13050591  0.62067910  1
  Ti  Ti57  1  0.87301482  0.87036035  0.37510334  1
  Ti  Ti58  1  0.63235503  0.85192586  0.88734723  1
  Ti  Ti59  1  0.12518956  0.86851347  0.62491505  1
  Ti  Ti60  1  0.87641080  0.88236471  0.88443504  1
  Ti  Ti61  1  0.62885454  0.88349163  0.12485125  1
  Ti  Ti62  1  0.37262388  0.87909840  0.86607666  1
  Ti  Ti63  1  0.87521201  0.39626035  0.36456237  1
  Ti  Ti64  1  0.61622999  0.12272451  0.87695230  1
  Ti  Ti65  1  0.63631105  0.38248169  0.37153038  1
  Ti  Ti66  1  0.12854130  0.13288021  0.38227889  1
  Ti  Ti67  1  0.11164965  0.62973196  0.11696286  1
  Ti  Ti68  1  0.36110321  0.87100565  0.63022523  1
  Ti  Ti69  1  0.86784511  0.62848496  0.36044208  1
  Ti  Ti70  1  0.39500446  0.37903663  0.61992316  1
  Ti  Ti71  1  0.62425841  0.36919695  0.87137188  1
  Ti  Ti72  1  0.63412067  0.63101571  0.10988680  1
  Ti  Ti73  1  0.87927032  0.37504134  0.12674231  1
  Bi  Bi74  1  0.49214843  0.52564851  0.73491417  1
  Bi  Bi75  1  0.77504355  0.71777984  0.73733449  1
  Bi  Bi76  1  0.00127565  0.52101258  0.23068421  1
  Bi  Bi77  1  0.23787386  0.25403774  -0.00608147  1
  Bi  Bi78  1  0.49514950  0.25040355  0.02637557  1
  Bi  Bi79  1  -0.01146414  0.48744652  -0.02124149  1
  Bi  Bi80  1  0.23894979  -0.01244270  0.25664834  1
  Bi  Bi81  1  0.75595453  0.21527792  0.76041885  1
  Bi  Bi82  1  0.00842057  0.49115928  0.50580590  1
  Bi  Bi83  1  0.47528115  0.76079981  0.00047422  1
  Bi  Bi84  1  0.77387595  0.23202134  0.28011526  1
  Bi  Bi85  1  0.27288322  0.04739603  0.71979868  1
  Bi  Bi86  1  0.75361487  0.25383975  0.00067532  1
  Bi  Bi87  1  -0.04089156  0.52880244  0.73186115  1
  Bi  Bi88  1  0.02835135  0.00304326  0.76076894  1
  Bi  Bi89  1  0.47747518  0.02143192  0.51075865  1
  Bi  Bi90  1  0.00562877  0.01370636  0.01510101  1
  Bi  Bi91  1  0.75093205  0.47309331  -0.00573784  1
  Bi  Bi92  1  0.01112844  0.26772696  0.25575082  1
  Bi  Bi93  1  -0.04064936  0.71220468  0.51410242  1
  Bi  Bi94  1  0.50693806  0.78587157  0.51568251  1
  Bi  Bi95  1  0.01529801  0.74720567  0.26636765  1
  Bi  Bi96  1  0.48998821  0.47862529  0.00583617  1
  Bi  Bi97  1  0.27063605  0.25954839  0.72012992  1
  Bi  Bi98  1  0.00138804  -0.00185146  0.28337062  1
  Bi  Bi99  1  0.74048095  0.79103347  0.52426360  1
  Bi  Bi100  1  0.26015739  0.76149153  0.26546708  1
  Bi  Bi101  1  0.76531521  0.53241000  0.54154690  1
  Bi  Bi102  1  0.26321814  0.00572208  0.47318799  1
  Bi  Bi103  1  0.22869716  0.71439837  0.74799027  1
  Bi  Bi104  1  0.51208838  0.47563970  0.24356306  1
  Bi  Bi105  1  0.49088119  0.74704496  0.22402524  1
  Bi  Bi106  1  0.24302788  0.49139872  -0.02748326  1
  Bi  Bi107  1  0.23331155  0.01865686  -0.02966214  1
  Bi  Bi108  1  0.50314985  0.02707912  0.26327519  1
  Bi  Bi109  1  0.53588786  0.76331585  0.72913592  1
  Bi  Bi110  1  0.24555405  0.29517126  0.24897478  1
  Bi  Bi111  1  0.49160523  0.21782514  0.73928072  1
  Bi  Bi112  1  -0.00308282  0.00765642  0.53230157  1
  Bi  Bi113  1  0.53036543  0.27109174  0.48372356  1
  Bi  Bi114  1  0.23804139  0.75803275  -0.01878983  1
  Bi  Bi115  1  0.00965366  0.75142760  0.78351911  1
  Bi  Bi116  1  0.48282918  0.52220625  0.48306155  1
  Bi  Bi117  1  0.46331735  0.00390973  0.01159490  1
  Bi  Bi118  1  0.22825274  0.74997933  0.48948395  1
  Bi  Bi119  1  0.24974757  0.51331738  0.53726629  1
  Bi  Bi120  1  0.73787944  0.76740619  0.23987256  1
  Bi  Bi121  1  0.72243335  -0.02859445  0.74861236  1
  Bi  Bi122  1  0.75122050  0.00180413  -0.01596514  1
  Bi  Bi123  1  0.49927113  -0.00952554  0.72605375  1
  Bi  Bi124  1  0.00205032  0.24095853  0.51216020  1
  O  O125  1  0.15641932  0.13184405  0.00282903  1
  O  O126  1  0.10790098  0.12794767  0.24574022  1
  O  O127  1  0.10600173  0.12597830  0.49596786  1
  O  O128  1  0.08345539  0.13179739  0.75259366  1
  O  O129  1  0.16784869  0.37773474  -0.00078605  1
  O  O130  1  0.11561527  0.36305587  0.25344322  1
  O  O131  1  0.09554373  0.36747123  0.50014015  1
  O  O132  1  0.10051024  0.38901534  0.75361293  1
  O  O133  1  0.15004334  0.64692920  0.00561033  1
  O  O134  1  0.10072813  0.62904102  0.24583958  1
  O  O135  1  0.17021686  0.62242483  0.49754007  1
  O  O136  1  0.10715732  0.64064078  0.75362825  1
  O  O137  1  0.13394929  0.84561784  0.00219339  1
  O  O138  1  0.09651729  0.87950146  0.24219569  1
  O  O139  1  0.14445100  0.87523934  0.50540734  1
  O  O140  1  0.10274372  0.87852856  0.74976004  1
  O  O141  1  0.35590044  0.09265984  -0.00133990  1
  O  O142  1  0.40813441  0.14075389  0.24500512  1
  O  O143  1  0.36503217  0.09608604  0.49978703  1
  O  O144  1  0.36498235  0.14822935  0.75112253  1
  O  O145  1  0.36232724  0.41026009  -0.00796332  1
  O  O146  1  0.38012600  0.34862021  0.26366393  1
  O  O147  1  0.37573606  0.40959528  0.50783345  1
  O  O148  1  0.38375178  0.34668434  0.75181455  1
  O  O149  1  0.36933500  0.60976401  -0.00395290  1
  O  O150  1  0.39369454  0.63844682  0.24651258  1
  O  O151  1  0.36117485  0.59437162  0.49152560  1
  O  O152  1  0.41774454  0.64343656  0.75076645  1
  O  O153  1  0.38541608  0.87857378  -0.00252689  1
  O  O154  1  0.38266618  0.83904076  0.24922493  1
  O  O155  1  0.36347040  0.90891875  0.50006941  1
  O  O156  1  0.38441251  0.85483670  0.74907659  1
  O  O157  1  0.63243164  0.11038287  -0.00493091  1
  O  O158  1  0.59343880  0.12861273  0.23870867  1
  O  O159  1  0.63871692  0.08711621  0.51113806  1
  O  O160  1  0.62370893  0.15947579  0.75444169  1
  O  O161  1  0.62387961  0.40984554  -0.00697815  1
  O  O162  1  0.60490940  0.36088713  0.25057908  1
  O  O163  1  0.62562121  0.37530659  0.49139652  1
  O  O164  1  0.63165653  0.35115856  0.74913781  1
  O  O165  1  0.65028351  0.59853689  -0.00124392  1
  O  O166  1  0.62307356  0.64992801  0.25423375  1
  O  O167  1  0.65922689  0.60192007  0.49271074  1
  O  O168  1  0.61069407  0.64946825  0.75545634  1
  O  O169  1  0.65921193  0.88100598  0.00765057  1
  O  O170  1  0.61542790  0.83896159  0.24490664  1
  O  O171  1  0.64064650  0.88928864  0.48672354  1
  O  O172  1  0.64301818  0.85163662  0.76421511  1
  O  O173  1  0.85981300  0.09511059  0.00043060  1
  O  O174  1  0.88177848  0.15461765  0.23686376  1
  O  O175  1  0.85326796  0.07715118  0.49835619  1
  O  O176  1  0.88864736  0.14572294  0.76332595  1
  O  O177  1  0.88064313  0.39752353  0.00029438  1
  O  O178  1  0.87039535  0.34004810  0.24521339  1
  O  O179  1  0.87263245  0.40147142  0.48145074  1
  O  O180  1  0.90376376  0.32024609  0.74967195  1
  O  O181  1  0.86374049  0.59641733  0.00234984  1
  O  O182  1  0.91355365  0.63844835  0.24019347  1
  O  O183  1  0.85328514  0.62394141  0.48357063  1
  O  O184  1  0.90044040  0.65548452  0.76705457  1
  O  O185  1  0.84026187  0.89093980  0.00638211  1
  O  O186  1  0.90762807  0.85471442  0.23739540  1
  O  O187  1  0.85695057  0.86977650  0.48919219  1
  O  O188  1  0.88232797  0.85477997  0.75911503  1
  O  O189  1  0.00269401  0.13506060  0.10158659  1
  O  O190  1  -0.01395036  0.10278581  0.37933653  1
  O  O191  1  -0.01319065  0.13025508  0.60325286  1
  O  O192  1  -0.00254856  0.15436355  0.91575846  1
  O  O193  1  -0.00348299  0.34532165  0.11565130  1
  O  O194  1  -0.01322877  0.35869185  0.36160788  1
  O  O195  1  -0.02384796  0.41365278  0.62181022  1
  O  O196  1  0.01384886  0.35717669  0.91343988  1
  O  O197  1  -0.00240591  0.61129543  0.10528142  1
  O  O198  1  -0.00232543  0.63845890  0.39879707  1
  O  O199  1  -0.00399142  0.61084849  0.59559513  1
  O  O200  1  -0.00461195  0.67348110  0.90586499  1
  O  O201  1  -0.00802508  0.87557113  0.08136626  1
  O  O202  1  -0.00585766  0.89539692  0.38335703  1
  O  O203  1  -0.00241727  0.85915287  0.60837952  1
  O  O204  1  -0.01020414  0.84747259  0.89649088  1
  O  O205  1  0.25301100  0.11278817  0.14910787  1
  O  O206  1  0.24335509  0.14048703  0.39654238  1
  O  O207  1  0.23813994  0.14906201  0.62710767  1
  O  O208  1  0.24635616  0.09718886  0.85973424  1
  O  O209  1  0.25295253  0.40147014  0.16471671  1
  O  O210  1  0.24314722  0.37211391  0.37170111  1
  O  O211  1  0.22932268  0.36971119  0.63376725  1
  O  O212  1  0.25702121  0.41854469  0.85171401  1
  O  O213  1  0.25348451  0.61141935  0.13996773  1
  O  O214  1  0.25005393  0.57967642  0.32640507  1
  O  O215  1  0.25436145  0.60029314  0.65544593  1
  O  O216  1  0.26515507  0.61121222  0.84205180  1
  O  O217  1  0.23728822  0.87038947  0.14495462  1
  O  O218  1  0.24569350  0.87567589  0.34051443  1
  O  O219  1  0.24661199  0.88548063  0.64290835  1
  O  O220  1  0.25909850  0.88780967  0.87957616  1
  O  O221  1  0.49254555  0.12605625  0.09098616  1
  O  O222  1  0.49941366  0.09297641  0.38937635  1
  O  O223  1  0.50796101  0.11335901  0.64255031  1
  O  O224  1  0.49969041  0.14562415  0.86483025  1
  O  O225  1  0.49806190  0.37474620  0.10245275  1
  O  O226  1  0.50014430  0.36968136  0.38557931  1
  O  O227  1  0.50866883  0.37484074  0.61856147  1
  O  O228  1  0.49933448  0.37780182  0.88925404  1
  O  O229  1  0.52062711  0.65325508  0.10885941  1
  O  O230  1  0.51130365  0.63204631  0.39831617  1
  O  O231  1  0.49791411  0.59598022  0.60596395  1
  O  O232  1  0.51158482  0.62763506  0.89756061  1
  O  O233  1  0.51576437  0.84627275  0.11265361  1
  O  O234  1  0.50252386  0.87853237  0.38561270  1
  O  O235  1  0.49342041  0.88172610  0.61745695  1
  O  O236  1  0.51636413  0.85374652  0.88611002  1
  O  O237  1  0.74356289  0.12095350  0.12883121  1
  O  O238  1  0.75108250  0.10570904  0.34210617  1
  O  O239  1  0.74729904  0.12178404  0.65520047  1
  O  O240  1  0.74874777  0.12545859  0.86524875  1
  O  O241  1  0.75377293  0.36974164  0.09795933  1
  O  O242  1  0.75165745  0.36474554  0.37223413  1
  O  O243  1  0.75355992  0.35720849  0.60818495  1
  O  O244  1  0.74972384  0.37536582  0.89113516  1
  O  O245  1  0.76011298  0.60411472  0.14955467  1
  O  O246  1  0.75672424  0.61455942  0.34070387  1
  O  O247  1  0.74485854  0.61675786  0.65109879  1
  O  O248  1  0.76207836  0.60971583  0.84219284  1
  O  O249  1  0.75282891  0.89453886  0.16589616  1
  O  O250  1  0.75231935  0.87204733  0.34508350  1
  O  O251  1  0.75900757  0.89642570  0.61919990  1
  O  O252  1  0.75179266  0.90295077  0.87287537  1
  O  O253  1  0.11476132  -0.00314441  0.10632853  1
  O  O254  1  0.13583887  0.00676093  0.35768354  1
  O  O255  1  0.10061268  -0.00078936  0.63098817  1
  O  O256  1  0.09981289  0.00147075  0.89050382  1
  O  O257  1  0.15161755  0.24943005  0.12464783  1
  O  O258  1  0.10528361  0.24718954  0.36870389  1
  O  O259  1  0.07198828  0.26424415  0.63303052  1
  O  O260  1  0.16309662  0.26441585  0.87264493  1
  O  O261  1  0.11847146  0.50672043  0.13603475  1
  O  O262  1  0.10265127  0.48966379  0.37945059  1
  O  O263  1  0.11661803  0.49632785  0.60266555  1
  O  O264  1  0.11237666  0.49932109  0.89732504  1
  O  O265  1  0.08902177  0.75016843  0.13221264  1
  O  O266  1  0.14925766  0.74592225  0.37345995  1
  O  O267  1  0.14087365  0.75055914  0.62695721  1
  O  O268  1  0.15692888  0.74960890  0.86771053  1
  O  O269  1  0.39206592  -0.00109679  0.13392608  1
  O  O270  1  0.34156739  0.00552805  0.35278548  1
  O  O271  1  0.38198792  -0.00464159  0.64847012  1
  O  O272  1  0.40206567  -0.00861670  0.86122029  1
  O  O273  1  0.37209045  0.24572637  0.10088686  1
  O  O274  1  0.37518136  0.25562357  0.42024200  1
  O  O275  1  0.36291461  0.26418603  0.61351972  1
  O  O276  1  0.35896894  0.26208698  0.89966260  1
  O  O277  1  0.40820467  0.50871625  0.13379687  1
  O  O278  1  0.40038457  0.49732864  0.35904007  1
  O  O279  1  0.37180273  0.48871213  0.66518923  1
  O  O280  1  0.39592002  0.50679360  0.84240803  1
  O  O281  1  0.37873986  0.74133526  0.10799297  1
  O  O282  1  0.33389275  0.73023278  0.38318939  1
  O  O283  1  0.38173818  0.75789506  0.59289780  1
  O  O284  1  0.37175859  0.74654213  0.89012795  1
  O  O285  1  0.60701752  -0.00410264  0.13254349  1
  O  O286  1  0.63050520  -0.01160296  0.33255279  1
  O  O287  1  0.62414050  0.00300866  0.65504609  1
  O  O288  1  0.61950198  0.00891447  0.84972549  1
  O  O289  1  0.60846218  0.24365236  0.11791314  1
  O  O290  1  0.61347857  0.24241447  0.37416935  1
  O  O291  1  0.61901844  0.24417304  0.60175685  1
  O  O292  1  0.62829722  0.25743174  0.89816646  1
  O  O293  1  0.62076967  0.50847393  0.15560188  1
  O  O294  1  0.62634103  0.49690088  0.34330144  1
  O  O295  1  0.64626498  0.48840551  0.64475450  1
  O  O296  1  0.63339440  0.50425240  0.84240397  1
  O  O297  1  0.67262432  0.74592611  0.10699525  1
  O  O298  1  0.63799847  0.75139048  0.39544731  1
  O  O299  1  0.60600230  0.74590038  0.60756873  1
  O  O300  1  0.65383866  0.74271096  0.90420017  1
  O  O301  1  0.89495883  0.00340791  0.13768452  1
  O  O302  1  0.86537616  -0.00898228  0.33668486  1
  O  O303  1  0.90174523  -0.00812445  0.64102290  1
  O  O304  1  0.89485831  -0.00304617  0.87260590  1
  O  O305  1  0.86900160  0.24318753  0.08555746  1
  O  O306  1  0.84868058  0.22967484  0.39872210  1
  O  O307  1  0.87887157  0.25708024  0.58771190  1
  O  O308  1  0.86443209  0.24644265  0.91296178  1
  O  O309  1  0.89022563  0.48681503  0.14649145  1
  O  O310  1  0.88872048  0.50549507  0.34233862  1
  O  O311  1  0.83742544  0.47640624  0.69620318  1
  O  O312  1  0.91358737  0.50117747  0.86300310  1
  O  O313  1  0.85488548  0.74598121  0.10207782  1
  O  O314  1  0.87433771  0.74940745  0.36612533  1
  O  O315  1  0.84972767  0.75639532  0.61892396  1
  O  O316  1  0.83790656  0.75194875  0.90975229  1
