# generated using pymatgen
data_Mg32Ti42(Bi17O64)3
_symmetry_space_group_name_H-M   'P 1'
_cell_length_a   15.91319177
_cell_length_b   15.93141590
_cell_length_c   15.95366031
_cell_angle_alpha   90.10993263
_cell_angle_beta   90.01937176
_cell_angle_gamma   89.94887984
_symmetry_Int_Tables_number   1
_chemical_formula_structural   Mg32Ti42(Bi17O64)3
_chemical_formula_sum   'Mg32 Ti42 Bi51 O192'
_cell_volume   4044.55751766
_cell_formula_units_Z   1
loop_
 _symmetry_equiv_pos_site_id
 _symmetry_equiv_pos_as_xyz
  1  'x, y, z'
loop_
 _atom_site_type_symbol
 _atom_site_label
 _atom_site_symmetry_multiplicity
 _atom_site_fract_x
 _atom_site_fract_y
 _atom_site_fract_z
 _atom_site_occupancy
  Mg  Mg0  1  0.11842105  0.37774584  0.61986128  1
  Mg  Mg1  1  0.61933789  0.87873553  0.61715907  1
  Mg  Mg2  1  0.88273621  0.13206490  0.62347224  1
  Mg  Mg3  1  0.36803697  0.87757369  0.37647150  1
  Mg  Mg4  1  0.62060185  0.62705133  0.61933460  1
  Mg  Mg5  1  0.86905742  0.87176199  0.12967869  1
  Mg  Mg6  1  0.11943089  0.62944398  0.61909479  1
  Mg  Mg7  1  0.87962575  0.62712216  0.87658445  1
  Mg  Mg8  1  0.38138154  0.38006259  0.86840780  1
  Mg  Mg9  1  0.61919525  0.62650893  0.87301814  1
  Mg  Mg10  1  0.87384482  0.86995945  0.62177977  1
  Mg  Mg11  1  0.87025440  0.86695895  0.87161737  1
  Mg  Mg12  1  0.87741150  0.12368621  0.12197749  1
  Mg  Mg13  1  0.86561536  0.61095139  0.36747352  1
  Mg  Mg14  1  0.87640675  0.63387298  0.62311118  1
  Mg  Mg15  1  0.12724659  0.12773123  0.37773207  1
  Mg  Mg16  1  0.88150260  0.36502716  0.86653791  1
  Mg  Mg17  1  0.62168254  0.12965223  0.38082848  1
  Mg  Mg18  1  0.12099865  0.88189114  0.62016607  1
  Mg  Mg19  1  0.76751798  0.44978310  0.24503286  1
  Mg  Mg20  1  0.77395658  0.49450825  0.52043603  1
  Mg  Mg21  1  0.76717910  -0.00069346  0.56443174  1
  Mg  Mg22  1  0.46435858  0.50147719  0.49801615  1
  Mg  Mg23  1  -0.02844620  0.75650243  0.51175527  1
  Mg  Mg24  1  0.00513284  0.28981810  0.47237215  1
  Mg  Mg25  1  0.50827058  0.28340224  0.49070076  1
  Mg  Mg26  1  -0.04353436  -0.03270809  0.00363518  1
  Mg  Mg27  1  0.22802646  -0.00433703  0.46371280  1
  Mg  Mg28  1  0.27333619  -0.00426450  0.23819574  1
  Mg  Mg29  1  0.77050556  0.69352029  0.49831340  1
  Mg  Mg30  1  0.48305457  0.76797018  -0.04962971  1
  Mg  Mg31  1  0.74748865  0.75800029  0.66661026  1
  Ti  Ti32  1  0.37207120  0.12914054  0.61132774  1
  Ti  Ti33  1  0.13468835  0.10488834  0.13917939  1
  Ti  Ti34  1  0.37235402  0.63276682  0.86292781  1
  Ti  Ti35  1  0.12559622  0.62691305  0.88011510  1
  Ti  Ti36  1  0.12964039  0.36989522  0.12623702  1
  Ti  Ti37  1  0.12175923  0.38615021  0.36629590  1
  Ti  Ti38  1  0.87404423  0.37786618  0.38099812  1
  Ti  Ti39  1  0.63307656  0.61036775  0.11197976  1
  Ti  Ti40  1  0.62442674  0.38349356  0.85860143  1
  Ti  Ti41  1  0.88157388  0.11739919  0.87716147  1
  Ti  Ti42  1  0.12701186  0.37330905  0.87318954  1
  Ti  Ti43  1  0.62044053  0.85926354  0.87669634  1
  Ti  Ti44  1  0.36855131  0.88249841  0.86851413  1
  Ti  Ti45  1  0.37931663  0.12138807  0.12307501  1
  Ti  Ti46  1  0.61570111  0.12816122  0.60192840  1
  Ti  Ti47  1  0.11945700  0.89159217  0.36602415  1
  Ti  Ti48  1  0.62173686  0.85917363  0.11857029  1
  Ti  Ti49  1  0.62930400  0.87526417  0.37043611  1
  Ti  Ti50  1  0.11999976  0.86271301  0.12654089  1
  Ti  Ti51  1  0.63118271  0.37637075  0.11983107  1
  Ti  Ti52  1  0.12453723  0.12132194  0.60753441  1
  Ti  Ti53  1  0.87331249  0.61984494  0.12393563  1
  Ti  Ti54  1  0.64589034  0.60013844  0.38666587  1
  Ti  Ti55  1  0.89216003  0.36950527  0.62213732  1
  Ti  Ti56  1  0.37066710  0.12215459  0.87267354  1
  Ti  Ti57  1  0.87551016  0.35615951  0.12041830  1
  Ti  Ti58  1  0.11651926  0.62225882  0.12948685  1
  Ti  Ti59  1  0.37662506  0.38192098  0.37815439  1
  Ti  Ti60  1  0.62244323  0.13779473  0.12734544  1
  Ti  Ti61  1  0.63503145  0.38164070  0.38199807  1
  Ti  Ti62  1  0.86131152  0.88333354  0.38118727  1
  Ti  Ti63  1  0.12750395  0.87444497  0.88958352  1
  Ti  Ti64  1  0.36735297  0.63000033  0.62063698  1
  Ti  Ti65  1  0.37653303  0.37019952  0.12953785  1
  Ti  Ti66  1  0.11418862  0.63206324  0.37385344  1
  Ti  Ti67  1  0.62452409  0.39112322  0.60945532  1
  Ti  Ti68  1  0.36688616  0.62774733  0.38471980  1
  Ti  Ti69  1  0.38449065  0.88561617  0.12379423  1
  Ti  Ti70  1  0.37570685  0.38232655  0.62263511  1
  Ti  Ti71  1  0.36797408  0.88950041  0.61828018  1
  Ti  Ti72  1  0.36556999  0.11475691  0.38043127  1
  Ti  Ti73  1  0.87951357  0.11839996  0.37264391  1
  Bi  Bi74  1  -0.02509722  -0.01446002  0.75028460  1
  Bi  Bi75  1  -0.02805281  0.50468608  0.75513330  1
  Bi  Bi76  1  0.74498068  0.23919462  0.26058997  1
  Bi  Bi77  1  0.49401166  0.02405743  0.74207120  1
  Bi  Bi78  1  0.52218369  0.01454808  -0.02069209  1
  Bi  Bi79  1  -0.00329787  0.75277420  -0.00939434  1
  Bi  Bi80  1  0.74668672  0.01469297  -0.00017978  1
  Bi  Bi81  1  0.22714378  0.77645677  0.48737080  1
  Bi  Bi82  1  0.50475820  0.52152272  0.73332753  1
  Bi  Bi83  1  0.77556761  0.22819485  0.49826408  1
  Bi  Bi84  1  0.23184538  0.50807578  0.48649031  1
  Bi  Bi85  1  0.23326817  0.27025490  0.48495653  1
  Bi  Bi86  1  0.48929644  0.70809452  0.22712345  1
  Bi  Bi87  1  0.29217652  0.73122775  0.02995542  1
  Bi  Bi88  1  0.24805132  0.49771980  -0.02183408  1
  Bi  Bi89  1  0.51341936  -0.00219460  0.25880282  1
  Bi  Bi90  1  -0.02182099  0.74990856  0.27966497  1
  Bi  Bi91  1  0.49805838  0.23740882  0.26768398  1
  Bi  Bi92  1  0.22364930  0.01607534  0.74080653  1
  Bi  Bi93  1  0.25889340  0.25352107  -0.02073187  1
  Bi  Bi94  1  0.76616150  0.49840155  -0.03697756  1
  Bi  Bi95  1  -0.00131358  0.47936750  -0.00141792  1
  Bi  Bi96  1  0.51948625  -0.02117831  0.48640598  1
  Bi  Bi97  1  0.77289637  0.76571088  0.00873409  1
  Bi  Bi98  1  0.50475929  0.26973407  0.72894167  1
  Bi  Bi99  1  -0.01903277  -0.01549597  0.51273608  1
  Bi  Bi100  1  -0.01343030  0.53390439  0.50810600  1
  Bi  Bi101  1  0.52182944  0.73179127  0.46639344  1
  Bi  Bi102  1  0.24461477  0.76364400  0.73605895  1
  Bi  Bi103  1  -0.02064304  -0.01472574  0.23352613  1
  Bi  Bi104  1  0.22294082  0.51038918  0.72861559  1
  Bi  Bi105  1  0.72110129  0.19963907  0.75234514  1
  Bi  Bi106  1  0.73075453  0.72298252  0.25208934  1
  Bi  Bi107  1  0.50720807  0.76576437  0.72347508  1
  Bi  Bi108  1  0.48169988  0.54267993  -0.00115224  1
  Bi  Bi109  1  0.02639944  0.20271748  -0.01196881  1
  Bi  Bi110  1  0.25662197  0.22992329  0.24248725  1
  Bi  Bi111  1  0.49597383  0.26193505  -0.02209800  1
  Bi  Bi112  1  0.01840148  0.75817190  0.74671501  1
  Bi  Bi113  1  0.01220827  0.21384573  0.75215452  1
  Bi  Bi114  1  0.23760253  0.25072052  0.71940132  1
  Bi  Bi115  1  0.73453733  0.00156787  0.22381893  1
  Bi  Bi116  1  0.27264294  0.76396427  0.24516763  1
  Bi  Bi117  1  0.00386231  0.22115378  0.24801391  1
  Bi  Bi118  1  0.73990846  0.24725552  -0.04094500  1
  Bi  Bi119  1  0.22557558  0.01883400  -0.01955294  1
  Bi  Bi120  1  -0.02607786  0.48435187  0.23953222  1
  Bi  Bi121  1  0.27450020  0.52709337  0.21277941  1
  Bi  Bi122  1  0.75497905  0.54315771  0.74759730  1
  Bi  Bi123  1  0.72531689  -0.02751269  0.76613854  1
  Bi  Bi124  1  0.51321345  0.48384285  0.25289569  1
  O  O125  1  0.10869151  0.09730361  0.02258180  1
  O  O126  1  0.13714022  0.15600819  0.25275462  1
  O  O127  1  0.14413954  0.08986124  0.49799945  1
  O  O128  1  0.13919075  0.14795100  0.74054013  1
  O  O129  1  0.12719416  0.40493931  0.01052423  1
  O  O130  1  0.11954654  0.35991901  0.25322217  1
  O  O131  1  0.15002979  0.39448661  0.49491355  1
  O  O132  1  0.13360169  0.35069193  0.75877231  1
  O  O133  1  0.12139070  0.61646493  0.01081143  1
  O  O134  1  0.12411702  0.64896941  0.26055147  1
  O  O135  1  0.12418449  0.59096216  0.49623295  1
  O  O136  1  0.15347388  0.63100671  0.76247722  1
  O  O137  1  0.14493953  0.88162014  0.00716925  1
  O  O138  1  0.09618357  0.86164825  0.25412601  1
  O  O139  1  0.15601025  0.89585446  0.49563227  1
  O  O140  1  0.08827990  0.87270309  0.76308525  1
  O  O141  1  0.39341301  0.13091812  0.00948103  1
  O  O142  1  0.33859553  0.11119140  0.25222958  1
  O  O143  1  0.38467278  0.13076383  0.49834976  1
  O  O144  1  0.36733194  0.10997857  0.75839569  1
  O  O145  1  0.39625085  0.35197188  0.01501039  1
  O  O146  1  0.39180087  0.39629184  0.25692614  1
  O  O147  1  0.39571468  0.37597836  0.49955186  1
  O  O148  1  0.39745733  0.37391933  0.74177673  1
  O  O149  1  0.41440454  0.66292182  -0.00675562  1
  O  O150  1  0.37889182  0.61299486  0.26705210  1
  O  O151  1  0.39933831  0.62664327  0.50780297  1
  O  O152  1  0.35073504  0.60935671  0.75118488  1
  O  O153  1  0.37339131  0.84829532  0.00873882  1
  O  O154  1  0.34980595  0.88976970  0.24788124  1
  O  O155  1  0.33721143  0.87706800  0.50692770  1
  O  O156  1  0.38967139  0.89522926  0.75730438  1
  O  O157  1  0.61059910  0.13062960  0.01287307  1
  O  O158  1  0.62745952  0.09467259  0.24857029  1
  O  O159  1  0.58518781  0.16733479  0.49955046  1
  O  O160  1  0.63671232  0.09140199  0.73712431  1
  O  O161  1  0.62269956  0.34614126  0.01001099  1
  O  O162  1  0.63972476  0.41770724  0.26054813  1
  O  O163  1  0.62770648  0.34426238  0.49747068  1
  O  O164  1  0.60334560  0.39184011  0.74230587  1
  O  O165  1  0.60549680  0.62934269  0.00342702  1
  O  O166  1  0.64946843  0.60758608  0.26353141  1
  O  O167  1  0.64363652  0.65876904  0.49832617  1
  O  O168  1  0.62328529  0.59123934  0.74609061  1
  O  O169  1  0.61703776  0.83818532  0.00451038  1
  O  O170  1  0.62228158  0.90231699  0.24964569  1
  O  O171  1  0.60635385  0.86573316  0.48966401  1
  O  O172  1  0.60224610  0.90374111  0.76052462  1
  O  O173  1  0.90410320  0.08408764  -0.00440516  1
  O  O174  1  0.87117991  0.16454859  0.25588910  1
  O  O175  1  0.86726456  0.11453699  0.49220352  1
  O  O176  1  0.89176727  0.13661780  0.75202401  1
  O  O177  1  0.87613303  0.40289690  0.00881310  1
  O  O178  1  0.89894894  0.35930405  0.24492081  1
  O  O179  1  0.85674639  0.40371025  0.49242673  1
  O  O180  1  0.90915416  0.36686443  0.73758199  1
  O  O181  1  0.87382296  0.59394774  0.00954114  1
  O  O182  1  0.86835762  0.66647043  0.24770091  1
  O  O183  1  0.85249643  0.59196111  0.49414451  1
  O  O184  1  0.88881414  0.62382034  0.74846031  1
  O  O185  1  0.84196181  0.89706871  0.00059100  1
  O  O186  1  0.89693057  0.86010576  0.25704545  1
  O  O187  1  0.85223295  0.92636934  0.49252071  1
  O  O188  1  0.91261007  0.85614215  0.74670955  1
  O  O189  1  0.00744929  0.11214459  0.15822280  1
  O  O190  1  -0.00149963  0.12348152  0.35615791  1
  O  O191  1  0.01051526  0.14630009  0.62209328  1
  O  O192  1  0.00511511  0.13393045  0.86613281  1
  O  O193  1  0.00012721  0.40408909  0.12176604  1
  O  O194  1  0.00484860  0.39219336  0.38860691  1
  O  O195  1  -0.00173700  0.34950313  0.58295712  1
  O  O196  1  0.01077012  0.39108931  0.88571158  1
  O  O197  1  -0.00573699  0.60541577  0.14008269  1
  O  O198  1  -0.00237549  0.60551293  0.37783321  1
  O  O199  1  -0.00419137  0.65216988  0.58262815  1
  O  O200  1  0.01241759  0.60512476  0.87684116  1
  O  O201  1  0.00413545  0.91175893  0.11033161  1
  O  O202  1  0.00360548  0.91119383  0.39395660  1
  O  O203  1  -0.00320229  0.86376156  0.57836451  1
  O  O204  1  0.00119252  0.87964318  0.92077770  1
  O  O205  1  0.24673345  0.15031001  0.11850469  1
  O  O206  1  0.25991756  0.17165481  0.38096401  1
  O  O207  1  0.25503176  0.10919331  0.63142809  1
  O  O208  1  0.25351157  0.13439784  0.90369925  1
  O  O209  1  0.25340580  0.36098378  0.13103094  1
  O  O210  1  0.26268425  0.35858731  0.37204893  1
  O  O211  1  0.25800451  0.38800729  0.63218908  1
  O  O212  1  0.25554728  0.37018501  0.89722476  1
  O  O213  1  0.24215773  0.64259166  0.13923710  1
  O  O214  1  0.25279465  0.64143686  0.39518978  1
  O  O215  1  0.25077284  0.59651033  0.61447272  1
  O  O216  1  0.25785146  0.63417426  0.91056314  1
  O  O217  1  0.23996850  0.83981089  0.13652017  1
  O  O218  1  0.23795106  0.83874113  0.36602443  1
  O  O219  1  0.24874656  0.88861591  0.66421104  1
  O  O220  1  0.24718109  0.85206168  0.86472268  1
  O  O221  1  0.49580549  0.11272229  0.14860038  1
  O  O222  1  0.48501588  0.11640796  0.34454155  1
  O  O223  1  0.49622356  0.13514286  0.64933284  1
  O  O224  1  0.49147807  0.09055158  0.86997405  1
  O  O225  1  0.51228186  0.39022096  0.14361217  1
  O  O226  1  0.52216655  0.41345482  0.38463999  1
  O  O227  1  0.50097023  0.33440020  0.61101091  1
  O  O228  1  0.50834318  0.35790203  0.88120824  1
  O  O229  1  0.51634953  0.59872402  0.14562668  1
  O  O230  1  0.52470316  0.60582393  0.39398212  1
  O  O231  1  0.48911251  0.64139872  0.65422786  1
  O  O232  1  0.49071485  0.59835504  0.86120024  1
  O  O233  1  0.49802404  0.89825150  0.13006356  1
  O  O234  1  0.49182352  0.90327969  0.36936543  1
  O  O235  1  0.48470547  0.85754278  0.61515621  1
  O  O236  1  0.49105372  0.89083058  0.89907821  1
  O  O237  1  0.74417602  0.12300696  0.12889183  1
  O  O238  1  0.75216971  0.15089565  0.37274569  1
  O  O239  1  0.74021137  0.12158379  0.59696077  1
  O  O240  1  0.75980412  0.11976159  0.88993751  1
  O  O241  1  0.75641449  0.36155531  0.14535360  1
  O  O242  1  0.76023523  0.35120161  0.35087117  1
  O  O243  1  0.73519636  0.41947358  0.61658135  1
  O  O244  1  0.74780153  0.37063999  0.88447048  1
  O  O245  1  0.74909646  0.65207606  0.12072016  1
  O  O246  1  0.75167926  0.66271398  0.37866429  1
  O  O247  1  0.74837152  0.62883842  0.63679383  1
  O  O248  1  0.74821025  0.61474820  0.87055893  1
  O  O249  1  0.74125315  0.84527582  0.13265434  1
  O  O250  1  0.74856087  0.86685643  0.36318323  1
  O  O251  1  0.74569294  0.89352531  0.64615807  1
  O  O252  1  0.73653775  0.85369650  0.85383512  1
  O  O253  1  0.16479693  -0.00198149  0.16166535  1
  O  O254  1  0.16107524  -0.00334012  0.35164751  1
  O  O255  1  0.11413289  0.00683370  0.65132849  1
  O  O256  1  0.14624531  -0.01054779  0.87098826  1
  O  O257  1  0.10506717  0.25944968  0.11069229  1
  O  O258  1  0.11352345  0.25939256  0.41271565  1
  O  O259  1  0.15339068  0.24776277  0.60857204  1
  O  O260  1  0.13046859  0.26042339  0.91437712  1
  O  O261  1  0.14161988  0.50807080  0.14933295  1
  O  O262  1  0.15401611  0.49955709  0.36087696  1
  O  O263  1  0.10488868  0.50097355  0.65633589  1
  O  O264  1  0.15475382  0.49982290  0.86961252  1
  O  O265  1  0.09248260  0.75258302  0.12031685  1
  O  O266  1  0.09947166  0.74471701  0.41517742  1
  O  O267  1  0.13554653  0.75474267  0.64417862  1
  O  O268  1  0.10449388  0.74704446  0.87419221  1
  O  O269  1  0.34965875  0.00090966  0.12296955  1
  O  O270  1  0.33211973  0.00700357  0.38931419  1
  O  O271  1  0.39198059  0.00230411  0.62014268  1
  O  O272  1  0.34468401  -0.00376561  0.89422141  1
  O  O273  1  0.38405547  0.24718035  0.15277152  1
  O  O274  1  0.42422352  0.26812667  0.38107108  1
  O  O275  1  0.35584308  0.24559004  0.62806751  1
  O  O276  1  0.38267061  0.24179842  0.88441608  1
  O  O277  1  0.36021746  0.49044042  0.11111862  1
  O  O278  1  0.37430827  0.50359037  0.39930367  1
  O  O279  1  0.39774438  0.49845638  0.61453683  1
  O  O280  1  0.36860484  0.50500752  0.90652390  1
  O  O281  1  0.38468472  0.75764160  0.14824822  1
  O  O282  1  0.39931745  0.74336693  0.37594539  1
  O  O283  1  0.34611157  0.74636226  0.63521810  1
  O  O284  1  0.38888419  0.75098190  0.85765617  1
  O  O285  1  0.65072655  -0.01310560  0.10825578  1
  O  O286  1  0.61666480  0.00304164  0.39288142  1
  O  O287  1  0.62047586  0.00725900  0.58517094  1
  O  O288  1  0.63987582  -0.01851218  0.91304072  1
  O  O289  1  0.61951390  0.25069053  0.15366160  1
  O  O290  1  0.61525207  0.26204107  0.34396124  1
  O  O291  1  0.63353886  0.24528753  0.65655062  1
  O  O292  1  0.64238601  0.25006903  0.85553515  1
  O  O293  1  0.65205184  0.49539432  0.10501874  1
  O  O294  1  0.68278934  0.49526445  0.42135351  1
  O  O295  1  0.57548217  0.49513216  0.59215095  1
  O  O296  1  0.62631003  0.49040084  0.89479044  1
  O  O297  1  0.60382985  0.74471342  0.15133258  1
  O  O298  1  0.60039197  0.76240077  0.35360702  1
  O  O299  1  0.62512795  0.75650988  0.65463735  1
  O  O300  1  0.58201017  0.75008257  0.86367815  1
  O  O301  1  0.86490579  -0.00106420  0.15304620  1
  O  O302  1  0.86609989  0.00635504  0.34216383  1
  O  O303  1  0.88913780  0.00143951  0.63540822  1
  O  O304  1  0.87458719  -0.00466321  0.84904351  1
  O  O305  1  0.89118568  0.24873891  0.09944842  1
  O  O306  1  0.89606921  0.25965056  0.41198233  1
  O  O307  1  0.85115501  0.25864989  0.61136018  1
  O  O308  1  0.86945894  0.24133615  0.89659551  1
  O  O309  1  0.85539892  0.50847580  0.16468754  1
  O  O310  1  0.85810014  0.48981239  0.33483678  1
  O  O311  1  0.90007528  0.49715096  0.63163057  1
  O  O312  1  0.86717545  0.49375058  0.86058924  1
  O  O313  1  0.88807210  0.74951294  0.08991276  1
  O  O314  1  0.90293220  0.77092152  0.40323288  1
  O  O315  1  0.84311448  0.75467032  0.58321735  1
  O  O316  1  0.88334112  0.74758537  0.91025697  1
