# generated using pymatgen
data_Mg32Ti42(Bi17O64)3
_symmetry_space_group_name_H-M   'P 1'
_cell_length_a   15.93830823
_cell_length_b   15.94120990
_cell_length_c   15.97368055
_cell_angle_alpha   90.18634714
_cell_angle_beta   90.09304396
_cell_angle_gamma   90.01926011
_symmetry_Int_Tables_number   1
_chemical_formula_structural   Mg32Ti42(Bi17O64)3
_chemical_formula_sum   'Mg32 Ti42 Bi51 O192'
_cell_volume   4058.50047823
_cell_formula_units_Z   1
loop_
 _symmetry_equiv_pos_site_id
 _symmetry_equiv_pos_as_xyz
  1  'x, y, z'
loop_
 _atom_site_type_symbol
 _atom_site_label
 _atom_site_symmetry_multiplicity
 _atom_site_fract_x
 _atom_site_fract_y
 _atom_site_fract_z
 _atom_site_occupancy
  Mg  Mg0  1  0.12964044  0.12296730  0.37686245  1
  Mg  Mg1  1  0.37663232  0.12980289  0.12268017  1
  Mg  Mg2  1  0.86969928  0.87435593  0.37195803  1
  Mg  Mg3  1  0.63159434  0.88091256  0.87958793  1
  Mg  Mg4  1  0.86962823  0.35945439  0.61489765  1
  Mg  Mg5  1  0.12276222  0.12424352  0.62699636  1
  Mg  Mg6  1  0.12038525  0.37532519  0.37215918  1
  Mg  Mg7  1  0.36841560  0.61903849  0.12229830  1
  Mg  Mg8  1  0.37330187  0.88439547  0.87812773  1
  Mg  Mg9  1  0.87219047  0.62282105  0.12744497  1
  Mg  Mg10  1  0.62199080  0.12786038  0.62773525  1
  Mg  Mg11  1  0.38417782  0.37257227  0.61864867  1
  Mg  Mg12  1  0.12079855  0.12447024  0.11955738  1
  Mg  Mg13  1  0.12146467  0.87698636  0.61484729  1
  Mg  Mg14  1  0.87084686  0.13240055  0.38342573  1
  Mg  Mg15  1  0.36572789  0.38214050  0.37248989  1
  Mg  Mg16  1  0.37652032  0.37836980  0.87788393  1
  Mg  Mg17  1  0.87538256  0.37134563  0.87713307  1
  Mg  Mg18  1  0.12606365  0.38231092  0.62598102  1
  Mg  Mg19  1  0.22026869  0.50221218  0.02713185  1
  Mg  Mg20  1  0.24791235  0.73045012  0.45794104  1
  Mg  Mg21  1  0.52974314  0.07510549  0.20350307  1
  Mg  Mg22  1  0.72818335  0.20483293  0.07390419  1
  Mg  Mg23  1  0.67622939  0.28189022  0.26134672  1
  Mg  Mg24  1  0.73559295  0.28506342  0.44186578  1
  Mg  Mg25  1  0.00530401  0.77669847  -0.03774548  1
  Mg  Mg26  1  -0.00247851  -0.01609775  -0.03885767  1
  Mg  Mg27  1  0.21527595  0.75982932  0.70027884  1
  Mg  Mg28  1  0.68454298  0.48157142  0.49687939  1
  Mg  Mg29  1  0.71668134  0.24442172  0.72750084  1
  Mg  Mg30  1  -0.05407072  0.00397882  0.28559166  1
  Mg  Mg31  1  0.47357937  0.50779507  0.50576022  1
  Ti  Ti32  1  0.63749577  0.37190340  0.88177932  1
  Ti  Ti33  1  0.85922243  0.35985894  0.12726504  1
  Ti  Ti34  1  0.62068790  0.38355562  0.11733915  1
  Ti  Ti35  1  0.62153044  0.87000207  0.12502997  1
  Ti  Ti36  1  0.38206106  0.12803746  0.62488257  1
  Ti  Ti37  1  0.61677144  0.62608441  0.38385345  1
  Ti  Ti38  1  0.86776430  0.63142776  0.37278627  1
  Ti  Ti39  1  0.38246729  0.87550529  0.13777611  1
  Ti  Ti40  1  0.13365911  0.87084646  0.37161580  1
  Ti  Ti41  1  0.88235152  0.13451797  0.62819317  1
  Ti  Ti42  1  0.11691449  0.61646507  0.37153179  1
  Ti  Ti43  1  0.12334181  0.62357689  0.11915015  1
  Ti  Ti44  1  0.88621345  0.62708123  0.86828219  1
  Ti  Ti45  1  0.12279518  0.62660698  0.60241276  1
  Ti  Ti46  1  0.37068880  0.38908561  0.11473244  1
  Ti  Ti47  1  0.13352816  0.87178092  0.87396548  1
  Ti  Ti48  1  0.88482895  0.12007984  0.11883488  1
  Ti  Ti49  1  0.63026229  0.62068882  0.11125133  1
  Ti  Ti50  1  0.39330416  0.87243674  0.36985948  1
  Ti  Ti51  1  0.62621165  0.37343458  0.63420310  1
  Ti  Ti52  1  0.62614589  0.62493340  0.85868780  1
  Ti  Ti53  1  0.86791981  0.62910426  0.61835579  1
  Ti  Ti54  1  0.87958077  0.88177858  0.13457133  1
  Ti  Ti55  1  0.62574512  0.88752769  0.62128840  1
  Ti  Ti56  1  0.11866210  0.36890161  0.12133883  1
  Ti  Ti57  1  0.87745591  0.12739563  0.87848887  1
  Ti  Ti58  1  0.63302209  0.62052183  0.62231465  1
  Ti  Ti59  1  0.39061591  0.12932064  0.35702490  1
  Ti  Ti60  1  0.36691157  0.62525017  0.88312710  1
  Ti  Ti61  1  0.12368874  0.39465287  0.87772092  1
  Ti  Ti62  1  0.38428823  0.12495654  0.88008361  1
  Ti  Ti63  1  0.36184943  0.87221997  0.61834681  1
  Ti  Ti64  1  0.36373263  0.62921610  0.36463218  1
  Ti  Ti65  1  0.62863769  0.13338592  0.38089834  1
  Ti  Ti66  1  0.12957597  0.11416152  0.87683875  1
  Ti  Ti67  1  0.11869098  0.63552097  0.88716978  1
  Ti  Ti68  1  0.87442327  0.87628048  0.61826082  1
  Ti  Ti69  1  0.63872757  0.12263753  0.87377998  1
  Ti  Ti70  1  0.10858735  0.87615870  0.11867060  1
  Ti  Ti71  1  0.87006863  0.87213624  0.86546016  1
  Ti  Ti72  1  0.62913993  0.88236077  0.37099550  1
  Ti  Ti73  1  0.88164740  0.35946618  0.37308877  1
  Bi  Bi74  1  0.77093910  0.47402204  0.73465801  1
  Bi  Bi75  1  0.49586058  0.76132303  -0.02287841  1
  Bi  Bi76  1  -0.03918501  0.49663863  0.49914746  1
  Bi  Bi77  1  0.47424757  0.52555204  0.71138302  1
  Bi  Bi78  1  0.25603738  0.02401339  0.02083447  1
  Bi  Bi79  1  0.78072465  0.75951834  -0.00190925  1
  Bi  Bi80  1  0.50122284  0.49977188  -0.02895512  1
  Bi  Bi81  1  0.73266855  0.76707344  0.73792883  1
  Bi  Bi82  1  0.49508017  0.72457508  0.22814782  1
  Bi  Bi83  1  -0.02754383  0.49100357  0.25092917  1
  Bi  Bi84  1  0.51154730  0.27750167  0.76868610  1
  Bi  Bi85  1  0.75552989  0.02253981  0.73304115  1
  Bi  Bi86  1  0.25264981  0.26288641  -0.02665636  1
  Bi  Bi87  1  0.03503020  0.25176544  0.49932103  1
  Bi  Bi88  1  0.24071594  0.55247671  0.74404724  1
  Bi  Bi89  1  0.50248627  0.00442776  0.74536207  1
  Bi  Bi90  1  -0.00161205  0.75543501  0.48014163  1
  Bi  Bi91  1  0.27313151  0.50471604  0.51034357  1
  Bi  Bi92  1  0.52872928  0.30082681  0.47765202  1
  Bi  Bi93  1  0.25172048  0.26675360  0.52086363  1
  Bi  Bi94  1  0.53152622  0.23382048  0.01063035  1
  Bi  Bi95  1  0.24391489  0.25487120  0.23657970  1
  Bi  Bi96  1  0.74376622  0.73915853  0.23711922  1
  Bi  Bi97  1  0.77296639  0.00191828  0.00284725  1
  Bi  Bi98  1  0.75554469  0.52135356  -0.02669737  1
  Bi  Bi99  1  0.26428877  0.02652554  0.47735537  1
  Bi  Bi100  1  -0.00694321  0.49045498  0.71671064  1
  Bi  Bi101  1  0.47877466  0.27750060  0.23858549  1
  Bi  Bi102  1  0.00648027  0.76163756  0.73304923  1
  Bi  Bi103  1  0.71796825  0.01507762  0.22638142  1
  Bi  Bi104  1  0.01186843  0.00956118  0.73531258  1
  Bi  Bi105  1  0.50296635  -0.00151902  0.00863248  1
  Bi  Bi106  1  0.73708466  0.47571907  0.27522216  1
  Bi  Bi107  1  0.72255089  0.76002617  0.49139832  1
  Bi  Bi108  1  0.22279836  0.47988136  0.25179114  1
  Bi  Bi109  1  0.51245163  0.49336633  0.29258101  1
  Bi  Bi110  1  0.47736792  0.77620774  0.75694853  1
  Bi  Bi111  1  0.21906295  0.01100768  0.24120630  1
  Bi  Bi112  1  -0.02671895  0.47669540  0.01006817  1
  Bi  Bi113  1  0.24635850  0.75600100  0.22710857  1
  Bi  Bi114  1  0.50216341  0.02405597  0.49586957  1
  Bi  Bi115  1  0.00051173  0.24022192  -0.02093817  1
  Bi  Bi116  1  0.01916367  0.25550469  0.74714294  1
  Bi  Bi117  1  0.00444787  0.20988745  0.26822152  1
  Bi  Bi118  1  0.27863304  0.27456983  0.74838730  1
  Bi  Bi119  1  0.76317802  0.03089435  0.49221615  1
  Bi  Bi120  1  0.00203662  0.73062487  0.23160991  1
  Bi  Bi121  1  0.00243175  -0.01133556  0.46842220  1
  Bi  Bi122  1  0.46087311  0.72918588  0.51699689  1
  Bi  Bi123  1  0.26497170  0.76630740  0.00002487  1
  Bi  Bi124  1  0.25586972  0.01417649  0.72718194  1
  O  O125  1  0.15079288  0.11379846  -0.00461276  1
  O  O126  1  0.12857783  0.11504308  0.24878621  1
  O  O127  1  0.12630892  0.14774778  0.50241671  1
  O  O128  1  0.09063267  0.12820900  0.75922942  1
  O  O129  1  0.16520906  0.38558188  0.00562993  1
  O  O130  1  0.10828595  0.39608723  0.24122898  1
  O  O131  1  0.14198821  0.34631843  0.49750596  1
  O  O132  1  0.09582748  0.38276441  0.75991525  1
  O  O133  1  0.15686031  0.61747877  0.00804372  1
  O  O134  1  0.09766464  0.62030575  0.25578799  1
  O  O135  1  0.15441934  0.64854622  0.49335926  1
  O  O136  1  0.11331887  0.62744846  0.77038568  1
  O  O137  1  0.07991506  0.88094395  0.00469895  1
  O  O138  1  0.14336221  0.88502830  0.25450735  1
  O  O139  1  0.08780092  0.87041124  0.49393154  1
  O  O140  1  0.14137522  0.84198697  0.76302377  1
  O  O141  1  0.34080962  0.13796176  -0.00491330  1
  O  O142  1  0.41396805  0.11137767  0.24588272  1
  O  O143  1  0.38760271  0.11918097  0.50580647  1
  O  O144  1  0.39103027  0.09790172  0.75720537  1
  O  O145  1  0.35724534  0.34827868  0.00623716  1
  O  O146  1  0.40781787  0.39636662  0.24797728  1
  O  O147  1  0.33416729  0.37127817  0.49394321  1
  O  O148  1  0.38416671  0.36772849  0.74863396  1
  O  O149  1  0.36508961  0.65507928  -0.00154253  1
  O  O150  1  0.40695574  0.60617731  0.25617533  1
  O  O151  1  0.34749323  0.65791713  0.48835167  1
  O  O152  1  0.38026050  0.60906171  0.75779630  1
  O  O153  1  0.38566480  0.84252460  0.00766648  1
  O  O154  1  0.36034479  0.88930121  0.25461301  1
  O  O155  1  0.38963978  0.85370443  0.50101090  1
  O  O156  1  0.38299532  0.88193393  0.74746753  1
  O  O157  1  0.64821043  0.16910071  -0.01561310  1
  O  O158  1  0.63090419  0.12333379  0.26040189  1
  O  O159  1  0.60889308  0.12093816  0.50201687  1
  O  O160  1  0.61233003  0.09816353  0.75607712  1
  O  O161  1  0.64229158  0.35593959  -0.00265280  1
  O  O162  1  0.61211765  0.39407752  0.24161349  1
  O  O163  1  0.65463747  0.35589865  0.50756664  1
  O  O164  1  0.59222398  0.39143276  0.74795612  1
  O  O165  1  0.65361984  0.63141960  -0.00099684  1
  O  O166  1  0.60139174  0.61788136  0.26578763  1
  O  O167  1  0.65684777  0.61132575  0.50545346  1
  O  O168  1  0.60078286  0.60188163  0.74632805  1
  O  O169  1  0.60418779  0.86534403  0.01114750  1
  O  O170  1  0.64331678  0.86593516  0.25826226  1
  O  O171  1  0.62536784  0.86375901  0.50481401  1
  O  O172  1  0.64814609  0.87956644  0.74581458  1
  O  O173  1  0.84354201  0.12961289  -0.00720578  1
  O  O174  1  0.88701505  0.10368024  0.23463418  1
  O  O175  1  0.86531123  0.13081066  0.51451904  1
  O  O176  1  0.88922408  0.09359414  0.75719554  1
  O  O177  1  0.86814473  0.38480671  0.00904938  1
  O  O178  1  0.90612344  0.36793184  0.24178523  1
  O  O179  1  0.84090352  0.35459661  0.48411770  1
  O  O180  1  0.89431286  0.39962807  0.75251877  1
  O  O181  1  0.84393994  0.63079456  0.00242317  1
  O  O182  1  0.90309280  0.62434836  0.25718043  1
  O  O183  1  0.86303972  0.62875734  0.50061921  1
  O  O184  1  0.90275744  0.61407065  0.75497253  1
  O  O185  1  0.89716820  0.83229457  0.00350220  1
  O  O186  1  0.86447751  0.91300528  0.24368996  1
  O  O187  1  0.90596349  0.86977406  0.50482623  1
  O  O188  1  0.84760306  0.87622851  0.75175549  1
  O  O189  1  -0.00352345  0.14081580  0.10294674  1
  O  O190  1  -0.00160174  0.10046431  0.36124752  1
  O  O191  1  -0.00655405  0.08891733  0.62320848  1
  O  O192  1  -0.00516470  0.10974728  0.91212633  1
  O  O193  1  0.00770688  0.36240877  0.09594743  1
  O  O194  1  -0.00591187  0.39581298  0.39726611  1
  O  O195  1  -0.00189288  0.40214098  0.60370652  1
  O  O196  1  0.00889679  0.37351336  0.91161245  1
  O  O197  1  0.00502241  0.64339912  0.11620491  1
  O  O198  1  0.00472557  0.60490333  0.40381117  1
  O  O199  1  0.00351897  0.60351934  0.60180750  1
  O  O200  1  -0.00190987  0.65293072  0.90633797  1
  O  O201  1  -0.00195498  0.86800652  0.15196840  1
  O  O202  1  0.00015549  0.91390216  0.35677394  1
  O  O203  1  -0.00601968  0.88050311  0.65787556  1
  O  O204  1  -0.00802028  0.85327541  0.85993852  1
  O  O205  1  0.25577914  0.10268530  0.13582805  1
  O  O206  1  0.26834416  0.12805159  0.37512787  1
  O  O207  1  0.25657760  0.12921436  0.64724771  1
  O  O208  1  0.24247409  0.10718253  0.84881188  1
  O  O209  1  0.25542942  0.37288617  0.15824596  1
  O  O210  1  0.24684989  0.36387642  0.33143223  1
  O  O211  1  0.24991492  0.35020262  0.63417102  1
  O  O212  1  0.24118522  0.35961951  0.85853307  1
  O  O213  1  0.24184162  0.63604972  0.15601514  1
  O  O214  1  0.24976070  0.65406821  0.35136373  1
  O  O215  1  0.23540735  0.64841634  0.65245586  1
  O  O216  1  0.25087298  0.63123158  0.86419008  1
  O  O217  1  0.25389683  0.85657369  0.11206061  1
  O  O218  1  0.24310086  0.83910128  0.39570591  1
  O  O219  1  0.25045981  0.84821398  0.62042252  1
  O  O220  1  0.24591668  0.87960439  0.90430104  1
  O  O221  1  0.49919912  0.12208864  0.08888096  1
  O  O222  1  0.50480756  0.10115383  0.38115087  1
  O  O223  1  0.49692126  0.08573409  0.63024677  1
  O  O224  1  0.49986688  0.15048389  0.89407865  1
  O  O225  1  0.49833394  0.37483573  0.10814575  1
  O  O226  1  0.48900119  0.41263710  0.41288718  1
  O  O227  1  0.51206897  0.39345093  0.58845126  1
  O  O228  1  0.50656700  0.36051031  0.89051429  1
  O  O229  1  0.51061031  0.64060365  0.11444803  1
  O  O230  1  0.50266263  0.59680253  0.41126073  1
  O  O231  1  0.51565526  0.59626351  0.59867382  1
  O  O232  1  0.50758266  0.62075184  0.89851483  1
  O  O233  1  0.49958095  0.85280076  0.14244741  1
  O  O234  1  0.50493684  0.89157390  0.37062415  1
  O  O235  1  0.51154321  0.90174794  0.63564034  1
  O  O236  1  0.50491008  0.86255880  0.87443630  1
  O  O237  1  0.75525583  0.09076816  0.11945810  1
  O  O238  1  0.74477173  0.15555835  0.40170547  1
  O  O239  1  0.75582325  0.14256240  0.66058362  1
  O  O240  1  0.75356568  0.11486530  0.85170764  1
  O  O241  1  0.75072848  0.38618706  0.14519482  1
  O  O242  1  0.76024356  0.34814769  0.33275379  1
  O  O243  1  0.74883545  0.35197854  0.66772868  1
  O  O244  1  0.74988260  0.39331903  0.85820231  1
  O  O245  1  0.74366279  0.62034109  0.16135230  1
  O  O246  1  0.75541166  0.64539788  0.36083229  1
  O  O247  1  0.75688921  0.63747226  0.65045651  1
  O  O248  1  0.74713252  0.59804592  0.85835430  1
  O  O249  1  0.74887203  0.89800051  0.11083421  1
  O  O250  1  0.74771318  0.84999455  0.39128522  1
  O  O251  1  0.75754135  0.84185773  0.61198641  1
  O  O252  1  0.75595231  0.87471785  0.90591839  1
  O  O253  1  0.14016115  -0.00993901  0.12449830  1
  O  O254  1  0.15179875  -0.00536227  0.39408648  1
  O  O255  1  0.13700278  -0.00270124  0.65184406  1
  O  O256  1  0.10327107  -0.01025154  0.87343710  1
  O  O257  1  0.14286404  0.25405201  0.12921411  1
  O  O258  1  0.09613667  0.24862465  0.36379708  1
  O  O259  1  0.09551172  0.25204175  0.63424605  1
  O  O260  1  0.11047157  0.23846521  0.88765584  1
  O  O261  1  0.13560847  0.50299373  0.12284229  1
  O  O262  1  0.14966241  0.50563978  0.37901897  1
  O  O263  1  0.14597467  0.51067983  0.62611842  1
  O  O264  1  0.12608011  0.50639534  0.88944293  1
  O  O265  1  0.12574021  0.75406790  0.14115250  1
  O  O266  1  0.09026122  0.75341978  0.36816336  1
  O  O267  1  0.10300231  0.74511229  0.63167002  1
  O  O268  1  0.12621747  0.75260832  0.90941965  1
  O  O269  1  0.38684562  -0.01189536  0.10226173  1
  O  O270  1  0.36588914  -0.00804460  0.39494372  1
  O  O271  1  0.34884663  -0.00674570  0.61687568  1
  O  O272  1  0.39840458  0.00697858  0.90773227  1
  O  O273  1  0.36994110  0.25548685  0.15765052  1
  O  O274  1  0.40412277  0.24747732  0.35764949  1
  O  O275  1  0.39069624  0.24099625  0.63376439  1
  O  O276  1  0.35748488  0.24276803  0.86753454  1
  O  O277  1  0.34011110  0.49736552  0.08979232  1
  O  O278  1  0.35071707  0.51300388  0.39584646  1
  O  O279  1  0.37812421  0.49850268  0.59639357  1
  O  O280  1  0.38586051  0.50362816  0.89512950  1
  O  O281  1  0.37273418  0.74659944  0.15775313  1
  O  O282  1  0.40198202  0.74953486  0.35877864  1
  O  O283  1  0.40217143  0.75797405  0.63754832  1
  O  O284  1  0.39090111  0.74559532  0.86242594  1
  O  O285  1  0.60289453  -0.01156674  0.14965568  1
  O  O286  1  0.65132092  -0.00223183  0.38098437  1
  O  O287  1  0.65865340  -0.00257336  0.61809600  1
  O  O288  1  0.61678039  0.01235495  0.90451956  1
  O  O289  1  0.63588684  0.26246963  0.14073116  1
  O  O290  1  0.61261900  0.25145082  0.36856232  1
  O  O291  1  0.60975487  0.25354855  0.65285051  1
  O  O292  1  0.64054593  0.25515520  0.83251102  1
  O  O293  1  0.62471281  0.50209818  0.10478973  1
  O  O294  1  0.65097734  0.50250926  0.38020638  1
  O  O295  1  0.66257712  0.49071125  0.61980316  1
  O  O296  1  0.61673859  0.49399085  0.89474529  1
  O  O297  1  0.64217618  0.74887125  0.13868044  1
  O  O298  1  0.61369208  0.74272209  0.39327383  1
  O  O299  1  0.62423861  0.73898506  0.63586844  1
  O  O300  1  0.63413671  0.73932395  0.85287864  1
  O  O301  1  0.89510578  -0.00703183  0.07800240  1
  O  O302  1  0.86179019  0.00396161  0.39690638  1
  O  O303  1  0.84619391  -0.00884590  0.61667978  1
  O  O304  1  0.88470120  -0.01455557  0.89822340  1
  O  O305  1  0.84581022  0.24129537  0.11937721  1
  O  O306  1  0.90836113  0.24742094  0.36441644  1
  O  O307  1  0.90963320  0.24369226  0.64541623  1
  O  O308  1  0.89629354  0.24250194  0.87342439  1
  O  O309  1  0.89522467  0.49479714  0.13251520  1
  O  O310  1  0.86350957  0.49794898  0.35802494  1
  O  O311  1  0.86590095  0.50389556  0.62403292  1
  O  O312  1  0.88502213  0.50830569  0.89884933  1
  O  O313  1  0.85445962  0.76036044  0.15016976  1
  O  O314  1  0.90250218  0.74756363  0.37278546  1
  O  O315  1  0.89876455  0.74491516  0.63545833  1
  O  O316  1  0.84858775  0.74146010  0.86895903  1
