# generated using pymatgen
data_Mg32Ti42(Bi17O64)3
_symmetry_space_group_name_H-M   'P 1'
_cell_length_a   15.93634351
_cell_length_b   15.93650360
_cell_length_c   15.96015450
_cell_angle_alpha   89.79943069
_cell_angle_beta   89.93940250
_cell_angle_gamma   89.86411554
_symmetry_Int_Tables_number   1
_chemical_formula_structural   Mg32Ti42(Bi17O64)3
_chemical_formula_sum   'Mg32 Ti42 Bi51 O192'
_cell_volume   4053.35551834
_cell_formula_units_Z   1
loop_
 _symmetry_equiv_pos_site_id
 _symmetry_equiv_pos_as_xyz
  1  'x, y, z'
loop_
 _atom_site_type_symbol
 _atom_site_label
 _atom_site_symmetry_multiplicity
 _atom_site_fract_x
 _atom_site_fract_y
 _atom_site_fract_z
 _atom_site_occupancy
  Mg  Mg0  1  0.12566271  0.87165526  0.87057554  1
  Mg  Mg1  1  0.37710180  0.37544635  0.62609914  1
  Mg  Mg2  1  0.38026479  0.62840446  0.61981328  1
  Mg  Mg3  1  0.37142640  0.62239809  0.13223101  1
  Mg  Mg4  1  0.62074833  0.62665813  0.12831219  1
  Mg  Mg5  1  0.12940560  0.13025650  0.38131533  1
  Mg  Mg6  1  0.62601751  0.87033572  0.88612007  1
  Mg  Mg7  1  0.63203444  0.37659197  0.62598060  1
  Mg  Mg8  1  0.37543171  0.87574892  0.63139631  1
  Mg  Mg9  1  0.36299437  0.13004086  0.13297934  1
  Mg  Mg10  1  0.86281215  0.36618956  0.37871397  1
  Mg  Mg11  1  0.12890649  0.37196966  0.13333455  1
  Mg  Mg12  1  0.87349989  0.62095976  0.37942771  1
  Mg  Mg13  1  0.87427481  0.61951927  0.61921714  1
  Mg  Mg14  1  0.87404554  0.12295414  0.87241534  1
  Mg  Mg15  1  0.11743844  0.10987292  0.12243610  1
  Mg  Mg16  1  0.87854526  0.88293795  0.35959797  1
  Mg  Mg17  1  0.86737526  0.62553408  0.88412766  1
  Mg  Mg18  1  0.13219571  0.62579631  0.62382752  1
  Mg  Mg19  1  0.76238525  0.31839535  0.76745488  1
  Mg  Mg20  1  0.75875130  0.25636755  0.57326509  1
  Mg  Mg21  1  0.48981361  0.46748500  0.49102037  1
  Mg  Mg22  1  0.02601113  0.02812690  0.28443267  1
  Mg  Mg23  1  0.18989101  0.23566707  0.73804334  1
  Mg  Mg24  1  0.72313312  0.74475947  0.70446156  1
  Mg  Mg25  1  0.54384398  0.23210322  0.18872620  1
  Mg  Mg26  1  0.21268627  0.21908983  0.22161409  1
  Mg  Mg27  1  -0.06622967  0.73305758  0.76356682  1
  Mg  Mg28  1  0.05273354  0.54290212  0.48984064  1
  Mg  Mg29  1  0.25793488  0.79753946  0.26574165  1
  Mg  Mg30  1  0.73677726  0.72029603  0.02665803  1
  Mg  Mg31  1  0.02359985  0.72769969  -0.05195680  1
  Ti  Ti32  1  0.87460892  0.86144616  0.87849025  1
  Ti  Ti33  1  0.62865009  0.14854808  0.38595749  1
  Ti  Ti34  1  0.63063396  0.87727640  0.61808828  1
  Ti  Ti35  1  0.88034654  0.86768884  0.12419007  1
  Ti  Ti36  1  0.61768625  0.38493813  0.37937463  1
  Ti  Ti37  1  0.37165027  0.36646022  0.14182394  1
  Ti  Ti38  1  0.38858366  0.62985655  0.87105475  1
  Ti  Ti39  1  0.87426512  0.87299392  0.62659916  1
  Ti  Ti40  1  0.63057402  0.64615163  0.89470203  1
  Ti  Ti41  1  0.61932057  0.63344170  0.37539903  1
  Ti  Ti42  1  0.13398278  0.62366621  0.86603739  1
  Ti  Ti43  1  0.11857307  0.11958856  0.87034444  1
  Ti  Ti44  1  0.38040609  0.88883109  0.87586143  1
  Ti  Ti45  1  0.87770975  0.38090728  0.62720583  1
  Ti  Ti46  1  0.15284027  0.35540827  0.36766266  1
  Ti  Ti47  1  0.63193243  0.37589439  0.12422555  1
  Ti  Ti48  1  0.37961473  0.13813545  0.87008821  1
  Ti  Ti49  1  0.62655493  0.62686223  0.60613437  1
  Ti  Ti50  1  0.88342024  0.63112293  0.12048428  1
  Ti  Ti51  1  0.38051741  0.37117238  0.37081386  1
  Ti  Ti52  1  0.88296843  0.36529595  0.12844888  1
  Ti  Ti53  1  0.13534564  0.36734599  0.86681752  1
  Ti  Ti54  1  0.35637157  0.14546431  0.36663468  1
  Ti  Ti55  1  0.11556736  0.87090677  0.63367085  1
  Ti  Ti56  1  0.62309824  0.13245573  0.62302747  1
  Ti  Ti57  1  0.37389122  0.38733461  0.87132572  1
  Ti  Ti58  1  0.63433368  0.39383380  0.87467429  1
  Ti  Ti59  1  0.62069762  0.87202449  0.12264040  1
  Ti  Ti60  1  0.62538517  0.88110835  0.36518455  1
  Ti  Ti61  1  0.11393845  0.86547903  0.13028721  1
  Ti  Ti62  1  0.86680127  0.12487143  0.63116598  1
  Ti  Ti63  1  0.87401762  0.12388289  0.36735866  1
  Ti  Ti64  1  0.39196708  0.61489528  0.38444758  1
  Ti  Ti65  1  0.63839753  0.13093226  0.85936385  1
  Ti  Ti66  1  0.37109966  0.87963084  0.12673743  1
  Ti  Ti67  1  0.11679673  0.11542278  0.61901956  1
  Ti  Ti68  1  0.11423155  0.62631433  0.11814018  1
  Ti  Ti69  1  0.88429323  0.11110023  0.11559720  1
  Ti  Ti70  1  0.12094188  0.37892251  0.62248157  1
  Ti  Ti71  1  0.11091291  0.88585452  0.38364805  1
  Ti  Ti72  1  0.37567144  0.13020546  0.64059745  1
  Ti  Ti73  1  0.88297038  0.37362240  0.88370518  1
  Bi  Bi74  1  0.23871524  -0.00126367  0.24173302  1
  Bi  Bi75  1  0.52524708  0.04186704  0.02088593  1
  Bi  Bi76  1  0.77694492  0.74741392  0.25989459  1
  Bi  Bi77  1  0.47880008  0.76544802  0.24762500  1
  Bi  Bi78  1  -0.02825124  0.00986752  0.49912084  1
  Bi  Bi79  1  0.47911148  0.75401381  0.01534043  1
  Bi  Bi80  1  -0.00698398  -0.01421571  0.75400932  1
  Bi  Bi81  1  0.25963728  0.03036741  -0.01418852  1
  Bi  Bi82  1  0.26089797  0.26546278  0.01427734  1
  Bi  Bi83  1  0.51201755  0.27733210  -0.01071412  1
  Bi  Bi84  1  -0.00386500  -0.03115239  -0.01698983  1
  Bi  Bi85  1  0.50609574  0.74613693  0.73231982  1
  Bi  Bi86  1  0.51130755  0.27336527  0.74943468  1
  Bi  Bi87  1  0.74585981  0.00373016  0.48147446  1
  Bi  Bi88  1  0.75242934  -0.01935905  0.00036806  1
  Bi  Bi89  1  0.02191788  0.48969675  -0.00245539  1
  Bi  Bi90  1  -0.02314875  0.24405998  0.76605835  1
  Bi  Bi91  1  0.77269963  0.75416318  0.47454873  1
  Bi  Bi92  1  0.74138994  0.26038675  0.25485249  1
  Bi  Bi93  1  0.48902209  0.50010577  0.71732080  1
  Bi  Bi94  1  0.23627228  0.24803780  0.53304852  1
  Bi  Bi95  1  0.51830251  -0.02818283  0.75078344  1
  Bi  Bi96  1  0.72912125  0.01636198  0.22463154  1
  Bi  Bi97  1  0.73399466  -0.01912971  0.76037365  1
  Bi  Bi98  1  0.51347833  0.51891431  0.24631475  1
  Bi  Bi99  1  0.73103374  0.21061434  0.01896595  1
  Bi  Bi100  1  0.25903143  0.50932551  0.52028866  1
  Bi  Bi101  1  0.25324252  0.50197352  0.02946307  1
  Bi  Bi102  1  0.73240679  0.54080894  0.74826692  1
  Bi  Bi103  1  0.03188258  0.72183800  0.28487267  1
  Bi  Bi104  1  0.77590641  0.49605511  0.25227643  1
  Bi  Bi105  1  0.26093966  0.76328994  0.75292574  1
  Bi  Bi106  1  0.23445723  0.77398675  0.00651904  1
  Bi  Bi107  1  0.26574464  -0.03980677  0.47760781  1
  Bi  Bi108  1  0.02751915  0.25100969  0.01850758  1
  Bi  Bi109  1  0.24543390  0.55648661  0.27563896  1
  Bi  Bi110  1  0.46927342  0.01659316  0.48510713  1
  Bi  Bi111  1  0.49102440  0.51722635  0.01864432  1
  Bi  Bi112  1  0.25499865  0.51620973  0.75282284  1
  Bi  Bi113  1  0.22665476  0.72766386  0.46037476  1
  Bi  Bi114  1  0.26129435  -0.00800627  0.73095451  1
  Bi  Bi115  1  0.50836208  0.04631978  0.24737311  1
  Bi  Bi116  1  -0.00052241  0.28281035  0.48466352  1
  Bi  Bi117  1  -0.00912789  0.73807784  0.53117495  1
  Bi  Bi118  1  0.76323158  0.48096029  0.49767198  1
  Bi  Bi119  1  0.47701910  0.24796620  0.50596941  1
  Bi  Bi120  1  -0.01735706  0.52455359  0.76896399  1
  Bi  Bi121  1  0.77536277  0.51276682  0.01569912  1
  Bi  Bi122  1  0.47774638  0.78829478  0.47715854  1
  Bi  Bi123  1  0.01395359  0.48837388  0.30076423  1
  Bi  Bi124  1  0.00145487  0.23533204  0.25552188  1
  O  O125  1  0.13709234  0.11011356  -0.00934504  1
  O  O126  1  0.09474167  0.13698159  0.25025783  1
  O  O127  1  0.15536884  0.12601393  0.50795047  1
  O  O128  1  0.11424848  0.13149961  0.74837194  1
  O  O129  1  0.11279343  0.37418408  -0.01404832  1
  O  O130  1  0.14921607  0.33204044  0.25248496  1
  O  O131  1  0.12665416  0.34343610  0.49583947  1
  O  O132  1  0.13368411  0.36965436  0.74228640  1
  O  O133  1  0.08754822  0.61737586  -0.00887183  1
  O  O134  1  0.11243409  0.61688710  0.24085042  1
  O  O135  1  0.16223358  0.61019894  0.48946631  1
  O  O136  1  0.14132378  0.61671222  0.75014492  1
  O  O137  1  0.15003637  0.88410831  0.00700469  1
  O  O138  1  0.12550320  0.82149838  0.24355234  1
  O  O139  1  0.12050948  0.90205341  0.49582814  1
  O  O140  1  0.09575082  0.86968309  0.74674052  1
  O  O141  1  0.34238596  0.14079098  -0.00004187  1
  O  O142  1  0.39294771  0.12461457  0.25892383  1
  O  O143  1  0.37587918  0.14808414  0.49946835  1
  O  O144  1  0.39618323  0.10425635  0.75445950  1
  O  O145  1  0.37997697  0.34688944  -0.00887868  1
  O  O146  1  0.37023466  0.39209303  0.25263309  1
  O  O147  1  0.40161955  0.37013589  0.49665559  1
  O  O148  1  0.37161974  0.40679691  0.75274672  1
  O  O149  1  0.39765362  0.63395210  -0.00697801  1
  O  O150  1  0.38569707  0.60779527  0.26078906  1
  O  O151  1  0.34324276  0.63819450  0.49275317  1
  O  O152  1  0.37116353  0.59274180  0.75582215  1
  O  O153  1  0.37233920  0.84779552  -0.00403607  1
  O  O154  1  0.37546972  0.86047973  0.24449941  1
  O  O155  1  0.36085554  0.86580318  0.50782626  1
  O  O156  1  0.38280982  0.91206307  0.75447957  1
  O  O157  1  0.64740704  0.10063259  -0.01157029  1
  O  O158  1  0.60565256  0.14427179  0.26185455  1
  O  O159  1  0.65221778  0.10790962  0.49891856  1
  O  O160  1  0.60667226  0.14921738  0.74542217  1
  O  O161  1  0.60537704  0.39067922  -0.00250457  1
  O  O162  1  0.61568135  0.33151755  0.23738806  1
  O  O163  1  0.61427596  0.41025597  0.49384809  1
  O  O164  1  0.63531471  0.34360027  0.76564918  1
  O  O165  1  0.59442346  0.60875594  0.00061677  1
  O  O166  1  0.59248118  0.63612744  0.25902546  1
  O  O167  1  0.63106695  0.60890171  0.49796861  1
  O  O168  1  0.66584335  0.65917582  0.77697384  1
  O  O169  1  0.62767112  0.91273121  0.00770019  1
  O  O170  1  0.60401244  0.86232319  0.25275693  1
  O  O171  1  0.64674937  0.88346370  0.50517716  1
  O  O172  1  0.63109188  0.86879693  0.75428202  1
  O  O173  1  0.85836173  0.11866806  0.00027346  1
  O  O174  1  0.91163460  0.11419504  0.25433260  1
  O  O175  1  0.86124961  0.10366485  0.50002085  1
  O  O176  1  0.90516047  0.11844178  0.74328195  1
  O  O177  1  0.87990442  0.36942025  -0.00179656  1
  O  O178  1  0.87313924  0.38568239  0.24797246  1
  O  O179  1  0.82594824  0.35739709  0.50334242  1
  O  O180  1  0.88561598  0.39145732  0.74285528  1
  O  O181  1  0.89119580  0.60516367  0.00524635  1
  O  O182  1  0.85672451  0.62274855  0.24514301  1
  O  O183  1  0.86579371  0.65569746  0.49938896  1
  O  O184  1  0.87158266  0.61275164  0.75007304  1
  O  O185  1  0.86763833  0.89123208  -0.00064876  1
  O  O186  1  0.87233592  0.85395251  0.23630039  1
  O  O187  1  0.86234160  0.86432924  0.50545811  1
  O  O188  1  0.90197362  0.86940106  0.75929132  1
  O  O189  1  -0.00218091  0.14371803  0.10450910  1
  O  O190  1  -0.00446476  0.09551096  0.39454127  1
  O  O191  1  0.00325559  0.10586743  0.59807966  1
  O  O192  1  0.00560455  0.16089807  0.88016065  1
  O  O193  1  0.00040202  0.35827691  0.11980283  1
  O  O194  1  -0.01500463  0.40034941  0.40374985  1
  O  O195  1  -0.00217660  0.36884176  0.61014061  1
  O  O196  1  -0.00015535  0.34730360  0.86592646  1
  O  O197  1  -0.00490270  0.64504383  0.13654112  1
  O  O198  1  -0.00217165  0.59317101  0.38337898  1
  O  O199  1  0.00823641  0.61582584  0.58879361  1
  O  O200  1  0.00191202  0.65173336  0.84407806  1
  O  O201  1  -0.00030221  0.86062604  0.10870731  1
  O  O202  1  0.00115689  0.91669862  0.35160406  1
  O  O203  1  -0.00160377  0.88716536  0.61113762  1
  O  O204  1  0.00019757  0.84845559  0.91168493  1
  O  O205  1  0.23882397  0.10745847  0.16058925  1
  O  O206  1  0.24835642  0.16662622  0.34233349  1
  O  O207  1  0.26173869  0.15893536  0.65500860  1
  O  O208  1  0.25023939  0.09705228  0.86415154  1
  O  O209  1  0.25006231  0.38726707  0.10050655  1
  O  O210  1  0.26193394  0.34764187  0.39191673  1
  O  O211  1  0.24818532  0.37088848  0.61127282  1
  O  O212  1  0.25009171  0.39459204  0.88015892  1
  O  O213  1  0.24293507  0.60953147  0.12423526  1
  O  O214  1  0.25266066  0.68251738  0.33278696  1
  O  O215  1  0.25831369  0.59116857  0.63376146  1
  O  O216  1  0.25006370  0.60215702  0.87673062  1
  O  O217  1  0.25316672  0.85202009  0.13544740  1
  O  O218  1  0.23450904  0.86629317  0.37111397  1
  O  O219  1  0.24453001  0.87091895  0.65763295  1
  O  O220  1  0.25370658  0.87915459  0.84490264  1
  O  O221  1  0.49199160  0.13055758  0.12552506  1
  O  O222  1  0.51242389  0.10554721  0.39216816  1
  O  O223  1  0.50779808  0.11168876  0.60575012  1
  O  O224  1  0.49561112  0.13326442  0.90532923  1
  O  O225  1  0.48517777  0.33601687  0.12700691  1
  O  O226  1  0.49871962  0.40408648  0.37045631  1
  O  O227  1  0.50991444  0.37492605  0.65320782  1
  O  O228  1  0.50178380  0.36037490  0.86630834  1
  O  O229  1  0.49550731  0.60280903  0.13063878  1
  O  O230  1  0.49756624  0.57871237  0.40638417  1
  O  O231  1  0.51047063  0.63505441  0.64900932  1
  O  O232  1  0.50443260  0.65047074  0.85317464  1
  O  O233  1  0.50117511  0.86437445  0.11398326  1
  O  O234  1  0.50839853  0.89766977  0.40229311  1
  O  O235  1  0.50903742  0.88103444  0.63253059  1
  O  O236  1  0.49729485  0.87171545  0.86389614  1
  O  O237  1  0.76220517  0.11941899  0.14003001  1
  O  O238  1  0.75052003  0.15292209  0.35395259  1
  O  O239  1  0.75284939  0.13694924  0.63690597  1
  O  O240  1  0.74920688  0.10747352  0.84634154  1
  O  O241  1  0.74617023  0.38031303  0.12473766  1
  O  O242  1  0.73692303  0.35768984  0.35057539  1
  O  O243  1  0.75592734  0.35652154  0.64867988  1
  O  O244  1  0.75465095  0.39466313  0.87124520  1
  O  O245  1  0.74469023  0.61359131  0.10291480  1
  O  O246  1  0.73433210  0.65247261  0.36844494  1
  O  O247  1  0.74434910  0.63575132  0.63552201  1
  O  O248  1  0.74599664  0.61830651  0.92327453  1
  O  O249  1  0.74872771  0.90719253  0.12904488  1
  O  O250  1  0.74065270  0.84608829  0.36193300  1
  O  O251  1  0.75666251  0.85219360  0.64864362  1
  O  O252  1  0.75777952  0.90042169  0.87722770  1
  O  O253  1  0.11807574  -0.02013979  0.16605605  1
  O  O254  1  0.14288721  0.00447026  0.34486614  1
  O  O255  1  0.14170550  0.00210960  0.63786818  1
  O  O256  1  0.08976921  0.00107182  0.86665833  1
  O  O257  1  0.13891342  0.24440539  0.10389592  1
  O  O258  1  0.08175309  0.25125978  0.37609329  1
  O  O259  1  0.12680743  0.24527895  0.62661932  1
  O  O260  1  0.15449063  0.25048326  0.86182555  1
  O  O261  1  0.11787073  0.50143602  0.10397026  1
  O  O262  1  0.13599994  0.47490023  0.36290456  1
  O  O263  1  0.12169460  0.48937810  0.59102855  1
  O  O264  1  0.09442361  0.49899955  0.87044155  1
  O  O265  1  0.12924091  0.74113134  0.09214885  1
  O  O266  1  0.09310721  0.76285744  0.39904827  1
  O  O267  1  0.12065210  0.75558756  0.60597232  1
  O  O268  1  0.14107421  0.74177376  0.89317624  1
  O  O269  1  0.37182458  -0.00736065  0.11551054  1
  O  O270  1  0.35876796  0.02136683  0.39319996  1
  O  O271  1  0.34985799  0.01188149  0.61251115  1
  O  O272  1  0.38162134  -0.00197969  0.90873175  1
  O  O273  1  0.32443514  0.25405136  0.14057866  1
  O  O274  1  0.40637653  0.25651124  0.37295790  1
  O  O275  1  0.40455131  0.24736530  0.63314203  1
  O  O276  1  0.36918660  0.24775575  0.85039904  1
  O  O277  1  0.37330288  0.48951476  0.10348578  1
  O  O278  1  0.33759740  0.50483035  0.38564871  1
  O  O279  1  0.41725048  0.50398580  0.59706104  1
  O  O280  1  0.39370758  0.49854845  0.89760080  1
  O  O281  1  0.39581758  0.74456856  0.12586315  1
  O  O282  1  0.41326933  0.73656707  0.37167265  1
  O  O283  1  0.37728304  0.75029142  0.66822265  1
  O  O284  1  0.36071342  0.74439881  0.85397442  1
  O  O285  1  0.61201779  -0.00015296  0.15173473  1
  O  O286  1  0.65293963  -0.00467018  0.36690791  1
  O  O287  1  0.63999606  -0.00239592  0.64598903  1
  O  O288  1  0.62055491  0.00637943  0.84644407  1
  O  O289  1  0.62473194  0.25214132  0.09356790  1
  O  O290  1  0.60770038  0.25689173  0.40090584  1
  O  O291  1  0.63032385  0.24547439  0.59756137  1
  O  O292  1  0.64295903  0.24367506  0.90441563  1
  O  O293  1  0.61073538  0.48847016  0.14540286  1
  O  O294  1  0.64009854  0.49663849  0.34081988  1
  O  O295  1  0.63081773  0.51175233  0.65255257  1
  O  O296  1  0.62121603  0.50395551  0.84875111  1
  O  O297  1  0.64449522  0.75804645  0.11103852  1
  O  O298  1  0.59124098  0.74703050  0.39142629  1
  O  O299  1  0.62145421  0.75096684  0.62631185  1
  O  O300  1  0.64515435  0.75313034  0.92860674  1
  O  O301  1  0.89365049  -0.00339064  0.12398820  1
  O  O302  1  0.83958036  0.00372610  0.37264549  1
  O  O303  1  0.86636911  -0.00770956  0.63207501  1
  O  O304  1  0.91306446  -0.00478220  0.87235788  1
  O  O305  1  0.86525302  0.25157397  0.13452637  1
  O  O306  1  0.89951370  0.24161120  0.36968133  1
  O  O307  1  0.88060966  0.24208854  0.61968123  1
  O  O308  1  0.85606209  0.25966587  0.83947291  1
  O  O309  1  0.87010218  0.49986624  0.12601052  1
  O  O310  1  0.83575909  0.49918772  0.37986839  1
  O  O311  1  0.86205626  0.49379404  0.59719930  1
  O  O312  1  0.90383614  0.49513575  0.87632273  1
  O  O313  1  0.84523584  0.74885552  0.10173053  1
  O  O314  1  0.87067257  0.75105542  0.36556910  1
  O  O315  1  0.90153016  0.74985943  0.64280615  1
  O  O316  1  0.86435559  0.75015135  0.87073080  1
