# generated using pymatgen
data_Mg32Ti42(Bi17O64)3
_symmetry_space_group_name_H-M   'P 1'
_cell_length_a   15.89831747
_cell_length_b   15.95331148
_cell_length_c   15.95826530
_cell_angle_alpha   89.91577635
_cell_angle_beta   89.96011279
_cell_angle_gamma   90.10459004
_symmetry_Int_Tables_number   1
_chemical_formula_structural   Mg32Ti42(Bi17O64)3
_chemical_formula_sum   'Mg32 Ti42 Bi51 O192'
_cell_volume   4047.49565808
_cell_formula_units_Z   1
loop_
 _symmetry_equiv_pos_site_id
 _symmetry_equiv_pos_as_xyz
  1  'x, y, z'
loop_
 _atom_site_type_symbol
 _atom_site_label
 _atom_site_symmetry_multiplicity
 _atom_site_fract_x
 _atom_site_fract_y
 _atom_site_fract_z
 _atom_site_occupancy
  Mg  Mg0  1  0.12182598  0.11466966  0.12113764  1
  Mg  Mg1  1  0.37170764  0.12119954  0.12882642  1
  Mg  Mg2  1  0.87480395  0.12142312  0.12985608  1
  Mg  Mg3  1  0.13997234  0.86806386  0.86311664  1
  Mg  Mg4  1  0.36550753  0.62223159  0.86783636  1
  Mg  Mg5  1  0.87509393  0.37723949  0.62568870  1
  Mg  Mg6  1  0.37309418  0.12913905  0.62453853  1
  Mg  Mg7  1  0.37661534  0.38287506  0.36779891  1
  Mg  Mg8  1  0.62489297  0.13100836  0.12489548  1
  Mg  Mg9  1  0.87851205  0.87809845  0.61991601  1
  Mg  Mg10  1  0.37321341  0.38240056  0.62949882  1
  Mg  Mg11  1  0.13524760  0.38018234  0.12607336  1
  Mg  Mg12  1  0.37609149  0.37259998  0.88378879  1
  Mg  Mg13  1  0.11672255  0.88597438  0.37046518  1
  Mg  Mg14  1  0.12225099  0.38085860  0.86418280  1
  Mg  Mg15  1  0.61342191  0.13074651  0.38342125  1
  Mg  Mg16  1  0.61951129  0.63094445  0.61973813  1
  Mg  Mg17  1  0.62247539  0.37919456  0.62317422  1
  Mg  Mg18  1  0.86552234  0.12723315  0.62637046  1
  Mg  Mg19  1  0.47525487  0.76657089  0.47517034  1
  Mg  Mg20  1  0.26666751  0.47277278  0.78203604  1
  Mg  Mg21  1  0.46511658  -0.01170324  0.46573413  1
  Mg  Mg22  1  0.28367632  0.76791929  0.76927420  1
  Mg  Mg23  1  0.25063567  0.53477752  0.29257868  1
  Mg  Mg24  1  0.22208406  0.28777911  -0.02332607  1
  Mg  Mg25  1  -0.01087345  0.80795472  0.26341250  1
  Mg  Mg26  1  -0.00196223  0.02143276  0.30864619  1
  Mg  Mg27  1  0.47158054  0.51981068  0.22371839  1
  Mg  Mg28  1  0.23088569  0.80605495  0.50217978  1
  Mg  Mg29  1  0.79971142  0.47478440  0.18613310  1
  Mg  Mg30  1  0.72215988  0.51707556  0.51590788  1
  Mg  Mg31  1  0.01068796  -0.03374735  -0.04058019  1
  Ti  Ti32  1  0.88212685  0.63417681  0.37836122  1
  Ti  Ti33  1  0.11784503  0.61732241  0.38424712  1
  Ti  Ti34  1  0.37687760  0.13231337  0.37466172  1
  Ti  Ti35  1  0.36389493  0.87326063  0.13452935  1
  Ti  Ti36  1  0.88542871  0.63007743  0.63346703  1
  Ti  Ti37  1  0.13223885  0.87478910  0.63515966  1
  Ti  Ti38  1  0.13072584  0.12277235  0.88231958  1
  Ti  Ti39  1  0.36804863  0.86743452  0.37207512  1
  Ti  Ti40  1  0.85409293  0.14061030  0.88099072  1
  Ti  Ti41  1  0.62101187  0.12854819  0.88219307  1
  Ti  Ti42  1  0.89006998  0.62631125  0.88521308  1
  Ti  Ti43  1  0.13548794  0.63312422  0.62242745  1
  Ti  Ti44  1  0.12127562  0.62046110  0.13395500  1
  Ti  Ti45  1  0.87287021  0.88705786  0.37915836  1
  Ti  Ti46  1  0.62370767  0.87091361  0.13403659  1
  Ti  Ti47  1  0.36667377  0.38479062  0.12908374  1
  Ti  Ti48  1  0.88136460  0.62080439  0.13375565  1
  Ti  Ti49  1  0.85651082  0.40605876  0.38758258  1
  Ti  Ti50  1  0.62366892  0.39426796  0.37361121  1
  Ti  Ti51  1  0.63583383  0.62341286  0.37615762  1
  Ti  Ti52  1  0.61715677  0.13512866  0.61556788  1
  Ti  Ti53  1  0.35970421  0.62564728  0.12931405  1
  Ti  Ti54  1  0.62005122  0.88542792  0.88601214  1
  Ti  Ti55  1  0.12289848  0.88061981  0.13330554  1
  Ti  Ti56  1  0.86633304  0.13158416  0.37591343  1
  Ti  Ti57  1  0.13384441  0.12595959  0.63859665  1
  Ti  Ti58  1  0.37277008  0.13343876  0.87814220  1
  Ti  Ti59  1  0.87400956  0.88640411  0.13017404  1
  Ti  Ti60  1  0.61199973  0.38585727  0.13559277  1
  Ti  Ti61  1  0.12254644  0.13392418  0.38427091  1
  Ti  Ti62  1  0.62334106  0.36939918  0.88601309  1
  Ti  Ti63  1  0.37943466  0.86683858  0.89103084  1
  Ti  Ti64  1  0.63345311  0.61009586  0.13650039  1
  Ti  Ti65  1  0.13642783  0.63130001  0.85632802  1
  Ti  Ti66  1  0.12637434  0.38264273  0.62687564  1
  Ti  Ti67  1  0.87664035  0.38844275  0.86980322  1
  Ti  Ti68  1  0.36792373  0.62221003  0.64209505  1
  Ti  Ti69  1  0.62897402  0.86859341  0.38316092  1
  Ti  Ti70  1  0.38373840  0.86546249  0.61102518  1
  Ti  Ti71  1  0.14367729  0.36713708  0.37091261  1
  Ti  Ti72  1  0.61837929  0.86776753  0.62085163  1
  Ti  Ti73  1  0.38357715  0.62585433  0.37592822  1
  Bi  Bi74  1  0.22203002  0.72876281  -0.00980679  1
  Bi  Bi75  1  -0.02572562  0.78896945  0.77827625  1
  Bi  Bi76  1  0.49799459  0.51295271  0.51981587  1
  Bi  Bi77  1  0.48598244  0.74082596  0.03492988  1
  Bi  Bi78  1  0.72692899  0.73206321  0.78406310  1
  Bi  Bi79  1  -0.02343195  0.24957098  0.75232597  1
  Bi  Bi80  1  -0.00762192  0.47330129  0.02407733  1
  Bi  Bi81  1  0.25917549  0.25775899  0.51027335  1
  Bi  Bi82  1  0.72904936  0.00670168  0.53609446  1
  Bi  Bi83  1  0.73215398  0.28197174  0.50013496  1
  Bi  Bi84  1  0.26276667  0.01160123  0.51361398  1
  Bi  Bi85  1  0.23158387  -0.01049935  -0.00890035  1
  Bi  Bi86  1  0.73182042  0.51911159  0.73329228  1
  Bi  Bi87  1  -0.00772485  0.75334545  0.02763964  1
  Bi  Bi88  1  0.49346972  0.26637841  0.25105287  1
  Bi  Bi89  1  -0.02621620  0.00840862  0.77042589  1
  Bi  Bi90  1  0.49995380  0.50822568  0.75664914  1
  Bi  Bi91  1  0.72930681  0.02665243  0.25016692  1
  Bi  Bi92  1  0.25082918  0.48978495  0.00284718  1
  Bi  Bi93  1  0.79572429  -0.00986523  -0.00740961  1
  Bi  Bi94  1  0.76049839  0.25464775  0.25195812  1
  Bi  Bi95  1  0.75707690  -0.03740112  0.76274282  1
  Bi  Bi96  1  0.24019857  0.27171332  0.74200587  1
  Bi  Bi97  1  0.22405386  0.23849969  0.22074567  1
  Bi  Bi98  1  0.50600323  0.02288007  0.25053009  1
  Bi  Bi99  1  0.28068535  -0.01064544  0.76093201  1
  Bi  Bi100  1  0.74600919  0.76205122  0.01283741  1
  Bi  Bi101  1  0.26447744  0.49270976  0.49945321  1
  Bi  Bi102  1  0.01670548  0.76754264  0.51434003  1
  Bi  Bi103  1  0.72918847  0.52545888  -0.03647101  1
  Bi  Bi104  1  0.01892780  0.51473346  0.76345393  1
  Bi  Bi105  1  0.73939506  0.27088760  0.74560738  1
  Bi  Bi106  1  0.48947896  0.02374144  0.01011798  1
  Bi  Bi107  1  0.24115419  0.01634710  0.25730146  1
  Bi  Bi108  1  0.49748726  0.27988386  0.49555249  1
  Bi  Bi109  1  0.49301158  0.52193599  -0.01610598  1
  Bi  Bi110  1  -0.01321062  0.23335521  0.23329005  1
  Bi  Bi111  1  0.00895126  0.01366978  0.52925991  1
  Bi  Bi112  1  -0.00100095  0.50288069  0.52469401  1
  Bi  Bi113  1  0.01714705  0.24982539  0.01357419  1
  Bi  Bi114  1  0.77868317  0.29513046  0.03776890  1
  Bi  Bi115  1  0.76691445  0.75053069  0.26539803  1
  Bi  Bi116  1  0.00477359  0.47247866  0.27187250  1
  Bi  Bi117  1  0.76510358  0.74156822  0.52960349  1
  Bi  Bi118  1  0.51521122  0.73235865  0.26155768  1
  Bi  Bi119  1  -0.02955769  0.25278733  0.51068170  1
  Bi  Bi120  1  0.51238633  0.03082490  0.74131482  1
  Bi  Bi121  1  0.22268875  0.74618268  0.28275473  1
  Bi  Bi122  1  0.50719982  0.76843257  0.76808303  1
  Bi  Bi123  1  0.49710271  0.26644747  0.75791561  1
  Bi  Bi124  1  0.49186558  0.25510419  0.02849139  1
  O  O125  1  0.14433640  0.09404414  -0.00104920  1
  O  O126  1  0.10939800  0.16080389  0.25264952  1
  O  O127  1  0.15003502  0.10577397  0.49569714  1
  O  O128  1  0.11992047  0.13379240  0.75278158  1
  O  O129  1  0.15091911  0.39606247  -0.01146099  1
  O  O130  1  0.09989029  0.35990511  0.25869997  1
  O  O131  1  0.16296684  0.37956643  0.50592975  1
  O  O132  1  0.10535682  0.34612559  0.73864936  1
  O  O133  1  0.15471602  0.60551103  -0.02438302  1
  O  O134  1  0.14312687  0.61999371  0.24541561  1
  O  O135  1  0.11933720  0.60110727  0.49559330  1
  O  O136  1  0.10404617  0.64070071  0.73590058  1
  O  O137  1  0.11536729  0.90634126  0.00602676  1
  O  O138  1  0.11714856  0.83817844  0.24530802  1
  O  O139  1  0.11492207  0.87633192  0.49600200  1
  O  O140  1  0.15858996  0.84047870  0.73910184  1
  O  O141  1  0.39035577  0.12308248  -0.00221453  1
  O  O142  1  0.39132189  0.10570280  0.25750463  1
  O  O143  1  0.34735839  0.12800714  0.49414937  1
  O  O144  1  0.37875723  0.09535937  0.75415202  1
  O  O145  1  0.33433735  0.35762290  0.01117138  1
  O  O146  1  0.42358134  0.39042742  0.24469020  1
  O  O147  1  0.34160262  0.36998834  0.49793031  1
  O  O148  1  0.41393532  0.38303233  0.75357770  1
  O  O149  1  0.38880151  0.63576149  0.00295471  1
  O  O150  1  0.35160714  0.59679531  0.24227567  1
  O  O151  1  0.41701432  0.64505707  0.48434083  1
  O  O152  1  0.36446079  0.56793297  0.74405505  1
  O  O153  1  0.38303528  0.84594154  0.00241089  1
  O  O154  1  0.37065546  0.88484602  0.25132316  1
  O  O155  1  0.35954734  0.82308476  0.49535365  1
  O  O156  1  0.38149257  0.88846738  0.72998476  1
  O  O157  1  0.61167990  0.11245552  -0.00276961  1
  O  O158  1  0.60445774  0.11783907  0.25727333  1
  O  O159  1  0.63624043  0.11040630  0.50246919  1
  O  O160  1  0.60939244  0.13338980  0.74953871  1
  O  O161  1  0.65313156  0.38852072  -0.00013576  1
  O  O162  1  0.60521034  0.35866057  0.25427697  1
  O  O163  1  0.66044323  0.40323502  0.49473860  1
  O  O164  1  0.61501974  0.34924343  0.75260657  1
  O  O165  1  0.61568319  0.59052541  0.01198024  1
  O  O166  1  0.63776781  0.65345864  0.24949518  1
  O  O167  1  0.62802121  0.60368828  0.49101443  1
  O  O168  1  0.64965109  0.62637410  0.74388128  1
  O  O169  1  0.62534495  0.87369830  -0.00158935  1
  O  O170  1  0.63337015  0.83655260  0.24652506  1
  O  O171  1  0.64209850  0.88239468  0.49468647  1
  O  O172  1  0.60955575  0.87516283  0.73755717  1
  O  O173  1  0.85723232  0.11511712  -0.00132639  1
  O  O174  1  0.92041049  0.10930708  0.25803759  1
  O  O175  1  0.86242100  0.15210303  0.49090389  1
  O  O176  1  0.88937752  0.13647297  0.75863592  1
  O  O177  1  0.86406673  0.38949571  -0.00815883  1
  O  O178  1  0.87090250  0.42067397  0.27160215  1
  O  O179  1  0.86206515  0.34760888  0.49682773  1
  O  O180  1  0.88147516  0.35235865  0.75253953  1
  O  O181  1  0.88898346  0.61140323  -0.00081247  1
  O  O182  1  0.85941658  0.61781365  0.24597417  1
  O  O183  1  0.88554330  0.65909951  0.48838147  1
  O  O184  1  0.88842280  0.62669203  0.74790553  1
  O  O185  1  0.90545413  0.90855425  0.00566679  1
  O  O186  1  0.86542852  0.86688358  0.24428822  1
  O  O187  1  0.88773194  0.85942112  0.48996014  1
  O  O188  1  0.88381071  0.89019129  0.74681644  1
  O  O189  1  0.00167267  0.15448416  0.11292323  1
  O  O190  1  0.00471148  0.10953649  0.40088988  1
  O  O191  1  0.01782734  0.13224178  0.59946793  1
  O  O192  1  0.01742846  0.07745535  0.88903534  1
  O  O193  1  0.01164179  0.35936733  0.09779015  1
  O  O194  1  -0.01615166  0.40866387  0.39188074  1
  O  O195  1  0.01091637  0.37046994  0.59024652  1
  O  O196  1  -0.00406841  0.40478828  0.87366987  1
  O  O197  1  0.00041264  0.65086078  0.12929306  1
  O  O198  1  -0.00464881  0.59109652  0.36609428  1
  O  O199  1  0.00216097  0.63899282  0.60246882  1
  O  O200  1  0.00800892  0.59911366  0.87239066  1
  O  O201  1  -0.00480657  0.85009625  0.13680625  1
  O  O202  1  -0.00975316  0.90046799  0.34866693  1
  O  O203  1  0.01054512  0.84500399  0.63022690  1
  O  O204  1  0.01885131  0.89975343  0.85124037  1
  O  O205  1  0.24816542  0.11650735  0.15663324  1
  O  O206  1  0.25003527  0.13236104  0.34451223  1
  O  O207  1  0.24970294  0.08636119  0.63455413  1
  O  O208  1  0.25927026  0.14958032  0.87663458  1
  O  O209  1  0.25942400  0.39544143  0.16208886  1
  O  O210  1  0.25089497  0.35114930  0.34838319  1
  O  O211  1  0.24764929  0.39616723  0.67314587  1
  O  O212  1  0.25069991  0.35536393  0.85046085  1
  O  O213  1  0.24510129  0.63154905  0.11015219  1
  O  O214  1  0.24635799  0.63781201  0.37613190  1
  O  O215  1  0.24751366  0.60776548  0.61729886  1
  O  O216  1  0.24727005  0.66537077  0.84152561  1
  O  O217  1  0.24627550  0.86792035  0.12478042  1
  O  O218  1  0.24367593  0.84694045  0.37826764  1
  O  O219  1  0.25137934  0.88559894  0.60338346  1
  O  O220  1  0.26484360  0.84916616  0.86779624  1
  O  O221  1  0.49981332  0.10054320  0.12383750  1
  O  O222  1  0.48853624  0.08792105  0.39286408  1
  O  O223  1  0.49782522  0.12481441  0.63148630  1
  O  O224  1  0.50011738  0.09443073  0.87202090  1
  O  O225  1  0.50121468  0.38042148  0.08463685  1
  O  O226  1  0.50445399  0.39446451  0.41098285  1
  O  O227  1  0.49911930  0.38751309  0.59242054  1
  O  O228  1  0.50928009  0.40327640  0.89510719  1
  O  O229  1  0.50354490  0.63731973  0.14019485  1
  O  O230  1  0.49327366  0.60234974  0.32950331  1
  O  O231  1  0.49320041  0.60787895  0.63893346  1
  O  O232  1  0.48952724  0.59072392  0.86455247  1
  O  O233  1  0.50663186  0.85593221  0.12625055  1
  O  O234  1  0.48821130  0.87967138  0.40136550  1
  O  O235  1  0.49914471  0.83361829  0.59417338  1
  O  O236  1  0.49948171  0.88079441  0.86396244  1
  O  O237  1  0.74562445  0.13359810  0.16278692  1
  O  O238  1  0.74986029  0.13570955  0.34689817  1
  O  O239  1  0.73937714  0.11351129  0.63390545  1
  O  O240  1  0.74160813  0.15390609  0.87101873  1
  O  O241  1  0.73520621  0.37792165  0.14134813  1
  O  O242  1  0.74427852  0.35453889  0.36815472  1
  O  O243  1  0.74978499  0.35285975  0.63404002  1
  O  O244  1  0.75226572  0.34496968  0.86141329  1
  O  O245  1  0.74923829  0.57900228  0.12382243  1
  O  O246  1  0.74863723  0.65879296  0.37672826  1
  O  O247  1  0.76540170  0.61199500  0.59799512  1
  O  O248  1  0.76321760  0.64281365  0.88457537  1
  O  O249  1  0.75343169  0.86804015  0.10198819  1
  O  O250  1  0.75047027  0.84462877  0.37100953  1
  O  O251  1  0.74782427  0.89368113  0.62732833  1
  O  O252  1  0.74040683  0.86612519  0.86125033  1
  O  O253  1  0.12614982  -0.00904945  0.16001745  1
  O  O254  1  0.12626722  0.01212167  0.34095965  1
  O  O255  1  0.10400239  -0.00822401  0.63829546  1
  O  O256  1  0.17486938  -0.00070064  0.86550138  1
  O  O257  1  0.15766043  0.25433817  0.09292586  1
  O  O258  1  0.11460089  0.25194995  0.39923606  1
  O  O259  1  0.15602023  0.24241160  0.61581441  1
  O  O260  1  0.12054678  0.23960720  0.90359381  1
  O  O261  1  0.10329981  0.50798634  0.12012160  1
  O  O262  1  0.14603861  0.49307407  0.35746651  1
  O  O263  1  0.10446439  0.49900786  0.62907482  1
  O  O264  1  0.14711528  0.50697320  0.82498150  1
  O  O265  1  0.12398623  0.74503895  0.08778697  1
  O  O266  1  0.10703984  0.73392627  0.37222190  1
  O  O267  1  0.14648430  0.74493125  0.58422255  1
  O  O268  1  0.10971359  0.74560978  0.90036433  1
  O  O269  1  0.37711436  -0.01550727  0.10574931  1
  O  O270  1  0.35348788  -0.01649697  0.39447959  1
  O  O271  1  0.39684612  -0.02254333  0.57419847  1
  O  O272  1  0.35499192  -0.01145646  0.88496331  1
  O  O273  1  0.39718546  0.25462246  0.13897418  1
  O  O274  1  0.40157005  0.24571696  0.36982016  1
  O  O275  1  0.34285838  0.25348909  0.62759023  1
  O  O276  1  0.40576999  0.24544753  0.86619213  1
  O  O277  1  0.39080667  0.50345098  0.11638509  1
  O  O278  1  0.34485768  0.50598587  0.38219458  1
  O  O279  1  0.37344121  0.50665646  0.58385617  1
  O  O280  1  0.33128521  0.49759233  0.89166983  1
  O  O281  1  0.38065435  0.74483969  0.13336092  1
  O  O282  1  0.38865216  0.74278812  0.34670796  1
  O  O283  1  0.35541713  0.73628047  0.66349055  1
  O  O284  1  0.39474010  0.75066047  0.84746504  1
  O  O285  1  0.63012665  -0.01488700  0.15004314  1
  O  O286  1  0.62756806  -0.02047450  0.35188069  1
  O  O287  1  0.61419693  -0.00599092  0.61733068  1
  O  O288  1  0.64166350  0.00173783  0.86303736  1
  O  O289  1  0.59768768  0.25655474  0.12122160  1
  O  O290  1  0.60217669  0.25981087  0.40336447  1
  O  O291  1  0.61205266  0.25146223  0.59540231  1
  O  O292  1  0.59133524  0.24875860  0.88175570  1
  O  O293  1  0.59119014  0.49899659  0.16310327  1
  O  O294  1  0.63957340  0.50580298  0.35529532  1
  O  O295  1  0.63921761  0.50170717  0.63354006  1
  O  O296  1  0.65524327  0.48540488  0.85156421  1
  O  O297  1  0.64568067  0.73366099  0.10034680  1
  O  O298  1  0.58232201  0.74166434  0.39016387  1
  O  O299  1  0.65093496  0.75247518  0.61732349  1
  O  O300  1  0.61249461  0.75809129  0.86020828  1
  O  O301  1  0.85176015  -0.00195192  0.13118141  1
  O  O302  1  0.85792225  0.00117949  0.37801098  1
  O  O303  1  0.89691091  0.00572574  0.60997599  1
  O  O304  1  0.85647338  0.01513706  0.86167949  1
  O  O305  1  0.85993965  0.25330761  0.14521122  1
  O  O306  1  0.87704731  0.24641805  0.34134818  1
  O  O307  1  0.90226763  0.24790924  0.62943827  1
  O  O308  1  0.90763700  0.24661098  0.88662044  1
  O  O309  1  0.90599162  0.50601947  0.12756447  1
  O  O310  1  0.82858536  0.50942069  0.42509044  1
  O  O311  1  0.89749847  0.50366348  0.62142488  1
  O  O312  1  0.85319347  0.50012859  0.85931388  1
  O  O313  1  0.85783578  0.74303314  0.10141392  1
  O  O314  1  0.90011227  0.74591039  0.34283673  1
  O  O315  1  0.85715485  0.74922811  0.63181197  1
  O  O316  1  0.90072278  0.74371906  0.88567390  1
