# generated using pymatgen
data_Mg32Ti42(Bi17O64)3
_symmetry_space_group_name_H-M   'P 1'
_cell_length_a   15.96334770
_cell_length_b   15.95396024
_cell_length_c   15.97060844
_cell_angle_alpha   89.96552904
_cell_angle_beta   89.96735767
_cell_angle_gamma   90.08172027
_symmetry_Int_Tables_number   1
_chemical_formula_structural   Mg32Ti42(Bi17O64)3
_chemical_formula_sum   'Mg32 Ti42 Bi51 O192'
_cell_volume   4067.36689602
_cell_formula_units_Z   1
loop_
 _symmetry_equiv_pos_site_id
 _symmetry_equiv_pos_as_xyz
  1  'x, y, z'
loop_
 _atom_site_type_symbol
 _atom_site_label
 _atom_site_symmetry_multiplicity
 _atom_site_fract_x
 _atom_site_fract_y
 _atom_site_fract_z
 _atom_site_occupancy
  Mg  Mg0  1  0.61744083  0.37250831  0.62855469  1
  Mg  Mg1  1  0.86837157  0.36768736  0.62466013  1
  Mg  Mg2  1  0.13295190  0.36533202  0.62484928  1
  Mg  Mg3  1  0.62074657  0.13000963  0.13438264  1
  Mg  Mg4  1  0.11727460  0.62932673  0.62747527  1
  Mg  Mg5  1  0.37857814  0.87235061  0.61665679  1
  Mg  Mg6  1  0.12048681  0.87466992  0.62542329  1
  Mg  Mg7  1  0.86291622  0.87027604  0.37062285  1
  Mg  Mg8  1  0.38316674  0.38456354  0.88605541  1
  Mg  Mg9  1  0.62733617  0.88745499  0.61694961  1
  Mg  Mg10  1  0.11995171  0.12773022  0.37805012  1
  Mg  Mg11  1  0.62250925  0.62512910  0.62405096  1
  Mg  Mg12  1  0.12363249  0.37405828  0.87896985  1
  Mg  Mg13  1  0.12788804  0.88003066  0.36019707  1
  Mg  Mg14  1  0.37642803  0.12941937  0.12491561  1
  Mg  Mg15  1  0.63752968  0.87191523  0.13611816  1
  Mg  Mg16  1  0.36926607  0.61332638  0.38149091  1
  Mg  Mg17  1  0.12492239  0.63830101  0.87089101  1
  Mg  Mg18  1  0.87079971  0.12957177  0.37889252  1
  Mg  Mg19  1  0.73696351  0.44641026  0.30678414  1
  Mg  Mg20  1  0.26085053  0.22134932  0.45682765  1
  Mg  Mg21  1  0.73154218  0.03113251  0.45493727  1
  Mg  Mg22  1  0.47543985  0.54648104  0.22163075  1
  Mg  Mg23  1  0.73755792  0.26269099  0.78436268  1
  Mg  Mg24  1  0.04988153  0.45528596  0.74723533  1
  Mg  Mg25  1  0.78418102  0.71616480  0.25136907  1
  Mg  Mg26  1  0.72830453  0.45441283  0.48634210  1
  Mg  Mg27  1  -0.01347954  -0.01223038  0.42989961  1
  Mg  Mg28  1  0.30653829  -0.04585282  0.00774012  1
  Mg  Mg29  1  0.75076630  0.67212758  0.49761605  1
  Mg  Mg30  1  0.55664953  0.29727252  0.28260761  1
  Mg  Mg31  1  0.00777196  -0.01596981  -0.06000884  1
  Ti  Ti32  1  0.87401660  0.88683627  0.60679101  1
  Ti  Ti33  1  0.87752218  0.12039678  0.87709390  1
  Ti  Ti34  1  0.63681549  0.88281259  0.37405970  1
  Ti  Ti35  1  0.88114128  0.38597358  0.11272133  1
  Ti  Ti36  1  0.87729498  0.13724767  0.11791978  1
  Ti  Ti37  1  0.63625601  0.63546946  0.35751191  1
  Ti  Ti38  1  0.87312591  0.63457006  0.86927047  1
  Ti  Ti39  1  0.62364295  0.63978587  0.87593000  1
  Ti  Ti40  1  0.63460121  0.39281236  0.12502025  1
  Ti  Ti41  1  0.38473062  0.62877710  0.61033763  1
  Ti  Ti42  1  0.12746304  0.13756823  0.61936740  1
  Ti  Ti43  1  0.38629542  0.87300601  0.86839987  1
  Ti  Ti44  1  0.86259792  0.12128838  0.60841611  1
  Ti  Ti45  1  0.14139670  0.87386785  0.87885785  1
  Ti  Ti46  1  0.61904608  0.12728409  0.86705452  1
  Ti  Ti47  1  0.62163933  0.38361224  0.87566651  1
  Ti  Ti48  1  0.38216159  0.63268565  0.86911058  1
  Ti  Ti49  1  0.11396661  0.63596251  0.11732189  1
  Ti  Ti50  1  0.87963817  0.37668759  0.38702208  1
  Ti  Ti51  1  0.36292982  0.12166974  0.87598387  1
  Ti  Ti52  1  0.60967665  0.12807641  0.36006507  1
  Ti  Ti53  1  0.64045889  0.62835619  0.12849065  1
  Ti  Ti54  1  0.62516957  0.13143131  0.62364954  1
  Ti  Ti55  1  0.87646811  0.61513357  0.37226335  1
  Ti  Ti56  1  0.35734833  0.13455245  0.63260473  1
  Ti  Ti57  1  0.11664655  0.37163692  0.11335263  1
  Ti  Ti58  1  0.11946311  0.88339597  0.12181854  1
  Ti  Ti59  1  0.12912804  0.11399295  0.86839478  1
  Ti  Ti60  1  0.87132817  0.86468677  0.14076183  1
  Ti  Ti61  1  0.36918122  0.86438385  0.37806255  1
  Ti  Ti62  1  0.87459620  0.61969665  0.62075692  1
  Ti  Ti63  1  0.37751112  0.37872614  0.61573366  1
  Ti  Ti64  1  0.87797661  0.61626720  0.11665130  1
  Ti  Ti65  1  0.39651698  0.36420467  0.14393004  1
  Ti  Ti66  1  0.63093968  0.88805565  0.87426852  1
  Ti  Ti67  1  0.37054506  0.37548581  0.36989803  1
  Ti  Ti68  1  0.12461992  0.61234728  0.38051616  1
  Ti  Ti69  1  0.13406561  0.37289474  0.38161135  1
  Ti  Ti70  1  0.87155486  0.87853712  0.87556013  1
  Ti  Ti71  1  0.36933860  0.11672249  0.35841216  1
  Ti  Ti72  1  0.87302543  0.38113991  0.87255612  1
  Ti  Ti73  1  0.12656852  0.11874779  0.11068495  1
  Bi  Bi74  1  0.28341006  0.26970878  0.00420660  1
  Bi  Bi75  1  0.24988072  -0.01815700  0.72095529  1
  Bi  Bi76  1  0.23042247  0.23003298  0.23355968  1
  Bi  Bi77  1  0.49160643  0.01094530  0.72121290  1
  Bi  Bi78  1  0.52253829  0.77821949  0.01534134  1
  Bi  Bi79  1  0.77318974  0.01650741  0.25680855  1
  Bi  Bi80  1  0.24268929  0.48856145  0.21787526  1
  Bi  Bi81  1  0.21932634  0.76395088  0.48880590  1
  Bi  Bi82  1  0.23764017  0.53273456  0.75176308  1
  Bi  Bi83  1  0.49460938  0.50759165  0.72847695  1
  Bi  Bi84  1  0.74994453  -0.00447193  0.72744921  1
  Bi  Bi85  1  0.26819950  0.52971848  -0.00741707  1
  Bi  Bi86  1  0.74687836  0.74783375  0.71666347  1
  Bi  Bi87  1  0.22939500  0.49963997  0.52545744  1
  Bi  Bi88  1  0.26466546  0.70642831  0.24279774  1
  Bi  Bi89  1  0.47022538  0.23244419  0.49328051  1
  Bi  Bi90  1  0.28082394  -0.01794108  0.20699574  1
  Bi  Bi91  1  0.52391571  0.26197218  0.02118639  1
  Bi  Bi92  1  -0.00063086  0.48369359  0.54533416  1
  Bi  Bi93  1  0.21126064  -0.00608501  0.49150923  1
  Bi  Bi94  1  0.70042715  0.26579984  0.48867980  1
  Bi  Bi95  1  0.46801712  0.73622550  0.22844262  1
  Bi  Bi96  1  0.29429598  0.75897520  0.02374270  1
  Bi  Bi97  1  0.74085752  0.23877805  -0.01350409  1
  Bi  Bi98  1  0.01364397  0.76019894  0.25811835  1
  Bi  Bi99  1  0.00763798  0.50737039  0.25717411  1
  Bi  Bi100  1  0.01085474  0.26729492  0.26301736  1
  Bi  Bi101  1  0.75860127  0.26875064  0.22454608  1
  Bi  Bi102  1  0.48384031  0.53677937  0.02323297  1
  Bi  Bi103  1  0.50048922  -0.04047316  0.23159003  1
  Bi  Bi104  1  0.48480386  0.03222968  0.00473694  1
  Bi  Bi105  1  -0.00547657  0.77784248  0.47803921  1
  Bi  Bi106  1  0.01475581  0.51275694  -0.04217705  1
  Bi  Bi107  1  -0.00719410  0.23120821  0.49251768  1
  Bi  Bi108  1  0.25021930  0.28156351  0.77955721  1
  Bi  Bi109  1  0.53500867  0.75240324  0.49563605  1
  Bi  Bi110  1  0.74569404  0.52072342  -0.01840290  1
  Bi  Bi111  1  0.73716786  0.47481121  0.72511968  1
  Bi  Bi112  1  -0.03039640  0.75979485  0.72657708  1
  Bi  Bi113  1  0.73001266  0.00972042  0.02986643  1
  Bi  Bi114  1  0.00296237  0.02183297  0.72060401  1
  Bi  Bi115  1  0.76412218  0.76973223  0.00680694  1
  Bi  Bi116  1  0.00502811  0.77807261  -0.00992096  1
  Bi  Bi117  1  0.53376450  0.47779096  0.43849684  1
  Bi  Bi118  1  0.47559517  0.26969061  0.75402573  1
  Bi  Bi119  1  -0.00885354  0.03349698  0.23847463  1
  Bi  Bi120  1  0.52245112  0.76986175  0.73053625  1
  Bi  Bi121  1  0.01375690  0.23506530  -0.02160142  1
  Bi  Bi122  1  -0.03001190  0.26052878  0.74460157  1
  Bi  Bi123  1  0.24830627  0.75988128  0.71955760  1
  Bi  Bi124  1  0.49063955  -0.01326480  0.47337225  1
  O  O125  1  0.13711195  0.11096870  0.00090935  1
  O  O126  1  0.10500855  0.15293136  0.25157995  1
  O  O127  1  0.16505835  0.13381757  0.50505926  1
  O  O128  1  0.10006511  0.12618225  0.75372102  1
  O  O129  1  0.09288754  0.38352962  0.00235300  1
  O  O130  1  0.13142799  0.34146961  0.25484277  1
  O  O131  1  0.10966292  0.40414352  0.49508276  1
  O  O132  1  0.14880533  0.36848020  0.75178182  1
  O  O133  1  0.12033380  0.59185019  0.00445258  1
  O  O134  1  0.10574739  0.64168332  0.24772829  1
  O  O135  1  0.12466436  0.59629047  0.49645006  1
  O  O136  1  0.15628371  0.64276878  0.74879032  1
  O  O137  1  0.08035000  0.89586563  0.00542892  1
  O  O138  1  0.12636290  0.84375551  0.23851957  1
  O  O139  1  0.12845678  0.86996094  0.49833583  1
  O  O140  1  0.15446765  0.86786325  0.75998885  1
  O  O141  1  0.36710243  0.12363118  -0.00483172  1
  O  O142  1  0.38155258  0.09434533  0.24892079  1
  O  O143  1  0.35227659  0.15074116  0.51511232  1
  O  O144  1  0.39369737  0.12789310  0.75737208  1
  O  O145  1  0.38950400  0.35861245  0.01671147  1
  O  O146  1  0.34520689  0.37175048  0.25372357  1
  O  O147  1  0.40578915  0.36260375  0.50306234  1
  O  O148  1  0.36096290  0.36150049  0.75591960  1
  O  O149  1  0.37140326  0.63379781  0.00391796  1
  O  O150  1  0.37017361  0.61778437  0.25519336  1
  O  O151  1  0.40124660  0.63057773  0.50040166  1
  O  O152  1  0.36261135  0.60543045  0.75737416  1
  O  O153  1  0.39107679  0.85347417  -0.00446429  1
  O  O154  1  0.37561264  0.89740505  0.25740494  1
  O  O155  1  0.40100161  0.86969403  0.49317631  1
  O  O156  1  0.34829387  0.88332765  0.75883801  1
  O  O157  1  0.65480088  0.11921612  -0.00966363  1
  O  O158  1  0.59573163  0.16442002  0.25418916  1
  O  O159  1  0.65128428  0.11392903  0.51199235  1
  O  O160  1  0.62308589  0.16287769  0.75809006  1
  O  O161  1  0.60392744  0.39481925  0.00585483  1
  O  O162  1  0.65733372  0.36370165  0.24676257  1
  O  O163  1  0.61875485  0.38769528  0.50204374  1
  O  O164  1  0.65835893  0.35861054  0.75851166  1
  O  O165  1  0.62021677  0.59744882  0.00098918  1
  O  O166  1  0.66558124  0.65715543  0.24092745  1
  O  O167  1  0.62646256  0.64157950  0.48979820  1
  O  O168  1  0.63716390  0.65820957  0.76056996  1
  O  O169  1  0.59674552  0.88987528  -0.00796709  1
  O  O170  1  0.63455967  0.89504323  0.25889991  1
  O  O171  1  0.59449650  0.88045659  0.49586825  1
  O  O172  1  0.63838008  0.85095367  0.75907695  1
  O  O173  1  0.85235364  0.11796326  0.00435225  1
  O  O174  1  0.88211615  0.12853484  0.24532923  1
  O  O175  1  0.83630576  0.09668378  0.50188385  1
  O  O176  1  0.90891181  0.12569849  0.76131109  1
  O  O177  1  0.89284960  0.38365532  -0.00266180  1
  O  O178  1  0.84237458  0.36959569  0.25482877  1
  O  O179  1  0.90736882  0.38656439  0.50090308  1
  O  O180  1  0.84708770  0.33344854  0.75462582  1
  O  O181  1  0.87412636  0.60039610  -0.00163561  1
  O  O182  1  0.87506041  0.62881409  0.25252652  1
  O  O183  1  0.86549054  0.61728105  0.50437176  1
  O  O184  1  0.85918660  0.65349226  0.75184151  1
  O  O185  1  0.88566425  0.86177400  0.00693390  1
  O  O186  1  0.84231215  0.83412835  0.24993718  1
  O  O187  1  0.90617008  0.90130942  0.49855973  1
  O  O188  1  0.85779909  0.85958309  0.76185283  1
  O  O189  1  -0.00429775  0.12242708  0.11891949  1
  O  O190  1  -0.00589236  0.11612679  0.41516973  1
  O  O191  1  0.00369241  0.10559768  0.61083118  1
  O  O192  1  0.00048565  0.11036179  0.91292996  1
  O  O193  1  -0.00478985  0.35626241  0.14624813  1
  O  O194  1  -0.00475343  0.39290794  0.34353502  1
  O  O195  1  -0.00098638  0.38967989  0.64827178  1
  O  O196  1  -0.01012200  0.38305902  0.83744778  1
  O  O197  1  -0.00609965  0.63750667  0.11870358  1
  O  O198  1  -0.00314327  0.59326495  0.37488929  1
  O  O199  1  -0.00829098  0.65106369  0.63468565  1
  O  O200  1  -0.00945764  0.62485647  0.87301896  1
  O  O201  1  -0.00905388  0.84079248  0.14085919  1
  O  O202  1  0.00125499  0.86787245  0.36858473  1
  O  O203  1  -0.00453446  0.87362064  0.64673602  1
  O  O204  1  -0.00868397  0.87056858  0.87314529  1
  O  O205  1  0.24038685  0.11577795  0.14558399  1
  O  O206  1  0.25088765  0.14597971  0.35688596  1
  O  O207  1  0.24645290  0.14116271  0.65851475  1
  O  O208  1  0.24702464  0.11477154  0.85805041  1
  O  O209  1  0.23789417  0.39203810  0.11190603  1
  O  O210  1  0.24292365  0.34028901  0.40291378  1
  O  O211  1  0.26063534  0.38426690  0.60631586  1
  O  O212  1  0.25110861  0.36391184  0.89556353  1
  O  O213  1  0.23466141  0.60882009  0.13790821  1
  O  O214  1  0.24016762  0.63391469  0.37450841  1
  O  O215  1  0.26268914  0.59896929  0.61768481  1
  O  O216  1  0.25176539  0.60892302  0.88475985  1
  O  O217  1  0.23434231  0.89317949  0.09835322  1
  O  O218  1  0.25137161  0.86762925  0.38764226  1
  O  O219  1  0.25347079  0.88042779  0.62357633  1
  O  O220  1  0.24784355  0.88460298  0.91516993  1
  O  O221  1  0.50195058  0.13805664  0.09380116  1
  O  O222  1  0.49157844  0.11732545  0.39690038  1
  O  O223  1  0.50633913  0.10860539  0.62027455  1
  O  O224  1  0.50516622  0.11849297  0.89026327  1
  O  O225  1  0.50897961  0.33906818  0.15889444  1
  O  O226  1  0.49075526  0.38464279  0.34790297  1
  O  O227  1  0.49843756  0.37580352  0.66625094  1
  O  O228  1  0.50804980  0.37471339  0.85564416  1
  O  O229  1  0.51245688  0.63551675  0.13471426  1
  O  O230  1  0.52505470  0.59550897  0.33117109  1
  O  O231  1  0.49867315  0.62675222  0.65164696  1
  O  O232  1  0.50197249  0.62328494  0.87373269  1
  O  O233  1  0.51262421  0.84689125  0.14636618  1
  O  O234  1  0.49598047  0.90198857  0.36075248  1
  O  O235  1  0.49919513  0.88660118  0.65259082  1
  O  O236  1  0.49948377  0.87222444  0.84879922  1
  O  O237  1  0.75585567  0.10401582  0.14034148  1
  O  O238  1  0.73877324  0.11672873  0.35465960  1
  O  O239  1  0.75483547  0.11873266  0.65639809  1
  O  O240  1  0.76427361  0.16047556  0.85965650  1
  O  O241  1  0.75292616  0.38384040  0.11159124  1
  O  O242  1  0.76048750  0.36566810  0.40292167  1
  O  O243  1  0.74893882  0.40242068  0.60493602  1
  O  O244  1  0.75429447  0.34952792  0.89288662  1
  O  O245  1  0.75015211  0.59132077  0.10766768  1
  O  O246  1  0.75807107  0.65991388  0.37411515  1
  O  O247  1  0.74961266  0.64152724  0.62006408  1
  O  O248  1  0.74688328  0.62869212  0.89503096  1
  O  O249  1  0.75580214  0.87880764  0.10183921  1
  O  O250  1  0.74504840  0.90847113  0.40241797  1
  O  O251  1  0.75491732  0.89573231  0.62257269  1
  O  O252  1  0.74634139  0.87948638  0.89930093  1
  O  O253  1  0.10775323  -0.00213932  0.14600136  1
  O  O254  1  0.11587123  0.00183111  0.39086797  1
  O  O255  1  0.14027739  0.00448628  0.62355607  1
  O  O256  1  0.11134689  -0.00425633  0.86673301  1
  O  O257  1  0.13765414  0.24739835  0.11158201  1
  O  O258  1  0.09066526  0.25949288  0.39285652  1
  O  O259  1  0.10243147  0.24684203  0.61582532  1
  O  O260  1  0.11339985  0.24001699  0.88506609  1
  O  O261  1  0.11220579  0.48840365  0.15581500  1
  O  O262  1  0.13669303  0.49291755  0.33936533  1
  O  O263  1  0.12480555  0.50093740  0.63814605  1
  O  O264  1  0.10788076  0.50228296  0.85393293  1
  O  O265  1  0.13074800  0.74587144  0.09443661  1
  O  O266  1  0.10765484  0.73644445  0.39723219  1
  O  O267  1  0.15254134  0.74911845  0.61483564  1
  O  O268  1  0.12153412  0.76090936  0.90006819  1
  O  O269  1  0.37264515  -0.00102433  0.10757308  1
  O  O270  1  0.36015273  0.00900376  0.40179927  1
  O  O271  1  0.36864040  0.01113950  0.63666262  1
  O  O272  1  0.37831705  -0.00658239  0.89910735  1
  O  O273  1  0.35119246  0.25180349  0.13338005  1
  O  O274  1  0.38432187  0.24511672  0.38354648  1
  O  O275  1  0.39549660  0.25073538  0.63621981  1
  O  O276  1  0.36772692  0.24297585  0.88249501  1
  O  O277  1  0.40374757  0.48424834  0.13622119  1
  O  O278  1  0.35429139  0.48530123  0.39040516  1
  O  O279  1  0.39645996  0.49541685  0.62669480  1
  O  O280  1  0.38073185  0.50621739  0.90877284  1
  O  O281  1  0.35630289  0.75250872  0.14718689  1
  O  O282  1  0.37905577  0.75245337  0.35637460  1
  O  O283  1  0.37022357  0.74350840  0.63544240  1
  O  O284  1  0.36463049  0.74837514  0.86758610  1
  O  O285  1  0.62477167  0.00227941  0.11901531  1
  O  O286  1  0.61635081  0.00908399  0.38566752  1
  O  O287  1  0.62765992  0.00808282  0.66293236  1
  O  O288  1  0.63417458  0.00481570  0.85453519  1
  O  O289  1  0.64146831  0.25526668  0.09967249  1
  O  O290  1  0.60297279  0.24397639  0.39662002  1
  O  O291  1  0.61827770  0.24794577  0.60568262  1
  O  O292  1  0.62230473  0.25224294  0.90705958  1
  O  O293  1  0.59982897  0.50019046  0.14961680  1
  O  O294  1  0.66101029  0.51322542  0.38487127  1
  O  O295  1  0.61929969  0.50307219  0.65917002  1
  O  O296  1  0.64394251  0.49632978  0.85992372  1
  O  O297  1  0.64270249  0.74361996  0.09467463  1
  O  O298  1  0.61105247  0.75972825  0.37645699  1
  O  O299  1  0.61147737  0.75793002  0.61915205  1
  O  O300  1  0.62049577  0.75183456  0.90471783  1
  O  O301  1  0.88576003  -0.01685892  0.15673301  1
  O  O302  1  0.88578798  -0.00184738  0.34574580  1
  O  O303  1  0.87749959  0.00195267  0.65109095  1
  O  O304  1  0.88180107  -0.00176550  0.88012064  1
  O  O305  1  0.86235309  0.25111904  0.11937211  1
  O  O306  1  0.89540590  0.25617803  0.38937354  1
  O  O307  1  0.88692023  0.23645274  0.61553929  1
  O  O308  1  0.91101714  0.24433152  0.88601837  1
  O  O309  1  0.89592952  0.49580073  0.13625238  1
  O  O310  1  0.84348284  0.49877578  0.37331396  1
  O  O311  1  0.88072129  0.50970119  0.64281920  1
  O  O312  1  0.85564855  0.49442489  0.86211237  1
  O  O313  1  0.84208416  0.73222059  0.12179660  1
  O  O314  1  0.89930450  0.74074785  0.39034205  1
  O  O315  1  0.87083317  0.76573635  0.62267075  1
  O  O316  1  0.87154462  0.74764380  0.89278778  1
