# generated using pymatgen
data_Mg32Ti42(Bi17O64)3
_symmetry_space_group_name_H-M   'P 1'
_cell_length_a   15.95172543
_cell_length_b   15.93946931
_cell_length_c   15.92077115
_cell_angle_alpha   89.76158928
_cell_angle_beta   89.96860022
_cell_angle_gamma   89.71495236
_symmetry_Int_Tables_number   1
_chemical_formula_structural   Mg32Ti42(Bi17O64)3
_chemical_formula_sum   'Mg32 Ti42 Bi51 O192'
_cell_volume   4047.96201674
_cell_formula_units_Z   1
loop_
 _symmetry_equiv_pos_site_id
 _symmetry_equiv_pos_as_xyz
  1  'x, y, z'
loop_
 _atom_site_type_symbol
 _atom_site_label
 _atom_site_symmetry_multiplicity
 _atom_site_fract_x
 _atom_site_fract_y
 _atom_site_fract_z
 _atom_site_occupancy
  Mg  Mg0  1  0.37507732  0.12419162  0.12575717  1
  Mg  Mg1  1  0.37588695  0.61866567  0.38156826  1
  Mg  Mg2  1  0.14135065  0.12044028  0.62520032  1
  Mg  Mg3  1  0.63326418  0.87159594  0.88045903  1
  Mg  Mg4  1  0.14117085  0.11749111  0.37531390  1
  Mg  Mg5  1  0.37965641  0.86955850  0.12278407  1
  Mg  Mg6  1  0.37720833  0.63189273  0.87399191  1
  Mg  Mg7  1  0.13428836  0.88368720  0.37476403  1
  Mg  Mg8  1  0.86225883  0.87699775  0.37816078  1
  Mg  Mg9  1  0.88610795  0.87271832  0.12308078  1
  Mg  Mg10  1  0.38001666  0.37501147  0.87748712  1
  Mg  Mg11  1  0.11891932  0.62423285  0.36493662  1
  Mg  Mg12  1  0.37276207  0.37422753  0.61980062  1
  Mg  Mg13  1  0.85608805  0.38069158  0.37043480  1
  Mg  Mg14  1  0.89241687  0.61953718  0.13265220  1
  Mg  Mg15  1  0.88272988  0.38176256  0.11914040  1
  Mg  Mg16  1  0.11886679  0.37128414  0.63297950  1
  Mg  Mg17  1  0.88044606  0.37229874  0.87797583  1
  Mg  Mg18  1  0.38232216  0.11687730  0.87475142  1
  Mg  Mg19  1  0.50927834  0.54636968  0.77785551  1
  Mg  Mg20  1  0.47387693  0.71251237  -0.01019844  1
  Mg  Mg21  1  0.20941536  0.69719426  0.50180051  1
  Mg  Mg22  1  0.80157495  0.55132715  -0.00239801  1
  Mg  Mg23  1  0.52332583  0.05247227  0.51396707  1
  Mg  Mg24  1  0.53509945  0.25657374  0.45315500  1
  Mg  Mg25  1  0.76706200  0.50357235  0.19414241  1
  Mg  Mg26  1  0.70077720  0.70937873  0.49026695  1
  Mg  Mg27  1  0.54106430  0.75867482  0.77001577  1
  Mg  Mg28  1  0.48726214  0.49436473  -0.02348436  1
  Mg  Mg29  1  0.49669707  0.32378302  0.73982352  1
  Mg  Mg30  1  -0.03629851  0.73011816  -0.06462123  1
  Mg  Mg31  1  0.26023025  0.03394496  0.50848948  1
  Ti  Ti32  1  0.62233962  0.86414321  0.61751270  1
  Ti  Ti33  1  0.38405246  0.12914090  0.62103908  1
  Ti  Ti34  1  0.62532943  0.38066220  0.36050065  1
  Ti  Ti35  1  0.62370494  0.86136524  0.11316356  1
  Ti  Ti36  1  0.38128277  0.87130260  0.38227064  1
  Ti  Ti37  1  0.62924719  0.61429181  0.35566058  1
  Ti  Ti38  1  0.61282991  0.15179609  0.63563461  1
  Ti  Ti39  1  0.14248136  0.88958007  0.61388043  1
  Ti  Ti40  1  0.13532876  0.12974562  0.12805134  1
  Ti  Ti41  1  0.86915611  0.37692086  0.63002219  1
  Ti  Ti42  1  0.61458964  0.62485950  0.64097193  1
  Ti  Ti43  1  0.62486669  0.38500597  0.11159987  1
  Ti  Ti44  1  0.13097255  0.88296764  0.87875570  1
  Ti  Ti45  1  0.12975768  0.11143597  0.87463646  1
  Ti  Ti46  1  0.62539441  0.11707176  0.86834021  1
  Ti  Ti47  1  0.86969998  0.87429326  0.60784005  1
  Ti  Ti48  1  0.38330117  0.38100858  0.38096187  1
  Ti  Ti49  1  0.12087610  0.37781081  0.86988725  1
  Ti  Ti50  1  0.85921849  0.13409108  0.61971329  1
  Ti  Ti51  1  0.61930903  0.63618669  0.88542829  1
  Ti  Ti52  1  0.38331554  0.13291144  0.38306830  1
  Ti  Ti53  1  0.86396062  0.61650452  0.36883424  1
  Ti  Ti54  1  0.12258090  0.62560753  0.12852066  1
  Ti  Ti55  1  0.63016520  0.85458898  0.36555781  1
  Ti  Ti56  1  0.88265285  0.13440205  0.12687575  1
  Ti  Ti57  1  0.13223513  0.87305944  0.13951745  1
  Ti  Ti58  1  0.62064539  0.37972841  0.62984685  1
  Ti  Ti59  1  0.86915972  0.12778335  0.36698491  1
  Ti  Ti60  1  0.62765431  0.62439215  0.11399886  1
  Ti  Ti61  1  0.87857924  0.88379101  0.88110858  1
  Ti  Ti62  1  0.63032028  0.12625121  0.12045214  1
  Ti  Ti63  1  0.11462158  0.37493988  0.11970112  1
  Ti  Ti64  1  0.37635729  0.37352098  0.11635410  1
  Ti  Ti65  1  0.37548397  0.86188865  0.87281639  1
  Ti  Ti66  1  0.87643124  0.12108314  0.87129278  1
  Ti  Ti67  1  0.39170748  0.87214057  0.61574606  1
  Ti  Ti68  1  0.62591837  0.12889179  0.36554966  1
  Ti  Ti69  1  0.37913613  0.62205975  0.11472982  1
  Ti  Ti70  1  0.13873810  0.63236394  0.88223299  1
  Ti  Ti71  1  0.61510765  0.39192951  0.87592636  1
  Ti  Ti72  1  0.38084376  0.62603578  0.61791235  1
  Ti  Ti73  1  0.86061554  0.63959134  0.61908244  1
  Bi  Bi74  1  0.48282855  0.74180743  0.23428433  1
  Bi  Bi75  1  -0.01203590  0.53249539  -0.03046495  1
  Bi  Bi76  1  -0.00895692  0.48513725  0.28227752  1
  Bi  Bi77  1  0.50591071  -0.01307825  0.00460847  1
  Bi  Bi78  1  0.50945124  0.47797879  0.51719930  1
  Bi  Bi79  1  0.25648453  0.74243399  0.71238412  1
  Bi  Bi80  1  0.22144630  0.48224970  0.26457253  1
  Bi  Bi81  1  0.72118972  0.00163645  0.49097182  1
  Bi  Bi82  1  0.23325575  0.75818234  0.01256980  1
  Bi  Bi83  1  0.74903937  0.50194613  0.51668164  1
  Bi  Bi84  1  0.75797405  0.00051217  -0.00190876  1
  Bi  Bi85  1  0.77303839  0.75514452  0.76141720  1
  Bi  Bi86  1  0.25870128  0.26158881  0.27838684  1
  Bi  Bi87  1  0.77057469  0.51828385  0.79608565  1
  Bi  Bi88  1  -0.00150652  0.75234259  0.27316639  1
  Bi  Bi89  1  0.74599625  -0.00809514  0.72597191  1
  Bi  Bi90  1  0.25007124  0.25382760  -0.01674926  1
  Bi  Bi91  1  0.02434673  0.01684668  0.49528578  1
  Bi  Bi92  1  0.49795156  0.73291512  0.47825236  1
  Bi  Bi93  1  0.52028623  0.24014924  -0.03324471  1
  Bi  Bi94  1  0.00802273  0.25455851  -0.01867938  1
  Bi  Bi95  1  -0.01161817  -0.01133940  0.27224915  1
  Bi  Bi96  1  0.77262715  0.75211125  0.23885184  1
  Bi  Bi97  1  0.76403324  0.27651264  0.22968587  1
  Bi  Bi98  1  0.02500861  0.77062246  0.74319653  1
  Bi  Bi99  1  0.48582398  0.49791308  0.23937502  1
  Bi  Bi100  1  0.00340949  0.53612590  0.52434947  1
  Bi  Bi101  1  0.28400085  0.24756891  0.74954269  1
  Bi  Bi102  1  0.02833114  0.75947940  0.49986722  1
  Bi  Bi103  1  0.23180573  0.50468920  0.54130378  1
  Bi  Bi104  1  0.75395862  -0.00684894  0.22793714  1
  Bi  Bi105  1  -0.01742293  0.00319104  0.72260277  1
  Bi  Bi106  1  0.75226698  0.27972882  0.76251786  1
  Bi  Bi107  1  0.49188573  0.24631318  0.21674976  1
  Bi  Bi108  1  0.49288836  -0.00644653  0.23648671  1
  Bi  Bi109  1  0.28543750  0.00071345  0.74034779  1
  Bi  Bi110  1  0.25968486  0.73368010  0.28785857  1
  Bi  Bi111  1  0.76998533  0.25543230  -0.00848121  1
  Bi  Bi112  1  0.02152147  -0.00451339  0.03396109  1
  Bi  Bi113  1  0.78810609  0.75408053  0.01167950  1
  Bi  Bi114  1  0.25275958  0.48963777  0.00838976  1
  Bi  Bi115  1  0.27656318  0.00611100  0.27364082  1
  Bi  Bi116  1  0.28604351  0.50759623  0.76544047  1
  Bi  Bi117  1  0.75395760  0.25856354  0.47767510  1
  Bi  Bi118  1  0.21529089  0.28912937  0.48945591  1
  Bi  Bi119  1  0.00027340  0.28634484  0.49611875  1
  Bi  Bi120  1  0.51199437  -0.02545482  0.75956676  1
  Bi  Bi121  1  0.03882702  0.53857301  0.73937896  1
  Bi  Bi122  1  0.27383932  0.00810754  0.00728800  1
  Bi  Bi123  1  0.03334672  0.25706389  0.27690933  1
  Bi  Bi124  1  0.02919048  0.23523817  0.73168220  1
  O  O125  1  0.10126417  0.10585611  -0.00518903  1
  O  O126  1  0.14581814  0.13157402  0.24208629  1
  O  O127  1  0.13635398  0.09159025  0.50088557  1
  O  O128  1  0.13271088  0.14187350  0.75633798  1
  O  O129  1  0.09976291  0.38081429  0.00267152  1
  O  O130  1  0.15873734  0.36011538  0.23571011  1
  O  O131  1  0.10511479  0.37355793  0.49966581  1
  O  O132  1  0.13707109  0.35738333  0.75792987  1
  O  O133  1  0.11763285  0.61082060  0.00285289  1
  O  O134  1  0.16762352  0.63406079  0.24148935  1
  O  O135  1  0.09689878  0.63018138  0.49127176  1
  O  O136  1  0.13709865  0.62821510  0.75767278  1
  O  O137  1  0.11051109  0.88832929  -0.00830215  1
  O  O138  1  0.15108779  0.87167974  0.24867117  1
  O  O139  1  0.09252053  0.89561816  0.49873795  1
  O  O140  1  0.13762214  0.85268356  0.73562340  1
  O  O141  1  0.38698009  0.08688147  0.00119075  1
  O  O142  1  0.35994215  0.14321310  0.25995095  1
  O  O143  1  0.39908075  0.09258928  0.50282657  1
  O  O144  1  0.35870059  0.13004235  0.74806472  1
  O  O145  1  0.39426102  0.41335223  0.00307328  1
  O  O146  1  0.36177653  0.35243993  0.24556234  1
  O  O147  1  0.39715979  0.39270197  0.49505868  1
  O  O148  1  0.36710284  0.35547834  0.74931355  1
  O  O149  1  0.41356832  0.59784697  0.00232903  1
  O  O150  1  0.36789793  0.65558916  0.24633753  1
  O  O151  1  0.41040950  0.61492656  0.50582626  1
  O  O152  1  0.34261062  0.63660565  0.74689169  1
  O  O153  1  0.39044505  0.90587060  -0.01043788  1
  O  O154  1  0.38709910  0.84891306  0.25509170  1
  O  O155  1  0.40232508  0.88795920  0.50404010  1
  O  O156  1  0.33760206  0.85170582  0.74955553  1
  O  O157  1  0.60513871  0.12130449  0.00756042  1
  O  O158  1  0.63971451  0.11386668  0.25546797  1
  O  O159  1  0.60044670  0.16186900  0.51833458  1
  O  O160  1  0.63748492  0.10723735  0.75339907  1
  O  O161  1  0.58816947  0.38615071  0.00160305  1
  O  O162  1  0.64417010  0.38246336  0.24992827  1
  O  O163  1  0.58942149  0.35966677  0.51081750  1
  O  O164  1  0.62196242  0.39206587  0.75536007  1
  O  O165  1  0.58474175  0.64363053  0.00109989  1
  O  O166  1  0.65106617  0.60922170  0.24701104  1
  O  O167  1  0.59663329  0.63903642  0.51334475  1
  O  O168  1  0.63753650  0.59233052  0.75428102  1
  O  O169  1  0.59615389  0.86406868  0.00171375  1
  O  O170  1  0.64036307  0.88037009  0.25260173  1
  O  O171  1  0.63143264  0.81536175  0.51291682  1
  O  O172  1  0.64075801  0.89229720  0.74725517  1
  O  O173  1  0.87991492  0.15202970  0.00741445  1
  O  O174  1  0.85085050  0.10859296  0.25214119  1
  O  O175  1  0.87362513  0.15031251  0.50769620  1
  O  O176  1  0.85796862  0.09237874  0.76141513  1
  O  O177  1  0.88647045  0.33440080  0.00018787  1
  O  O178  1  0.82927493  0.39762425  0.24400037  1
  O  O179  1  0.87213527  0.34935089  0.50643330  1
  O  O180  1  0.84631536  0.38194524  0.75012636  1
  O  O181  1  0.90363521  0.63980094  0.00444708  1
  O  O182  1  0.83418804  0.60266030  0.25375269  1
  O  O183  1  0.89621864  0.63595897  0.50016233  1
  O  O184  1  0.83573055  0.62547885  0.73880826  1
  O  O185  1  0.90584160  0.83757635  -0.00537625  1
  O  O186  1  0.83873926  0.88060579  0.24658547  1
  O  O187  1  0.88843413  0.86124756  0.50079629  1
  O  O188  1  0.84805149  0.89323165  0.76220970  1
  O  O189  1  -0.00328179  0.10743135  0.13374719  1
  O  O190  1  -0.01669001  0.15804570  0.36402217  1
  O  O191  1  -0.01890430  0.12778239  0.65151567  1
  O  O192  1  -0.00874615  0.14549138  0.86494031  1
  O  O193  1  0.00789803  0.38926391  0.15374828  1
  O  O194  1  -0.01682851  0.35722555  0.35649695  1
  O  O195  1  -0.01586904  0.35920023  0.63045918  1
  O  O196  1  0.00456021  0.34517324  0.86921085  1
  O  O197  1  0.01581025  0.61174478  0.15644504  1
  O  O198  1  -0.01197068  0.62841920  0.34195453  1
  O  O199  1  -0.01590561  0.62207871  0.63864718  1
  O  O200  1  0.00971957  0.62811695  0.86875245  1
  O  O201  1  0.00928893  0.89024041  0.14640470  1
  O  O202  1  -0.01141317  0.87079575  0.34221465  1
  O  O203  1  -0.01238328  0.86603745  0.65041301  1
  O  O204  1  0.00053183  0.85588867  0.84890326  1
  O  O205  1  0.24792742  0.12767068  0.09639995  1
  O  O206  1  0.26637560  0.09000198  0.39279170  1
  O  O207  1  0.26657967  0.09879936  0.61613209  1
  O  O208  1  0.24424221  0.09647179  0.89454643  1
  O  O209  1  0.26014421  0.36926089  0.09243719  1
  O  O210  1  0.26022579  0.37368102  0.38240651  1
  O  O211  1  0.24487735  0.37641936  0.59904542  1
  O  O212  1  0.24588930  0.38572267  0.90887893  1
  O  O213  1  0.26657785  0.64089482  0.09188938  1
  O  O214  1  0.24722205  0.64039971  0.39428399  1
  O  O215  1  0.25770624  0.63180331  0.59472511  1
  O  O216  1  0.25255471  0.59849350  0.89133708  1
  O  O217  1  0.25258092  0.86068936  0.10253517  1
  O  O218  1  0.26530873  0.89935558  0.37982885  1
  O  O219  1  0.24850142  0.92051288  0.59373029  1
  O  O220  1  0.24737616  0.88528536  0.89023500  1
  O  O221  1  0.50392506  0.11401552  0.15444326  1
  O  O222  1  0.50361399  0.15393755  0.37554850  1
  O  O223  1  0.50487368  0.10769076  0.63799122  1
  O  O224  1  0.50618046  0.14181723  0.87104511  1
  O  O225  1  0.50100139  0.38747985  0.15229180  1
  O  O226  1  0.50226289  0.35043361  0.36363499  1
  O  O227  1  0.49760354  0.40344665  0.64162904  1
  O  O228  1  0.50251187  0.33984638  0.86353948  1
  O  O229  1  0.50603205  0.60861062  0.15529445  1
  O  O230  1  0.51127069  0.65007725  0.36026722  1
  O  O231  1  0.49595054  0.60390411  0.66062056  1
  O  O232  1  0.50392385  0.65731627  0.84469798  1
  O  O233  1  0.50744267  0.90013086  0.13123395  1
  O  O234  1  0.51395703  0.85468355  0.37626226  1
  O  O235  1  0.50164609  0.85590187  0.65312628  1
  O  O236  1  0.49328595  0.85619647  0.83715819  1
  O  O237  1  0.74539965  0.14922315  0.11367228  1
  O  O238  1  0.74266667  0.11390782  0.40254172  1
  O  O239  1  0.73658533  0.11099699  0.62104776  1
  O  O240  1  0.74551752  0.10368080  0.89843691  1
  O  O241  1  0.73777895  0.34893587  0.10274375  1
  O  O242  1  0.73379476  0.38755487  0.40979695  1
  O  O243  1  0.73716955  0.36664027  0.61225148  1
  O  O244  1  0.73293781  0.37773799  0.88447396  1
  O  O245  1  0.74024196  0.63358332  0.08792477  1
  O  O246  1  0.74453215  0.61322476  0.40963154  1
  O  O247  1  0.74268837  0.63368244  0.58950436  1
  O  O248  1  0.72874248  0.59557862  0.90476575  1
  O  O249  1  0.74516081  0.85924316  0.09665926  1
  O  O250  1  0.73663369  0.90209082  0.39624218  1
  O  O251  1  0.74800070  0.88862517  0.61935145  1
  O  O252  1  0.75879455  0.88726122  0.91058059  1
  O  O253  1  0.13288393  -0.00225064  0.11965045  1
  O  O254  1  0.08786771  0.00442737  0.36509561  1
  O  O255  1  0.09247793  -0.00100479  0.63434509  1
  O  O256  1  0.10767124  -0.00385699  0.85216772  1
  O  O257  1  0.11507807  0.24784913  0.10975485  1
  O  O258  1  0.13547490  0.24241851  0.37268478  1
  O  O259  1  0.11028571  0.24280963  0.61519453  1
  O  O260  1  0.14063785  0.24310376  0.89884225  1
  O  O261  1  0.15543027  0.49802173  0.13309047  1
  O  O262  1  0.11182148  0.50047490  0.34403839  1
  O  O263  1  0.11539302  0.49921517  0.62474622  1
  O  O264  1  0.11153632  0.49503261  0.86713586  1
  O  O265  1  0.12722218  0.74970165  0.11082942  1
  O  O266  1  0.10693124  0.75619633  0.38101087  1
  O  O267  1  0.14331665  0.76992620  0.58365278  1
  O  O268  1  0.13128562  0.74903129  0.88526664  1
  O  O269  1  0.37154710  -0.00277623  0.16186211  1
  O  O270  1  0.39750041  -0.00321508  0.34394815  1
  O  O271  1  0.39225276  -0.01427536  0.65692602  1
  O  O272  1  0.38852209  -0.01119673  0.83925793  1
  O  O273  1  0.39993934  0.25590413  0.10698855  1
  O  O274  1  0.35776000  0.24499305  0.39663679  1
  O  O275  1  0.37393148  0.24198365  0.62234481  1
  O  O276  1  0.34439470  0.24469566  0.88193390  1
  O  O277  1  0.37130327  0.50273001  0.15481745  1
  O  O278  1  0.38557518  0.49469429  0.35207840  1
  O  O279  1  0.34518574  0.50551609  0.63381811  1
  O  O280  1  0.40209526  0.50360810  0.83878290  1
  O  O281  1  0.41657704  0.74093229  0.10171978  1
  O  O282  1  0.36990265  0.75494416  0.39455501  1
  O  O283  1  0.36526703  0.74998022  0.61675478  1
  O  O284  1  0.37354311  0.75273036  0.91501815  1
  O  O285  1  0.64946868  0.00043311  0.12088112  1
  O  O286  1  0.60394761  0.01946323  0.41427165  1
  O  O287  1  0.60449868  -0.02562663  0.58191920  1
  O  O288  1  0.59891851  -0.00227125  0.88393842  1
  O  O289  1  0.60058038  0.25014459  0.13050390  1
  O  O290  1  0.64110123  0.25353516  0.37684442  1
  O  O291  1  0.59432308  0.25964412  0.66786559  1
  O  O292  1  0.63692904  0.24176519  0.89136935  1
  O  O293  1  0.64792465  0.49960547  0.12253491  1
  O  O294  1  0.60277935  0.49935456  0.38323528  1
  O  O295  1  0.63413846  0.49948669  0.60306971  1
  O  O296  1  0.57452713  0.50312124  0.88457828  1
  O  O297  1  0.61502690  0.74631131  0.13954946  1
  O  O298  1  0.65573807  0.74120274  0.36697663  1
  O  O299  1  0.61761926  0.73812384  0.66724616  1
  O  O300  1  0.64478873  0.74540633  0.85528648  1
  O  O301  1  0.85055416  0.00393587  0.11695117  1
  O  O302  1  0.89261712  0.00993933  0.38111982  1
  O  O303  1  0.88029426  -0.00169669  0.62162755  1
  O  O304  1  0.88443405  0.00044552  0.91296240  1
  O  O305  1  0.88525957  0.24743014  0.16072424  1
  O  O306  1  0.83293258  0.24999685  0.36345124  1
  O  O307  1  0.84858165  0.24477140  0.65601158  1
  O  O308  1  0.84354053  0.24053868  0.85947774  1
  O  O309  1  0.85376148  0.50238729  0.10034965  1
  O  O310  1  0.89103862  0.50231186  0.38991577  1
  O  O311  1  0.86111664  0.49595360  0.61006432  1
  O  O312  1  0.87031963  0.49629353  0.89803234  1
  O  O313  1  0.86771354  0.74526200  0.13923832  1
  O  O314  1  0.86757020  0.74359299  0.34385005  1
  O  O315  1  0.86098977  0.75441871  0.64114408  1
  O  O316  1  0.86388357  0.75753396  0.86055760  1
