# generated using pymatgen
data_Mg32Ti42(Bi17O64)3
_symmetry_space_group_name_H-M   'P 1'
_cell_length_a   15.95603792
_cell_length_b   15.96728834
_cell_length_c   15.93262010
_cell_angle_alpha   90.18365780
_cell_angle_beta   89.78724794
_cell_angle_gamma   89.75270963
_symmetry_Int_Tables_number   1
_chemical_formula_structural   Mg32Ti42(Bi17O64)3
_chemical_formula_sum   'Mg32 Ti42 Bi51 O192'
_cell_volume   4059.14098706
_cell_formula_units_Z   1
loop_
 _symmetry_equiv_pos_site_id
 _symmetry_equiv_pos_as_xyz
  1  'x, y, z'
loop_
 _atom_site_type_symbol
 _atom_site_label
 _atom_site_symmetry_multiplicity
 _atom_site_fract_x
 _atom_site_fract_y
 _atom_site_fract_z
 _atom_site_occupancy
  Mg  Mg0  1  0.38200055  0.36935581  0.63008776  1
  Mg  Mg1  1  0.37582282  0.37941941  0.37859257  1
  Mg  Mg2  1  0.88014388  0.37637767  0.36552720  1
  Mg  Mg3  1  0.38716019  0.87343392  0.10739878  1
  Mg  Mg4  1  0.12236676  0.63570181  0.37865996  1
  Mg  Mg5  1  0.62485056  0.36989467  0.87661539  1
  Mg  Mg6  1  0.37095749  0.62024823  0.12082448  1
  Mg  Mg7  1  0.62044036  0.36887846  0.36574335  1
  Mg  Mg8  1  0.62349456  0.36692871  0.61563705  1
  Mg  Mg9  1  0.61949957  0.62563039  0.61567598  1
  Mg  Mg10  1  0.88098249  0.61680150  0.62530280  1
  Mg  Mg11  1  0.12066250  0.36855597  0.13713848  1
  Mg  Mg12  1  0.36837610  0.12476656  0.37767204  1
  Mg  Mg13  1  0.12352339  0.87751715  0.63231846  1
  Mg  Mg14  1  0.12488045  0.37304348  0.62405079  1
  Mg  Mg15  1  0.37664348  0.88779116  0.63220285  1
  Mg  Mg16  1  0.13440963  0.38052332  0.87829507  1
  Mg  Mg17  1  0.12542424  0.87713499  0.12179359  1
  Mg  Mg18  1  0.36836540  0.12912457  0.12667645  1
  Mg  Mg19  1  -0.02742001  0.17612439  0.23205015  1
  Mg  Mg20  1  0.48341301  0.71313818  0.00169656  1
  Mg  Mg21  1  0.74671071  0.29487013  0.71976332  1
  Mg  Mg22  1  0.47679435  0.25063903  0.46793190  1
  Mg  Mg23  1  0.27633592  0.25581919  0.28863814  1
  Mg  Mg24  1  -0.07926686  0.75655068  0.25693469  1
  Mg  Mg25  1  0.80346596  -0.04730455  0.50033106  1
  Mg  Mg26  1  -0.01825747  0.80149518  0.43743211  1
  Mg  Mg27  1  0.00779270  0.25455404  0.53314886  1
  Mg  Mg28  1  0.50369584  0.71533500  0.75344886  1
  Mg  Mg29  1  0.02621418  0.50594540  0.77467831  1
  Mg  Mg30  1  -0.02183378  0.01192579  0.78637987  1
  Mg  Mg31  1  0.54784873  0.26299508  0.74196683  1
  Ti  Ti32  1  0.62095143  0.35704640  0.12722989  1
  Ti  Ti33  1  0.13014319  0.12243642  0.13572572  1
  Ti  Ti34  1  0.87353218  0.38112460  0.86394229  1
  Ti  Ti35  1  0.88619359  0.37878910  0.62398520  1
  Ti  Ti36  1  0.62734986  0.62793500  0.37772702  1
  Ti  Ti37  1  0.37610591  0.38364368  0.87459173  1
  Ti  Ti38  1  0.87981058  0.13488166  0.63176882  1
  Ti  Ti39  1  0.87264324  0.13507066  0.86538080  1
  Ti  Ti40  1  0.61520497  0.62539572  0.87588244  1
  Ti  Ti41  1  0.12345443  0.13306558  0.37038621  1
  Ti  Ti42  1  0.85941160  0.86444584  0.11653005  1
  Ti  Ti43  1  0.11144884  0.12135309  0.88242821  1
  Ti  Ti44  1  0.12113958  0.88496256  0.87394418  1
  Ti  Ti45  1  0.14265691  0.61645431  0.87713700  1
  Ti  Ti46  1  0.88653922  0.37711011  0.13221825  1
  Ti  Ti47  1  0.88668749  0.12861525  0.38600867  1
  Ti  Ti48  1  0.63775359  0.87050492  0.86290143  1
  Ti  Ti49  1  0.40278773  0.85718973  0.86295169  1
  Ti  Ti50  1  0.89491837  0.86764441  0.63236393  1
  Ti  Ti51  1  0.37989431  0.37068648  0.12867061  1
  Ti  Ti52  1  0.61544835  0.86960214  0.38392519  1
  Ti  Ti53  1  0.63705753  0.13267659  0.86788869  1
  Ti  Ti54  1  0.61261544  0.13372626  0.39002509  1
  Ti  Ti55  1  0.62686860  0.12371459  0.13692658  1
  Ti  Ti56  1  0.37917850  0.61914921  0.87559554  1
  Ti  Ti57  1  0.61412243  0.62756593  0.11963513  1
  Ti  Ti58  1  0.38184025  0.61200135  0.62958543  1
  Ti  Ti59  1  0.12935051  0.86552918  0.37004254  1
  Ti  Ti60  1  0.11338396  0.36193530  0.37777696  1
  Ti  Ti61  1  0.87140428  0.87605997  0.87348718  1
  Ti  Ti62  1  0.35917773  0.63218828  0.38791447  1
  Ti  Ti63  1  0.86954140  0.62001052  0.37716704  1
  Ti  Ti64  1  0.62498018  0.86685543  0.62443218  1
  Ti  Ti65  1  0.11505321  0.62226568  0.62883894  1
  Ti  Ti66  1  0.87180296  0.63056049  0.11462069  1
  Ti  Ti67  1  0.87871177  0.62226994  0.86688812  1
  Ti  Ti68  1  0.37731184  0.88368799  0.38405942  1
  Ti  Ti69  1  0.63910009  0.12972965  0.62218210  1
  Ti  Ti70  1  0.12563560  0.63752620  0.12772455  1
  Ti  Ti71  1  0.39242166  0.13612270  0.62873308  1
  Ti  Ti72  1  0.62081470  0.88048856  0.10570327  1
  Ti  Ti73  1  0.12535559  0.12990084  0.62180868  1
  Bi  Bi74  1  0.01024740  0.53492628  0.25013606  1
  Bi  Bi75  1  0.27055456  0.76439988  -0.01156884  1
  Bi  Bi76  1  0.26176762  0.24974400  0.50350932  1
  Bi  Bi77  1  0.49847496  0.47545438  0.49213318  1
  Bi  Bi78  1  0.23799141  0.47478940  0.25564740  1
  Bi  Bi79  1  0.23669531  0.48738683  0.72678365  1
  Bi  Bi80  1  0.24299192  0.02883014  0.74354261  1
  Bi  Bi81  1  0.00852105  0.00835680  0.51950523  1
  Bi  Bi82  1  -0.01867418  -0.00570169  0.02403839  1
  Bi  Bi83  1  0.47165461  0.51668992  0.26805253  1
  Bi  Bi84  1  0.01039701  0.49868404  0.01292645  1
  Bi  Bi85  1  0.51568225  0.46470504  0.74227272  1
  Bi  Bi86  1  0.74183469  -0.01731868  0.30327916  1
  Bi  Bi87  1  0.73248208  0.48295589  0.47983686  1
  Bi  Bi88  1  0.76079568  0.03937133  0.02495703  1
  Bi  Bi89  1  0.26808420  0.75513476  0.74108704  1
  Bi  Bi90  1  0.71150491  0.75258840  0.23534353  1
  Bi  Bi91  1  0.00171375  0.50064701  0.48460164  1
  Bi  Bi92  1  0.26688627  0.76012540  0.21592192  1
  Bi  Bi93  1  0.02745515  0.74602712  0.75718263  1
  Bi  Bi94  1  0.22882681  0.25137114  0.01035944  1
  Bi  Bi95  1  0.75392732  0.49459689  -0.00335075  1
  Bi  Bi96  1  0.47407192  0.22805703  0.26344955  1
  Bi  Bi97  1  0.46981848  0.74988723  0.25838251  1
  Bi  Bi98  1  0.74397933  0.49043590  0.24715545  1
  Bi  Bi99  1  0.24561888  -0.01370333  0.24462312  1
  Bi  Bi100  1  -0.01448486  0.22282852  0.03287170  1
  Bi  Bi101  1  0.24734168  0.76310590  0.51770196  1
  Bi  Bi102  1  0.51048938  0.02414762  -0.02578194  1
  Bi  Bi103  1  0.73359878  0.49310550  0.71611971  1
  Bi  Bi104  1  0.50126021  -0.00214735  0.51187232  1
  Bi  Bi105  1  0.01414480  0.76362828  -0.00910685  1
  Bi  Bi106  1  0.48179111  0.75840841  0.53303128  1
  Bi  Bi107  1  0.22905732  0.49016184  0.49056566  1
  Bi  Bi108  1  0.23007106  -0.00818919  0.49424740  1
  Bi  Bi109  1  0.74610360  0.73332112  -0.02407501  1
  Bi  Bi110  1  0.27681112  0.24757245  0.76732460  1
  Bi  Bi111  1  0.51321882  0.02933451  0.75168901  1
  Bi  Bi112  1  0.47582224  -0.00259412  0.23256749  1
  Bi  Bi113  1  0.75711417  -0.00895658  0.71791315  1
  Bi  Bi114  1  0.74745369  0.71936530  0.72342585  1
  Bi  Bi115  1  0.76752326  0.26769113  -0.00477450  1
  Bi  Bi116  1  0.76455076  0.22129569  0.25793458  1
  Bi  Bi117  1  0.03027341  0.27096774  0.76255948  1
  Bi  Bi118  1  0.28752296  0.01449334  -0.02383865  1
  Bi  Bi119  1  -0.03692591  -0.03079241  0.25318842  1
  Bi  Bi120  1  0.79194424  0.75113400  0.48777085  1
  Bi  Bi121  1  0.46400869  0.23608460  -0.02449950  1
  Bi  Bi122  1  0.23697435  0.48267569  0.02190641  1
  Bi  Bi123  1  0.51403366  0.47738416  0.01434700  1
  Bi  Bi124  1  0.78279910  0.25837443  0.48636806  1
  O  O125  1  0.10005911  0.09960534  -0.00756799  1
  O  O126  1  0.11996629  0.15529093  0.24731795  1
  O  O127  1  0.11398596  0.10031736  0.49148284  1
  O  O128  1  0.14521297  0.13702858  0.73940246  1
  O  O129  1  0.11651219  0.40756327  0.00395711  1
  O  O130  1  0.16386207  0.35027611  0.26499762  1
  O  O131  1  0.11171281  0.40999112  0.49987308  1
  O  O132  1  0.14636241  0.34424623  0.75028945  1
  O  O133  1  0.11991233  0.59192981  0.00090560  1
  O  O134  1  0.10644548  0.63915041  0.24564745  1
  O  O135  1  0.11641907  0.58698966  0.51266056  1
  O  O136  1  0.13908166  0.65130560  0.75671215  1
  O  O137  1  0.08252897  0.88630823  -0.00460342  1
  O  O138  1  0.16274317  0.86839773  0.25442531  1
  O  O139  1  0.10936960  0.91074441  0.49037356  1
  O  O140  1  0.14087186  0.84112735  0.76053714  1
  O  O141  1  0.39793311  0.11260209  0.00159187  1
  O  O142  1  0.35236612  0.15638073  0.24923040  1
  O  O143  1  0.39911480  0.15272122  0.50911312  1
  O  O144  1  0.34406887  0.11698460  0.74296495  1
  O  O145  1  0.41101742  0.38147731  -0.00444571  1
  O  O146  1  0.35227055  0.35427106  0.24312363  1
  O  O147  1  0.41918261  0.36405762  0.50468320  1
  O  O148  1  0.34258947  0.37401300  0.75805173  1
  O  O149  1  0.37786597  0.64223736  -0.00768639  1
  O  O150  1  0.37932223  0.63836373  0.25986887  1
  O  O151  1  0.38450810  0.61899160  0.50410929  1
  O  O152  1  0.38295219  0.64700020  0.74900475  1
  O  O153  1  0.40325672  0.82432427  -0.01284378  1
  O  O154  1  0.36589996  0.86137446  0.26074528  1
  O  O155  1  0.40436932  0.88492466  0.50250389  1
  O  O156  1  0.34526109  0.87520767  0.75511998  1
  O  O157  1  0.61820113  0.12248278  -0.00945930  1
  O  O158  1  0.65481280  0.12740718  0.25035755  1
  O  O159  1  0.59545915  0.13861730  0.50816315  1
  O  O160  1  0.63708361  0.09511958  0.74623897  1
  O  O161  1  0.60004958  0.37009998  0.00358799  1
  O  O162  1  0.65621921  0.38120873  0.24004183  1
  O  O163  1  0.61202099  0.39966516  0.49547230  1
  O  O164  1  0.65329353  0.38238259  0.75271768  1
  O  O165  1  0.61093004  0.66369403  0.00197066  1
  O  O166  1  0.63501661  0.62916765  0.24126411  1
  O  O167  1  0.62552687  0.61138676  0.48980390  1
  O  O168  1  0.61605252  0.64031171  0.75875083  1
  O  O169  1  0.61269575  0.87098150  -0.00560527  1
  O  O170  1  0.64759954  0.88577900  0.26193406  1
  O  O171  1  0.58890637  0.87809488  0.50294321  1
  O  O172  1  0.65355337  0.88062390  0.74308363  1
  O  O173  1  0.88338877  0.12822921  -0.01435563  1
  O  O174  1  0.85836771  0.12198044  0.26232414  1
  O  O175  1  0.89261244  0.15656409  0.50412975  1
  O  O176  1  0.87748127  0.08938066  0.74430420  1
  O  O177  1  0.88864320  0.34258064  0.00262464  1
  O  O178  1  0.84673666  0.38776930  0.24119276  1
  O  O179  1  0.90228026  0.34345816  0.51022255  1
  O  O180  1  0.84298351  0.38062528  0.75256690  1
  O  O181  1  0.88149918  0.63758612  -0.00065676  1
  O  O182  1  0.89333403  0.62580474  0.24822154  1
  O  O183  1  0.86969626  0.63111419  0.49684367  1
  O  O184  1  0.85171390  0.61561765  0.75621643  1
  O  O185  1  0.89357393  0.86317435  -0.00072218  1
  O  O186  1  0.86430468  0.87347249  0.24319064  1
  O  O187  1  0.89263030  0.85642827  0.50765540  1
  O  O188  1  0.86910644  0.89485513  0.75015128  1
  O  O189  1  0.00758917  0.11309111  0.12770757  1
  O  O190  1  -0.00336130  0.12000284  0.35270614  1
  O  O191  1  -0.00143398  0.15322935  0.62324500  1
  O  O192  1  -0.00278993  0.12595362  0.84789652  1
  O  O193  1  -0.00308732  0.41221933  0.13142246  1
  O  O194  1  0.00466525  0.40722766  0.36658807  1
  O  O195  1  0.00026419  0.33868470  0.64198451  1
  O  O196  1  -0.00570235  0.38697324  0.83656446  1
  O  O197  1  0.00148596  0.59600694  0.11875870  1
  O  O198  1  -0.00328839  0.59592106  0.38012940  1
  O  O199  1  0.00512337  0.64131576  0.64231049  1
  O  O200  1  -0.00581317  0.61377836  0.84983321  1
  O  O201  1  -0.00041309  0.90291624  0.14161723  1
  O  O202  1  0.01257354  0.88600770  0.34774297  1
  O  O203  1  0.00315253  0.84660857  0.64679095  1
  O  O204  1  -0.00322037  0.84335335  0.86143457  1
  O  O205  1  0.24337422  0.14108724  0.09381610  1
  O  O206  1  0.23618386  0.17160037  0.38227172  1
  O  O207  1  0.24006996  0.09304365  0.60783071  1
  O  O208  1  0.23344720  0.08778108  0.87513447  1
  O  O209  1  0.25689824  0.36032034  0.09526235  1
  O  O210  1  0.24702817  0.36033618  0.41260624  1
  O  O211  1  0.24979594  0.40873056  0.60942165  1
  O  O212  1  0.25945966  0.39400134  0.90775937  1
  O  O213  1  0.24330562  0.64935092  0.12262272  1
  O  O214  1  0.24873972  0.64799923  0.39303124  1
  O  O215  1  0.25908292  0.59290216  0.63162439  1
  O  O216  1  0.25548812  0.60684164  0.87911631  1
  O  O217  1  0.25555633  0.85011505  0.10967635  1
  O  O218  1  0.25200499  0.86897136  0.40342310  1
  O  O219  1  0.24617047  0.88917741  0.59351879  1
  O  O220  1  0.23230552  0.88909913  0.91408133  1
  O  O221  1  0.50799478  0.10763776  0.15310639  1
  O  O222  1  0.49752898  0.11470062  0.34402184  1
  O  O223  1  0.49745314  0.15688533  0.67355870  1
  O  O224  1  0.51160237  0.11901395  0.86578690  1
  O  O225  1  0.50448219  0.39874077  0.14084813  1
  O  O226  1  0.50091255  0.41809338  0.36096647  1
  O  O227  1  0.50577782  0.35445167  0.66328085  1
  O  O228  1  0.49776345  0.35569412  0.84179570  1
  O  O229  1  0.50056465  0.61749355  0.11778551  1
  O  O230  1  0.50950827  0.60986123  0.36238294  1
  O  O231  1  0.49769875  0.65970557  0.63247160  1
  O  O232  1  0.49662132  0.66044640  0.87760643  1
  O  O233  1  0.50888937  0.90284561  0.13413343  1
  O  O234  1  0.49876081  0.89056567  0.35817160  1
  O  O235  1  0.50538381  0.84056425  0.64392192  1
  O  O236  1  0.50697796  0.83121102  0.83062476  1
  O  O237  1  0.74373689  0.14963745  0.10501166  1
  O  O238  1  0.73135277  0.16552110  0.38786230  1
  O  O239  1  0.74976315  0.10065587  0.61168642  1
  O  O240  1  0.75553806  0.10888846  0.87580959  1
  O  O241  1  0.74625304  0.35926739  0.09432487  1
  O  O242  1  0.74945580  0.36562632  0.40458692  1
  O  O243  1  0.75726992  0.38945335  0.61263954  1
  O  O244  1  0.75278459  0.37620343  0.90636007  1
  O  O245  1  0.75525454  0.65234045  0.11906498  1
  O  O246  1  0.75315483  0.65463437  0.36980172  1
  O  O247  1  0.74723402  0.61330802  0.63158621  1
  O  O248  1  0.74151531  0.61321718  0.90250220  1
  O  O249  1  0.74712000  0.84836725  0.11428436  1
  O  O250  1  0.73652209  0.88534348  0.40607402  1
  O  O251  1  0.74052618  0.90932412  0.60197833  1
  O  O252  1  0.75373298  0.89104118  0.88537436  1
  O  O253  1  0.15126651  0.00632408  0.14433374  1
  O  O254  1  0.15232276  0.01758890  0.35278160  1
  O  O255  1  0.08648737  0.00701765  0.63227924  1
  O  O256  1  0.09496297  -0.00867016  0.83824034  1
  O  O257  1  0.11573838  0.24815225  0.09502506  1
  O  O258  1  0.08555840  0.25646715  0.41156371  1
  O  O259  1  0.13715060  0.24435028  0.58491838  1
  O  O260  1  0.12385552  0.23994083  0.88972310  1
  O  O261  1  0.15136562  0.49770305  0.14926702  1
  O  O262  1  0.14995537  0.50008761  0.35909187  1
  O  O263  1  0.10616188  0.50243598  0.67162808  1
  O  O264  1  0.12351659  0.50365123  0.84981013  1
  O  O265  1  0.10390375  0.74788843  0.10278654  1
  O  O266  1  0.10059796  0.76059921  0.40497095  1
  O  O267  1  0.14926019  0.73948690  0.61119713  1
  O  O268  1  0.12365225  0.73880388  0.90395653  1
  O  O269  1  0.36549370  -0.00148001  0.14408255  1
  O  O270  1  0.35603959  -0.00087074  0.37422173  1
  O  O271  1  0.40654037  0.01356157  0.61971383  1
  O  O272  1  0.39423202  -0.02660573  0.89503029  1
  O  O273  1  0.39925060  0.25476232  0.10139323  1
  O  O274  1  0.38970113  0.25491277  0.37486723  1
  O  O275  1  0.33959301  0.24725840  0.63922305  1
  O  O276  1  0.36039838  0.26002268  0.88738037  1
  O  O277  1  0.35746552  0.49237612  0.12706420  1
  O  O278  1  0.36152702  0.50855515  0.36253225  1
  O  O279  1  0.41247948  0.50131659  0.63750978  1
  O  O280  1  0.39982418  0.50601764  0.86979315  1
  O  O281  1  0.39143296  0.74976205  0.14166905  1
  O  O282  1  0.39377018  0.75121779  0.38645794  1
  O  O283  1  0.35386232  0.75275288  0.60859521  1
  O  O284  1  0.33644288  0.75200415  0.86254467  1
  O  O285  1  0.65208200  0.00288782  0.11644614  1
  O  O286  1  0.63235194  0.01432854  0.38404580  1
  O  O287  1  0.58815528  0.00537691  0.62167638  1
  O  O288  1  0.59907856  -0.01525020  0.86728143  1
  O  O289  1  0.60553700  0.24707602  0.13344674  1
  O  O290  1  0.57373960  0.25185742  0.38026092  1
  O  O291  1  0.64849417  0.24258872  0.65192802  1
  O  O292  1  0.63403086  0.24180771  0.84375654  1
  O  O293  1  0.64041614  0.51296070  0.10106917  1
  O  O294  1  0.66011650  0.50732992  0.36143963  1
  O  O295  1  0.61532181  0.49931057  0.64103384  1
  O  O296  1  0.60447087  0.51021522  0.89138732  1
  O  O297  1  0.60845749  0.76184831  0.14455828  1
  O  O298  1  0.61567095  0.75404609  0.36641800  1
  O  O299  1  0.65629993  0.75610438  0.61438702  1
  O  O300  1  0.65611535  0.75352790  0.87131407  1
  O  O301  1  0.85935272  -0.01266355  0.10971147  1
  O  O302  1  0.84881342  0.02033180  0.40540459  1
  O  O303  1  0.88686433  -0.00777359  0.60455666  1
  O  O304  1  0.90382944  -0.01195504  0.88676518  1
  O  O305  1  0.91984319  0.26149026  0.15097404  1
  O  O306  1  0.86619815  0.25028929  0.36689459  1
  O  O307  1  0.84449355  0.24062820  0.65432793  1
  O  O308  1  0.86709728  0.24855809  0.85841886  1
  O  O309  1  0.85220728  0.50203615  0.10519989  1
  O  O310  1  0.84176718  0.50299245  0.37392642  1
  O  O311  1  0.90302266  0.48853974  0.61958299  1
  O  O312  1  0.87081318  0.49568050  0.89521503  1
  O  O313  1  0.90087353  0.74926925  0.13416506  1
  O  O314  1  0.89451444  0.74246831  0.37653816  1
  O  O315  1  0.84888517  0.75553185  0.63173665  1
  O  O316  1  0.85458648  0.74393537  0.87093576  1
