# generated using pymatgen
data_Mg32Ti42(Bi17O64)3
_symmetry_space_group_name_H-M   'P 1'
_cell_length_a   15.97492338
_cell_length_b   16.03762217
_cell_length_c   15.99132701
_cell_angle_alpha   90.13732339
_cell_angle_beta   90.04372983
_cell_angle_gamma   90.14233068
_symmetry_Int_Tables_number   1
_chemical_formula_structural   Mg32Ti42(Bi17O64)3
_chemical_formula_sum   'Mg32 Ti42 Bi51 O192'
_cell_volume   4096.94892982
_cell_formula_units_Z   1
loop_
 _symmetry_equiv_pos_site_id
 _symmetry_equiv_pos_as_xyz
  1  'x, y, z'
loop_
 _atom_site_type_symbol
 _atom_site_label
 _atom_site_symmetry_multiplicity
 _atom_site_fract_x
 _atom_site_fract_y
 _atom_site_fract_z
 _atom_site_occupancy
  Mg  Mg0  1  0.12660468  0.13072162  0.61766259  1
  Mg  Mg1  1  0.13720545  0.62029088  0.36891595  1
  Mg  Mg2  1  0.37779960  0.86818141  0.38278329  1
  Mg  Mg3  1  0.12896365  0.88096762  0.14252102  1
  Mg  Mg4  1  0.12463242  0.37233740  0.86734408  1
  Mg  Mg5  1  0.86651979  0.37992858  0.37383159  1
  Mg  Mg6  1  0.62292392  0.64899327  0.88075628  1
  Mg  Mg7  1  0.12713126  0.37230205  0.37365815  1
  Mg  Mg8  1  0.87715258  0.38135477  0.86241806  1
  Mg  Mg9  1  0.87553127  0.62403679  0.37214232  1
  Mg  Mg10  1  0.61595617  0.63057597  0.36769404  1
  Mg  Mg11  1  0.37200255  0.38089189  0.12414759  1
  Mg  Mg12  1  0.62713087  0.37709880  0.62127338  1
  Mg  Mg13  1  0.12198909  0.62335066  0.86774107  1
  Mg  Mg14  1  0.87186352  0.12537366  0.61940319  1
  Mg  Mg15  1  0.62651808  0.12892988  0.87709570  1
  Mg  Mg16  1  0.12496135  0.62876835  0.62725414  1
  Mg  Mg17  1  0.88610845  0.88107237  0.37152815  1
  Mg  Mg18  1  0.13523063  0.61717133  0.12542711  1
  Mg  Mg19  1  0.82037129  0.74949973  0.25723281  1
  Mg  Mg20  1  0.74197681  0.57252803  0.25042947  1
  Mg  Mg21  1  0.30649317  0.54038552  0.24878631  1
  Mg  Mg22  1  0.53266538  0.79553211  0.01286378  1
  Mg  Mg23  1  0.69121163  0.72826732  0.68834386  1
  Mg  Mg24  1  0.45288841  0.23898462  0.05177173  1
  Mg  Mg25  1  0.76008554  -0.00460121  0.46198424  1
  Mg  Mg26  1  0.45320756  -0.00950270  0.28814720  1
  Mg  Mg27  1  0.29423475  -0.04246412  0.50075409  1
  Mg  Mg28  1  0.52440653  0.57919882  0.71196155  1
  Mg  Mg29  1  -0.01138895  0.05171851  0.23899409  1
  Mg  Mg30  1  0.22615311  0.02819642  0.25435817  1
  Mg  Mg31  1  0.73721812  0.31951117  0.24015180  1
  Ti  Ti32  1  0.11481258  0.37170801  0.62117014  1
  Ti  Ti33  1  0.87889880  0.63072658  0.86857310  1
  Ti  Ti34  1  0.38135395  0.87530305  0.63003114  1
  Ti  Ti35  1  0.89845855  0.87352682  0.13651226  1
  Ti  Ti36  1  0.87471837  0.12506954  0.86205243  1
  Ti  Ti37  1  0.86459935  0.38692000  0.12377949  1
  Ti  Ti38  1  0.38464661  0.63003338  0.38242608  1
  Ti  Ti39  1  0.11192698  0.12307822  0.12812811  1
  Ti  Ti40  1  0.12047733  0.38566982  0.12483487  1
  Ti  Ti41  1  0.37757532  0.36840649  0.88941313  1
  Ti  Ti42  1  0.62990041  0.89116330  0.12834434  1
  Ti  Ti43  1  0.38332388  0.63682528  0.87188080  1
  Ti  Ti44  1  0.62768520  0.87340219  0.36491659  1
  Ti  Ti45  1  0.37054811  0.38576884  0.36724990  1
  Ti  Ti46  1  0.87739427  0.62211144  0.12193581  1
  Ti  Ti47  1  0.11846756  0.12556814  0.37084451  1
  Ti  Ti48  1  0.63809117  0.13699153  0.13792751  1
  Ti  Ti49  1  0.87524041  0.63293449  0.62244368  1
  Ti  Ti50  1  0.62084923  0.36742001  0.11504306  1
  Ti  Ti51  1  0.37719415  0.62717732  0.11196348  1
  Ti  Ti52  1  0.86861451  0.12059947  0.37297037  1
  Ti  Ti53  1  0.13414472  0.88874952  0.36694255  1
  Ti  Ti54  1  0.63086560  0.63671045  0.11646314  1
  Ti  Ti55  1  0.35925920  0.11685179  0.37777191  1
  Ti  Ti56  1  0.63648328  0.88243523  0.88197195  1
  Ti  Ti57  1  0.37814368  0.13283690  0.88698266  1
  Ti  Ti58  1  0.13782316  0.87759406  0.61981750  1
  Ti  Ti59  1  0.36238711  0.10821730  0.14107598  1
  Ti  Ti60  1  0.38017257  0.88356334  0.89271834  1
  Ti  Ti61  1  0.61957164  0.11307218  0.36455591  1
  Ti  Ti62  1  0.12830483  0.13015792  0.86807297  1
  Ti  Ti63  1  0.86460415  0.38141743  0.62054284  1
  Ti  Ti64  1  0.62483804  0.87625688  0.62158940  1
  Ti  Ti65  1  0.36609430  0.64255679  0.62092583  1
  Ti  Ti66  1  0.62165239  0.38569963  0.37033959  1
  Ti  Ti67  1  0.61731793  0.36782170  0.87061566  1
  Ti  Ti68  1  0.38659830  0.88396006  0.12186351  1
  Ti  Ti69  1  0.87329560  0.87822374  0.62221710  1
  Ti  Ti70  1  0.36732205  0.11672592  0.61428506  1
  Ti  Ti71  1  0.61240520  0.12437476  0.61642242  1
  Ti  Ti72  1  0.87278096  0.13390867  0.12203499  1
  Ti  Ti73  1  0.86509313  0.87382439  0.85585877  1
  Bi  Bi74  1  -0.00369759  0.76416024  0.47669494  1
  Bi  Bi75  1  0.00564009  0.03097566  0.49449972  1
  Bi  Bi76  1  0.22746231  0.75922821  0.48397956  1
  Bi  Bi77  1  0.02922153  0.00293043  0.72536866  1
  Bi  Bi78  1  0.50711814  0.51707154  0.22009803  1
  Bi  Bi79  1  0.52381377  0.51742919  -0.01568720  1
  Bi  Bi80  1  0.24120654  0.52053054  0.52984535  1
  Bi  Bi81  1  0.47942456  0.76472351  0.24345085  1
  Bi  Bi82  1  -0.00420101  0.26263016  0.73382234  1
  Bi  Bi83  1  0.25381282  0.28062923  0.50275241  1
  Bi  Bi84  1  0.23707652  0.53007337  -0.02451983  1
  Bi  Bi85  1  0.77584352  -0.01056329  0.22747449  1
  Bi  Bi86  1  0.02041296  0.77479465  -0.03683665  1
  Bi  Bi87  1  0.00182645  0.50127296  -0.02521252  1
  Bi  Bi88  1  0.74481823  0.02258428  0.71668502  1
  Bi  Bi89  1  0.23738012  0.76979061  0.01646563  1
  Bi  Bi90  1  0.50712591  -0.01329498  0.47775873  1
  Bi  Bi91  1  0.22731246  0.27356417  0.24498780  1
  Bi  Bi92  1  0.50834301  0.02628305  0.75976632  1
  Bi  Bi93  1  0.00044943  0.50486312  0.71406289  1
  Bi  Bi94  1  0.52174409  0.03536924  0.01896262  1
  Bi  Bi95  1  0.75152080  0.02648969  -0.01377928  1
  Bi  Bi96  1  0.49203976  0.27525113  0.49246438  1
  Bi  Bi97  1  0.01505117  0.73838973  0.74214934  1
  Bi  Bi98  1  0.51143274  0.78599886  0.76856310  1
  Bi  Bi99  1  0.72884672  0.54501480  0.49025979  1
  Bi  Bi100  1  0.48277607  0.26475186  0.25079077  1
  Bi  Bi101  1  0.02735115  0.72575524  0.23548846  1
  Bi  Bi102  1  -0.02758552  0.27147694  0.25414478  1
  Bi  Bi103  1  0.27308915  0.25753703  0.73030355  1
  Bi  Bi104  1  0.76993559  0.76585349  0.47871683  1
  Bi  Bi105  1  -0.00397171  0.26923499  -0.02268561  1
  Bi  Bi106  1  0.48564490  0.29384941  0.72678613  1
  Bi  Bi107  1  0.30282502  0.49910727  0.74843344  1
  Bi  Bi108  1  -0.00754258  -0.00395865  -0.03671851  1
  Bi  Bi109  1  0.71462606  0.53376895  0.73419387  1
  Bi  Bi110  1  0.75485653  0.26983629  -0.02958693  1
  Bi  Bi111  1  0.53176244  0.72675252  0.51058175  1
  Bi  Bi112  1  0.23281727  0.78482522  0.78320772  1
  Bi  Bi113  1  0.75225120  0.51104051  -0.03313646  1
  Bi  Bi114  1  -0.03055531  0.26088057  0.49928911  1
  Bi  Bi115  1  0.25317247  0.73774675  0.25328972  1
  Bi  Bi116  1  0.20988666  0.00559827  0.00619354  1
  Bi  Bi117  1  0.72151693  0.24974756  0.46712780  1
  Bi  Bi118  1  0.00283953  0.52393899  0.47696615  1
  Bi  Bi119  1  0.01255685  0.48989365  0.27070837  1
  Bi  Bi120  1  0.72215589  0.25235862  0.73065150  1
  Bi  Bi121  1  0.26968993  0.00882163  0.76536900  1
  Bi  Bi122  1  0.78193899  0.76771772  0.01532533  1
  Bi  Bi123  1  0.48837347  0.49160638  0.54363315  1
  Bi  Bi124  1  0.24014384  0.27054239  0.00344873  1
  O  O125  1  0.14013481  0.13326012  0.00838153  1
  O  O126  1  0.11523401  0.08587741  0.24577284  1
  O  O127  1  0.10217641  0.13461246  0.48927682  1
  O  O128  1  0.11947014  0.11180221  0.75295215  1
  O  O129  1  0.11771440  0.34089004  0.01061829  1
  O  O130  1  0.14494634  0.38510639  0.24347922  1
  O  O131  1  0.14430467  0.36343300  0.49924172  1
  O  O132  1  0.09593498  0.37274826  0.74219963  1
  O  O133  1  0.15808163  0.64195862  -0.00024743  1
  O  O134  1  0.09771799  0.60689052  0.24771500  1
  O  O135  1  0.15099480  0.62305267  0.49985674  1
  O  O136  1  0.08612968  0.61809808  0.74775497  1
  O  O137  1  0.12699109  0.84687971  0.01429909  1
  O  O138  1  0.17010303  0.91179865  0.25984766  1
  O  O139  1  0.11453149  0.84093017  0.50146136  1
  O  O140  1  0.15326260  0.88594794  0.73979216  1
  O  O141  1  0.38006314  0.14040835  0.00586965  1
  O  O142  1  0.37032085  0.07595012  0.25377110  1
  O  O143  1  0.36940113  0.13656237  0.49990395  1
  O  O144  1  0.37942971  0.09246732  0.75577133  1
  O  O145  1  0.37802823  0.33264123  0.00435299  1
  O  O146  1  0.39045995  0.36762190  0.25038646  1
  O  O147  1  0.37200142  0.35432766  0.48785240  1
  O  O148  1  0.36892654  0.37135628  0.75966993  1
  O  O149  1  0.35825206  0.63059815  -0.00206666  1
  O  O150  1  0.41562423  0.62087783  0.25671761  1
  O  O151  1  0.34442930  0.63325513  0.50003040  1
  O  O152  1  0.40048202  0.60273912  0.74870573  1
  O  O153  1  0.41380277  0.85372332  0.00027218  1
  O  O154  1  0.39168549  0.88192664  0.24536268  1
  O  O155  1  0.40011595  0.87478292  0.51462653  1
  O  O156  1  0.33887860  0.88693002  0.75447329  1
  O  O157  1  0.64142191  0.11943179  0.00950165  1
  O  O158  1  0.63989739  0.10462227  0.25325297  1
  O  O159  1  0.61686550  0.14244924  0.50513761  1
  O  O160  1  0.62712867  0.10840987  0.74965292  1
  O  O161  1  0.63622191  0.34902421  0.00280560  1
  O  O162  1  0.61745861  0.37617175  0.25277223  1
  O  O163  1  0.62139805  0.34811147  0.49463470  1
  O  O164  1  0.63009416  0.36970256  0.75450150  1
  O  O165  1  0.63049424  0.60711052  -0.00077268  1
  O  O166  1  0.61580360  0.60896497  0.24045550  1
  O  O167  1  0.64444041  0.64929048  0.50030298  1
  O  O168  1  0.62378505  0.63735615  0.75587302  1
  O  O169  1  0.61382549  0.88953320  0.00493882  1
  O  O170  1  0.64372175  0.88311273  0.25241960  1
  O  O171  1  0.59468910  0.86886571  0.51013449  1
  O  O172  1  0.63285340  0.85860143  0.76032787  1
  O  O173  1  0.87388597  0.11079767  0.00685716  1
  O  O174  1  0.87165197  0.10989217  0.25363240  1
  O  O175  1  0.90284689  0.13321282  0.49617245  1
  O  O176  1  0.86506525  0.11165463  0.74989560  1
  O  O177  1  0.87427639  0.35768792  0.01014460  1
  O  O178  1  0.86304909  0.36002318  0.24520590  1
  O  O179  1  0.86779118  0.35961019  0.50014563  1
  O  O180  1  0.90126340  0.37028586  0.73996446  1
  O  O181  1  0.84807225  0.64016113  0.00404504  1
  O  O182  1  0.85815499  0.62914597  0.24461904  1
  O  O183  1  0.85313825  0.62259097  0.50603621  1
  O  O184  1  0.90111966  0.61913823  0.75486736  1
  O  O185  1  0.88924612  0.85890965  0.01467421  1
  O  O186  1  0.85395186  0.86932390  0.25090451  1
  O  O187  1  0.87950256  0.85253105  0.50372057  1
  O  O188  1  0.85426799  0.88276151  0.74555353  1
  O  O189  1  -0.00416431  0.12939661  0.13629477  1
  O  O190  1  0.00028858  0.09964803  0.35969771  1
  O  O191  1  -0.00535098  0.08998489  0.62944589  1
  O  O192  1  -0.00490519  0.10531743  0.87816643  1
  O  O193  1  0.00098396  0.37033298  0.14334770  1
  O  O194  1  0.00175227  0.36611281  0.34796981  1
  O  O195  1  -0.00036277  0.40149312  0.60039022  1
  O  O196  1  -0.00124339  0.38019357  0.89886639  1
  O  O197  1  -0.00883838  0.64878298  0.12057095  1
  O  O198  1  0.00393847  0.64220314  0.40012684  1
  O  O199  1  -0.00629112  0.60255453  0.60957101  1
  O  O200  1  -0.00519216  0.62430895  0.90585093  1
  O  O201  1  0.00582512  0.84948467  0.15451132  1
  O  O202  1  0.01349442  0.85230385  0.36929033  1
  O  O203  1  -0.01329255  0.89624574  0.63354132  1
  O  O204  1  -0.01244679  0.88071064  0.87615395  1
  O  O205  1  0.25018137  0.09042357  0.13929905  1
  O  O206  1  0.24483227  0.11159129  0.35678547  1
  O  O207  1  0.25306042  0.14893940  0.63336750  1
  O  O208  1  0.24797609  0.13161922  0.86762840  1
  O  O209  1  0.24740754  0.35425544  0.11684840  1
  O  O210  1  0.25713407  0.35225375  0.37186843  1
  O  O211  1  0.24041661  0.34327260  0.62930092  1
  O  O212  1  0.25149858  0.35344050  0.89050941  1
  O  O213  1  0.26446060  0.62199475  0.15816203  1
  O  O214  1  0.26286240  0.62191064  0.33568965  1
  O  O215  1  0.25318583  0.61530257  0.64211971  1
  O  O216  1  0.25963316  0.60911788  0.85643618  1
  O  O217  1  0.27113103  0.88193917  0.10418781  1
  O  O218  1  0.25276666  0.87529037  0.41160543  1
  O  O219  1  0.24909475  0.86673393  0.59124672  1
  O  O220  1  0.26038134  0.84807190  0.90137290  1
  O  O221  1  0.51735195  0.14289172  0.11259444  1
  O  O222  1  0.50370313  0.08716966  0.36441293  1
  O  O223  1  0.49599923  0.09753394  0.62730442  1
  O  O224  1  0.49602994  0.10768962  0.88079478  1
  O  O225  1  0.50537038  0.33316944  0.12136927  1
  O  O226  1  0.49735239  0.36468242  0.38211757  1
  O  O227  1  0.49857199  0.36326052  0.60726336  1
  O  O228  1  0.50141948  0.36827675  0.88109847  1
  O  O229  1  0.50088302  0.61246310  0.10962336  1
  O  O230  1  0.49474059  0.61406243  0.41098047  1
  O  O231  1  0.48468218  0.62284459  0.60146248  1
  O  O232  1  0.49693154  0.61174495  0.88598513  1
  O  O233  1  0.51074763  0.85117134  0.13255062  1
  O  O234  1  0.50623975  0.90474260  0.36561902  1
  O  O235  1  0.49064598  0.89557107  0.66377090  1
  O  O236  1  0.49032759  0.89772064  0.85141978  1
  O  O237  1  0.75609170  0.09233489  0.12609608  1
  O  O238  1  0.75231628  0.12217903  0.39695092  1
  O  O239  1  0.74239700  0.13566951  0.63514391  1
  O  O240  1  0.75739159  0.12220864  0.88632883  1
  O  O241  1  0.74812676  0.38822819  0.13190940  1
  O  O242  1  0.73938495  0.35208950  0.36552575  1
  O  O243  1  0.75112298  0.35140857  0.63315795  1
  O  O244  1  0.75387930  0.38063078  0.88743105  1
  O  O245  1  0.74095463  0.60768596  0.13143288  1
  O  O246  1  0.74579852  0.60709072  0.36955036  1
  O  O247  1  0.75566410  0.63129365  0.64944014  1
  O  O248  1  0.75346885  0.60492860  0.86168784  1
  O  O249  1  0.74844051  0.89843266  0.11685357  1
  O  O250  1  0.74282133  0.87742308  0.40545031  1
  O  O251  1  0.73458433  0.83274400  0.61891157  1
  O  O252  1  0.75048108  0.86491765  0.89561621  1
  O  O253  1  0.11031224  -0.00191537  0.09796505  1
  O  O254  1  0.12466811  -0.00524215  0.40303829  1
  O  O255  1  0.12485983  -0.00613040  0.61747391  1
  O  O256  1  0.12189440  0.00685010  0.89882882  1
  O  O257  1  0.13085411  0.23571461  0.15145270  1
  O  O258  1  0.12431555  0.23771545  0.34436112  1
  O  O259  1  0.08644600  0.25243594  0.62583784  1
  O  O260  1  0.09599027  0.24244814  0.87448460  1
  O  O261  1  0.12779750  0.49403439  0.09596347  1
  O  O262  1  0.10112403  0.49759297  0.37918111  1
  O  O263  1  0.14054797  0.49275453  0.62380837  1
  O  O264  1  0.12340940  0.49848524  0.89873066  1
  O  O265  1  0.14383738  0.74891145  0.16353390  1
  O  O266  1  0.15380820  0.75081445  0.35685371  1
  O  O267  1  0.10855206  0.75551292  0.64358984  1
  O  O268  1  0.10830934  0.74894773  0.85298736  1
  O  O269  1  0.40780410  -0.00242276  0.10961983  1
  O  O270  1  0.37214494  -0.00249347  0.40443339  1
  O  O271  1  0.34251985  -0.00108918  0.61523517  1
  O  O272  1  0.34929278  -0.00510788  0.89163219  1
  O  O273  1  0.37712312  0.22319741  0.15733561  1
  O  O274  1  0.39009939  0.22762536  0.35648844  1
  O  O275  1  0.38760384  0.23283164  0.65315198  1
  O  O276  1  0.38373579  0.24035433  0.85601891  1
  O  O277  1  0.37786957  0.50479468  0.14205222  1
  O  O278  1  0.36359365  0.49743235  0.36137806  1
  O  O279  1  0.36941504  0.50533159  0.61514814  1
  O  O280  1  0.36704111  0.48409957  0.88604659  1
  O  O281  1  0.38198937  0.74485693  0.14258342  1
  O  O282  1  0.38771964  0.74632800  0.36418018  1
  O  O283  1  0.37584445  0.75510324  0.64422245  1
  O  O284  1  0.38620337  0.74758547  0.85852981  1
  O  O285  1  0.60632668  0.00138673  0.12836285  1
  O  O286  1  0.63955707  -0.00034062  0.40948201  1
  O  O287  1  0.63943577  -0.00395066  0.62354107  1
  O  O288  1  0.63566560  -0.00271162  0.88175588  1
  O  O289  1  0.66220031  0.24622195  0.15407977  1
  O  O290  1  0.61879842  0.23291830  0.37234366  1
  O  O291  1  0.61040203  0.24156896  0.64815976  1
  O  O292  1  0.64862976  0.25093545  0.86814378  1
  O  O293  1  0.59814979  0.48135562  0.11031878  1
  O  O294  1  0.62702403  0.49503245  0.39317296  1
  O  O295  1  0.59644646  0.50078570  0.63831939  1
  O  O296  1  0.62719606  0.48766005  0.89213505  1
  O  O297  1  0.63141994  0.74775163  0.10181703  1
  O  O298  1  0.60762900  0.75977215  0.37155154  1
  O  O299  1  0.58469963  0.76117591  0.63614122  1
  O  O300  1  0.58576105  0.76715375  0.89821957  1
  O  O301  1  0.89931789  -0.00914453  0.15086284  1
  O  O302  1  0.86668646  0.00111917  0.39420959  1
  O  O303  1  0.82667193  -0.01435404  0.59820655  1
  O  O304  1  0.86671494  -0.00793784  0.88710789  1
  O  O305  1  0.86269075  0.24335819  0.12942222  1
  O  O306  1  0.89067311  0.24087848  0.37214114  1
  O  O307  1  0.90304134  0.25182724  0.62419902  1
  O  O308  1  0.88174523  0.24306856  0.87805678  1
  O  O309  1  0.88449721  0.50244718  0.11577440  1
  O  O310  1  0.90805239  0.50203092  0.37323210  1
  O  O311  1  0.85553834  0.49649788  0.63391263  1
  O  O312  1  0.88103554  0.50625672  0.89640806  1
  O  O313  1  0.84998938  0.75081412  0.13593191  1
  O  O314  1  0.86257536  0.75042350  0.37445960  1
  O  O315  1  0.89209447  0.74551159  0.63035558  1
  O  O316  1  0.87519362  0.75086126  0.87498772  1
