# generated using pymatgen
data_Mg32Ti42(Bi17O64)3
_symmetry_space_group_name_H-M   'P 1'
_cell_length_a   15.95346799
_cell_length_b   15.95219271
_cell_length_c   15.98586981
_cell_angle_alpha   89.95730930
_cell_angle_beta   90.02995289
_cell_angle_gamma   89.93691122
_symmetry_Int_Tables_number   1
_chemical_formula_structural   Mg32Ti42(Bi17O64)3
_chemical_formula_sum   'Mg32 Ti42 Bi51 O192'
_cell_volume   4068.28454722
_cell_formula_units_Z   1
loop_
 _symmetry_equiv_pos_site_id
 _symmetry_equiv_pos_as_xyz
  1  'x, y, z'
loop_
 _atom_site_type_symbol
 _atom_site_label
 _atom_site_symmetry_multiplicity
 _atom_site_fract_x
 _atom_site_fract_y
 _atom_site_fract_z
 _atom_site_occupancy
  Mg  Mg0  1  0.87822244  0.12539404  0.37465461  1
  Mg  Mg1  1  0.63175380  0.87279758  0.62582845  1
  Mg  Mg2  1  0.37583246  0.62412194  0.37925796  1
  Mg  Mg3  1  0.38693524  0.37527861  0.86419850  1
  Mg  Mg4  1  0.12568623  0.37766859  0.88432343  1
  Mg  Mg5  1  0.10978333  0.37628458  0.37937013  1
  Mg  Mg6  1  0.37767109  0.87603731  0.37719608  1
  Mg  Mg7  1  0.38199381  0.12517717  0.36979998  1
  Mg  Mg8  1  0.88015049  0.12765683  0.12350266  1
  Mg  Mg9  1  0.36874813  0.63226736  0.11932999  1
  Mg  Mg10  1  0.62282189  0.12396856  0.88148870  1
  Mg  Mg11  1  0.13150998  0.87549821  0.87560707  1
  Mg  Mg12  1  0.12118974  0.88594140  0.12255955  1
  Mg  Mg13  1  0.88903991  0.62335465  0.88931864  1
  Mg  Mg14  1  0.87304062  0.13461072  0.63150419  1
  Mg  Mg15  1  0.62330687  0.12930811  0.61139046  1
  Mg  Mg16  1  0.36629061  0.87109505  0.62373993  1
  Mg  Mg17  1  0.38327908  0.86146741  0.88329858  1
  Mg  Mg18  1  0.35610436  0.62412456  0.61759730  1
  Mg  Mg19  1  0.50407346  0.53831108  0.05253284  1
  Mg  Mg20  1  -0.01179924  -0.04630863  -0.03583209  1
  Mg  Mg21  1  0.49327597  0.25588104  0.67310454  1
  Mg  Mg22  1  0.02812004  0.55994121  0.45143516  1
  Mg  Mg23  1  0.52230283  0.31521397  0.48912910  1
  Mg  Mg24  1  0.00204784  0.73635057  0.56670139  1
  Mg  Mg25  1  0.55577377  0.70755832  -0.06808754  1
  Mg  Mg26  1  -0.03190774  0.49504387  0.03648880  1
  Mg  Mg27  1  0.49388474  0.30361809  0.20391363  1
  Mg  Mg28  1  0.67393946  0.24195406  0.74504614  1
  Mg  Mg29  1  0.75537109  0.55907367  0.27932412  1
  Mg  Mg30  1  0.74316753  0.69710494  0.81021822  1
  Mg  Mg31  1  0.79791071  0.77338148  0.24139077  1
  Ti  Ti32  1  0.87752602  0.87868990  0.37573497  1
  Ti  Ti33  1  0.64175833  0.86675400  0.37318975  1
  Ti  Ti34  1  0.88079608  0.87070963  0.63643452  1
  Ti  Ti35  1  0.87693679  0.88857049  0.12323625  1
  Ti  Ti36  1  0.39240444  0.12444101  0.87833665  1
  Ti  Ti37  1  0.64200099  0.62813394  0.62939928  1
  Ti  Ti38  1  0.12863382  0.12356947  0.62459372  1
  Ti  Ti39  1  0.37808473  0.11735235  0.12990810  1
  Ti  Ti40  1  0.87858785  0.37446190  0.87861698  1
  Ti  Ti41  1  0.63162056  0.87303160  0.13446711  1
  Ti  Ti42  1  0.38352863  0.87481297  0.12690553  1
  Ti  Ti43  1  0.12850736  0.61398320  0.11791508  1
  Ti  Ti44  1  0.62530646  0.38308577  0.35760213  1
  Ti  Ti45  1  0.86430960  0.37691672  0.13850891  1
  Ti  Ti46  1  0.87107583  0.63358719  0.11918987  1
  Ti  Ti47  1  0.63025057  0.63792865  0.13437220  1
  Ti  Ti48  1  0.62111482  0.63659757  0.36943305  1
  Ti  Ti49  1  0.87648169  0.38813157  0.37537423  1
  Ti  Ti50  1  0.61781806  0.13505633  0.13576757  1
  Ti  Ti51  1  0.62734329  0.87868406  0.87397561  1
  Ti  Ti52  1  0.11937666  0.61291342  0.62742766  1
  Ti  Ti53  1  0.12521685  0.11601121  0.88479260  1
  Ti  Ti54  1  0.62732107  0.38701517  0.12466788  1
  Ti  Ti55  1  0.87884695  0.13234349  0.88177799  1
  Ti  Ti56  1  0.12439084  0.87852602  0.62658653  1
  Ti  Ti57  1  0.12136066  0.13030839  0.37592421  1
  Ti  Ti58  1  0.61328811  0.13999158  0.37936374  1
  Ti  Ti59  1  0.62048824  0.36670703  0.86942947  1
  Ti  Ti60  1  0.11601386  0.87988654  0.38297019  1
  Ti  Ti61  1  0.12484816  0.37542288  0.12480364  1
  Ti  Ti62  1  0.12841644  0.61617182  0.88562588  1
  Ti  Ti63  1  0.37237203  0.62592946  0.88681429  1
  Ti  Ti64  1  0.38432459  0.38047904  0.38084341  1
  Ti  Ti65  1  0.13407775  0.12877858  0.12236989  1
  Ti  Ti66  1  0.37294277  0.12457578  0.62519440  1
  Ti  Ti67  1  0.37415088  0.37961974  0.62183988  1
  Ti  Ti68  1  0.63374226  0.37847334  0.62467279  1
  Ti  Ti69  1  0.87286473  0.37432248  0.63838960  1
  Ti  Ti70  1  0.85939583  0.87118354  0.86867784  1
  Ti  Ti71  1  0.87781613  0.63899804  0.38241207  1
  Ti  Ti72  1  0.10988882  0.36451669  0.62509703  1
  Ti  Ti73  1  0.87422572  0.61827415  0.63256391  1
  Bi  Bi74  1  0.50170697  0.77606174  0.74891089  1
  Bi  Bi75  1  0.27006941  -0.01113382  0.25825535  1
  Bi  Bi76  1  0.74744866  0.02069429  -0.00221407  1
  Bi  Bi77  1  0.50029396  0.52116589  0.52832197  1
  Bi  Bi78  1  0.47534819  0.73071278  0.24935539  1
  Bi  Bi79  1  0.49039581  -0.02873011  0.51244765  1
  Bi  Bi80  1  0.27739575  0.00180132  0.74768013  1
  Bi  Bi81  1  0.00116965  0.51379333  0.23864396  1
  Bi  Bi82  1  0.02126987  0.75784162  0.77159100  1
  Bi  Bi83  1  0.26493309  0.00813686  0.48356038  1
  Bi  Bi84  1  0.75269327  0.03421477  0.75045838  1
  Bi  Bi85  1  0.77095284  0.50630142  0.77454069  1
  Bi  Bi86  1  0.26467739  0.27806986  0.75386305  1
  Bi  Bi87  1  0.75031300  0.01846059  0.52008761  1
  Bi  Bi88  1  0.76063580  0.27668111  0.49238790  1
  Bi  Bi89  1  0.26733726  0.50787797  0.76817280  1
  Bi  Bi90  1  0.00949959  0.00146806  0.76205769  1
  Bi  Bi91  1  0.48947236  0.28289399  0.01161001  1
  Bi  Bi92  1  -0.01469285  0.24610430  0.50458304  1
  Bi  Bi93  1  0.77094795  0.23821162  0.24808366  1
  Bi  Bi94  1  0.26463437  0.75547432  0.76071225  1
  Bi  Bi95  1  0.02617311  0.24999335  0.77488735  1
  Bi  Bi96  1  0.27569939  -0.00955941  -0.02234893  1
  Bi  Bi97  1  0.75798173  0.77047829  0.52103888  1
  Bi  Bi98  1  -0.01404584  0.27037047  0.01532750  1
  Bi  Bi99  1  0.29535359  0.47085589  0.03486716  1
  Bi  Bi100  1  0.29408414  0.28055254  0.22990004  1
  Bi  Bi101  1  0.21691089  0.51001772  0.29207669  1
  Bi  Bi102  1  0.26265915  0.24788372  -0.01928387  1
  Bi  Bi103  1  -0.01783588  0.01563250  0.52060608  1
  Bi  Bi104  1  0.01193733  0.76008921  0.01517309  1
  Bi  Bi105  1  0.74339235  0.51582159  0.47895307  1
  Bi  Bi106  1  0.22438780  0.47310204  0.50787253  1
  Bi  Bi107  1  0.74770856  0.01811771  0.25923580  1
  Bi  Bi108  1  0.01059972  0.24297593  0.23536021  1
  Bi  Bi109  1  0.20418659  0.72110600  0.48768071  1
  Bi  Bi110  1  0.48644721  0.73767591  0.52680975  1
  Bi  Bi111  1  0.51256234  -0.00621694  0.02022885  1
  Bi  Bi112  1  0.52307888  0.53316783  0.77839344  1
  Bi  Bi113  1  0.24713992  0.77137749  0.02977632  1
  Bi  Bi114  1  0.74879684  0.77161488  0.00164845  1
  Bi  Bi115  1  0.46160969  0.51132994  0.24695409  1
  Bi  Bi116  1  0.70576303  0.52568662  -0.01215100  1
  Bi  Bi117  1  0.02303168  -0.00208221  0.25332849  1
  Bi  Bi118  1  0.01709008  0.50662324  0.76645926  1
  Bi  Bi119  1  0.73734263  0.25136273  -0.00780179  1
  Bi  Bi120  1  0.51656971  -0.00513135  0.28106759  1
  Bi  Bi121  1  0.01795529  0.74645603  0.25442849  1
  Bi  Bi122  1  0.24916414  0.25139707  0.45708563  1
  Bi  Bi123  1  0.24968146  0.74653102  0.28024659  1
  Bi  Bi124  1  0.51842658  0.02207045  0.72836304  1
  O  O125  1  0.13897361  0.13710516  0.00396006  1
  O  O126  1  0.09673684  0.12891386  0.25866369  1
  O  O127  1  0.14514951  0.13197968  0.51149826  1
  O  O128  1  0.10006254  0.10884603  0.75631625  1
  O  O129  1  0.12405056  0.35319903  0.00987323  1
  O  O130  1  0.12204989  0.41198796  0.25283059  1
  O  O131  1  0.14155375  0.35869658  0.50748050  1
  O  O132  1  0.10425255  0.38538745  0.74280272  1
  O  O133  1  0.11461869  0.64339749  -0.00513659  1
  O  O134  1  0.12616866  0.59738533  0.23792184  1
  O  O135  1  0.08378383  0.65767334  0.50896612  1
  O  O136  1  0.14296784  0.59227149  0.74083746  1
  O  O137  1  0.13539075  0.84560057  -0.00113763  1
  O  O138  1  0.08839248  0.87735329  0.24438135  1
  O  O139  1  0.13718600  0.87551507  0.49703873  1
  O  O140  1  0.09583042  0.88721820  0.74983461  1
  O  O141  1  0.35079175  0.14267627  0.00031226  1
  O  O142  1  0.38257115  0.09142606  0.24183622  1
  O  O143  1  0.35978663  0.10800010  0.51007597  1
  O  O144  1  0.37806122  0.10649527  0.76295458  1
  O  O145  1  0.36255963  0.35216969  -0.00766218  1
  O  O146  1  0.39835390  0.36880595  0.25768850  1
  O  O147  1  0.38082952  0.35263985  0.49907189  1
  O  O148  1  0.38782770  0.35509367  0.73866878  1
  O  O149  1  0.40893213  0.62047233  -0.00699852  1
  O  O150  1  0.37428633  0.62135109  0.24740813  1
  O  O151  1  0.40674418  0.61880876  0.49816778  1
  O  O152  1  0.33402516  0.63475626  0.74381313  1
  O  O153  1  0.34891977  0.86203231  0.00503349  1
  O  O154  1  0.38302657  0.90391902  0.24203216  1
  O  O155  1  0.36285331  0.90565010  0.50121897  1
  O  O156  1  0.38548774  0.84930536  0.75476413  1
  O  O157  1  0.65353295  0.13202418  0.00977094  1
  O  O158  1  0.60191208  0.11561530  0.25120634  1
  O  O159  1  0.65290647  0.11732765  0.48763333  1
  O  O160  1  0.63572034  0.11847149  0.75289312  1
  O  O161  1  0.63752482  0.35561757  0.00181143  1
  O  O162  1  0.59629642  0.37215364  0.24529019  1
  O  O163  1  0.63888642  0.37666562  0.50285001  1
  O  O164  1  0.61904660  0.36148377  0.75300516  1
  O  O165  1  0.59873297  0.61459390  0.00506518  1
  O  O166  1  0.65439339  0.62668858  0.24931610  1
  O  O167  1  0.61360874  0.60110268  0.48653642  1
  O  O168  1  0.65419313  0.62757266  0.74226001  1
  O  O169  1  0.64936995  0.87429456  0.00033685  1
  O  O170  1  0.60127554  0.86833654  0.24541638  1
  O  O171  1  0.65639039  0.87305063  0.48690593  1
  O  O172  1  0.60039245  0.87504774  0.75323758  1
  O  O173  1  0.85985041  0.10635790  -0.00037540  1
  O  O174  1  0.88930674  0.16144113  0.25086395  1
  O  O175  1  0.86182561  0.09393168  0.49704291  1
  O  O176  1  0.86912319  0.12078077  0.76007871  1
  O  O177  1  0.89882330  0.39439471  -0.00461157  1
  O  O178  1  0.87627324  0.35414331  0.25295032  1
  O  O179  1  0.83767024  0.39257123  0.49190091  1
  O  O180  1  0.88682390  0.35119122  0.74728211  1
  O  O181  1  0.91147115  0.60308518  0.00958592  1
  O  O182  1  0.83561691  0.65009349  0.24056658  1
  O  O183  1  0.90652288  0.60475821  0.48963525  1
  O  O184  1  0.84011651  0.63525138  0.74197208  1
  O  O185  1  0.84243546  0.88426890  -0.00434780  1
  O  O186  1  0.90209840  0.84829684  0.23329501  1
  O  O187  1  0.85311950  0.88445752  0.48607941  1
  O  O188  1  0.89426174  0.85898692  0.75062113  1
  O  O189  1  0.00867835  0.16272991  0.12106062  1
  O  O190  1  0.00531324  0.11922048  0.41044291  1
  O  O191  1  -0.00127851  0.13271833  0.60048841  1
  O  O192  1  -0.00421793  0.15078031  0.88414056  1
  O  O193  1  -0.00179462  0.35550926  0.13043513  1
  O  O194  1  -0.01358862  0.40487420  0.38900669  1
  O  O195  1  -0.00432021  0.36289524  0.60626370  1
  O  O196  1  -0.00098902  0.34344014  0.87488408  1
  O  O197  1  -0.01285017  0.62946734  0.15966018  1
  O  O198  1  -0.01508188  0.60770931  0.34286567  1
  O  O199  1  -0.00425311  0.63206651  0.64927727  1
  O  O200  1  0.00901825  0.63587077  0.84694690  1
  O  O201  1  -0.00827570  0.88821142  0.07527595  1
  O  O202  1  -0.00350313  0.89639506  0.38347152  1
  O  O203  1  -0.00348262  0.85794022  0.60132543  1
  O  O204  1  -0.00477513  0.84053177  0.89384561  1
  O  O205  1  0.25150478  0.13248018  0.14149957  1
  O  O206  1  0.24206860  0.12649635  0.38002072  1
  O  O207  1  0.24679221  0.10467259  0.65005697  1
  O  O208  1  0.23741515  0.08754241  0.86864419  1
  O  O209  1  0.24547631  0.39502057  0.13453197  1
  O  O210  1  0.25491871  0.37760419  0.38207438  1
  O  O211  1  0.25242472  0.38208252  0.63402582  1
  O  O212  1  0.25246035  0.38357127  0.85026779  1
  O  O213  1  0.24205713  0.60448402  0.10676593  1
  O  O214  1  0.24865371  0.64412954  0.37986862  1
  O  O215  1  0.23190234  0.61847805  0.58262985  1
  O  O216  1  0.24994620  0.58256689  0.88666304  1
  O  O217  1  0.24873516  0.86522301  0.13534601  1
  O  O218  1  0.24176739  0.87147497  0.34509701  1
  O  O219  1  0.23831388  0.89083182  0.64475426  1
  O  O220  1  0.25385732  0.90250215  0.86566227  1
  O  O221  1  0.50020604  0.10984034  0.10078627  1
  O  O222  1  0.50455158  0.09139573  0.38680218  1
  O  O223  1  0.49486154  0.13226108  0.63920040  1
  O  O224  1  0.49949088  0.14548948  0.88944916  1
  O  O225  1  0.50634675  0.38152880  0.10118959  1
  O  O226  1  0.50569596  0.39416561  0.39437665  1
  O  O227  1  0.50167451  0.36065915  0.60678506  1
  O  O228  1  0.50751709  0.34980381  0.89004711  1
  O  O229  1  0.51048353  0.62388561  0.15157816  1
  O  O230  1  0.50855780  0.61543317  0.34381913  1
  O  O231  1  0.51426182  0.62912082  0.62388647  1
  O  O232  1  0.48738739  0.64960168  0.84285354  1
  O  O233  1  0.50059482  0.88096139  0.10613965  1
  O  O234  1  0.50633795  0.89823325  0.39092192  1
  O  O235  1  0.50289580  0.86054713  0.59956030  1
  O  O236  1  0.50917626  0.82247457  0.88469540  1
  O  O237  1  0.74217676  0.13193166  0.15311124  1
  O  O238  1  0.74291310  0.13573004  0.34106319  1
  O  O239  1  0.75013584  0.10739469  0.62811283  1
  O  O240  1  0.75413256  0.09255755  0.87703074  1
  O  O241  1  0.74728051  0.37682602  0.13244667  1
  O  O242  1  0.73505280  0.33775307  0.36233255  1
  O  O243  1  0.75040022  0.36832527  0.63769979  1
  O  O244  1  0.75970731  0.39688058  0.87284311  1
  O  O245  1  0.74811537  0.61575553  0.09226649  1
  O  O246  1  0.75168369  0.63275437  0.39377917  1
  O  O247  1  0.75667426  0.61570160  0.58954344  1
  O  O248  1  0.76278808  0.59470114  0.88403224  1
  O  O249  1  0.75297691  0.86004168  0.14780486  1
  O  O250  1  0.75508816  0.84531133  0.33925773  1
  O  O251  1  0.76054939  0.86590629  0.62484384  1
  O  O252  1  0.74845461  0.89954770  0.84979427  1
  O  O253  1  0.11430075  0.01440237  0.13963653  1
  O  O254  1  0.12888570  0.00085879  0.35581376  1
  O  O255  1  0.09845052  0.00102375  0.62194660  1
  O  O256  1  0.08301606  -0.00021989  0.89198144  1
  O  O257  1  0.13707879  0.26092539  0.15646884  1
  O  O258  1  0.12528792  0.24964061  0.37730136  1
  O  O259  1  0.12454413  0.24654137  0.64683186  1
  O  O260  1  0.14254174  0.23942934  0.85572572  1
  O  O261  1  0.08159694  0.50166926  0.10061980  1
  O  O262  1  0.13373666  0.50357170  0.40554364  1
  O  O263  1  0.11141445  0.49934947  0.59401551  1
  O  O264  1  0.09614118  0.50162436  0.88085451  1
  O  O265  1  0.10859891  0.73888671  0.13482443  1
  O  O266  1  0.12206072  0.76122605  0.35917591  1
  O  O267  1  0.12123610  0.75338106  0.64089979  1
  O  O268  1  0.14289241  0.73780711  0.84366129  1
  O  O269  1  0.37577748  -0.00096239  0.09226933  1
  O  O270  1  0.34514674  0.00105433  0.37305392  1
  O  O271  1  0.39349476  -0.00307597  0.64748582  1
  O  O272  1  0.39219000  0.00171444  0.90524448  1
  O  O273  1  0.39811691  0.23802949  0.14823361  1
  O  O274  1  0.35990492  0.24954096  0.36073999  1
  O  O275  1  0.36953498  0.23880016  0.63401964  1
  O  O276  1  0.34264223  0.23948607  0.86625404  1
  O  O277  1  0.39587836  0.50777279  0.11330574  1
  O  O278  1  0.37272878  0.49608742  0.36628488  1
  O  O279  1  0.38388119  0.49526179  0.62097378  1
  O  O280  1  0.39746180  0.50568660  0.84592792  1
  O  O281  1  0.38051030  0.75573325  0.14303541  1
  O  O282  1  0.37759111  0.75406688  0.35039522  1
  O  O283  1  0.37582904  0.74737312  0.60350769  1
  O  O284  1  0.33132046  0.73762433  0.88186046  1
  O  O285  1  0.62840015  -0.00532416  0.11832979  1
  O  O286  1  0.64603478  -0.01140669  0.35458528  1
  O  O287  1  0.60510194  -0.00099257  0.62141219  1
  O  O288  1  0.60388756  -0.00776706  0.88887028  1
  O  O289  1  0.59944613  0.24836588  0.13623787  1
  O  O290  1  0.58749678  0.24843349  0.39510545  1
  O  O291  1  0.61961494  0.25174054  0.63370688  1
  O  O292  1  0.66305612  0.24994253  0.87028949  1
  O  O293  1  0.61806907  0.49990580  0.11809088  1
  O  O294  1  0.65865684  0.49368316  0.35681258  1
  O  O295  1  0.61973999  0.49732813  0.62907474  1
  O  O296  1  0.61058497  0.48914475  0.87269472  1
  O  O297  1  0.62763450  0.74981203  0.11729459  1
  O  O298  1  0.60763605  0.74818659  0.37755911  1
  O  O299  1  0.63908412  0.74242178  0.60517647  1
  O  O300  1  0.66102829  0.75446409  0.88401645  1
  O  O301  1  0.87319211  -0.00103563  0.14389928  1
  O  O302  1  0.85937231  -0.00616049  0.34258156  1
  O  O303  1  0.88886560  -0.01080505  0.63003553  1
  O  O304  1  0.90430377  -0.01281624  0.87574204  1
  O  O305  1  0.86604018  0.25991946  0.09851637  1
  O  O306  1  0.87919466  0.25553304  0.40826060  1
  O  O307  1  0.87223620  0.25539569  0.59021532  1
  O  O308  1  0.85429161  0.24800419  0.89658707  1
  O  O309  1  0.88712170  0.49349986  0.13800095  1
  O  O310  1  0.83895790  0.49824786  0.35326495  1
  O  O311  1  0.87606914  0.49630272  0.64586164  1
  O  O312  1  0.89514408  0.49238403  0.84527765  1
  O  O313  1  0.87663344  0.74769623  0.09848751  1
  O  O314  1  0.89362553  0.75176161  0.37639415  1
  O  O315  1  0.87783258  0.74180071  0.60163343  1
  O  O316  1  0.84071548  0.75126724  0.88331798  1
