# generated using pymatgen
data_Mg32Ti42(Bi17O64)3
_symmetry_space_group_name_H-M   'P 1'
_cell_length_a   15.94476629
_cell_length_b   15.94426774
_cell_length_c   15.94001108
_cell_angle_alpha   90.18199361
_cell_angle_beta   89.91543563
_cell_angle_gamma   89.98375613
_symmetry_Int_Tables_number   1
_chemical_formula_structural   Mg32Ti42(Bi17O64)3
_chemical_formula_sum   'Mg32 Ti42 Bi51 O192'
_cell_volume   4052.36609755
_cell_formula_units_Z   1
loop_
 _symmetry_equiv_pos_site_id
 _symmetry_equiv_pos_as_xyz
  1  'x, y, z'
loop_
 _atom_site_type_symbol
 _atom_site_label
 _atom_site_symmetry_multiplicity
 _atom_site_fract_x
 _atom_site_fract_y
 _atom_site_fract_z
 _atom_site_occupancy
  Mg  Mg0  1  0.36925108  0.13714758  0.62783787  1
  Mg  Mg1  1  0.11997067  0.11379825  0.37957300  1
  Mg  Mg2  1  0.86343665  0.38173356  0.62023454  1
  Mg  Mg3  1  0.88628562  0.62431740  0.88400018  1
  Mg  Mg4  1  0.62495808  0.87140973  0.87310000  1
  Mg  Mg5  1  0.12329137  0.87967297  0.86802830  1
  Mg  Mg6  1  0.87537742  0.11917515  0.37528260  1
  Mg  Mg7  1  0.38213718  0.62445109  0.62786328  1
  Mg  Mg8  1  0.62830574  0.12086452  0.87666929  1
  Mg  Mg9  1  0.37241225  0.13218925  0.36890214  1
  Mg  Mg10  1  0.36640844  0.38024075  0.37517524  1
  Mg  Mg11  1  0.62884207  0.37722048  0.87842620  1
  Mg  Mg12  1  0.12479487  0.62035763  0.62219728  1
  Mg  Mg13  1  0.37922316  0.12192508  0.87672667  1
  Mg  Mg14  1  0.12295872  0.88887957  0.61558357  1
  Mg  Mg15  1  0.88173880  0.87372599  0.12816746  1
  Mg  Mg16  1  0.62032035  0.87294091  0.13852433  1
  Mg  Mg17  1  0.87283419  0.87085581  0.62164617  1
  Mg  Mg18  1  0.60341255  0.61332313  0.12318038  1
  Mg  Mg19  1  0.50074285  0.49367654  0.53555448  1
  Mg  Mg20  1  0.00141554  0.80220697  0.48963043  1
  Mg  Mg21  1  0.03844222  0.44966752  0.50953664  1
  Mg  Mg22  1  0.29061863  0.24854456  0.77684213  1
  Mg  Mg23  1  -0.00328959  0.28208529  0.69986186  1
  Mg  Mg24  1  0.04084033  0.74623293  0.29556409  1
  Mg  Mg25  1  0.69636293  0.69061782  0.26016964  1
  Mg  Mg26  1  0.26353404  0.53495023  0.00561204  1
  Mg  Mg27  1  -0.04575985  0.28671237  0.05440459  1
  Mg  Mg28  1  -0.03893684  0.44464532  0.20226893  1
  Mg  Mg29  1  0.46489362  0.49801009  0.00538366  1
  Mg  Mg30  1  -0.04106940  -0.00296078  0.50997045  1
  Mg  Mg31  1  0.23724874  0.71075033  0.26819253  1
  Ti  Ti32  1  0.36272828  0.88353292  0.37031679  1
  Ti  Ti33  1  0.63756646  0.12969448  0.62926284  1
  Ti  Ti34  1  0.37097268  0.38669372  0.87897244  1
  Ti  Ti35  1  0.88591436  0.87213376  0.87996774  1
  Ti  Ti36  1  0.38312439  0.87256670  0.60410298  1
  Ti  Ti37  1  0.61635917  0.38252980  0.38597345  1
  Ti  Ti38  1  0.12226368  0.61496984  0.38782380  1
  Ti  Ti39  1  0.61379303  0.38335437  0.12671602  1
  Ti  Ti40  1  0.89158883  0.62669123  0.13019255  1
  Ti  Ti41  1  0.62320485  0.62266140  0.89591209  1
  Ti  Ti42  1  0.88241582  0.87250747  0.36785540  1
  Ti  Ti43  1  0.62790409  0.13525517  0.12885503  1
  Ti  Ti44  1  0.12233132  0.39013149  0.35702056  1
  Ti  Ti45  1  0.62814659  0.37537086  0.64025176  1
  Ti  Ti46  1  0.36923839  0.37001064  0.62922982  1
  Ti  Ti47  1  0.13980670  0.36549911  0.61913794  1
  Ti  Ti48  1  0.38131288  0.62916375  0.12218405  1
  Ti  Ti49  1  0.37777795  0.88187130  0.86651568  1
  Ti  Ti50  1  0.62991361  0.61059368  0.62517772  1
  Ti  Ti51  1  0.13156013  0.63206533  0.13371692  1
  Ti  Ti52  1  0.87072933  0.12316947  0.12472211  1
  Ti  Ti53  1  0.38156993  0.13859863  0.11888053  1
  Ti  Ti54  1  0.87555244  0.12271221  0.62628504  1
  Ti  Ti55  1  0.11944342  0.36905881  0.85946583  1
  Ti  Ti56  1  0.36594664  0.87668786  0.12681072  1
  Ti  Ti57  1  0.87978597  0.62649187  0.62115067  1
  Ti  Ti58  1  0.89462476  0.36062788  0.86613137  1
  Ti  Ti59  1  0.37709159  0.63225266  0.88303838  1
  Ti  Ti60  1  0.11970640  0.13186448  0.86649718  1
  Ti  Ti61  1  0.13108234  0.86470730  0.13129303  1
  Ti  Ti62  1  0.89692658  0.62840671  0.35989601  1
  Ti  Ti63  1  0.11732694  0.12918210  0.62108643  1
  Ti  Ti64  1  0.12885323  0.87910259  0.37059209  1
  Ti  Ti65  1  0.12579105  0.63689919  0.87133695  1
  Ti  Ti66  1  0.61449730  0.87371811  0.37229076  1
  Ti  Ti67  1  0.62250322  0.86500476  0.63313195  1
  Ti  Ti68  1  0.88694629  0.38227309  0.38961876  1
  Ti  Ti69  1  0.35976083  0.62052435  0.38162674  1
  Ti  Ti70  1  0.37569156  0.37873853  0.12468636  1
  Ti  Ti71  1  0.12686951  0.38628150  0.12102627  1
  Ti  Ti72  1  0.63310712  0.13253713  0.37155639  1
  Ti  Ti73  1  0.88306432  0.12183049  0.88370439  1
  Bi  Bi74  1  0.74888113  -0.03592857  0.01464673  1
  Bi  Bi75  1  0.52682466  0.00760522  0.00397437  1
  Bi  Bi76  1  0.75487665  0.25419758  -0.01280564  1
  Bi  Bi77  1  0.51092408  0.26193595  0.51086814  1
  Bi  Bi78  1  0.50058426  0.78412931  0.00015376  1
  Bi  Bi79  1  0.27712275  0.02686186  0.49843449  1
  Bi  Bi80  1  0.22699941  0.75449519  0.49880529  1
  Bi  Bi81  1  0.76712478  -0.02332982  0.76286523  1
  Bi  Bi82  1  -0.00849884  -0.00001655  0.26325282  1
  Bi  Bi83  1  0.78424302  0.27409749  0.23794620  1
  Bi  Bi84  1  0.00505908  -0.00237796  0.73082063  1
  Bi  Bi85  1  0.25532897  0.76830332  0.72382587  1
  Bi  Bi86  1  0.48752979  0.01603469  0.73741884  1
  Bi  Bi87  1  0.26976675  0.49676452  0.23397005  1
  Bi  Bi88  1  0.01332241  0.75830882  0.71036796  1
  Bi  Bi89  1  0.02290394  0.21923802  0.24283793  1
  Bi  Bi90  1  0.73297567  0.74651917  0.05613704  1
  Bi  Bi91  1  0.76480578  0.51783369  0.77378379  1
  Bi  Bi92  1  0.74026882  -0.00564054  0.25781978  1
  Bi  Bi93  1  -0.00640400  0.77176699  0.00979405  1
  Bi  Bi94  1  0.50565596  0.73257958  0.75204930  1
  Bi  Bi95  1  0.24752772  0.02554861  0.75746575  1
  Bi  Bi96  1  0.50426946  0.23995259  0.76870901  1
  Bi  Bi97  1  0.23044305  0.24077428  0.23141568  1
  Bi  Bi98  1  -0.00795748  0.22460036  0.49072601  1
  Bi  Bi99  1  0.73151281  -0.02551299  0.50412594  1
  Bi  Bi100  1  0.27301261  0.50746332  0.52018165  1
  Bi  Bi101  1  0.76822662  0.23567312  0.76519704  1
  Bi  Bi102  1  0.76242137  0.51713845  0.46485690  1
  Bi  Bi103  1  0.79717765  0.48188332  0.01036418  1
  Bi  Bi104  1  0.24003142  0.00678144  -0.01096679  1
  Bi  Bi105  1  0.49088207  0.02565382  0.25719338  1
  Bi  Bi106  1  0.50768193  0.50052430  0.78592457  1
  Bi  Bi107  1  0.51509005  0.26598746  -0.00411974  1
  Bi  Bi108  1  0.76192255  0.25597024  0.50403491  1
  Bi  Bi109  1  0.25424382  0.24510256  0.46591857  1
  Bi  Bi110  1  0.50463111  0.26559779  0.26815391  1
  Bi  Bi111  1  0.51131439  0.02339046  0.51186255  1
  Bi  Bi112  1  0.23932981  0.03072869  0.22037808  1
  Bi  Bi113  1  0.04360933  0.51471714  -0.00639925  1
  Bi  Bi114  1  0.77615301  0.73929877  0.76598247  1
  Bi  Bi115  1  0.24248034  0.77092634  -0.01392134  1
  Bi  Bi116  1  0.51284075  0.52116185  0.29506098  1
  Bi  Bi117  1  0.23770352  0.26540327  -0.01712491  1
  Bi  Bi118  1  -0.00133359  0.48697569  0.71069882  1
  Bi  Bi119  1  0.52930265  0.71946195  0.49350564  1
  Bi  Bi120  1  0.46881731  0.75356870  0.26656498  1
  Bi  Bi121  1  0.74666704  0.50408334  0.22329305  1
  Bi  Bi122  1  0.24059291  0.52416634  0.75711875  1
  Bi  Bi123  1  0.75163334  0.73476848  0.45621834  1
  Bi  Bi124  1  0.03111214  0.03325679  0.02846849  1
  O  O125  1  0.13878248  0.11002625  -0.01134516  1
  O  O126  1  0.12748658  0.12875179  0.25190048  1
  O  O127  1  0.10601853  0.14301150  0.50365281  1
  O  O128  1  0.11611832  0.10123412  0.74653333  1
  O  O129  1  0.15245163  0.36992056  0.00545628  1
  O  O130  1  0.07981907  0.41310239  0.25211030  1
  O  O131  1  0.14569966  0.37102431  0.50397337  1
  O  O132  1  0.09227020  0.36474443  0.74741527  1
  O  O133  1  0.15729054  0.60421589  -0.01210872  1
  O  O134  1  0.10926951  0.65276814  0.24435359  1
  O  O135  1  0.15064302  0.63593943  0.49740220  1
  O  O136  1  0.12343110  0.60832384  0.75468934  1
  O  O137  1  0.16298773  0.88459863  -0.00281187  1
  O  O138  1  0.11039060  0.84691714  0.24313398  1
  O  O139  1  0.12586398  0.85989674  0.48990978  1
  O  O140  1  0.09411535  0.89019432  0.74323751  1
  O  O141  1  0.38514394  0.13251621  0.00384106  1
  O  O142  1  0.36998455  0.10217855  0.24580306  1
  O  O143  1  0.36027421  0.14303312  0.50224934  1
  O  O144  1  0.37344151  0.09402374  0.74529338  1
  O  O145  1  0.34827956  0.34550486  0.00043527  1
  O  O146  1  0.38833147  0.40271305  0.24136495  1
  O  O147  1  0.34175073  0.35078026  0.51311138  1
  O  O148  1  0.38336028  0.40711206  0.76123734  1
  O  O149  1  0.34468497  0.63861270  0.00151233  1
  O  O150  1  0.38661056  0.60066549  0.24231405  1
  O  O151  1  0.33421051  0.64194882  0.49188511  1
  O  O152  1  0.41076928  0.61481100  0.75995356  1
  O  O153  1  0.36000105  0.85013412  0.00378630  1
  O  O154  1  0.39826485  0.87950311  0.24930442  1
  O  O155  1  0.35852352  0.85223883  0.49090236  1
  O  O156  1  0.40329921  0.88991684  0.75378808  1
  O  O157  1  0.60411983  0.15052851  0.01052651  1
  O  O158  1  0.62704653  0.09032827  0.24906107  1
  O  O159  1  0.60892267  0.14463548  0.48849562  1
  O  O160  1  0.65067856  0.11843135  0.74164605  1
  O  O161  1  0.62997063  0.34849310  0.01036418  1
  O  O162  1  0.58315442  0.39018184  0.25446572  1
  O  O163  1  0.62880219  0.34250982  0.49725344  1
  O  O164  1  0.59103525  0.37435836  0.74981598  1
  O  O165  1  0.64215360  0.63936809  0.00487941  1
  O  O166  1  0.62130750  0.59010043  0.24974167  1
  O  O167  1  0.64734425  0.64654302  0.50461555  1
  O  O168  1  0.58831813  0.61670017  0.73967689  1
  O  O169  1  0.63946427  0.83961750  0.00441224  1
  O  O170  1  0.62458987  0.91154765  0.25942166  1
  O  O171  1  0.65113401  0.85961188  0.49473993  1
  O  O172  1  0.60570592  0.88757514  0.74345643  1
  O  O173  1  0.87077709  0.15919789  -0.00440311  1
  O  O174  1  0.88827951  0.10542259  0.24302558  1
  O  O175  1  0.90354952  0.11654632  0.50292295  1
  O  O176  1  0.85167500  0.11313822  0.74630226  1
  O  O177  1  0.86398288  0.34764430  -0.00988496  1
  O  O178  1  0.87924782  0.37748649  0.27239961  1
  O  O179  1  0.82516300  0.38593719  0.49716868  1
  O  O180  1  0.90626128  0.37398172  0.74673612  1
  O  O181  1  0.85833860  0.60852234  0.01021712  1
  O  O182  1  0.91995007  0.60693626  0.25262390  1
  O  O183  1  0.85177461  0.63679918  0.50791662  1
  O  O184  1  0.86966996  0.60879049  0.75622655  1
  O  O185  1  0.85980819  0.85586382  -0.00608105  1
  O  O186  1  0.89635215  0.89861139  0.24999344  1
  O  O187  1  0.89117365  0.87732737  0.49101307  1
  O  O188  1  0.88545455  0.90125257  0.75397675  1
  O  O189  1  -0.00760634  0.13892107  0.10744813  1
  O  O190  1  0.00007728  0.15697000  0.36958852  1
  O  O191  1  -0.01062737  0.16508520  0.64479231  1
  O  O192  1  -0.00043833  0.09977279  0.88557899  1
  O  O193  1  0.01030167  0.38818900  0.10114130  1
  O  O194  1  -0.00383118  0.37235428  0.41500085  1
  O  O195  1  -0.00018112  0.36983273  0.60687184  1
  O  O196  1  0.00406710  0.37697803  0.89732960  1
  O  O197  1  0.01183951  0.60312396  0.09996886  1
  O  O198  1  0.00982373  0.66328606  0.39109921  1
  O  O199  1  -0.00356231  0.64386381  0.62535626  1
  O  O200  1  0.01197319  0.61349461  0.89838435  1
  O  O201  1  0.01157838  0.87737577  0.09509185  1
  O  O202  1  0.01047283  0.84141050  0.37194990  1
  O  O203  1  -0.00062410  0.84156069  0.60758147  1
  O  O204  1  -0.00189344  0.88482527  0.90138275  1
  O  O205  1  0.25790082  0.13619156  0.13150066  1
  O  O206  1  0.24460588  0.11270659  0.39053550  1
  O  O207  1  0.23397182  0.10046878  0.61965213  1
  O  O208  1  0.24840371  0.14438167  0.84027314  1
  O  O209  1  0.25072971  0.36499706  0.15417424  1
  O  O210  1  0.23597918  0.41139966  0.34788670  1
  O  O211  1  0.24776867  0.40000024  0.64841790  1
  O  O212  1  0.24707439  0.33763522  0.85902435  1
  O  O213  1  0.24943020  0.64486818  0.15401796  1
  O  O214  1  0.24170097  0.60339839  0.34414925  1
  O  O215  1  0.25482439  0.59892204  0.63970664  1
  O  O216  1  0.25985176  0.63375647  0.84769467  1
  O  O217  1  0.25309935  0.84155860  0.13991104  1
  O  O218  1  0.25094289  0.89910512  0.35658691  1
  O  O219  1  0.25850149  0.88047253  0.64257027  1
  O  O220  1  0.26330554  0.84438233  0.85725098  1
  O  O221  1  0.49828354  0.10050633  0.13835077  1
  O  O222  1  0.50282032  0.13311527  0.35094715  1
  O  O223  1  0.50519753  0.11890025  0.62838489  1
  O  O224  1  0.50423806  0.11025844  0.84189665  1
  O  O225  1  0.49217459  0.39808653  0.09356085  1
  O  O226  1  0.49252833  0.33725847  0.39217510  1
  O  O227  1  0.49007136  0.36883348  0.60008943  1
  O  O228  1  0.48555484  0.40373754  0.90900901  1
  O  O229  1  0.48563499  0.59176429  0.09380916  1
  O  O230  1  0.48140281  0.64693225  0.38026097  1
  O  O231  1  0.50050854  0.61914344  0.57812466  1
  O  O232  1  0.49382595  0.58559625  0.90617746  1
  O  O233  1  0.49660829  0.88871263  0.09720133  1
  O  O234  1  0.50127959  0.85159511  0.37735088  1
  O  O235  1  0.50299232  0.87893339  0.59419047  1
  O  O236  1  0.49663233  0.88790084  0.90874147  1
  O  O237  1  0.74611239  0.14912980  0.13366292  1
  O  O238  1  0.74773176  0.10064450  0.36828876  1
  O  O239  1  0.75106971  0.11945870  0.59482168  1
  O  O240  1  0.75075628  0.15901812  0.87945511  1
  O  O241  1  0.73167936  0.36455785  0.15455172  1
  O  O242  1  0.72507956  0.41943327  0.36266504  1
  O  O243  1  0.73839103  0.38298983  0.65568842  1
  O  O244  1  0.75369862  0.33854898  0.86712440  1
  O  O245  1  0.77242554  0.63649583  0.16811274  1
  O  O246  1  0.76710257  0.62402610  0.36213341  1
  O  O247  1  0.74168460  0.60835479  0.64999460  1
  O  O248  1  0.74010917  0.63035633  0.85774934  1
  O  O249  1  0.75228809  0.87542834  0.12860774  1
  O  O250  1  0.76509686  0.90694361  0.36766719  1
  O  O251  1  0.74410825  0.89252045  0.63292750  1
  O  O252  1  0.75164091  0.86530384  0.84774743  1
  O  O253  1  0.13755788  -0.01336126  0.12698832  1
  O  O254  1  0.10328296  -0.01002635  0.36194524  1
  O  O255  1  0.07067926  0.01024093  0.60493984  1
  O  O256  1  0.16267840  0.00183898  0.87220670  1
  O  O257  1  0.12122279  0.26878537  0.15042864  1
  O  O258  1  0.13357875  0.27242152  0.34753453  1
  O  O259  1  0.13292653  0.24955453  0.63585537  1
  O  O260  1  0.11398936  0.24332177  0.88229734  1
  O  O261  1  0.15360213  0.50656024  0.12014649  1
  O  O262  1  0.09515089  0.50624083  0.40662099  1
  O  O263  1  0.10199248  0.49355720  0.61334879  1
  O  O264  1  0.13959897  0.48250021  0.86887821  1
  O  O265  1  0.11692306  0.74461190  0.08821762  1
  O  O266  1  0.16291936  0.74865862  0.36943426  1
  O  O267  1  0.14316209  0.75011523  0.63712430  1
  O  O268  1  0.12242873  0.74898511  0.88080324  1
  O  O269  1  0.34612527  -0.01045340  0.12175362  1
  O  O270  1  0.38837883  -0.00533255  0.39423317  1
  O  O271  1  0.38303638  -0.00546885  0.59743641  1
  O  O272  1  0.34850965  -0.00634622  0.88483657  1
  O  O273  1  0.39502003  0.25243670  0.13882822  1
  O  O274  1  0.33985739  0.25659064  0.36164470  1
  O  O275  1  0.35709371  0.25832432  0.66881503  1
  O  O276  1  0.39530075  0.25396438  0.85253296  1
  O  O277  1  0.34625649  0.49461437  0.09470548  1
  O  O278  1  0.37841805  0.50559647  0.40685053  1
  O  O279  1  0.38572197  0.49535317  0.59626348  1
  O  O280  1  0.34202185  0.49668560  0.90938832  1
  O  O281  1  0.40434728  0.74365223  0.13653248  1
  O  O282  1  0.34778107  0.74435715  0.33436775  1
  O  O283  1  0.37328522  0.75463688  0.64170176  1
  O  O284  1  0.40574362  0.74400317  0.87164602  1
  O  O285  1  0.63644257  0.00626067  0.09639412  1
  O  O286  1  0.61610822  -0.00295104  0.40880983  1
  O  O287  1  0.62140418  0.00367035  0.59535623  1
  O  O288  1  0.63434181  -0.00222953  0.91197272  1
  O  O289  1  0.59547241  0.24858220  0.15067752  1
  O  O290  1  0.63371400  0.24769787  0.34353468  1
  O  O291  1  0.62347477  0.24905001  0.62920267  1
  O  O292  1  0.58824023  0.25366239  0.87513544  1
  O  O293  1  0.64960845  0.49292656  0.11501099  1
  O  O294  1  0.57058109  0.48472721  0.41954528  1
  O  O295  1  0.60862093  0.49390765  0.60851413  1
  O  O296  1  0.63735650  0.50307927  0.86720067  1
  O  O297  1  0.63255651  0.74054551  0.15351093  1
  O  O298  1  0.65340422  0.76288401  0.35320587  1
  O  O299  1  0.61290765  0.74848512  0.63758913  1
  O  O300  1  0.59209435  0.73581780  0.86417824  1
  O  O301  1  0.86526308  0.00961841  0.09777745  1
  O  O302  1  0.92316111  -0.00442887  0.38126111  1
  O  O303  1  0.89436437  0.00475065  0.61972181  1
  O  O304  1  0.84945259  0.00642492  0.88467733  1
  O  O305  1  0.88175125  0.24957617  0.14808793  1
  O  O306  1  0.85593300  0.25871597  0.39768036  1
  O  O307  1  0.85398003  0.25119068  0.60855074  1
  O  O308  1  0.89357484  0.24177662  0.83986942  1
  O  O309  1  0.86594161  0.49639837  0.13350397  1
  O  O310  1  0.88333581  0.50799491  0.39555551  1
  O  O311  1  0.89319198  0.50646883  0.62026837  1
  O  O312  1  0.85787183  0.48423789  0.88174187  1
  O  O313  1  0.90423083  0.74200779  0.11936017  1
  O  O314  1  0.86751509  0.75223995  0.36249021  1
  O  O315  1  0.86612871  0.74617526  0.65613724  1
  O  O316  1  0.88399175  0.75323419  0.85379662  1
