# generated using pymatgen
data_Mg32Ti42(Bi17O64)3
_symmetry_space_group_name_H-M   'P 1'
_cell_length_a   16.00285704
_cell_length_b   15.97817606
_cell_length_c   15.95363698
_cell_angle_alpha   90.12669324
_cell_angle_beta   89.97739279
_cell_angle_gamma   89.98913614
_symmetry_Int_Tables_number   1
_chemical_formula_structural   Mg32Ti42(Bi17O64)3
_chemical_formula_sum   'Mg32 Ti42 Bi51 O192'
_cell_volume   4079.27825010
_cell_formula_units_Z   1
loop_
 _symmetry_equiv_pos_site_id
 _symmetry_equiv_pos_as_xyz
  1  'x, y, z'
loop_
 _atom_site_type_symbol
 _atom_site_label
 _atom_site_symmetry_multiplicity
 _atom_site_fract_x
 _atom_site_fract_y
 _atom_site_fract_z
 _atom_site_occupancy
  Mg  Mg0  1  0.37390079  0.63044772  0.61768889  1
  Mg  Mg1  1  0.61869357  0.12953535  0.36554224  1
  Mg  Mg2  1  0.36627301  0.37011409  0.87375927  1
  Mg  Mg3  1  0.87185490  0.37407395  0.62069952  1
  Mg  Mg4  1  0.62713128  0.11950654  0.63404118  1
  Mg  Mg5  1  0.37392624  0.87651766  0.37125590  1
  Mg  Mg6  1  0.87295504  0.87320666  0.61608757  1
  Mg  Mg7  1  0.36918113  0.62843353  0.88344891  1
  Mg  Mg8  1  0.60819052  0.37475233  0.62504171  1
  Mg  Mg9  1  0.62399103  0.37516609  0.37661960  1
  Mg  Mg10  1  0.61666544  0.62119632  0.36741103  1
  Mg  Mg11  1  0.87064305  0.12855593  0.36911457  1
  Mg  Mg12  1  0.38388999  0.12527134  0.37976562  1
  Mg  Mg13  1  0.87570317  0.62418962  0.36949444  1
  Mg  Mg14  1  0.11958846  0.13198911  0.87160935  1
  Mg  Mg15  1  0.11882556  0.62023453  0.36730051  1
  Mg  Mg16  1  0.62871096  0.87279029  0.87522823  1
  Mg  Mg17  1  0.12915938  0.12548095  0.12532527  1
  Mg  Mg18  1  0.11966587  0.88798383  0.36657003  1
  Mg  Mg19  1  0.32646924  0.76742523  0.22483132  1
  Mg  Mg20  1  0.52652687  0.17900948  0.51186461  1
  Mg  Mg21  1  0.51549290  0.46560521  0.23946990  1
  Mg  Mg22  1  0.53205657  0.43833027  0.79062515  1
  Mg  Mg23  1  0.74427151  0.34220833  0.75492942  1
  Mg  Mg24  1  0.00050295  0.48326748  0.01258377  1
  Mg  Mg25  1  0.72648092  0.23329468  0.29302482  1
  Mg  Mg26  1  0.55297562  0.77281656  0.30382380  1
  Mg  Mg27  1  0.32850558  0.51518459  0.75823701  1
  Mg  Mg28  1  -0.00341095  0.26985046  0.04845168  1
  Mg  Mg29  1  0.68478930  -0.05105988  0.26297708  1
  Mg  Mg30  1  0.51255170  -0.00867266  0.41804244  1
  Mg  Mg31  1  0.70003951  0.54792609  0.75143182  1
  Ti  Ti32  1  0.87747756  0.61123675  0.87180767  1
  Ti  Ti33  1  0.36905568  0.36901962  0.36953698  1
  Ti  Ti34  1  0.86748733  0.86912642  0.36998421  1
  Ti  Ti35  1  0.86028227  0.37794446  0.37412032  1
  Ti  Ti36  1  0.86587949  0.62192713  0.62396508  1
  Ti  Ti37  1  0.12465717  0.62533680  0.86791614  1
  Ti  Ti38  1  0.35607026  0.88028409  0.87005142  1
  Ti  Ti39  1  0.87439570  0.12740632  0.61092739  1
  Ti  Ti40  1  0.11358200  0.86817729  0.87233080  1
  Ti  Ti41  1  0.89338408  0.37693977  0.88203186  1
  Ti  Ti42  1  0.87242648  0.86688826  0.12676721  1
  Ti  Ti43  1  0.11053148  0.87537997  0.12220722  1
  Ti  Ti44  1  0.62592356  0.62127651  0.12370907  1
  Ti  Ti45  1  0.37467794  0.13009963  0.11537475  1
  Ti  Ti46  1  0.64005210  0.85938741  0.11331880  1
  Ti  Ti47  1  0.87778142  0.61115716  0.11686972  1
  Ti  Ti48  1  0.38505848  0.64366160  0.36968504  1
  Ti  Ti49  1  0.63250084  0.12126202  0.13450391  1
  Ti  Ti50  1  0.39619358  0.61717064  0.12399407  1
  Ti  Ti51  1  0.86381724  0.13212905  0.12816362  1
  Ti  Ti52  1  0.88363732  0.13436289  0.87697667  1
  Ti  Ti53  1  0.12623566  0.37079443  0.13420422  1
  Ti  Ti54  1  0.36922474  0.87949428  0.62381095  1
  Ti  Ti55  1  0.11629393  0.12162655  0.37411295  1
  Ti  Ti56  1  0.61423762  0.63831587  0.87650768  1
  Ti  Ti57  1  0.86698321  0.37633616  0.12008392  1
  Ti  Ti58  1  0.63056134  0.36003083  0.12764619  1
  Ti  Ti59  1  0.13284461  0.62319227  0.62022672  1
  Ti  Ti60  1  0.61122026  0.63541529  0.62966872  1
  Ti  Ti61  1  0.63811160  0.87562367  0.63313146  1
  Ti  Ti62  1  0.37818113  0.13113792  0.62998362  1
  Ti  Ti63  1  0.62005204  0.12299945  0.86691714  1
  Ti  Ti64  1  0.12361341  0.37671758  0.86450524  1
  Ti  Ti65  1  0.37206004  0.37626540  0.12646926  1
  Ti  Ti66  1  0.12724144  0.38176856  0.61709931  1
  Ti  Ti67  1  0.12161831  0.61124687  0.12581365  1
  Ti  Ti68  1  0.11914476  0.13511951  0.62321135  1
  Ti  Ti69  1  0.88412627  0.87987987  0.88147583  1
  Ti  Ti70  1  0.13234731  0.38002316  0.36748352  1
  Ti  Ti71  1  0.37606906  0.39070808  0.62841739  1
  Ti  Ti72  1  0.12666936  0.87923983  0.62568120  1
  Ti  Ti73  1  0.36307417  0.12738091  0.86838096  1
  Bi  Bi74  1  0.53569342  0.79090505  0.49209603  1
  Bi  Bi75  1  0.46590035  0.73337227  0.75545882  1
  Bi  Bi76  1  -0.01241624  0.03730299  0.00856462  1
  Bi  Bi77  1  -0.00718354  0.51978444  0.48279435  1
  Bi  Bi78  1  0.25266410  0.27675348  0.73321598  1
  Bi  Bi79  1  0.22209320  0.25751570  -0.01184961  1
  Bi  Bi80  1  0.74468512  0.71579255  0.47832829  1
  Bi  Bi81  1  0.75060410  0.72111885  0.24868416  1
  Bi  Bi82  1  0.26447463  0.52846553  0.47552534  1
  Bi  Bi83  1  -0.01430637  0.49778571  0.25167791  1
  Bi  Bi84  1  0.01480523  0.72452960  0.00225463  1
  Bi  Bi85  1  -0.02486579  -0.01475605  0.48221974  1
  Bi  Bi86  1  0.75089521  0.24866543  -0.03127090  1
  Bi  Bi87  1  0.24564781  0.77308000  0.45823826  1
  Bi  Bi88  1  -0.01786283  0.26795870  0.73323946  1
  Bi  Bi89  1  0.27941575  0.51932208  0.24813402  1
  Bi  Bi90  1  0.52169517  0.28198327  -0.01871584  1
  Bi  Bi91  1  0.76575512  0.74519173  -0.00968337  1
  Bi  Bi92  1  0.49327747  0.48201805  0.46810016  1
  Bi  Bi93  1  0.48857777  0.22916462  0.23583212  1
  Bi  Bi94  1  0.49032705  -0.03931483  0.20843595  1
  Bi  Bi95  1  0.47062759  0.78722306  0.00573357  1
  Bi  Bi96  1  0.72554230  0.00690812  0.44909175  1
  Bi  Bi97  1  0.77253374  0.77266862  0.76008615  1
  Bi  Bi98  1  0.27325525  -0.03255314  0.20782666  1
  Bi  Bi99  1  -0.00271529  0.51220439  0.71849387  1
  Bi  Bi100  1  -0.00251095  0.26957292  0.48745922  1
  Bi  Bi101  1  0.51817806  0.25849638  0.74333646  1
  Bi  Bi102  1  0.23909187  0.02092722  0.73211319  1
  Bi  Bi103  1  0.48658824  0.00997783  -0.01944014  1
  Bi  Bi104  1  0.50837450  -0.02538419  0.73389113  1
  Bi  Bi105  1  0.71344652  0.48412258  -0.04368150  1
  Bi  Bi106  1  0.24933475  0.23097524  0.48082229  1
  Bi  Bi107  1  -0.02603893  0.25134005  0.25928981  1
  Bi  Bi108  1  0.48315468  0.50635856  -0.02259413  1
  Bi  Bi109  1  0.76119456  0.01346757  0.72924596  1
  Bi  Bi110  1  -0.02302077  0.00022931  0.24282581  1
  Bi  Bi111  1  0.02623027  0.75481454  0.48405639  1
  Bi  Bi112  1  0.22493782  0.50483507  -0.01410748  1
  Bi  Bi113  1  0.72391055  0.48540212  0.25849058  1
  Bi  Bi114  1  0.24396640  0.21570945  0.24950714  1
  Bi  Bi115  1  0.73639901  0.00694456  -0.02503828  1
  Bi  Bi116  1  0.72380844  0.48943598  0.54189060  1
  Bi  Bi117  1  0.24723483  0.74167038  0.73263008  1
  Bi  Bi118  1  0.22202759  0.00912069  -0.02014626  1
  Bi  Bi119  1  0.71670705  0.23723135  0.51429358  1
  Bi  Bi120  1  0.25331877  0.76723643  0.03095290  1
  Bi  Bi121  1  -0.00467995  0.75922145  0.72161181  1
  Bi  Bi122  1  0.02392771  0.75094344  0.25167083  1
  Bi  Bi123  1  0.27691069  0.00253922  0.48185477  1
  Bi  Bi124  1  -0.00555179  0.01705662  0.73427264  1
  O  O125  1  0.15561519  0.13002995  -0.00185675  1
  O  O126  1  0.12871963  0.12564072  0.25785728  1
  O  O127  1  0.12856412  0.14579312  0.50525671  1
  O  O128  1  0.10822123  0.10094148  0.74937833  1
  O  O129  1  0.10761378  0.33280110  0.01453496  1
  O  O130  1  0.14322676  0.39821711  0.25348986  1
  O  O131  1  0.10495842  0.36359174  0.50221412  1
  O  O132  1  0.14589754  0.38743739  0.75394125  1
  O  O133  1  0.13549957  0.64351614  0.00264679  1
  O  O134  1  0.08783716  0.61306604  0.24158186  1
  O  O135  1  0.14294393  0.63110370  0.50483972  1
  O  O136  1  0.10713842  0.60626075  0.75598613  1
  O  O137  1  0.14789727  0.85434854  0.00313447  1
  O  O138  1  0.09396678  0.87514480  0.24281083  1
  O  O139  1  0.13603163  0.85480756  0.51033532  1
  O  O140  1  0.09594675  0.87761722  0.75736925  1
  O  O141  1  0.37206749  0.12617992  -0.00046637  1
  O  O142  1  0.38689155  0.13389918  0.25127366  1
  O  O143  1  0.34856377  0.13189367  0.51318830  1
  O  O144  1  0.37502103  0.10157774  0.75292600  1
  O  O145  1  0.40857925  0.39116469  0.01079696  1
  O  O146  1  0.35524218  0.36544256  0.25646177  1
  O  O147  1  0.39896514  0.39060564  0.50689356  1
  O  O148  1  0.33424621  0.38749847  0.74998448  1
  O  O149  1  0.37077541  0.58924877  0.00893807  1
  O  O150  1  0.36574296  0.63338965  0.24489241  1
  O  O151  1  0.35552656  0.63930818  0.48843633  1
  O  O152  1  0.37766714  0.63008639  0.75574167  1
  O  O153  1  0.35263240  0.85903031  -0.00356157  1
  O  O154  1  0.38057706  0.88108609  0.24417332  1
  O  O155  1  0.34591938  0.86300071  0.50955798  1
  O  O156  1  0.39565211  0.88844714  0.75691108  1
  O  O157  1  0.63878567  0.09635567  0.01228874  1
  O  O158  1  0.62024420  0.17068211  0.24605989  1
  O  O159  1  0.64517234  0.11519648  0.50572383  1
  O  O160  1  0.61695882  0.14698681  0.75700663  1
  O  O161  1  0.60060727  0.39674481  0.01028758  1
  O  O162  1  0.67215427  0.35505695  0.24448386  1
  O  O163  1  0.61130140  0.41390127  0.50043989  1
  O  O164  1  0.62152579  0.34770290  0.74945166  1
  O  O165  1  0.64032576  0.60357938  0.00061331  1
  O  O166  1  0.62098817  0.67176576  0.24227283  1
  O  O167  1  0.64665582  0.61317592  0.50768169  1
  O  O168  1  0.61737895  0.64604992  0.75469949  1
  O  O169  1  0.66052278  0.89274640  0.00199527  1
  O  O170  1  0.59906706  0.86123169  0.23124511  1
  O  O171  1  0.62280614  0.89564757  0.51781242  1
  O  O172  1  0.59145466  0.86461602  0.74890769  1
  O  O173  1  0.86425158  0.10926672  0.00571724  1
  O  O174  1  0.90432112  0.12557817  0.24208752  1
  O  O175  1  0.87439248  0.11434046  0.49849023  1
  O  O176  1  0.89756937  0.12197083  0.76070740  1
  O  O177  1  0.92425547  0.36959130  0.00348399  1
  O  O178  1  0.87214531  0.39574300  0.24067418  1
  O  O179  1  0.88933793  0.36404008  0.48806187  1
  O  O180  1  0.86999108  0.35562763  0.75767026  1
  O  O181  1  0.85180372  0.63110270  0.00071515  1
  O  O182  1  0.90167196  0.61051891  0.23997766  1
  O  O183  1  0.85209268  0.61758215  0.50607908  1
  O  O184  1  0.90105331  0.61657599  0.75753750  1
  O  O185  1  0.85237951  0.86612859  0.00123758  1
  O  O186  1  0.90914876  0.87479834  0.24773392  1
  O  O187  1  0.86193531  0.89440029  0.49104969  1
  O  O188  1  0.89351586  0.85490944  0.75971748  1
  O  O189  1  0.00733405  0.14651680  0.09452189  1
  O  O190  1  0.00370890  0.16829027  0.37875888  1
  O  O191  1  0.00043731  0.10319400  0.62233265  1
  O  O192  1  -0.00198511  0.12930568  0.90309090  1
  O  O193  1  0.01246151  0.35642443  0.14934232  1
  O  O194  1  0.00591073  0.34471801  0.36470243  1
  O  O195  1  0.00488532  0.37438240  0.64732624  1
  O  O196  1  0.00661398  0.35718639  0.85111225  1
  O  O197  1  -0.00544546  0.61651531  0.08804828  1
  O  O198  1  -0.00377844  0.63621255  0.40675285  1
  O  O199  1  0.00274074  0.62297368  0.62094467  1
  O  O200  1  0.00138134  0.63608552  0.89553071  1
  O  O201  1  -0.00231791  0.87775514  0.09911548  1
  O  O202  1  -0.00270994  0.86560393  0.40395062  1
  O  O203  1  0.00286081  0.85906378  0.61838279  1
  O  O204  1  -0.00038275  0.84680170  0.89686722  1
  O  O205  1  0.26019466  0.12225640  0.14233137  1
  O  O206  1  0.24362964  0.12013826  0.38676548  1
  O  O207  1  0.23848272  0.13216915  0.64907312  1
  O  O208  1  0.24838668  0.09392297  0.86329582  1
  O  O209  1  0.26075826  0.39336515  0.11013630  1
  O  O210  1  0.24929279  0.40447707  0.39598457  1
  O  O211  1  0.24345787  0.35788189  0.61129053  1
  O  O212  1  0.24281644  0.38957613  0.91024027  1
  O  O213  1  0.23699616  0.60398369  0.14048596  1
  O  O214  1  0.24051391  0.59963429  0.36107405  1
  O  O215  1  0.24576565  0.62994363  0.64530273  1
  O  O216  1  0.24383888  0.58451015  0.86829410  1
  O  O217  1  0.23952168  0.84155355  0.15143331  1
  O  O218  1  0.24324437  0.88980430  0.37881703  1
  O  O219  1  0.24292006  0.86468740  0.65973528  1
  O  O220  1  0.24400256  0.88694012  0.85776653  1
  O  O221  1  0.50486770  0.13663086  0.12880207  1
  O  O222  1  0.50318213  0.12263189  0.40681512  1
  O  O223  1  0.49135500  0.11800775  0.61718788  1
  O  O224  1  0.50064899  0.11777333  0.88439542  1
  O  O225  1  0.51749022  0.36402500  0.16283742  1
  O  O226  1  0.49096985  0.38851347  0.36130825  1
  O  O227  1  0.48596471  0.38535610  0.66899270  1
  O  O228  1  0.48965913  0.33707596  0.85808752  1
  O  O229  1  0.50732269  0.62999849  0.11208262  1
  O  O230  1  0.49502111  0.66523838  0.37042933  1
  O  O231  1  0.50154677  0.64442078  0.62081910  1
  O  O232  1  0.50369069  0.64853924  0.89346612  1
  O  O233  1  0.51616880  0.88781470  0.09255552  1
  O  O234  1  0.49732688  0.86333816  0.38490934  1
  O  O235  1  0.48622287  0.89624618  0.61842084  1
  O  O236  1  0.50175980  0.88349096  0.90993760  1
  O  O237  1  0.75379991  0.13978778  0.14535344  1
  O  O238  1  0.74855296  0.11492315  0.36146097  1
  O  O239  1  0.75930343  0.12672609  0.64225166  1
  O  O240  1  0.75337127  0.12946818  0.88080807  1
  O  O241  1  0.75666800  0.38327751  0.09509027  1
  O  O242  1  0.75352116  0.41347036  0.38576450  1
  O  O243  1  0.74469276  0.37065399  0.62446846  1
  O  O244  1  0.76412024  0.36686135  0.88489224  1
  O  O245  1  0.75377770  0.62062384  0.14850734  1
  O  O246  1  0.74811104  0.62886484  0.35749829  1
  O  O247  1  0.75617879  0.61308333  0.65556799  1
  O  O248  1  0.75940519  0.58658813  0.85720739  1
  O  O249  1  0.75457354  0.87822714  0.15367866  1
  O  O250  1  0.76231106  0.90152728  0.34502166  1
  O  O251  1  0.75155030  0.88023430  0.65876730  1
  O  O252  1  0.76129870  0.88054146  0.84836564  1
  O  O253  1  0.14382423  -0.01027377  0.11395474  1
  O  O254  1  0.09079017  0.01106112  0.38990012  1
  O  O255  1  0.13216421  -0.00622573  0.62258730  1
  O  O256  1  0.11097645  -0.01416985  0.90082262  1
  O  O257  1  0.15535348  0.25591032  0.14893518  1
  O  O258  1  0.15739285  0.26042073  0.36917170  1
  O  O259  1  0.10963198  0.24879867  0.64397628  1
  O  O260  1  0.15115937  0.25585643  0.86849757  1
  O  O261  1  0.10494268  0.49268644  0.09871748  1
  O  O262  1  0.08990634  0.49390815  0.38548465  1
  O  O263  1  0.11718002  0.49831829  0.61751830  1
  O  O264  1  0.10128173  0.48893332  0.91694737  1
  O  O265  1  0.10074128  0.74128535  0.13464828  1
  O  O266  1  0.11488175  0.75055748  0.37049618  1
  O  O267  1  0.12623141  0.74363213  0.64869807  1
  O  O268  1  0.13980203  0.74103660  0.86093513  1
  O  O269  1  0.37847845  0.00519371  0.12366227  1
  O  O270  1  0.38526085  -0.00161202  0.40156002  1
  O  O271  1  0.34232035  -0.00122765  0.62032362  1
  O  O272  1  0.37853422  -0.00349944  0.89738611  1
  O  O273  1  0.38180061  0.25666103  0.12692666  1
  O  O274  1  0.35703667  0.25692714  0.38887784  1
  O  O275  1  0.37161351  0.24749217  0.64831852  1
  O  O276  1  0.34235727  0.23984155  0.86691637  1
  O  O277  1  0.40507953  0.49472092  0.16398186  1
  O  O278  1  0.37769899  0.51352585  0.37663641  1
  O  O279  1  0.36037566  0.50287554  0.63172304  1
  O  O280  1  0.41825650  0.49230126  0.85644403  1
  O  O281  1  0.37119141  0.73231808  0.11343591  1
  O  O282  1  0.34096423  0.75278466  0.35220820  1
  O  O283  1  0.37009874  0.75877333  0.65192341  1
  O  O284  1  0.37506627  0.75774767  0.86805404  1
  O  O285  1  0.63512385  0.01061273  0.16286452  1
  O  O286  1  0.62173860  0.00102602  0.36065523  1
  O  O287  1  0.63538781  -0.00275685  0.65988717  1
  O  O288  1  0.63871311  0.00442001  0.86834822  1
  O  O289  1  0.63161994  0.25284275  0.09189023  1
  O  O290  1  0.64990694  0.25593690  0.39735617  1
  O  O291  1  0.60207113  0.24933470  0.58942681  1
  O  O292  1  0.62900207  0.23877207  0.90651902  1
  O  O293  1  0.61913897  0.50711618  0.15827818  1
  O  O294  1  0.60575730  0.50073109  0.33071501  1
  O  O295  1  0.63150356  0.51016386  0.64814823  1
  O  O296  1  0.61858509  0.50665769  0.85361799  1
  O  O297  1  0.64006697  0.74848507  0.09479129  1
  O  O298  1  0.63375628  0.75143913  0.40046159  1
  O  O299  1  0.64022351  0.75391851  0.61047794  1
  O  O300  1  0.65763594  0.74521852  0.88920302  1
  O  O301  1  0.88981375  0.00387498  0.13173672  1
  O  O302  1  0.90678452  0.00293206  0.36495672  1
  O  O303  1  0.87351267  0.00056475  0.64479500  1
  O  O304  1  0.89409851  -0.00669271  0.87950284  1
  O  O305  1  0.88237338  0.25453797  0.12132075  1
  O  O306  1  0.84866567  0.26169325  0.33873151  1
  O  O307  1  0.89591442  0.24292833  0.62038086  1
  O  O308  1  0.87465198  0.24740369  0.89295436  1
  O  O309  1  0.89595723  0.49517695  0.10641413  1
  O  O310  1  0.90771966  0.49539467  0.37301446  1
  O  O311  1  0.88836297  0.50076433  0.62765892  1
  O  O312  1  0.90078630  0.49293505  0.89261232  1
  O  O313  1  0.87541606  0.74984695  0.12936935  1
  O  O314  1  0.85643814  0.75367117  0.37248190  1
  O  O315  1  0.87400439  0.74317377  0.63797606  1
  O  O316  1  0.85089893  0.73723537  0.87555918  1
