# generated using pymatgen
data_Mg32Ti42(Bi17O64)3
_symmetry_space_group_name_H-M   'P 1'
_cell_length_a   15.97832419
_cell_length_b   15.97874408
_cell_length_c   15.97422681
_cell_angle_alpha   90.09857609
_cell_angle_beta   90.03548915
_cell_angle_gamma   89.87309861
_symmetry_Int_Tables_number   1
_chemical_formula_structural   Mg32Ti42(Bi17O64)3
_chemical_formula_sum   'Mg32 Ti42 Bi51 O192'
_cell_volume   4078.41979392
_cell_formula_units_Z   1
loop_
 _symmetry_equiv_pos_site_id
 _symmetry_equiv_pos_as_xyz
  1  'x, y, z'
loop_
 _atom_site_type_symbol
 _atom_site_label
 _atom_site_symmetry_multiplicity
 _atom_site_fract_x
 _atom_site_fract_y
 _atom_site_fract_z
 _atom_site_occupancy
  Mg  Mg0  1  0.36922577  0.88091443  0.36791785  1
  Mg  Mg1  1  0.36991841  0.38365058  0.87609170  1
  Mg  Mg2  1  0.88410302  0.36235492  0.36094120  1
  Mg  Mg3  1  0.36769972  0.38404274  0.62385350  1
  Mg  Mg4  1  0.38270691  0.62987402  0.88635824  1
  Mg  Mg5  1  0.62176499  0.62520511  0.13420718  1
  Mg  Mg6  1  0.11792338  0.88478712  0.37214934  1
  Mg  Mg7  1  0.37808293  0.12280280  0.62077581  1
  Mg  Mg8  1  0.12389588  0.11943041  0.62110218  1
  Mg  Mg9  1  0.87126427  0.61998258  0.88288966  1
  Mg  Mg10  1  0.11239085  0.62871301  0.87451411  1
  Mg  Mg11  1  0.87200297  0.37433503  0.88071114  1
  Mg  Mg12  1  0.10771388  0.61310064  0.11697292  1
  Mg  Mg13  1  0.10918430  0.87910110  0.12336929  1
  Mg  Mg14  1  0.62708318  0.35925514  0.14428112  1
  Mg  Mg15  1  0.12321645  0.12475484  0.88336530  1
  Mg  Mg16  1  0.62611784  0.88057945  0.87521373  1
  Mg  Mg17  1  0.38601326  0.12267024  0.88163261  1
  Mg  Mg18  1  0.88183127  0.12390733  0.38145776  1
  Mg  Mg19  1  0.80110015  0.44942360  0.49380588  1
  Mg  Mg20  1  0.72822901  -0.00820567  0.54420068  1
  Mg  Mg21  1  0.45436650  0.78974429  0.49293094  1
  Mg  Mg22  1  -0.04221045  0.23843526  0.19154978  1
  Mg  Mg23  1  0.73965920  -0.01841058  0.03628873  1
  Mg  Mg24  1  0.50933300  -0.04396609  0.29056554  1
  Mg  Mg25  1  0.30478780  0.54967320  0.75006050  1
  Mg  Mg26  1  0.00429858  -0.02439797  0.70140172  1
  Mg  Mg27  1  0.00151497  0.74445482  0.34928025  1
  Mg  Mg28  1  0.00846187  0.44326764  -0.03072794  1
  Mg  Mg29  1  -0.05236754  0.55424399  0.47759287  1
  Mg  Mg30  1  0.77966229  0.52849091  0.31983797  1
  Mg  Mg31  1  0.47121764  0.27939034  0.25416288  1
  Ti  Ti32  1  0.62285493  0.62042914  0.62824426  1
  Ti  Ti33  1  0.87377917  0.11363460  0.86287277  1
  Ti  Ti34  1  0.12030397  0.35925248  0.37455913  1
  Ti  Ti35  1  0.61892113  0.87413815  0.13237630  1
  Ti  Ti36  1  0.61862566  0.12356150  0.87147059  1
  Ti  Ti37  1  0.37121609  0.38066574  0.37409559  1
  Ti  Ti38  1  0.10724661  0.87138543  0.88207193  1
  Ti  Ti39  1  0.37144090  0.61806259  0.12541569  1
  Ti  Ti40  1  0.38568254  0.12099216  0.36444079  1
  Ti  Ti41  1  0.39106021  0.63270266  0.61739888  1
  Ti  Ti42  1  0.36098026  0.87251711  0.62459400  1
  Ti  Ti43  1  0.13417775  0.37356582  0.86707058  1
  Ti  Ti44  1  0.86908424  0.60797788  0.62341489  1
  Ti  Ti45  1  0.12833981  0.13331496  0.12886498  1
  Ti  Ti46  1  0.37540640  0.88442805  0.13348494  1
  Ti  Ti47  1  0.11779277  0.13010263  0.36929642  1
  Ti  Ti48  1  0.62049346  0.63930538  0.38027741  1
  Ti  Ti49  1  0.13216178  0.37502675  0.63323271  1
  Ti  Ti50  1  0.37675784  0.12292134  0.13652824  1
  Ti  Ti51  1  0.63180473  0.87373157  0.39295961  1
  Ti  Ti52  1  0.61521025  0.12323523  0.13884657  1
  Ti  Ti53  1  0.12681494  0.61472527  0.63838000  1
  Ti  Ti54  1  0.86844229  0.60292171  0.11990911  1
  Ti  Ti55  1  0.62011807  0.86453217  0.62612563  1
  Ti  Ti56  1  0.88330341  0.36748171  0.62835850  1
  Ti  Ti57  1  0.37763262  0.87792501  0.89112381  1
  Ti  Ti58  1  0.62527972  0.12898794  0.61850716  1
  Ti  Ti59  1  0.12760180  0.87178943  0.61203922  1
  Ti  Ti60  1  0.87700391  0.11871521  0.62314763  1
  Ti  Ti61  1  0.62275183  0.62350282  0.87568260  1
  Ti  Ti62  1  0.86551707  0.37150276  0.11857274  1
  Ti  Ti63  1  0.62828271  0.37701443  0.36928198  1
  Ti  Ti64  1  0.37006297  0.37841717  0.12336052  1
  Ti  Ti65  1  0.62507426  0.12651333  0.38828387  1
  Ti  Ti66  1  0.86597720  0.87823708  0.13302956  1
  Ti  Ti67  1  0.37640799  0.61619699  0.38094326  1
  Ti  Ti68  1  0.62972584  0.36042025  0.87082762  1
  Ti  Ti69  1  0.11298849  0.36962579  0.12224674  1
  Ti  Ti70  1  0.86987043  0.88327511  0.37733438  1
  Ti  Ti71  1  0.86892749  0.88035971  0.63134562  1
  Ti  Ti72  1  0.86255228  0.88314782  0.86270083  1
  Ti  Ti73  1  0.63650762  0.36738373  0.62474308  1
  Bi  Bi74  1  0.49411171  0.75506648  0.77565008  1
  Bi  Bi75  1  0.47431176  0.24477526  0.50345375  1
  Bi  Bi76  1  -0.04103083  -0.00935802  0.00070638  1
  Bi  Bi77  1  0.49312791  0.74500327  0.02374868  1
  Bi  Bi78  1  0.77364452  0.25054915  0.75739490  1
  Bi  Bi79  1  0.72267660  0.01451395  0.74687092  1
  Bi  Bi80  1  0.25500142  0.74922576  0.78025264  1
  Bi  Bi81  1  0.72441596  0.47897751  0.01909650  1
  Bi  Bi82  1  0.26032606  0.23540991  -0.02366381  1
  Bi  Bi83  1  0.74762202  0.49043784  0.77423017  1
  Bi  Bi84  1  -0.03507251  0.02367786  0.23030293  1
  Bi  Bi85  1  0.47232598  0.00345666  0.74792694  1
  Bi  Bi86  1  -0.00845339  0.54478963  0.28971987  1
  Bi  Bi87  1  0.24554316  0.26480644  0.24011783  1
  Bi  Bi88  1  0.22454090  -0.00218891  -0.00223938  1
  Bi  Bi89  1  0.23706608  0.00162811  0.46680386  1
  Bi  Bi90  1  -0.00291098  0.25224010  0.49178416  1
  Bi  Bi91  1  0.23324206  0.52370327  -0.03531623  1
  Bi  Bi92  1  0.73567797  0.74423911  0.77186073  1
  Bi  Bi93  1  0.47665207  0.74562544  0.25910317  1
  Bi  Bi94  1  -0.00453274  0.48327942  0.77078023  1
  Bi  Bi95  1  0.72433467  0.00250712  0.26563792  1
  Bi  Bi96  1  0.74734712  0.71736080  0.50853677  1
  Bi  Bi97  1  -0.02784423  0.23261247  -0.00405914  1
  Bi  Bi98  1  0.20583410  0.49335649  0.49254449  1
  Bi  Bi99  1  0.50675340  0.47213642  0.51120657  1
  Bi  Bi100  1  0.20861814  0.50746963  0.25264438  1
  Bi  Bi101  1  0.46087711  0.25757198  0.75257408  1
  Bi  Bi102  1  -0.00995475  0.74520464  0.03007286  1
  Bi  Bi103  1  0.24697801  0.23519142  0.52549276  1
  Bi  Bi104  1  0.23171036  0.74337862  0.03555893  1
  Bi  Bi105  1  0.49144831  0.25095341  0.02916524  1
  Bi  Bi106  1  0.52018783  0.51350446  0.26951594  1
  Bi  Bi107  1  0.48104283  -0.01636715  0.50300962  1
  Bi  Bi108  1  0.23188834  0.72302132  0.47046509  1
  Bi  Bi109  1  0.02519270  0.22368417  0.74869620  1
  Bi  Bi110  1  0.48763085  0.47612752  0.75450294  1
  Bi  Bi111  1  -0.00539860  0.74062247  0.53591576  1
  Bi  Bi112  1  0.75784562  0.26262805  0.48744838  1
  Bi  Bi113  1  -0.01742856  -0.01739406  0.48899170  1
  Bi  Bi114  1  0.77607375  0.22332972  0.26079135  1
  Bi  Bi115  1  -0.01601772  0.72607788  0.77342718  1
  Bi  Bi116  1  0.74137952  0.72401812  0.01874727  1
  Bi  Bi117  1  0.50859316  0.48265424  0.03103642  1
  Bi  Bi118  1  0.25365425  0.20897183  0.75967285  1
  Bi  Bi119  1  0.52672593  -0.00254033  0.01127519  1
  Bi  Bi120  1  0.20999185  -0.01523347  0.75574241  1
  Bi  Bi121  1  0.22132180  -0.01546960  0.23833388  1
  Bi  Bi122  1  0.78589921  0.72545093  0.26199339  1
  Bi  Bi123  1  0.19608453  0.73104095  0.25558044  1
  Bi  Bi124  1  0.75828263  0.19168848  0.01219745  1
  O  O125  1  0.16009152  0.13759779  0.00921891  1
  O  O126  1  0.11889299  0.09969906  0.25003805  1
  O  O127  1  0.14568554  0.14239835  0.49316337  1
  O  O128  1  0.13398485  0.13172680  0.75459261  1
  O  O129  1  0.10474698  0.36498656  0.00619282  1
  O  O130  1  0.15307643  0.37765918  0.25382711  1
  O  O131  1  0.12312570  0.36911156  0.49508285  1
  O  O132  1  0.13305006  0.39307990  0.75097815  1
  O  O133  1  0.15054951  0.63597581  -0.00138047  1
  O  O134  1  0.11240902  0.61777935  0.24580983  1
  O  O135  1  0.15190811  0.62458997  0.51046165  1
  O  O136  1  0.08012756  0.61854530  0.74822052  1
  O  O137  1  0.15557579  0.87140233  -0.00401192  1
  O  O138  1  0.11316990  0.90270901  0.24667444  1
  O  O139  1  0.15895332  0.87500343  0.50501901  1
  O  O140  1  0.09888511  0.90189170  0.76082534  1
  O  O141  1  0.36578326  0.15087882  0.01018855  1
  O  O142  1  0.40816612  0.14016947  0.25174501  1
  O  O143  1  0.36788946  0.15230557  0.49003588  1
  O  O144  1  0.38864748  0.12251096  0.74843060  1
  O  O145  1  0.39034758  0.36864921  0.00370499  1
  O  O146  1  0.38540032  0.37738081  0.25097084  1
  O  O147  1  0.40039033  0.38120501  0.49789414  1
  O  O148  1  0.38728210  0.37736483  0.74726531  1
  O  O149  1  0.34853681  0.63226965  0.00860778  1
  O  O150  1  0.40406552  0.62504935  0.25253766  1
  O  O151  1  0.34668098  0.62407940  0.49771202  1
  O  O152  1  0.38493939  0.65563642  0.73437523  1
  O  O153  1  0.35564543  0.87632356  0.00216294  1
  O  O154  1  0.41300814  0.88201315  0.24759392  1
  O  O155  1  0.36954204  0.89519124  0.49754600  1
  O  O156  1  0.40611519  0.87181383  0.73505325  1
  O  O157  1  0.62522251  0.09671203  -0.01481432  1
  O  O158  1  0.62298695  0.12847099  0.25092562  1
  O  O159  1  0.65106803  0.09448313  0.49815419  1
  O  O160  1  0.64688931  0.13745399  0.73941031  1
  O  O161  1  0.61734809  0.39485891  -0.01433329  1
  O  O162  1  0.59410909  0.33561058  0.26514694  1
  O  O163  1  0.60492620  0.37848814  0.49582924  1
  O  O164  1  0.65870127  0.36876699  0.74393754  1
  O  O165  1  0.65031281  0.61639408  -0.00840025  1
  O  O166  1  0.59414432  0.63730690  0.25829710  1
  O  O167  1  0.64916748  0.61772423  0.49489887  1
  O  O168  1  0.61223214  0.65371984  0.74239675  1
  O  O169  1  0.63863447  0.91482065  -0.00244014  1
  O  O170  1  0.59847799  0.86726808  0.24494164  1
  O  O171  1  0.65949825  0.89682940  0.49866056  1
  O  O172  1  0.60734839  0.84950496  0.73982223  1
  O  O173  1  0.88467871  0.12345268  -0.01228634  1
  O  O174  1  0.89384042  0.14443655  0.24833449  1
  O  O175  1  0.90002700  0.13907698  0.50908559  1
  O  O176  1  0.85304057  0.12771090  0.74818344  1
  O  O177  1  0.90417453  0.38559713  0.00521376  1
  O  O178  1  0.86743020  0.33064109  0.23752370  1
  O  O179  1  0.88828925  0.34570661  0.50288093  1
  O  O180  1  0.84799022  0.37979862  0.74276453  1
  O  O181  1  0.83930844  0.62088022  0.00476412  1
  O  O182  1  0.86999595  0.61461444  0.24896076  1
  O  O183  1  0.86074290  0.63884522  0.50669184  1
  O  O184  1  0.89869357  0.62216676  0.73841323  1
  O  O185  1  0.84536782  0.91170584  -0.01485716  1
  O  O186  1  0.88677498  0.89016506  0.24418621  1
  O  O187  1  0.85622251  0.90846135  0.49399891  1
  O  O188  1  0.90667629  0.88826172  0.74217278  1
  O  O189  1  0.01488327  0.14865735  0.11266884  1
  O  O190  1  0.00913588  0.15438687  0.38456614  1
  O  O191  1  -0.00147108  0.12384087  0.65913406  1
  O  O192  1  -0.00122549  0.14917324  0.86942364  1
  O  O193  1  0.00321729  0.35057243  0.14370331  1
  O  O194  1  0.00816261  0.33833771  0.37298642  1
  O  O195  1  -0.00534046  0.37557266  0.64668095  1
  O  O196  1  0.00517822  0.37046390  0.86069765  1
  O  O197  1  -0.01703536  0.62442301  0.10588750  1
  O  O198  1  -0.00237186  0.62759197  0.39005095  1
  O  O199  1  -0.00608756  0.61571020  0.59138774  1
  O  O200  1  -0.00886721  0.66110651  0.89173551  1
  O  O201  1  -0.01387137  0.87806875  0.09333364  1
  O  O202  1  -0.00552295  0.86665696  0.40250044  1
  O  O203  1  0.00614244  0.87999944  0.59594073  1
  O  O204  1  -0.00224336  0.86444335  0.90720111  1
  O  O205  1  0.26200404  0.13909033  0.15402196  1
  O  O206  1  0.26792618  0.09925390  0.36260016  1
  O  O207  1  0.25181302  0.13913881  0.62555371  1
  O  O208  1  0.25710267  0.12839137  0.87477114  1
  O  O209  1  0.25816742  0.35489920  0.12137712  1
  O  O210  1  0.26133723  0.36265207  0.38968121  1
  O  O211  1  0.24413229  0.37416205  0.61209297  1
  O  O212  1  0.24450882  0.40022334  0.89074912  1
  O  O213  1  0.25417826  0.64085485  0.14764127  1
  O  O214  1  0.25982064  0.64991460  0.35293759  1
  O  O215  1  0.23606150  0.61886557  0.66507735  1
  O  O216  1  0.24709420  0.60642995  0.85245674  1
  O  O217  1  0.26118064  0.86607199  0.15023008  1
  O  O218  1  0.24900767  0.91082568  0.36096484  1
  O  O219  1  0.24806261  0.87542993  0.65578216  1
  O  O220  1  0.26002486  0.88265982  0.84223171  1
  O  O221  1  0.49936276  0.12134732  0.09900014  1
  O  O222  1  0.51189516  0.13454413  0.40476073  1
  O  O223  1  0.51235690  0.13002681  0.60593013  1
  O  O224  1  0.50914178  0.15073461  0.87295566  1
  O  O225  1  0.50420469  0.37677537  0.11707498  1
  O  O226  1  0.50730905  0.42009879  0.37751010  1
  O  O227  1  0.51579366  0.38348218  0.63303762  1
  O  O228  1  0.51458427  0.36789391  0.84918579  1
  O  O229  1  0.49620849  0.62213861  0.09853250  1
  O  O230  1  0.50300211  0.59706498  0.38931008  1
  O  O231  1  0.50383636  0.63379646  0.60063024  1
  O  O232  1  0.50872421  0.65411593  0.88618559  1
  O  O233  1  0.49894055  0.87388249  0.09300523  1
  O  O234  1  0.51174356  0.87886771  0.40394086  1
  O  O235  1  0.51013936  0.86626819  0.58369861  1
  O  O236  1  0.49606973  0.84986805  0.88593041  1
  O  O237  1  0.73265183  0.09607986  0.10833822  1
  O  O238  1  0.75388434  0.10217334  0.35250346  1
  O  O239  1  0.76153280  0.09299779  0.61390297  1
  O  O240  1  0.75607231  0.10361073  0.88385726  1
  O  O241  1  0.74898084  0.37108563  0.10686085  1
  O  O242  1  0.74747948  0.37809383  0.40354958  1
  O  O243  1  0.74970835  0.38229450  0.58917540  1
  O  O244  1  0.74728104  0.40770126  0.88543170  1
  O  O245  1  0.74765087  0.64446886  0.14012981  1
  O  O246  1  0.73933386  0.63910144  0.35600286  1
  O  O247  1  0.75281574  0.63449857  0.63188879  1
  O  O248  1  0.74862093  0.62071807  0.84239603  1
  O  O249  1  0.74275798  0.88832785  0.12890698  1
  O  O250  1  0.74958700  0.88848602  0.34944183  1
  O  O251  1  0.75592123  0.89472737  0.63749076  1
  O  O252  1  0.75296881  0.89228989  0.83618039  1
  O  O253  1  0.14107043  0.00669251  0.10769604  1
  O  O254  1  0.11444459  0.01011430  0.40267400  1
  O  O255  1  0.12018911  -0.00673065  0.63137215  1
  O  O256  1  0.13419381  -0.00214551  0.89122064  1
  O  O257  1  0.13886499  0.24888635  0.15310956  1
  O  O258  1  0.15409361  0.24307011  0.35311285  1
  O  O259  1  0.11786663  0.25681004  0.62988489  1
  O  O260  1  0.14839435  0.25769997  0.86557669  1
  O  O261  1  0.13245497  0.48898547  0.13307014  1
  O  O262  1  0.12837094  0.48643641  0.37131384  1
  O  O263  1  0.12210746  0.49788086  0.60814500  1
  O  O264  1  0.10153093  0.50004209  0.90004885  1
  O  O265  1  0.11353553  0.75037154  0.11488274  1
  O  O266  1  0.12594318  0.75855253  0.37191581  1
  O  O267  1  0.10667616  0.74965945  0.62726537  1
  O  O268  1  0.13742042  0.75837693  0.85787639  1
  O  O269  1  0.36982909  0.00359115  0.12762267  1
  O  O270  1  0.41416883  0.00787665  0.36807985  1
  O  O271  1  0.39184673  -0.00513592  0.62318528  1
  O  O272  1  0.40181503  -0.00562256  0.87132725  1
  O  O273  1  0.40557954  0.25465762  0.13942938  1
  O  O274  1  0.41170901  0.26419009  0.36860769  1
  O  O275  1  0.38644635  0.25399542  0.62353700  1
  O  O276  1  0.36411629  0.25452204  0.85914171  1
  O  O277  1  0.37679708  0.50023635  0.12236807  1
  O  O278  1  0.35268859  0.50466982  0.37084904  1
  O  O279  1  0.37819862  0.51618673  0.64396473  1
  O  O280  1  0.38776583  0.51061529  0.84616801  1
  O  O281  1  0.39654169  0.75122728  0.13290591  1
  O  O282  1  0.40056538  0.74881139  0.38273545  1
  O  O283  1  0.37459193  0.75917072  0.59287176  1
  O  O284  1  0.36003015  0.75523145  0.86954261  1
  O  O285  1  0.59804586  -0.00291880  0.13544478  1
  O  O286  1  0.61557580  -0.00457622  0.35141831  1
  O  O287  1  0.62464174  -0.00318291  0.63938419  1
  O  O288  1  0.60937553  0.00677499  0.83599408  1
  O  O289  1  0.62120206  0.23697350  0.10197965  1
  O  O290  1  0.65137078  0.24140629  0.39331781  1
  O  O291  1  0.64039476  0.24845996  0.60955916  1
  O  O292  1  0.65242944  0.24922211  0.88050984  1
  O  O293  1  0.62099411  0.49698382  0.11901917  1
  O  O294  1  0.65243153  0.49072181  0.33333515  1
  O  O295  1  0.62722925  0.50797901  0.63632616  1
  O  O296  1  0.61920427  0.51015329  0.84701939  1
  O  O297  1  0.61632812  0.75573010  0.09833815  1
  O  O298  1  0.62133756  0.75419312  0.39119657  1
  O  O299  1  0.64366258  0.75337747  0.60303677  1
  O  O300  1  0.65660262  0.75165713  0.88323609  1
  O  O301  1  0.88036795  0.00108064  0.11990748  1
  O  O302  1  0.90693160  0.00294681  0.36145482  1
  O  O303  1  0.90347093  0.00102696  0.62372801  1
  O  O304  1  0.90504175  0.00190404  0.86055734  1
  O  O305  1  0.87005902  0.24870575  0.09400493  1
  O  O306  1  0.84268735  0.24278721  0.37699382  1
  O  O307  1  0.86405039  0.24863170  0.64048353  1
  O  O308  1  0.85537178  0.24821173  0.87334193  1
  O  O309  1  0.86589046  0.49177784  0.13463741  1
  O  O310  1  0.87668229  0.48887216  0.39031754  1
  O  O311  1  0.87287048  0.49544639  0.58916758  1
  O  O312  1  0.89438696  0.49934562  0.86187291  1
  O  O313  1  0.86890274  0.76039592  0.11021804  1
  O  O314  1  0.87678195  0.76654605  0.36081180  1
  O  O315  1  0.88373112  0.76186703  0.61919309  1
  O  O316  1  0.85872829  0.76256422  0.85436281  1
