# generated using pymatgen
data_Mg32Ti42(Bi17O64)3
_symmetry_space_group_name_H-M   'P 1'
_cell_length_a   15.96464229
_cell_length_b   16.02795917
_cell_length_c   15.97000329
_cell_angle_alpha   90.05160088
_cell_angle_beta   89.99731062
_cell_angle_gamma   89.97005084
_symmetry_Int_Tables_number   1
_chemical_formula_structural   Mg32Ti42(Bi17O64)3
_chemical_formula_sum   'Mg32 Ti42 Bi51 O192'
_cell_volume   4086.41236151
_cell_formula_units_Z   1
loop_
 _symmetry_equiv_pos_site_id
 _symmetry_equiv_pos_as_xyz
  1  'x, y, z'
loop_
 _atom_site_type_symbol
 _atom_site_label
 _atom_site_symmetry_multiplicity
 _atom_site_fract_x
 _atom_site_fract_y
 _atom_site_fract_z
 _atom_site_occupancy
  Mg  Mg0  1  0.37281147  0.12462061  0.13377616  1
  Mg  Mg1  1  0.62899927  0.62143929  0.61659433  1
  Mg  Mg2  1  0.38103887  0.37780140  0.13082282  1
  Mg  Mg3  1  0.88102608  0.36338878  0.37722514  1
  Mg  Mg4  1  0.87093047  0.86036939  0.37237647  1
  Mg  Mg5  1  0.62528462  0.36271023  0.87974202  1
  Mg  Mg6  1  0.62274239  0.37111664  0.62507492  1
  Mg  Mg7  1  0.87422637  0.38378061  0.88120166  1
  Mg  Mg8  1  0.12577294  0.87119368  0.88287131  1
  Mg  Mg9  1  0.36586674  0.62447207  0.62689961  1
  Mg  Mg10  1  0.36956699  0.37110662  0.62593338  1
  Mg  Mg11  1  0.63180157  0.36050115  0.13731417  1
  Mg  Mg12  1  0.87151396  0.38295466  0.12212875  1
  Mg  Mg13  1  0.13784604  0.39453791  0.86552648  1
  Mg  Mg14  1  0.12847675  0.87505164  0.38189456  1
  Mg  Mg15  1  0.38121077  0.13021727  0.87015095  1
  Mg  Mg16  1  0.37604891  0.62699379  0.12655865  1
  Mg  Mg17  1  0.61899221  0.86865002  0.36606473  1
  Mg  Mg18  1  0.13199727  0.12623468  0.87077620  1
  Mg  Mg19  1  0.23197195  -0.01870193  0.78871915  1
  Mg  Mg20  1  0.00384313  0.06618420  0.49200645  1
  Mg  Mg21  1  0.27280517  0.80610229  0.24627487  1
  Mg  Mg22  1  0.50806995  0.44977728  0.27310825  1
  Mg  Mg23  1  0.31923187  0.48568100  0.75248843  1
  Mg  Mg24  1  0.04927574  0.01806396  -0.01231707  1
  Mg  Mg25  1  0.74491776  0.68614515  0.29043866  1
  Mg  Mg26  1  -0.04924759  0.45757797  0.50817318  1
  Mg  Mg27  1  0.22246375  0.25471844  0.57156099  1
  Mg  Mg28  1  0.04383912  -0.00477984  0.79411302  1
  Mg  Mg29  1  0.54068618  0.44022804  0.02379232  1
  Mg  Mg30  1  0.25366600  0.05382478  0.51729127  1
  Mg  Mg31  1  0.49823482  0.27147185  0.23242238  1
  Ti  Ti32  1  0.12768484  0.89381425  0.62378268  1
  Ti  Ti33  1  0.11947623  0.11078097  0.63624499  1
  Ti  Ti34  1  0.62659204  0.87531640  0.62965362  1
  Ti  Ti35  1  0.85969562  0.88194768  0.62151271  1
  Ti  Ti36  1  0.12312721  0.13416188  0.37923182  1
  Ti  Ti37  1  0.62613934  0.11945691  0.14754485  1
  Ti  Ti38  1  0.36380736  0.61917769  0.87605356  1
  Ti  Ti39  1  0.12503966  0.37921764  0.38395509  1
  Ti  Ti40  1  0.13037080  0.63235397  0.86596470  1
  Ti  Ti41  1  0.38432113  0.37847057  0.88307252  1
  Ti  Ti42  1  0.13076530  0.12037408  0.12012414  1
  Ti  Ti43  1  0.88928891  0.11817497  0.88226636  1
  Ti  Ti44  1  0.38270352  0.88011102  0.11359263  1
  Ti  Ti45  1  0.61818323  0.88108700  0.87746117  1
  Ti  Ti46  1  0.62098825  0.63041511  0.12950872  1
  Ti  Ti47  1  0.37416399  0.12786755  0.37796739  1
  Ti  Ti48  1  0.13465563  0.88542368  0.11725988  1
  Ti  Ti49  1  0.88656286  0.62722927  0.87557429  1
  Ti  Ti50  1  0.86593930  0.11862262  0.38192181  1
  Ti  Ti51  1  0.12568277  0.63499941  0.36976457  1
  Ti  Ti52  1  0.87224490  0.62736956  0.13771608  1
  Ti  Ti53  1  0.87495648  0.88559580  0.88301512  1
  Ti  Ti54  1  0.37156525  0.62885190  0.37534275  1
  Ti  Ti55  1  0.62295107  0.87922357  0.12986363  1
  Ti  Ti56  1  0.61495037  0.12149817  0.37851101  1
  Ti  Ti57  1  0.87657799  0.86911933  0.13032488  1
  Ti  Ti58  1  0.88555174  0.10772404  0.63576505  1
  Ti  Ti59  1  0.36441529  0.35206071  0.37123582  1
  Ti  Ti60  1  0.36541789  0.88669135  0.63898301  1
  Ti  Ti61  1  0.37283475  0.12721832  0.62891361  1
  Ti  Ti62  1  0.37832621  0.87262369  0.87820837  1
  Ti  Ti63  1  0.62485448  0.13412415  0.87981858  1
  Ti  Ti64  1  0.62325556  0.34412883  0.36970131  1
  Ti  Ti65  1  0.12322594  0.63580698  0.12925281  1
  Ti  Ti66  1  0.86512599  0.63286095  0.60902037  1
  Ti  Ti67  1  0.63002001  0.12608010  0.61927580  1
  Ti  Ti68  1  0.36882583  0.87221497  0.38778207  1
  Ti  Ti69  1  0.12163052  0.63457015  0.63179477  1
  Ti  Ti70  1  0.13741189  0.40262001  0.63375596  1
  Ti  Ti71  1  0.60608767  0.61302875  0.37781056  1
  Ti  Ti72  1  0.89397950  0.62535052  0.38140444  1
  Ti  Ti73  1  0.89236568  0.11274428  0.12071331  1
  Bi  Bi74  1  0.27152736  0.74087449  0.73978355  1
  Bi  Bi75  1  0.25421443  0.01245007  -0.02897505  1
  Bi  Bi76  1  0.01458635  0.52305560  -0.02146027  1
  Bi  Bi77  1  0.48800425  0.49824064  0.54305414  1
  Bi  Bi78  1  0.25479389  0.26038196  0.77386140  1
  Bi  Bi79  1  0.74554297  0.52976222  0.77532988  1
  Bi  Bi80  1  0.01378257  0.75970674  0.00064938  1
  Bi  Bi81  1  0.72882235  0.75384283  0.47573681  1
  Bi  Bi82  1  0.74991798  0.01605354  0.02494412  1
  Bi  Bi83  1  -0.00436787  0.77768846  0.52528609  1
  Bi  Bi84  1  0.24530920  0.27027392  0.02068096  1
  Bi  Bi85  1  0.48873251  -0.00221325  0.52052562  1
  Bi  Bi86  1  0.71893307  0.53966903  -0.01103690  1
  Bi  Bi87  1  0.75453934  0.75547526  0.77708639  1
  Bi  Bi88  1  0.79219622  0.24221969  0.23699844  1
  Bi  Bi89  1  0.50008843  0.23457862  0.04345430  1
  Bi  Bi90  1  0.01657140  0.29468578  0.00500920  1
  Bi  Bi91  1  0.49308057  0.73459969  0.52609138  1
  Bi  Bi92  1  0.76052417  -0.02015366  0.26710179  1
  Bi  Bi93  1  0.50218534  0.01425813  0.75346918  1
  Bi  Bi94  1  0.72140477  -0.01253473  0.48418908  1
  Bi  Bi95  1  -0.04020044  0.50162796  0.71292341  1
  Bi  Bi96  1  -0.00223491  -0.00013477  0.28059050  1
  Bi  Bi97  1  0.23861737  0.52926996  0.48825546  1
  Bi  Bi98  1  0.50750679  0.71431196  -0.01480989  1
  Bi  Bi99  1  0.23636007  0.75986022  0.51180200  1
  Bi  Bi100  1  0.02453602  0.27726595  0.52743944  1
  Bi  Bi101  1  0.03054366  0.77499054  0.25066523  1
  Bi  Bi102  1  0.49668566  0.26445270  0.51850370  1
  Bi  Bi103  1  0.24139386  0.49563642  0.02745608  1
  Bi  Bi104  1  0.00852472  0.28445820  0.77232129  1
  Bi  Bi105  1  0.28634346  0.50266541  0.25635418  1
  Bi  Bi106  1  0.50355192  0.27161397  0.74857116  1
  Bi  Bi107  1  0.73790966  0.76088745  0.02194675  1
  Bi  Bi108  1  0.23301569  0.00876767  0.27589103  1
  Bi  Bi109  1  0.53778351  0.49971464  0.77479010  1
  Bi  Bi110  1  -0.01301071  0.78897182  0.74899387  1
  Bi  Bi111  1  0.47888805  0.75251046  0.26095158  1
  Bi  Bi112  1  0.47136676  -0.00604144  0.26649061  1
  Bi  Bi113  1  0.76149609  0.48398751  0.48173352  1
  Bi  Bi114  1  0.01470006  0.49440057  0.20450994  1
  Bi  Bi115  1  0.00315226  0.27756251  0.22909359  1
  Bi  Bi116  1  0.48423802  0.02492047  -0.00016479  1
  Bi  Bi117  1  0.21859540  0.25602568  0.23238244  1
  Bi  Bi118  1  0.75577266  0.26983391  -0.01007995  1
  Bi  Bi119  1  0.74182458  0.01925994  0.77206822  1
  Bi  Bi120  1  0.74156830  0.47625442  0.25137176  1
  Bi  Bi121  1  0.79021104  0.26870878  0.74814726  1
  Bi  Bi122  1  0.78405197  0.25990695  0.53532580  1
  Bi  Bi123  1  0.26881829  0.74694689  0.01690368  1
  Bi  Bi124  1  0.52489945  0.71711949  0.75560233  1
  O  O125  1  0.13333041  0.11977014  0.00378625  1
  O  O126  1  0.14203087  0.12315473  0.25364483  1
  O  O127  1  0.11601303  0.12643183  0.49701948  1
  O  O128  1  0.12079948  0.08486720  0.74544849  1
  O  O129  1  0.14159611  0.35592343  -0.00951861  1
  O  O130  1  0.10175891  0.37596338  0.26865659  1
  O  O131  1  0.15085029  0.34242192  0.51369723  1
  O  O132  1  0.09791714  0.39624543  0.74319282  1
  O  O133  1  0.08622881  0.63650979  -0.00094840  1
  O  O134  1  0.13959880  0.61992183  0.24536912  1
  O  O135  1  0.13612623  0.63274340  0.49868384  1
  O  O136  1  0.14263817  0.63175712  0.75213605  1
  O  O137  1  0.08472342  0.89080143  0.00752298  1
  O  O138  1  0.14923522  0.85199266  0.23658226  1
  O  O139  1  0.12501170  0.85491906  0.50477419  1
  O  O140  1  0.13307959  0.90591579  0.74369145  1
  O  O141  1  0.40206440  0.14120734  -0.00109915  1
  O  O142  1  0.36593575  0.08584019  0.25599509  1
  O  O143  1  0.37449916  0.12971987  0.49224712  1
  O  O144  1  0.38784078  0.11011827  0.74115357  1
  O  O145  1  0.34431214  0.36763847  -0.00334793  1
  O  O146  1  0.38731854  0.40996915  0.26115471  1
  O  O147  1  0.38394555  0.35424669  0.48362256  1
  O  O148  1  0.41078017  0.39672259  0.75820171  1
  O  O149  1  0.37693923  0.65471157  -0.00333497  1
  O  O150  1  0.37523559  0.60831010  0.25335018  1
  O  O151  1  0.37714306  0.65698077  0.49400451  1
  O  O152  1  0.34374694  0.61378810  0.75535210  1
  O  O153  1  0.38885068  0.84107043  -0.00638535  1
  O  O154  1  0.36332296  0.90197164  0.23205631  1
  O  O155  1  0.37004543  0.84595310  0.49704885  1
  O  O156  1  0.34673354  0.91985825  0.74825997  1
  O  O157  1  0.62469418  0.13938973  -0.00603157  1
  O  O158  1  0.62739889  0.08987179  0.25554818  1
  O  O159  1  0.62263678  0.14162097  0.49564131  1
  O  O160  1  0.61832603  0.09685422  0.74024788  1
  O  O161  1  0.64208877  0.35145622  0.00807441  1
  O  O162  1  0.62449433  0.40690304  0.25731093  1
  O  O163  1  0.61434075  0.34995719  0.48563961  1
  O  O164  1  0.59596924  0.37459542  0.75372382  1
  O  O165  1  0.63598681  0.65132706  -0.00343484  1
  O  O166  1  0.64098077  0.61474592  0.24353860  1
  O  O167  1  0.60571817  0.64867005  0.49289596  1
  O  O168  1  0.62137052  0.61714084  0.74336911  1
  O  O169  1  0.61741573  0.85196617  -0.01128132  1
  O  O170  1  0.63588877  0.89622019  0.24071561  1
  O  O171  1  0.63112456  0.85988126  0.49942888  1
  O  O172  1  0.63320340  0.90910020  0.74114872  1
  O  O173  1  0.86341126  0.12268298  -0.00160379  1
  O  O174  1  0.87601556  0.11849124  0.24276379  1
  O  O175  1  0.88532615  0.10939179  0.49532781  1
  O  O176  1  0.88139942  0.10684198  0.74908915  1
  O  O177  1  0.86205991  0.35424399  0.00154027  1
  O  O178  1  0.89076528  0.36024381  0.25436945  1
  O  O179  1  0.85408578  0.37144364  0.49884238  1
  O  O180  1  0.88872376  0.36447846  0.75499440  1
  O  O181  1  0.89936214  0.62625575  -0.00985234  1
  O  O182  1  0.84925103  0.62247884  0.25174666  1
  O  O183  1  0.90272759  0.64956339  0.49542529  1
  O  O184  1  0.86721220  0.60941894  0.73333926  1
  O  O185  1  0.88778315  0.86876465  -0.00631088  1
  O  O186  1  0.84583849  0.87088781  0.24075710  1
  O  O187  1  0.87701335  0.85657199  0.50388814  1
  O  O188  1  0.86829520  0.86736020  0.74276676  1
  O  O189  1  0.00411907  0.09559636  0.10564709  1
  O  O190  1  0.00183862  0.11404462  0.37315841  1
  O  O191  1  0.00190012  0.08678575  0.61673745  1
  O  O192  1  -0.00234552  0.08051563  0.88552972  1
  O  O193  1  -0.00025502  0.37219514  0.12385709  1
  O  O194  1  0.00793605  0.37649743  0.41962713  1
  O  O195  1  0.01874575  0.39805750  0.59734498  1
  O  O196  1  0.00553947  0.37298912  0.88786930  1
  O  O197  1  -0.00158007  0.63062026  0.14727020  1
  O  O198  1  0.00374079  0.62312920  0.35406378  1
  O  O199  1  0.01163836  0.60243132  0.63293673  1
  O  O200  1  -0.00087421  0.59520498  0.85308623  1
  O  O201  1  -0.00572429  0.87367004  0.15377633  1
  O  O202  1  -0.00106037  0.86796325  0.34433708  1
  O  O203  1  0.00301089  0.88288483  0.62500844  1
  O  O204  1  -0.00803661  0.89463206  0.84926354  1
  O  O205  1  0.24876536  0.15353797  0.12876680  1
  O  O206  1  0.24933900  0.09402834  0.38925830  1
  O  O207  1  0.24879618  0.14005570  0.61219202  1
  O  O208  1  0.25773272  0.10129094  0.86458479  1
  O  O209  1  0.25434644  0.34532278  0.13437712  1
  O  O210  1  0.25093782  0.37230879  0.36082833  1
  O  O211  1  0.24657892  0.34813709  0.65237147  1
  O  O212  1  0.26053214  0.38347463  0.83003816  1
  O  O213  1  0.23661149  0.62638591  0.08989419  1
  O  O214  1  0.24876460  0.62820922  0.38128441  1
  O  O215  1  0.24765073  0.66584991  0.61864148  1
  O  O216  1  0.24310531  0.65514523  0.89216930  1
  O  O217  1  0.24634170  0.87937315  0.09295655  1
  O  O218  1  0.25528200  0.88475733  0.36511463  1
  O  O219  1  0.24619488  0.84892888  0.62243717  1
  O  O220  1  0.25632760  0.88714059  0.88731077  1
  O  O221  1  0.50599046  0.11090070  0.11987100  1
  O  O222  1  0.49830968  0.13021346  0.36410846  1
  O  O223  1  0.49358200  0.09821297  0.61546576  1
  O  O224  1  0.50900665  0.09351793  0.86824029  1
  O  O225  1  0.50630987  0.38676857  0.13059813  1
  O  O226  1  0.50497844  0.33609980  0.34149719  1
  O  O227  1  0.49475097  0.37104368  0.60479620  1
  O  O228  1  0.49549759  0.40342637  0.91231205  1
  O  O229  1  0.50545049  0.64602320  0.11345047  1
  O  O230  1  0.49256497  0.66819521  0.36730268  1
  O  O231  1  0.49117505  0.62792549  0.61724297  1
  O  O232  1  0.48482460  0.62753969  0.87345679  1
  O  O233  1  0.50005306  0.87223086  0.13075967  1
  O  O234  1  0.49221261  0.85879124  0.34784841  1
  O  O235  1  0.48914314  0.89884359  0.62245302  1
  O  O236  1  0.50163786  0.89253311  0.85751279  1
  O  O237  1  0.74372618  0.12831115  0.12275521  1
  O  O238  1  0.74991152  0.09282160  0.37829736  1
  O  O239  1  0.74532456  0.13679696  0.62775453  1
  O  O240  1  0.74528797  0.13688174  0.85559260  1
  O  O241  1  0.75364215  0.36903842  0.15894882  1
  O  O242  1  0.74171061  0.39929510  0.37002867  1
  O  O243  1  0.74267788  0.33907823  0.63698617  1
  O  O244  1  0.75162860  0.33546291  0.86726458  1
  O  O245  1  0.75564079  0.62376449  0.10549587  1
  O  O246  1  0.72614479  0.58620393  0.38408210  1
  O  O247  1  0.75357612  0.64020680  0.59564119  1
  O  O248  1  0.75952580  0.63946730  0.86038898  1
  O  O249  1  0.74673436  0.88106139  0.09570414  1
  O  O250  1  0.74613313  0.89687533  0.37859432  1
  O  O251  1  0.74497743  0.85467941  0.62141537  1
  O  O252  1  0.75465396  0.84897178  0.87600674  1
  O  O253  1  0.13711389  0.00073045  0.13606498  1
  O  O254  1  0.11397569  -0.00249978  0.36120820  1
  O  O255  1  0.15707446  -0.00025263  0.59210439  1
  O  O256  1  0.13477094  -0.00374202  0.88816582  1
  O  O257  1  0.10970633  0.23975707  0.13671406  1
  O  O258  1  0.12491505  0.24716022  0.37077433  1
  O  O259  1  0.10877534  0.23061783  0.63740672  1
  O  O260  1  0.13311355  0.24996405  0.84458805  1
  O  O261  1  0.11451582  0.51192899  0.10694674  1
  O  O262  1  0.13868008  0.49562741  0.39727563  1
  O  O263  1  0.16387150  0.50953162  0.61967833  1
  O  O264  1  0.13569648  0.51524546  0.90247337  1
  O  O265  1  0.11748840  0.75496384  0.10460762  1
  O  O266  1  0.12098222  0.74648191  0.36711914  1
  O  O267  1  0.10101883  0.74893488  0.62957016  1
  O  O268  1  0.09387826  0.75011333  0.88163328  1
  O  O269  1  0.37706161  -0.00557762  0.08923854  1
  O  O270  1  0.39764013  -0.01009503  0.38471354  1
  O  O271  1  0.35322403  -0.00148652  0.58680533  1
  O  O272  1  0.37944187  -0.00461624  0.90769012  1
  O  O273  1  0.40933244  0.24871085  0.14759588  1
  O  O274  1  0.35832113  0.23866494  0.34564527  1
  O  O275  1  0.38686208  0.24268493  0.62529067  1
  O  O276  1  0.37959404  0.26069742  0.85747435  1
  O  O277  1  0.34212618  0.50149636  0.12334135  1
  O  O278  1  0.36149380  0.51340409  0.39215280  1
  O  O279  1  0.36394923  0.49769972  0.61931544  1
  O  O280  1  0.35068024  0.50709264  0.88377217  1
  O  O281  1  0.34389861  0.75869397  0.14229997  1
  O  O282  1  0.35738586  0.75876912  0.33168533  1
  O  O283  1  0.38436894  0.76730927  0.65768329  1
  O  O284  1  0.37672615  0.76097604  0.84309925  1
  O  O285  1  0.63067562  -0.00178456  0.10186542  1
  O  O286  1  0.61021899  0.00131322  0.40156679  1
  O  O287  1  0.62439842  -0.00052012  0.59308651  1
  O  O288  1  0.65514021  -0.00371086  0.88315416  1
  O  O289  1  0.60002320  0.23804654  0.15957812  1
  O  O290  1  0.65089522  0.23784559  0.34876817  1
  O  O291  1  0.58971548  0.23798371  0.63420018  1
  O  O292  1  0.59285140  0.24162224  0.85598070  1
  O  O293  1  0.62353262  0.51337839  0.08502962  1
  O  O294  1  0.55771304  0.51255442  0.37419535  1
  O  O295  1  0.60275950  0.49668564  0.62166904  1
  O  O296  1  0.64449767  0.49130093  0.87284847  1
  O  O297  1  0.64277992  0.75447429  0.12891152  1
  O  O298  1  0.65421608  0.74303346  0.35842279  1
  O  O299  1  0.59921391  0.76032303  0.63960824  1
  O  O300  1  0.62353734  0.76620864  0.83564686  1
  O  O301  1  0.85898547  -0.00324555  0.11841759  1
  O  O302  1  0.88479671  -0.00517576  0.35839415  1
  O  O303  1  0.84678947  -0.00548097  0.61940040  1
  O  O304  1  0.84296087  -0.00351588  0.87812054  1
  O  O305  1  0.89024686  0.23784449  0.13418804  1
  O  O306  1  0.85898531  0.23572777  0.36782788  1
  O  O307  1  0.88981203  0.22868296  0.61971798  1
  O  O308  1  0.90750911  0.23198387  0.86778448  1
  O  O309  1  0.89228397  0.50770762  0.12948773  1
  O  O310  1  0.87761547  0.50697428  0.40807820  1
  O  O311  1  0.87714197  0.51169928  0.59861330  1
  O  O312  1  0.85014362  0.50558065  0.86797168  1
  O  O313  1  0.86892897  0.75050972  0.11532302  1
  O  O314  1  0.83620536  0.73321951  0.36933674  1
  O  O315  1  0.90314116  0.74778300  0.63306047  1
  O  O316  1  0.89138544  0.74573828  0.85188301  1
