# generated using pymatgen
data_Mg32Ti42(Bi17O64)3
_symmetry_space_group_name_H-M   'P 1'
_cell_length_a   15.92407043
_cell_length_b   15.93589919
_cell_length_c   15.95856903
_cell_angle_alpha   90.00917924
_cell_angle_beta   89.99590314
_cell_angle_gamma   90.05395475
_symmetry_Int_Tables_number   1
_chemical_formula_structural   Mg32Ti42(Bi17O64)3
_chemical_formula_sum   'Mg32 Ti42 Bi51 O192'
_cell_volume   4049.71453493
_cell_formula_units_Z   1
loop_
 _symmetry_equiv_pos_site_id
 _symmetry_equiv_pos_as_xyz
  1  'x, y, z'
loop_
 _atom_site_type_symbol
 _atom_site_label
 _atom_site_symmetry_multiplicity
 _atom_site_fract_x
 _atom_site_fract_y
 _atom_site_fract_z
 _atom_site_occupancy
  Mg  Mg0  1  0.62659257  0.12469688  0.63745912  1
  Mg  Mg1  1  0.87960561  0.13426393  0.63688543  1
  Mg  Mg2  1  0.37876920  0.38011852  0.63503157  1
  Mg  Mg3  1  0.11584893  0.62634436  0.13107639  1
  Mg  Mg4  1  0.37248168  0.86193092  0.88140930  1
  Mg  Mg5  1  0.86871465  0.11965833  0.36941618  1
  Mg  Mg6  1  0.12423540  0.37162779  0.37609758  1
  Mg  Mg7  1  0.12170375  0.62237942  0.87455578  1
  Mg  Mg8  1  0.87110190  0.62785523  0.62097759  1
  Mg  Mg9  1  0.86830271  0.38103426  0.37219899  1
  Mg  Mg10  1  0.13578472  0.87205000  0.87622626  1
  Mg  Mg11  1  0.62228679  0.38240597  0.63269716  1
  Mg  Mg12  1  0.87680112  0.37812127  0.62127008  1
  Mg  Mg13  1  0.37713054  0.11463870  0.12217840  1
  Mg  Mg14  1  0.11349617  0.87404372  0.12605828  1
  Mg  Mg15  1  0.87588008  0.37862627  0.88724041  1
  Mg  Mg16  1  0.13677773  0.63341097  0.37784511  1
  Mg  Mg17  1  0.11732042  0.38099435  0.11791412  1
  Mg  Mg18  1  0.62150918  0.87486713  0.39027007  1
  Mg  Mg19  1  0.44486705  0.22393017  0.70620595  1
  Mg  Mg20  1  0.81670526  0.79956890  -0.01671747  1
  Mg  Mg21  1  0.48002687  0.53760100  0.76079602  1
  Mg  Mg22  1  0.50577152  0.74220552  0.51212622  1
  Mg  Mg23  1  0.23834348  0.68976745  0.53907456  1
  Mg  Mg24  1  0.55021388  0.02005423  -0.00131395  1
  Mg  Mg25  1  0.83984237  0.49707111  0.75396207  1
  Mg  Mg26  1  0.74484967  -0.01864779  0.29827005  1
  Mg  Mg27  1  -0.01683463  0.30196132  0.75631028  1
  Mg  Mg28  1  0.02689672  0.56325550  0.71790408  1
  Mg  Mg29  1  0.01054735  0.75914253  -0.05917809  1
  Mg  Mg30  1  0.77445626  -0.03916121  0.75296444  1
  Mg  Mg31  1  0.21208740  0.75783123  0.02736247  1
  Ti  Ti32  1  0.37950806  0.62980760  0.13460184  1
  Ti  Ti33  1  0.62967015  0.12168794  0.37360892  1
  Ti  Ti34  1  0.62717230  0.63424848  0.12643546  1
  Ti  Ti35  1  0.87612474  0.39094974  0.12850321  1
  Ti  Ti36  1  0.86550422  0.64055831  0.12383474  1
  Ti  Ti37  1  0.39274117  0.87501851  0.13956951  1
  Ti  Ti38  1  0.12613188  0.12930593  0.37011968  1
  Ti  Ti39  1  0.63902718  0.87844119  0.12184196  1
  Ti  Ti40  1  0.61447820  0.62159616  0.63649708  1
  Ti  Ti41  1  0.87334027  0.63338184  0.37998907  1
  Ti  Ti42  1  0.38175665  0.38093042  0.86203648  1
  Ti  Ti43  1  0.61441369  0.62485545  0.37498208  1
  Ti  Ti44  1  0.62307068  0.37825133  0.12474480  1
  Ti  Ti45  1  0.37085414  0.85820569  0.61718221  1
  Ti  Ti46  1  0.61818786  0.89035851  0.87914825  1
  Ti  Ti47  1  0.63978080  0.13665573  0.87127152  1
  Ti  Ti48  1  0.36996438  0.62270900  0.87149953  1
  Ti  Ti49  1  0.37299872  0.12338130  0.36473222  1
  Ti  Ti50  1  0.61709281  0.37131307  0.87230029  1
  Ti  Ti51  1  0.12366426  0.38394095  0.87580101  1
  Ti  Ti52  1  0.38666987  0.61843764  0.62654467  1
  Ti  Ti53  1  0.11822263  0.35877979  0.63539728  1
  Ti  Ti54  1  0.36885904  0.10185252  0.88681007  1
  Ti  Ti55  1  0.37445550  0.36043752  0.37666661  1
  Ti  Ti56  1  0.61423134  0.87472365  0.62833275  1
  Ti  Ti57  1  0.87717856  0.87336229  0.38474017  1
  Ti  Ti58  1  0.86750374  0.87123427  0.61433841  1
  Ti  Ti59  1  0.11543035  0.12708973  0.64427502  1
  Ti  Ti60  1  0.63069530  0.11688146  0.12331282  1
  Ti  Ti61  1  0.88374579  0.14195459  0.86131542  1
  Ti  Ti62  1  0.37095661  0.62545155  0.39126091  1
  Ti  Ti63  1  0.37695787  0.37549026  0.11136734  1
  Ti  Ti64  1  0.88163719  0.12420664  0.11903082  1
  Ti  Ti65  1  0.37177553  0.87653679  0.38373174  1
  Ti  Ti66  1  0.12652274  0.88607611  0.61970939  1
  Ti  Ti67  1  0.86428606  0.89809721  0.12964149  1
  Ti  Ti68  1  0.11905581  0.12043442  0.11895552  1
  Ti  Ti69  1  0.62460849  0.61238631  0.87676693  1
  Ti  Ti70  1  0.13252191  0.11530666  0.87610985  1
  Ti  Ti71  1  0.62713703  0.36623941  0.37223688  1
  Ti  Ti72  1  0.13691453  0.86845945  0.37954175  1
  Ti  Ti73  1  0.86936945  0.61910018  0.88635326  1
  Bi  Bi74  1  0.24940180  0.25934628  0.78258357  1
  Bi  Bi75  1  0.26447983  0.24153589  0.54310985  1
  Bi  Bi76  1  0.51186870  0.25708909  0.52403992  1
  Bi  Bi77  1  0.75679703  0.50678140  0.53124806  1
  Bi  Bi78  1  0.23660703  0.01730322  0.23585540  1
  Bi  Bi79  1  0.49102774  0.75865952  0.76578736  1
  Bi  Bi80  1  0.73893585  0.76243271  0.27164544  1
  Bi  Bi81  1  0.27232300  -0.04771326  0.01171474  1
  Bi  Bi82  1  0.73249796  0.50017201  0.00095016  1
  Bi  Bi83  1  0.73123793  0.76248931  0.77946718  1
  Bi  Bi84  1  0.49753374  0.24062597  0.23407470  1
  Bi  Bi85  1  0.04116826  0.72987291  0.52479217  1
  Bi  Bi86  1  0.48763879  0.75453228  0.28043444  1
  Bi  Bi87  1  0.20948025  0.74285352  0.75269411  1
  Bi  Bi88  1  0.22930866  0.75189885  0.22440935  1
  Bi  Bi89  1  0.49828542  0.76603616  0.00900376  1
  Bi  Bi90  1  -0.00346576  0.02619183  0.50042472  1
  Bi  Bi91  1  0.22617628  0.49938707  0.25219728  1
  Bi  Bi92  1  0.27108530  -0.02514957  0.73744371  1
  Bi  Bi93  1  0.75460410  0.02512380  0.53526611  1
  Bi  Bi94  1  0.00393866  0.53292996  0.00534655  1
  Bi  Bi95  1  0.22299700  0.26269436  0.22794975  1
  Bi  Bi96  1  -0.00037751  0.24828973  -0.01244571  1
  Bi  Bi97  1  0.48971336  0.50806644  -0.00026622  1
  Bi  Bi98  1  0.76218030  0.24098460  0.24628218  1
  Bi  Bi99  1  0.77918580  -0.00270447  -0.03611370  1
  Bi  Bi100  1  -0.02792681  -0.02580185  0.75750769  1
  Bi  Bi101  1  0.73846938  0.25207153  0.53175682  1
  Bi  Bi102  1  -0.01485776  0.26230239  0.27015518  1
  Bi  Bi103  1  0.50736442  0.21686074  0.00140607  1
  Bi  Bi104  1  -0.02393266  0.77129278  0.22683963  1
  Bi  Bi105  1  -0.02458098  0.27735067  0.50065332  1
  Bi  Bi106  1  0.49538600  0.48025020  0.51077906  1
  Bi  Bi107  1  -0.01116744  0.50783745  0.27427128  1
  Bi  Bi108  1  0.48446393  0.47931356  0.25591254  1
  Bi  Bi109  1  0.24301459  0.52463930  0.02472798  1
  Bi  Bi110  1  0.21600021  0.51884907  0.73557935  1
  Bi  Bi111  1  0.75189151  0.28863046  0.75256762  1
  Bi  Bi112  1  0.24034950  0.02080106  0.51751471  1
  Bi  Bi113  1  0.03172796  0.51480699  0.52076506  1
  Bi  Bi114  1  0.50521459  0.00057936  0.27563507  1
  Bi  Bi115  1  0.24798690  0.47603098  0.47715738  1
  Bi  Bi116  1  0.00314149  0.00068032  0.27356110  1
  Bi  Bi117  1  -0.04174382  0.75653594  0.75820230  1
  Bi  Bi118  1  0.76156224  0.27048713  0.00590437  1
  Bi  Bi119  1  0.73650404  0.50967543  0.27141868  1
  Bi  Bi120  1  0.46907569  0.02671960  0.52707882  1
  Bi  Bi121  1  0.25405001  0.23747481  -0.00120509  1
  Bi  Bi122  1  0.72138409  0.74457854  0.52210121  1
  Bi  Bi123  1  0.49300988  0.03319967  0.74184189  1
  Bi  Bi124  1  0.01214734  -0.03132367  -0.01642891  1
  O  O125  1  0.13985114  0.13365940  0.00374502  1
  O  O126  1  0.11070346  0.11230775  0.24785191  1
  O  O127  1  0.12791738  0.10264395  0.48771569  1
  O  O128  1  0.10596519  0.13178512  0.75682043  1
  O  O129  1  0.13136089  0.39811887  -0.01055714  1
  O  O130  1  0.14386406  0.37826073  0.24698242  1
  O  O131  1  0.12570115  0.39394906  0.50759408  1
  O  O132  1  0.11679992  0.33470719  0.75161760  1
  O  O133  1  0.12996632  0.60801114  -0.00015314  1
  O  O134  1  0.15583183  0.62736813  0.25356835  1
  O  O135  1  0.12383309  0.62136199  0.50517017  1
  O  O136  1  0.13043794  0.62742668  0.74214136  1
  O  O137  1  0.08093716  0.85141099  -0.00078174  1
  O  O138  1  0.14441853  0.85714318  0.25759394  1
  O  O139  1  0.11151488  0.89410216  0.50337226  1
  O  O140  1  0.16299881  0.87873047  0.74826171  1
  O  O141  1  0.33462755  0.11941274  0.00045696  1
  O  O142  1  0.40096111  0.13610541  0.24812482  1
  O  O143  1  0.35955088  0.10139503  0.48694195  1
  O  O144  1  0.40070606  0.13005713  0.77159302  1
  O  O145  1  0.37301560  0.39902605  -0.00247239  1
  O  O146  1  0.38794765  0.37273471  0.25440759  1
  O  O147  1  0.37513566  0.40108566  0.49620108  1
  O  O148  1  0.39583792  0.33288487  0.75552428  1
  O  O149  1  0.37904403  0.59518211  -0.01376918  1
  O  O150  1  0.37167207  0.64539857  0.24820611  1
  O  O151  1  0.40089858  0.60198375  0.50256995  1
  O  O152  1  0.39736360  0.63855242  0.74559457  1
  O  O153  1  0.40262940  0.88158880  0.01222777  1
  O  O154  1  0.36638033  0.84378983  0.25565108  1
  O  O155  1  0.39374134  0.89868964  0.50006835  1
  O  O156  1  0.34981046  0.85504688  0.74268769  1
  O  O157  1  0.63164303  0.13633779  -0.00086724  1
  O  O158  1  0.59440051  0.12696043  0.23593921  1
  O  O159  1  0.64560901  0.12243989  0.48719034  1
  O  O160  1  0.60783783  0.12013923  0.76165650  1
  O  O161  1  0.64277493  0.37579968  0.00455192  1
  O  O162  1  0.60141579  0.39451781  0.24716050  1
  O  O163  1  0.62534858  0.36170673  0.48728208  1
  O  O164  1  0.63398869  0.36964073  0.75709053  1
  O  O165  1  0.63413854  0.62159435  -0.00748699  1
  O  O166  1  0.62005216  0.61667334  0.23991799  1
  O  O167  1  0.61059748  0.65853502  0.48918861  1
  O  O168  1  0.59843103  0.59465359  0.74446610  1
  O  O169  1  0.58659749  0.88180419  -0.00539080  1
  O  O170  1  0.67141025  0.88842838  0.23122286  1
  O  O171  1  0.60736877  0.83451860  0.51108549  1
  O  O172  1  0.66455818  0.89069425  0.74935455  1
  O  O173  1  0.86331237  0.09594834  0.00191162  1
  O  O174  1  0.88305889  0.15908571  0.23941891  1
  O  O175  1  0.87017915  0.09129352  0.49586034  1
  O  O176  1  0.90385921  0.18302387  0.75737076  1
  O  O177  1  0.84211095  0.38700236  0.01185796  1
  O  O178  1  0.87280839  0.33976431  0.24012761  1
  O  O179  1  0.89826522  0.39159619  0.49415834  1
  O  O180  1  0.86938965  0.36957159  0.75469761  1
  O  O181  1  0.86181321  0.60166442  0.00375863  1
  O  O182  1  0.88315926  0.65849196  0.24287764  1
  O  O183  1  0.85585905  0.60879622  0.49031401  1
  O  O184  1  0.90905076  0.61560386  0.75594932  1
  O  O185  1  0.88299341  0.90843414  0.00404951  1
  O  O186  1  0.85813435  0.84585820  0.23976684  1
  O  O187  1  0.89608195  0.89273057  0.49953069  1
  O  O188  1  0.87131400  0.87320107  0.74427038  1
  O  O189  1  -0.00186561  0.10322934  0.11240971  1
  O  O190  1  -0.00067845  0.09957377  0.37800641  1
  O  O191  1  0.00210275  0.10911980  0.61362539  1
  O  O192  1  -0.00002417  0.13203729  0.89758988  1
  O  O193  1  -0.00990082  0.39624696  0.11969081  1
  O  O194  1  -0.00030215  0.39152211  0.34635843  1
  O  O195  1  -0.00026994  0.34692178  0.63640010  1
  O  O196  1  0.00474122  0.34665773  0.87781262  1
  O  O197  1  -0.00931182  0.60626365  0.11870990  1
  O  O198  1  -0.00466292  0.60059764  0.37815513  1
  O  O199  1  -0.00465351  0.61846889  0.60856027  1
  O  O200  1  -0.00428066  0.62901853  0.90709425  1
  O  O201  1  -0.01455400  0.89427512  0.14539402  1
  O  O202  1  -0.00666605  0.87656718  0.34431072  1
  O  O203  1  0.00905009  0.88186652  0.65041354  1
  O  O204  1  0.00198808  0.89380585  0.86194782  1
  O  O205  1  0.24545330  0.13432897  0.15273874  1
  O  O206  1  0.25020915  0.12556961  0.35135248  1
  O  O207  1  0.24361436  0.12343944  0.61704538  1
  O  O208  1  0.24646594  0.11988235  0.84759447  1
  O  O209  1  0.26032573  0.34703945  0.12452841  1
  O  O210  1  0.25661051  0.36488057  0.38890094  1
  O  O211  1  0.24936096  0.35428672  0.63206029  1
  O  O212  1  0.25102132  0.38442050  0.84900124  1
  O  O213  1  0.26568266  0.65205189  0.09469544  1
  O  O214  1  0.26439007  0.65779056  0.41606427  1
  O  O215  1  0.27025595  0.59923443  0.62281319  1
  O  O216  1  0.25597910  0.62492508  0.85595387  1
  O  O217  1  0.25558894  0.85048252  0.10692287  1
  O  O218  1  0.25456653  0.86855264  0.39434784  1
  O  O219  1  0.25830130  0.90076335  0.61015369  1
  O  O220  1  0.24945543  0.84085561  0.92870517  1
  O  O221  1  0.50153838  0.10567026  0.08825129  1
  O  O222  1  0.49891854  0.10382203  0.38335197  1
  O  O223  1  0.50000589  0.12385937  0.63043992  1
  O  O224  1  0.48638021  0.09838950  0.91282947  1
  O  O225  1  0.49686975  0.41067725  0.12147473  1
  O  O226  1  0.49697570  0.40003895  0.37826046  1
  O  O227  1  0.50273866  0.36955355  0.60070374  1
  O  O228  1  0.50067134  0.38512438  0.88873795  1
  O  O229  1  0.49996136  0.60486520  0.10859461  1
  O  O230  1  0.50028983  0.61683219  0.35734666  1
  O  O231  1  0.50529959  0.66542129  0.61591906  1
  O  O232  1  0.50677533  0.59802685  0.87681037  1
  O  O233  1  0.50664408  0.89032169  0.15629609  1
  O  O234  1  0.49995575  0.88424979  0.35220752  1
  O  O235  1  0.49983404  0.84916939  0.63880758  1
  O  O236  1  0.50598854  0.87777396  0.84121892  1
  O  O237  1  0.74376587  0.15242275  0.13437389  1
  O  O238  1  0.74321237  0.11660412  0.33873883  1
  O  O239  1  0.75084092  0.13483292  0.62058958  1
  O  O240  1  0.75295221  0.14644015  0.86596783  1
  O  O241  1  0.73822382  0.34515778  0.14037049  1
  O  O242  1  0.74202584  0.37703831  0.35054035  1
  O  O243  1  0.74805882  0.36070804  0.62153797  1
  O  O244  1  0.74566399  0.34733803  0.87738823  1
  O  O245  1  0.74647835  0.64516136  0.13001386  1
  O  O246  1  0.74796533  0.63379165  0.35554085  1
  O  O247  1  0.73865019  0.62486186  0.60677002  1
  O  O248  1  0.75219623  0.63556808  0.85430817  1
  O  O249  1  0.75051532  0.86040517  0.08311813  1
  O  O250  1  0.75309287  0.86380392  0.37736432  1
  O  O251  1  0.75290218  0.86892544  0.59855229  1
  O  O252  1  0.73627319  0.85345033  0.89479315  1
  O  O253  1  0.14642156  -0.00095379  0.12243824  1
  O  O254  1  0.12358765  -0.01024325  0.35505528  1
  O  O255  1  0.13753839  0.00530275  0.63326698  1
  O  O256  1  0.13052246  0.00130197  0.89423405  1
  O  O257  1  0.11620120  0.24582745  0.13574295  1
  O  O258  1  0.10713009  0.24231266  0.37213822  1
  O  O259  1  0.12710565  0.23951119  0.60272642  1
  O  O260  1  0.15564610  0.24915781  0.89160420  1
  O  O261  1  0.15527116  0.50381674  0.13077510  1
  O  O262  1  0.15258067  0.50311377  0.37434715  1
  O  O263  1  0.10459837  0.48279630  0.65067928  1
  O  O264  1  0.10865773  0.49480375  0.83679567  1
  O  O265  1  0.12646968  0.74853528  0.12826108  1
  O  O266  1  0.10864766  0.75633036  0.40016021  1
  O  O267  1  0.15106589  0.76215268  0.61026501  1
  O  O268  1  0.10836721  0.74909933  0.85262355  1
  O  O269  1  0.35235915  -0.01176802  0.14314193  1
  O  O270  1  0.37108205  -0.00462847  0.34805871  1
  O  O271  1  0.39601340  -0.01150109  0.64320577  1
  O  O272  1  0.34992148  -0.01230439  0.87005536  1
  O  O273  1  0.40698108  0.25863498  0.11737894  1
  O  O274  1  0.38872463  0.24631909  0.38554714  1
  O  O275  1  0.38856824  0.25206818  0.60045719  1
  O  O276  1  0.34863870  0.25331969  0.89533720  1
  O  O277  1  0.35150202  0.50569892  0.13501835  1
  O  O278  1  0.35065464  0.51204314  0.36425468  1
  O  O279  1  0.42499723  0.50728807  0.64568166  1
  O  O280  1  0.38226172  0.49594027  0.83530449  1
  O  O281  1  0.40824166  0.74837756  0.11408313  1
  O  O282  1  0.41843273  0.75392320  0.40272148  1
  O  O283  1  0.35038131  0.74687895  0.59244396  1
  O  O284  1  0.40541075  0.73837959  0.88199047  1
  O  O285  1  0.63735583  0.00160340  0.10199108  1
  O  O286  1  0.62961889  -0.00034423  0.35661140  1
  O  O287  1  0.61659405  -0.01041419  0.61527677  1
  O  O288  1  0.63138781  0.00440440  0.89127248  1
  O  O289  1  0.58868088  0.25601356  0.12231099  1
  O  O290  1  0.61504018  0.24872862  0.35641241  1
  O  O291  1  0.61903418  0.24809316  0.61234817  1
  O  O292  1  0.60427145  0.24828717  0.88230078  1
  O  O293  1  0.64750867  0.50065162  0.11352229  1
  O  O294  1  0.63946588  0.50831301  0.38195429  1
  O  O295  1  0.62241364  0.50826326  0.59743076  1
  O  O296  1  0.64476967  0.49388370  0.88521612  1
  O  O297  1  0.60567013  0.75418810  0.11686129  1
  O  O298  1  0.61816139  0.75161238  0.34709415  1
  O  O299  1  0.65099156  0.74799912  0.65013828  1
  O  O300  1  0.61289570  0.74043783  0.84727668  1
  O  O301  1  0.84350954  0.00526055  0.15552663  1
  O  O302  1  0.86531493  -0.01280995  0.34329549  1
  O  O303  1  0.84687146  -0.00296920  0.64839427  1
  O  O304  1  0.85180044  0.01864214  0.84048539  1
  O  O305  1  0.88923612  0.24074967  0.08783338  1
  O  O306  1  0.89902902  0.24966452  0.38250868  1
  O  O307  1  0.87218771  0.24830904  0.58486548  1
  O  O308  1  0.87916928  0.24827932  0.91619522  1
  O  O309  1  0.84996203  0.49938761  0.15123276  1
  O  O310  1  0.86312524  0.50826092  0.33724772  1
  O  O311  1  0.85066421  0.50163486  0.63279433  1
  O  O312  1  0.86664011  0.50227522  0.87202869  1
  O  O313  1  0.88982427  0.75088075  0.09441186  1
  O  O314  1  0.88016907  0.75045175  0.38762013  1
  O  O315  1  0.88212986  0.75510399  0.62980598  1
  O  O316  1  0.88938310  0.74785539  0.88981663  1
