# generated using pymatgen
data_Mg32Ti42(Bi17O64)3
_symmetry_space_group_name_H-M   'P 1'
_cell_length_a   15.93214931
_cell_length_b   15.95640900
_cell_length_c   15.92534184
_cell_angle_alpha   89.88218208
_cell_angle_beta   90.06209635
_cell_angle_gamma   90.07363474
_symmetry_Int_Tables_number   1
_chemical_formula_structural   Mg32Ti42(Bi17O64)3
_chemical_formula_sum   'Mg32 Ti42 Bi51 O192'
_cell_volume   4048.52439148
_cell_formula_units_Z   1
loop_
 _symmetry_equiv_pos_site_id
 _symmetry_equiv_pos_as_xyz
  1  'x, y, z'
loop_
 _atom_site_type_symbol
 _atom_site_label
 _atom_site_symmetry_multiplicity
 _atom_site_fract_x
 _atom_site_fract_y
 _atom_site_fract_z
 _atom_site_occupancy
  Mg  Mg0  1  0.35897730  0.62092975  0.61735878  1
  Mg  Mg1  1  0.61781192  0.88073774  0.61130606  1
  Mg  Mg2  1  0.63341212  0.88337510  0.87445797  1
  Mg  Mg3  1  0.12619545  0.87278457  0.37185217  1
  Mg  Mg4  1  0.87739007  0.62335420  0.87012915  1
  Mg  Mg5  1  0.87864155  0.62681684  0.38095741  1
  Mg  Mg6  1  0.62288173  0.63070404  0.88209125  1
  Mg  Mg7  1  0.86943908  0.11788656  0.12808786  1
  Mg  Mg8  1  0.62479139  0.37568611  0.12904530  1
  Mg  Mg9  1  0.62572365  0.39482865  0.35455854  1
  Mg  Mg10  1  0.62107877  0.87526699  0.12940771  1
  Mg  Mg11  1  0.87724132  0.62136847  0.12849652  1
  Mg  Mg12  1  0.38111294  0.13443048  0.37095713  1
  Mg  Mg13  1  0.87098493  0.88117850  0.87807610  1
  Mg  Mg14  1  0.38341235  0.38914095  0.36640251  1
  Mg  Mg15  1  0.37532913  0.62058560  0.87980005  1
  Mg  Mg16  1  0.61439708  0.36274582  0.63220340  1
  Mg  Mg17  1  0.36917259  0.86179782  0.12750098  1
  Mg  Mg18  1  0.37146147  0.87021616  0.37143898  1
  Mg  Mg19  1  0.50090798  0.29331082  0.25546546  1
  Mg  Mg20  1  0.24262693  0.51995954  0.49196398  1
  Mg  Mg21  1  0.25222496  0.27924391  0.45694895  1
  Mg  Mg22  1  0.00583861  0.76277475  0.50013331  1
  Mg  Mg23  1  0.27282389  0.69935113  0.75241223  1
  Mg  Mg24  1  0.75104825  -0.01242814  0.00532135  1
  Mg  Mg25  1  0.75551938  0.25248057  0.00181618  1
  Mg  Mg26  1  0.49079105  0.47726599  0.22383057  1
  Mg  Mg27  1  0.76662179  0.50062551  0.22986894  1
  Mg  Mg28  1  0.73917420  -0.01592426  0.69148177  1
  Mg  Mg29  1  0.69627043  0.28728783  0.48530075  1
  Mg  Mg30  1  0.68939529  0.69936954  0.51883352  1
  Mg  Mg31  1  0.26427230  0.70617783  0.23073325  1
  Ti  Ti32  1  0.40519531  0.14090727  0.13753311  1
  Ti  Ti33  1  0.12482583  0.62224559  0.12684456  1
  Ti  Ti34  1  0.87101614  0.11334441  0.61994624  1
  Ti  Ti35  1  0.37735536  0.38114569  0.86392033  1
  Ti  Ti36  1  0.12797869  0.36878866  0.60764914  1
  Ti  Ti37  1  0.36387459  0.61846517  0.37206728  1
  Ti  Ti38  1  0.37818806  0.85876835  0.86577144  1
  Ti  Ti39  1  0.86327732  0.12032152  0.37602272  1
  Ti  Ti40  1  0.62828063  0.12695854  0.61708980  1
  Ti  Ti41  1  0.36920451  0.37188030  0.60948392  1
  Ti  Ti42  1  0.87401411  0.36770129  0.87988090  1
  Ti  Ti43  1  0.12095650  0.63867112  0.36673301  1
  Ti  Ti44  1  0.64218652  0.11966962  0.12748170  1
  Ti  Ti45  1  0.12644650  0.37228635  0.12448131  1
  Ti  Ti46  1  0.61983903  0.86188023  0.38016414  1
  Ti  Ti47  1  0.37440191  0.37584609  0.12260450  1
  Ti  Ti48  1  0.13009005  0.87606163  0.63327846  1
  Ti  Ti49  1  0.12716597  0.37484771  0.36708452  1
  Ti  Ti50  1  0.12743605  0.86663863  0.88567987  1
  Ti  Ti51  1  0.12050899  0.13170247  0.11137190  1
  Ti  Ti52  1  0.12257233  0.11752961  0.62272796  1
  Ti  Ti53  1  0.64243851  0.12273434  0.86333667  1
  Ti  Ti54  1  0.62836618  0.12821344  0.36963748  1
  Ti  Ti55  1  0.64837021  0.60881761  0.36358890  1
  Ti  Ti56  1  0.63475545  0.36190372  0.86894464  1
  Ti  Ti57  1  0.88575307  0.88402757  0.62209514  1
  Ti  Ti58  1  0.12798066  0.37679868  0.86431274  1
  Ti  Ti59  1  0.87673591  0.86528522  0.38197877  1
  Ti  Ti60  1  0.37604362  0.61884771  0.11371694  1
  Ti  Ti61  1  0.61867665  0.60533304  0.13365649  1
  Ti  Ti62  1  0.11861523  0.12531482  0.87525709  1
  Ti  Ti63  1  0.87116660  0.87812204  0.12208133  1
  Ti  Ti64  1  0.86496670  0.11617742  0.87696800  1
  Ti  Ti65  1  0.88639171  0.63253542  0.61522705  1
  Ti  Ti66  1  0.86708507  0.37947248  0.12361360  1
  Ti  Ti67  1  0.13402923  0.13277890  0.37824868  1
  Ti  Ti68  1  0.36788355  0.12695041  0.61831606  1
  Ti  Ti69  1  0.12426775  0.62085176  0.86975011  1
  Ti  Ti70  1  0.36876972  0.85757925  0.63272126  1
  Ti  Ti71  1  0.13379502  0.86541204  0.12672813  1
  Ti  Ti72  1  0.11679824  0.64351433  0.61722026  1
  Ti  Ti73  1  0.86324803  0.37434624  0.37221983  1
  Bi  Bi74  1  0.01537928  -0.01080972  0.23678175  1
  Bi  Bi75  1  0.52854134  0.73143218  0.71311402  1
  Bi  Bi76  1  0.25012161  0.22230530  0.23232161  1
  Bi  Bi77  1  -0.02631656  0.75174804  0.75457696  1
  Bi  Bi78  1  0.48354445  -0.02036873  0.23733252  1
  Bi  Bi79  1  0.26306567  0.75280678  0.47898290  1
  Bi  Bi80  1  0.01363479  -0.01767356  0.76509819  1
  Bi  Bi81  1  0.73649618  0.26262832  0.23540834  1
  Bi  Bi82  1  0.72118146  0.55347353  0.71636095  1
  Bi  Bi83  1  -0.01411434  0.23089581  0.73822759  1
  Bi  Bi84  1  0.25055424  0.72299569  -0.01115818  1
  Bi  Bi85  1  0.74401465  0.77543202  0.71712824  1
  Bi  Bi86  1  -0.01907714  0.48381677  0.25781876  1
  Bi  Bi87  1  0.75706278  0.50184377  -0.03924280  1
  Bi  Bi88  1  0.01362039  0.50451432  0.48265238  1
  Bi  Bi89  1  0.23326194  0.23933974  0.73558661  1
  Bi  Bi90  1  -0.00604571  -0.00334500  0.00282011  1
  Bi  Bi91  1  0.01798389  -0.01504044  0.48229394  1
  Bi  Bi92  1  0.50360502  -0.00563262  0.72649713  1
  Bi  Bi93  1  0.53714854  0.49771261  0.52339835  1
  Bi  Bi94  1  0.48841181  0.26349869  0.47570321  1
  Bi  Bi95  1  0.25397332  0.48661629  0.26213346  1
  Bi  Bi96  1  0.48811260  0.01544038  0.48368518  1
  Bi  Bi97  1  0.75156280  0.72634752  0.24427634  1
  Bi  Bi98  1  0.52086482  0.77388491  -0.00341321  1
  Bi  Bi99  1  0.53281044  0.24078259  -0.00896134  1
  Bi  Bi100  1  0.48970276  0.72469352  0.48864240  1
  Bi  Bi101  1  0.24109215  0.49485296  0.70906361  1
  Bi  Bi102  1  0.73448029  -0.02083194  0.24258777  1
  Bi  Bi103  1  0.52351917  0.48769397  -0.02477344  1
  Bi  Bi104  1  0.27359072  0.01327816  0.78353723  1
  Bi  Bi105  1  0.26327210  0.48041629  -0.00850440  1
  Bi  Bi106  1  -0.02934224  0.23473562  0.01052127  1
  Bi  Bi107  1  0.75733215  0.75468573  -0.02392652  1
  Bi  Bi108  1  -0.02873363  0.46819318  0.71736550  1
  Bi  Bi109  1  0.73759030  -0.01081659  0.47516143  1
  Bi  Bi110  1  -0.01664476  0.72412185  -0.00232381  1
  Bi  Bi111  1  0.29177635  -0.00925571  -0.00634500  1
  Bi  Bi112  1  0.46598985  0.22190568  0.76341537  1
  Bi  Bi113  1  0.25624947  -0.01123109  0.49117100  1
  Bi  Bi114  1  0.50586643  0.01136798  -0.02769341  1
  Bi  Bi115  1  -0.00436770  0.23155366  0.48361057  1
  Bi  Bi116  1  -0.01649362  0.23450964  0.26062761  1
  Bi  Bi117  1  0.47872878  0.52423261  0.74455573  1
  Bi  Bi118  1  0.01039056  0.47188261  0.00051455  1
  Bi  Bi119  1  0.28529275  0.22472740  -0.02589947  1
  Bi  Bi120  1  -0.02394422  0.75051255  0.24558047  1
  Bi  Bi121  1  0.25317671  -0.00541817  0.23152018  1
  Bi  Bi122  1  0.49797957  0.73966639  0.22945335  1
  Bi  Bi123  1  0.77343603  0.27237792  0.70331406  1
  Bi  Bi124  1  0.77869128  0.47372964  0.53268858  1
  O  O125  1  0.10838929  0.14923257  -0.00234027  1
  O  O126  1  0.13646950  0.12431530  0.26018388  1
  O  O127  1  0.10817998  0.14448450  0.50989216  1
  O  O128  1  0.14576254  0.11537930  0.75402040  1
  O  O129  1  0.12674001  0.38537886  0.00091711  1
  O  O130  1  0.11076453  0.39011615  0.24974900  1
  O  O131  1  0.14693740  0.33577274  0.50011948  1
  O  O132  1  0.11231159  0.40240142  0.75245553  1
  O  O133  1  0.11494791  0.65418911  0.00840777  1
  O  O134  1  0.15679009  0.62463776  0.25364431  1
  O  O135  1  0.08033512  0.65211509  0.50635558  1
  O  O136  1  0.15892703  0.62673433  0.75859738  1
  O  O137  1  0.10845032  0.86750886  0.00475150  1
  O  O138  1  0.14203017  0.90923170  0.24797682  1
  O  O139  1  0.08710834  0.86518905  0.50690057  1
  O  O140  1  0.14053927  0.90248489  0.74886244  1
  O  O141  1  0.39682982  0.15838467  0.01512800  1
  O  O142  1  0.35411273  0.12140179  0.24842151  1
  O  O143  1  0.41581881  0.14375233  0.50347174  1
  O  O144  1  0.37151459  0.11732875  0.74271942  1
  O  O145  1  0.35138242  0.35698916  0.00287924  1
  O  O146  1  0.36934887  0.41991435  0.23849514  1
  O  O147  1  0.35553545  0.34059000  0.49693794  1
  O  O148  1  0.37963811  0.40551269  0.75103237  1
  O  O149  1  0.38807938  0.65728241  0.00535914  1
  O  O150  1  0.33868745  0.60187852  0.25482301  1
  O  O151  1  0.37137898  0.65279961  0.49659336  1
  O  O152  1  0.35302782  0.59443730  0.75005071  1
  O  O153  1  0.37235872  0.86949238  -0.00523300  1
  O  O154  1  0.35635894  0.90793176  0.25078659  1
  O  O155  1  0.38978943  0.83152449  0.50508107  1
  O  O156  1  0.35467805  0.89693746  0.74861970  1
  O  O157  1  0.59680456  0.10825018  0.01772880  1
  O  O158  1  0.65940416  0.14070136  0.25476236  1
  O  O159  1  0.61615664  0.09280824  0.50528896  1
  O  O160  1  0.65663226  0.13974508  0.75590657  1
  O  O161  1  0.61227744  0.38083399  0.00328220  1
  O  O162  1  0.62095926  0.32569842  0.24716798  1
  O  O163  1  0.61679441  0.39593687  0.48485818  1
  O  O164  1  0.62609997  0.34232973  0.75859415  1
  O  O165  1  0.61050148  0.59545696  0.01630030  1
  O  O166  1  0.62157583  0.66032142  0.25804784  1
  O  O167  1  0.62566759  0.59723076  0.48120104  1
  O  O168  1  0.63680999  0.65470870  0.75704253  1
  O  O169  1  0.58561479  0.89833523  0.00509002  1
  O  O170  1  0.65962415  0.86072612  0.26069974  1
  O  O171  1  0.61592734  0.91059845  0.48984193  1
  O  O172  1  0.66415145  0.87697661  0.75201527  1
  O  O173  1  0.90580528  0.10965715  0.00005026  1
  O  O174  1  0.87106079  0.14213550  0.25783292  1
  O  O175  1  0.89451114  0.11539858  0.50812250  1
  O  O176  1  0.86268536  0.14929129  0.76423053  1
  O  O177  1  0.86587842  0.40076040  0.00639319  1
  O  O178  1  0.90020654  0.35071220  0.24560175  1
  O  O179  1  0.88091681  0.40453625  0.48398915  1
  O  O180  1  0.87658213  0.34839795  0.76242071  1
  O  O181  1  0.90287054  0.61559749  0.00441511  1
  O  O182  1  0.87396426  0.65516980  0.25534583  1
  O  O183  1  0.89001755  0.59074023  0.50319123  1
  O  O184  1  0.87160455  0.65064387  0.74221156  1
  O  O185  1  0.90121383  0.89218618  0.00935455  1
  O  O186  1  0.86483541  0.85465217  0.26048041  1
  O  O187  1  0.90478577  0.89603418  0.50683704  1
  O  O188  1  0.86437666  0.84559086  0.74749296  1
  O  O189  1  0.00073944  0.15614080  0.13457978  1
  O  O190  1  -0.00073408  0.12292201  0.38070708  1
  O  O191  1  0.00175275  0.11932522  0.65225583  1
  O  O192  1  0.00153689  0.15558701  0.86136467  1
  O  O193  1  -0.00144738  0.37148860  0.10738946  1
  O  O194  1  0.00200741  0.40219838  0.37877312  1
  O  O195  1  0.01053399  0.38690502  0.61490023  1
  O  O196  1  -0.00534866  0.37077094  0.89198136  1
  O  O197  1  0.01213878  0.65577727  0.14436208  1
  O  O198  1  0.00761620  0.58745062  0.36338269  1
  O  O199  1  0.00637976  0.58991965  0.64793967  1
  O  O200  1  0.00911177  0.65675865  0.86811185  1
  O  O201  1  0.01181821  0.86937450  0.15698393  1
  O  O202  1  -0.00083812  0.91233151  0.36235990  1
  O  O203  1  0.00150218  0.88679972  0.65670181  1
  O  O204  1  0.00782176  0.86750168  0.85009921  1
  O  O205  1  0.24165370  0.12996856  0.12095529  1
  O  O206  1  0.24662807  0.16802301  0.39721248  1
  O  O207  1  0.25159104  0.13316827  0.61446305  1
  O  O208  1  0.24137028  0.10771463  0.89643762  1
  O  O209  1  0.24137018  0.40150987  0.13358112  1
  O  O210  1  0.24445697  0.35445242  0.35431236  1
  O  O211  1  0.24697152  0.35693702  0.65118627  1
  O  O212  1  0.24385570  0.40159027  0.86879295  1
  O  O213  1  0.25140421  0.62241505  0.10559329  1
  O  O214  1  0.22767618  0.62689947  0.41639654  1
  O  O215  1  0.23226602  0.63244438  0.61016483  1
  O  O216  1  0.24541367  0.61176196  0.91013238  1
  O  O217  1  0.24821901  0.91174774  0.11564980  1
  O  O218  1  0.24702890  0.87971194  0.40991191  1
  O  O219  1  0.24749056  0.87764315  0.60186462  1
  O  O220  1  0.24014882  0.91085261  0.89134635  1
  O  O221  1  0.51088267  0.17022674  0.16098555  1
  O  O222  1  0.51444993  0.09360605  0.36693602  1
  O  O223  1  0.51069604  0.12535973  0.66003088  1
  O  O224  1  0.51948138  0.15439105  0.87736342  1
  O  O225  1  0.48893534  0.36730740  0.14275520  1
  O  O226  1  0.50399112  0.41265212  0.33304234  1
  O  O227  1  0.48620525  0.38802058  0.61212554  1
  O  O228  1  0.49590129  0.35894277  0.88401131  1
  O  O229  1  0.48829928  0.61265977  0.16318274  1
  O  O230  1  0.48054299  0.63848147  0.37378618  1
  O  O231  1  0.48698357  0.62170361  0.63838422  1
  O  O232  1  0.49890704  0.60619221  0.85558005  1
  O  O233  1  0.49466232  0.86850768  0.15886200  1
  O  O234  1  0.50571121  0.87401092  0.35381963  1
  O  O235  1  0.49057509  0.87327552  0.64546200  1
  O  O236  1  0.49022365  0.84492876  0.85782119  1
  O  O237  1  0.74863105  0.07983442  0.10108996  1
  O  O238  1  0.75298569  0.14278774  0.40583391  1
  O  O239  1  0.75231642  0.10151558  0.62207438  1
  O  O240  1  0.75311083  0.08898569  0.91033579  1
  O  O241  1  0.75364844  0.39127374  0.15744514  1
  O  O242  1  0.75147725  0.34516071  0.37949905  1
  O  O243  1  0.74364239  0.35431728  0.59442252  1
  O  O244  1  0.74941215  0.37457321  0.88804936  1
  O  O245  1  0.73972940  0.61009611  0.15347308  1
  O  O246  1  0.75277558  0.65820848  0.37668679  1
  O  O247  1  0.76159147  0.63896610  0.60832468  1
  O  O248  1  0.75046196  0.62797190  0.89935358  1
  O  O249  1  0.75556692  0.89884113  0.10859275  1
  O  O250  1  0.76231812  0.86566853  0.40662178  1
  O  O251  1  0.76132728  0.87666315  0.61525780  1
  O  O252  1  0.75113678  0.88844340  0.92318681  1
  O  O253  1  0.10162072  0.01577987  0.11653257  1
  O  O254  1  0.14272192  0.01505099  0.40198493  1
  O  O255  1  0.12491752  0.00226655  0.60684801  1
  O  O256  1  0.09524674  0.01049031  0.88647731  1
  O  O257  1  0.13795160  0.25871092  0.13783848  1
  O  O258  1  0.09161360  0.25425387  0.37214193  1
  O  O259  1  0.11829476  0.24806617  0.65426854  1
  O  O260  1  0.14440974  0.25975900  0.85466968  1
  O  O261  1  0.10384648  0.51079778  0.11720263  1
  O  O262  1  0.14280347  0.48623219  0.40870613  1
  O  O263  1  0.15195157  0.48766126  0.59294505  1
  O  O264  1  0.10425102  0.50948342  0.88933382  1
  O  O265  1  0.16532578  0.76117084  0.14989365  1
  O  O266  1  0.10536928  0.74943101  0.36164405  1
  O  O267  1  0.10905111  0.75592080  0.64074281  1
  O  O268  1  0.15355745  0.75779484  0.87460702  1
  O  O269  1  0.41100662  0.02194470  0.11714174  1
  O  O270  1  0.36737540  0.00453430  0.40578009  1
  O  O271  1  0.38583841  0.00815843  0.60460878  1
  O  O272  1  0.37943203  -0.00815971  0.87929907  1
  O  O273  1  0.35692965  0.26019557  0.14924094  1
  O  O274  1  0.42342512  0.25812644  0.35476741  1
  O  O275  1  0.38082529  0.25070344  0.64459812  1
  O  O276  1  0.35177538  0.26151947  0.85589920  1
  O  O277  1  0.38013653  0.50161459  0.09026294  1
  O  O278  1  0.33528085  0.50550902  0.39564784  1
  O  O279  1  0.33429209  0.49030680  0.59602446  1
  O  O280  1  0.37807473  0.49313797  0.90595276  1
  O  O281  1  0.36727449  0.73942392  0.15827914  1
  O  O282  1  0.32953824  0.74153838  0.35203276  1
  O  O283  1  0.35694850  0.74921502  0.66267144  1
  O  O284  1  0.33518611  0.74920225  0.85526866  1
  O  O285  1  0.61470703  0.00246447  0.16685969  1
  O  O286  1  0.66029873  0.00101961  0.36007173  1
  O  O287  1  0.61943365  0.00109399  0.65116795  1
  O  O288  1  0.59563713  0.00822236  0.86302949  1
  O  O289  1  0.67266234  0.23674725  0.10406331  1
  O  O290  1  0.60907602  0.23826183  0.40320618  1
  O  O291  1  0.62873252  0.23971649  0.59221521  1
  O  O292  1  0.65459184  0.24143828  0.91519810  1
  O  O293  1  0.60307816  0.49700695  0.16127041  1
  O  O294  1  0.67765794  0.50809752  0.32629878  1
  O  O295  1  0.62401521  0.49312307  0.63757072  1
  O  O296  1  0.62766223  0.48786089  0.87497247  1
  O  O297  1  0.59572468  0.74372776  0.11602411  1
  O  O298  1  0.62175688  0.75416345  0.41716886  1
  O  O299  1  0.62087488  0.75580230  0.61151851  1
  O  O300  1  0.62992135  0.75508730  0.91445896  1
  O  O301  1  0.90517350  -0.00542800  0.14369871  1
  O  O302  1  0.85155555  0.00529351  0.37279553  1
  O  O303  1  0.87008570  -0.00411026  0.65973069  1
  O  O304  1  0.90430547  0.00561847  0.86808977  1
  O  O305  1  0.85355029  0.25342142  0.09451987  1
  O  O306  1  0.89975273  0.25364010  0.38323446  1
  O  O307  1  0.88123705  0.23402166  0.62760144  1
  O  O308  1  0.85578195  0.24780748  0.91608085  1
  O  O309  1  0.87871034  0.49710464  0.15216432  1
  O  O310  1  0.85766041  0.48938167  0.32825764  1
  O  O311  1  0.85346053  0.50449160  0.64710309  1
  O  O312  1  0.86213921  0.49347236  0.86680605  1
  O  O313  1  0.87619915  0.75875993  0.11993913  1
  O  O314  1  0.91869730  0.75828190  0.40175149  1
  O  O315  1  0.91804697  0.74621053  0.60137720  1
  O  O316  1  0.87233488  0.75396665  0.89873511  1
