# generated using pymatgen
data_Mg32Ti42(Bi17O64)3
_symmetry_space_group_name_H-M   'P 1'
_cell_length_a   15.93675619
_cell_length_b   15.92488418
_cell_length_c   15.94550178
_cell_angle_alpha   89.76950533
_cell_angle_beta   90.03584447
_cell_angle_gamma   89.89803366
_symmetry_Int_Tables_number   1
_chemical_formula_structural   Mg32Ti42(Bi17O64)3
_chemical_formula_sum   'Mg32 Ti42 Bi51 O192'
_cell_volume   4046.78482259
_cell_formula_units_Z   1
loop_
 _symmetry_equiv_pos_site_id
 _symmetry_equiv_pos_as_xyz
  1  'x, y, z'
loop_
 _atom_site_type_symbol
 _atom_site_label
 _atom_site_symmetry_multiplicity
 _atom_site_fract_x
 _atom_site_fract_y
 _atom_site_fract_z
 _atom_site_occupancy
  Mg  Mg0  1  0.36473867  0.87241064  0.62096755  1
  Mg  Mg1  1  0.61681433  0.62375532  0.13741163  1
  Mg  Mg2  1  0.62501026  0.87926368  0.88101435  1
  Mg  Mg3  1  0.62419925  0.12860189  0.37025790  1
  Mg  Mg4  1  0.37464747  0.88424937  0.37367458  1
  Mg  Mg5  1  0.36758487  0.62622917  0.87555844  1
  Mg  Mg6  1  0.12351986  0.35913082  0.12595496  1
  Mg  Mg7  1  0.38709981  0.37224885  0.87148976  1
  Mg  Mg8  1  0.12399909  0.61719924  0.87922513  1
  Mg  Mg9  1  0.62726108  0.37878708  0.38519337  1
  Mg  Mg10  1  0.62620406  0.36827174  0.12920252  1
  Mg  Mg11  1  0.36654044  0.12049030  0.87861464  1
  Mg  Mg12  1  0.11145069  0.88036950  0.37092915  1
  Mg  Mg13  1  0.87012793  0.13214538  0.37362333  1
  Mg  Mg14  1  0.87665782  0.62684188  0.12124981  1
  Mg  Mg15  1  0.13309644  0.13776659  0.38054590  1
  Mg  Mg16  1  0.37548081  0.37922598  0.63315988  1
  Mg  Mg17  1  0.87279265  0.61319758  0.37701275  1
  Mg  Mg18  1  0.87692314  0.37568079  0.87269007  1
  Mg  Mg19  1  0.27988070  0.28568059  0.22880861  1
  Mg  Mg20  1  0.74131444  0.29420434  0.28355484  1
  Mg  Mg21  1  0.01666823  0.06571478  0.26855710  1
  Mg  Mg22  1  0.24992992  0.45853135  0.19714070  1
  Mg  Mg23  1  0.68429817  -0.01478478  0.26255131  1
  Mg  Mg24  1  0.02819763  0.49950469  0.46747566  1
  Mg  Mg25  1  0.78436495  0.05037100  -0.00244155  1
  Mg  Mg26  1  0.70416823  0.73661204  0.80852435  1
  Mg  Mg27  1  0.31909357  0.05390035  0.50366136  1
  Mg  Mg28  1  0.42772672  0.20673345  0.73200376  1
  Mg  Mg29  1  0.28406396  0.25897548  0.02123784  1
  Mg  Mg30  1  0.77863736  0.73231034  0.46380503  1
  Mg  Mg31  1  0.55311779  0.26259021  0.27153610  1
  Ti  Ti32  1  0.86808463  0.86419895  0.61586136  1
  Ti  Ti33  1  0.86843652  0.38509601  0.38981507  1
  Ti  Ti34  1  0.13516387  0.61839850  0.12580349  1
  Ti  Ti35  1  0.37838686  0.13281514  0.12438720  1
  Ti  Ti36  1  0.87469136  0.86735224  0.88059740  1
  Ti  Ti37  1  0.12425657  0.12208217  0.86493274  1
  Ti  Ti38  1  0.63996169  0.36467120  0.88650473  1
  Ti  Ti39  1  0.87854220  0.10204269  0.14195083  1
  Ti  Ti40  1  0.62866603  0.36580479  0.63580240  1
  Ti  Ti41  1  0.13668040  0.88019582  0.12979859  1
  Ti  Ti42  1  0.62966996  0.11910466  0.64169427  1
  Ti  Ti43  1  0.13545253  0.12901127  0.12354419  1
  Ti  Ti44  1  0.38955040  0.37330967  0.12474363  1
  Ti  Ti45  1  0.87714980  0.63672739  0.61550298  1
  Ti  Ti46  1  0.63339318  0.13124795  0.13006337  1
  Ti  Ti47  1  0.37954604  0.61542448  0.12995276  1
  Ti  Ti48  1  0.63246339  0.87409917  0.62714064  1
  Ti  Ti49  1  0.11691904  0.12669736  0.61456029  1
  Ti  Ti50  1  0.62620548  0.62163446  0.37788405  1
  Ti  Ti51  1  0.38647151  0.62937115  0.63341482  1
  Ti  Ti52  1  0.38886352  0.62171517  0.37446733  1
  Ti  Ti53  1  0.11849754  0.87093428  0.61424103  1
  Ti  Ti54  1  0.62924926  0.64379840  0.62031324  1
  Ti  Ti55  1  0.37493780  0.89358626  0.12174117  1
  Ti  Ti56  1  0.87611108  0.87573380  0.35318483  1
  Ti  Ti57  1  0.37357630  0.88242707  0.86480381  1
  Ti  Ti58  1  0.37003362  0.15276124  0.35868102  1
  Ti  Ti59  1  0.87749269  0.87915621  0.12375231  1
  Ti  Ti60  1  0.62689056  0.87982585  0.12235571  1
  Ti  Ti61  1  0.14769643  0.37513017  0.36676519  1
  Ti  Ti62  1  0.14028664  0.61771919  0.36706415  1
  Ti  Ti63  1  0.11089772  0.37710842  0.88123212  1
  Ti  Ti64  1  0.11873234  0.38732617  0.61774524  1
  Ti  Ti65  1  0.64342068  0.12607232  0.87442467  1
  Ti  Ti66  1  0.87362597  0.12719570  0.62037929  1
  Ti  Ti67  1  0.37625851  0.38045605  0.37611338  1
  Ti  Ti68  1  0.63394904  0.86053796  0.38139143  1
  Ti  Ti69  1  0.88339110  0.63283086  0.88398285  1
  Ti  Ti70  1  0.88545237  0.11682214  0.86546466  1
  Ti  Ti71  1  0.12551094  0.62325118  0.62106331  1
  Ti  Ti72  1  0.11818169  0.87804603  0.86603662  1
  Ti  Ti73  1  0.87147886  0.38444544  0.61482271  1
  Bi  Bi74  1  0.27469910  0.74800706  0.24566325  1
  Bi  Bi75  1  0.24375392  0.27010286  0.78300631  1
  Bi  Bi76  1  0.22551977  0.00540000  0.29053845  1
  Bi  Bi77  1  -0.00972580  -0.00633587  0.72377200  1
  Bi  Bi78  1  0.76375844  -0.00986655  0.48058575  1
  Bi  Bi79  1  0.50914838  0.76569019  0.78115206  1
  Bi  Bi80  1  0.00453743  0.23938003  0.00876548  1
  Bi  Bi81  1  0.51910816  0.48591793  0.53045081  1
  Bi  Bi82  1  0.24423041  0.00680837  0.69926843  1
  Bi  Bi83  1  0.76225284  -0.02676241  0.76816061  1
  Bi  Bi84  1  0.49869222  0.77910332  0.23424240  1
  Bi  Bi85  1  0.78480007  0.27237305  0.04976949  1
  Bi  Bi86  1  0.52037559  0.01160950  -0.02276959  1
  Bi  Bi87  1  0.24931415  -0.00063212  -0.02269209  1
  Bi  Bi88  1  0.49372045  0.23350965  -0.04015151  1
  Bi  Bi89  1  0.49521766  0.75726982  0.00854556  1
  Bi  Bi90  1  -0.03610352  0.46340457  0.03887845  1
  Bi  Bi91  1  0.01234028  0.01039140  0.00855588  1
  Bi  Bi92  1  0.01248901  0.73247709  0.46873349  1
  Bi  Bi93  1  0.25006580  0.78363146  0.47670928  1
  Bi  Bi94  1  0.51640943  -0.01384236  0.48153992  1
  Bi  Bi95  1  0.24308737  0.74548481  -0.00231675  1
  Bi  Bi96  1  0.01803416  0.76210779  0.01412260  1
  Bi  Bi97  1  0.48555711  0.23819991  0.54091497  1
  Bi  Bi98  1  -0.00196719  0.25836412  0.74014926  1
  Bi  Bi99  1  0.01725072  0.26002247  0.47089637  1
  Bi  Bi100  1  0.23232953  0.73096170  0.76200989  1
  Bi  Bi101  1  0.49676025  0.52781741  -0.00415815  1
  Bi  Bi102  1  0.76676538  0.47974760  0.21831662  1
  Bi  Bi103  1  0.73581943  0.51287222  0.51628630  1
  Bi  Bi104  1  0.27558419  0.51736322  0.51050942  1
  Bi  Bi105  1  0.74655480  0.53632064  0.76882765  1
  Bi  Bi106  1  0.48248262  0.76728602  0.51406984  1
  Bi  Bi107  1  0.53266910  0.49829574  0.78041959  1
  Bi  Bi108  1  0.25831567  0.45772255  -0.00927465  1
  Bi  Bi109  1  0.46142005  0.01334082  0.71305295  1
  Bi  Bi110  1  -0.00857785  0.49746445  0.26156762  1
  Bi  Bi111  1  0.25759914  0.25188354  0.53618126  1
  Bi  Bi112  1  0.26465326  0.49848864  0.75241558  1
  Bi  Bi113  1  0.00594851  0.73239949  0.23799273  1
  Bi  Bi114  1  -0.02702155  0.50773372  0.76123270  1
  Bi  Bi115  1  0.76373172  0.72414507  0.23757558  1
  Bi  Bi116  1  0.71713271  0.52067934  0.00472242  1
  Bi  Bi117  1  0.49080616  0.03613070  0.26154101  1
  Bi  Bi118  1  -0.00308075  0.74293866  0.74260507  1
  Bi  Bi119  1  -0.03784874  0.27159279  0.25375634  1
  Bi  Bi120  1  0.71818665  0.22340813  0.49610308  1
  Bi  Bi121  1  0.51686097  0.47167577  0.26377488  1
  Bi  Bi122  1  0.74839938  0.75269226  0.00878108  1
  Bi  Bi123  1  -0.00463100  0.01245154  0.49081942  1
  Bi  Bi124  1  0.76647278  0.27497197  0.75399806  1
  O  O125  1  0.09285594  0.12710768  -0.00063248  1
  O  O126  1  0.13834459  0.11321088  0.24056408  1
  O  O127  1  0.08831785  0.12626476  0.50162759  1
  O  O128  1  0.14686008  0.11512139  0.74883502  1
  O  O129  1  0.08292007  0.36538519  -0.00188461  1
  O  O130  1  0.17193126  0.36312350  0.25381608  1
  O  O131  1  0.08980897  0.39408828  0.50350649  1
  O  O132  1  0.14873365  0.36495258  0.75459602  1
  O  O133  1  0.12090757  0.65327906  0.00630232  1
  O  O134  1  0.14333762  0.63665568  0.25081463  1
  O  O135  1  0.09236678  0.60759732  0.49664840  1
  O  O136  1  0.15207459  0.62185714  0.74241174  1
  O  O137  1  0.12851432  0.84181933  -0.00472303  1
  O  O138  1  0.13316502  0.88501725  0.24205278  1
  O  O139  1  0.10592192  0.86742865  0.50165082  1
  O  O140  1  0.12830420  0.90182386  0.75386190  1
  O  O141  1  0.37619767  0.16174823  0.00526228  1
  O  O142  1  0.35354870  0.10568591  0.24536455  1
  O  O143  1  0.39062745  0.15724803  0.47867014  1
  O  O144  1  0.36436046  0.09957335  0.75374451  1
  O  O145  1  0.37546986  0.36219444  0.00214681  1
  O  O146  1  0.34902397  0.39386352  0.23882287  1
  O  O147  1  0.39735858  0.36638870  0.49004212  1
  O  O148  1  0.33403549  0.37245063  0.75495763  1
  O  O149  1  0.39584167  0.62914763  0.00544309  1
  O  O150  1  0.35853073  0.62998279  0.25164569  1
  O  O151  1  0.38555941  0.61146425  0.50078107  1
  O  O152  1  0.34151876  0.62497379  0.74530018  1
  O  O153  1  0.39449424  0.86021660  0.00895907  1
  O  O154  1  0.36699899  0.86398670  0.24713599  1
  O  O155  1  0.37400161  0.85158357  0.49617891  1
  O  O156  1  0.36027400  0.90283358  0.74981241  1
  O  O157  1  0.60537843  0.12178182  0.00993950  1
  O  O158  1  0.63367698  0.09993824  0.24618821  1
  O  O159  1  0.60458180  0.14004355  0.50602611  1
  O  O160  1  0.65600773  0.12552615  0.75674523  1
  O  O161  1  0.64647227  0.38496648  0.00125841  1
  O  O162  1  0.62583948  0.38277969  0.25668052  1
  O  O163  1  0.60521187  0.37925514  0.50658795  1
  O  O164  1  0.64944667  0.36860289  0.75063061  1
  O  O165  1  0.60671398  0.60691518  0.00732371  1
  O  O166  1  0.64318914  0.63215632  0.26367156  1
  O  O167  1  0.60868904  0.60300241  0.50623846  1
  O  O168  1  0.65496074  0.64258983  0.73652704  1
  O  O169  1  0.60072615  0.87294470  0.00800897  1
  O  O170  1  0.62591945  0.86669852  0.25896242  1
  O  O171  1  0.64382963  0.90134891  0.49772850  1
  O  O172  1  0.62598755  0.84849318  0.74047481  1
  O  O173  1  0.89983596  0.11752305  -0.01541923  1
  O  O174  1  0.87833170  0.09550221  0.25227159  1
  O  O175  1  0.90809393  0.13095825  0.50612006  1
  O  O176  1  0.85888714  0.08058067  0.74519823  1
  O  O177  1  0.89379311  0.35586440  -0.00244159  1
  O  O178  1  0.88504238  0.40358667  0.26689855  1
  O  O179  1  0.89232349  0.34523920  0.50030123  1
  O  O180  1  0.85319474  0.38507208  0.73990151  1
  O  O181  1  0.88576974  0.64897253  -0.00496088  1
  O  O182  1  0.84561963  0.60952667  0.25081862  1
  O  O183  1  0.88450635  0.66031955  0.49832809  1
  O  O184  1  0.86764046  0.60290961  0.73500749  1
  O  O185  1  0.86328779  0.83838862  -0.00117955  1
  O  O186  1  0.87680924  0.89713776  0.24085032  1
  O  O187  1  0.84621169  0.84765344  0.50337231  1
  O  O188  1  0.87738400  0.89821748  0.75466824  1
  O  O189  1  -0.00455615  0.07888751  0.13882813  1
  O  O190  1  0.00110280  0.16612892  0.35021019  1
  O  O191  1  0.00004787  0.12964197  0.65621628  1
  O  O192  1  -0.00194713  0.09156757  0.85008950  1
  O  O193  1  0.00908541  0.40632354  0.15328773  1
  O  O194  1  0.01193091  0.35105431  0.35775993  1
  O  O195  1  -0.00160628  0.36638087  0.64587878  1
  O  O196  1  0.00054196  0.38036581  0.84163752  1
  O  O197  1  0.00736471  0.61537550  0.15165764  1
  O  O198  1  -0.00172554  0.64554116  0.35834713  1
  O  O199  1  -0.00265248  0.63363625  0.63945621  1
  O  O200  1  0.00180392  0.61723048  0.84348503  1
  O  O201  1  -0.00610737  0.88314169  0.10211428  1
  O  O202  1  -0.01245714  0.84504600  0.37004899  1
  O  O203  1  -0.00582576  0.86193471  0.64010106  1
  O  O204  1  -0.00277545  0.88221421  0.88728678  1
  O  O205  1  0.24255203  0.15738149  0.10202728  1
  O  O206  1  0.25729537  0.09848625  0.39371671  1
  O  O207  1  0.23633914  0.10696137  0.59084341  1
  O  O208  1  0.23898520  0.12065595  0.89715552  1
  O  O209  1  0.24620187  0.35001954  0.10555605  1
  O  O210  1  0.25410985  0.40208264  0.39872301  1
  O  O211  1  0.23957375  0.37681118  0.59719216  1
  O  O212  1  0.23495191  0.33217955  0.90961051  1
  O  O213  1  0.25156567  0.65778544  0.11687955  1
  O  O214  1  0.24921968  0.59995650  0.39256176  1
  O  O215  1  0.23995057  0.62609198  0.59176389  1
  O  O216  1  0.24554617  0.65985277  0.88371152  1
  O  O217  1  0.25281150  0.85671158  0.11752200  1
  O  O218  1  0.24326699  0.88855391  0.38590003  1
  O  O219  1  0.23717299  0.88452016  0.61664289  1
  O  O220  1  0.25090074  0.87588922  0.89056281  1
  O  O221  1  0.49147081  0.10861330  0.13417852  1
  O  O222  1  0.49117789  0.15901456  0.32810166  1
  O  O223  1  0.50945274  0.14386195  0.65651633  1
  O  O224  1  0.50240111  0.11597387  0.88408633  1
  O  O225  1  0.49947777  0.39410365  0.13145526  1
  O  O226  1  0.48787373  0.35398385  0.33861314  1
  O  O227  1  0.50626197  0.38076027  0.63975666  1
  O  O228  1  0.51222581  0.39546095  0.86894484  1
  O  O229  1  0.49160618  0.58754612  0.13763524  1
  O  O230  1  0.49882694  0.65342361  0.37011507  1
  O  O231  1  0.50286052  0.62188537  0.64376935  1
  O  O232  1  0.48862930  0.58824837  0.86781739  1
  O  O233  1  0.49602503  0.89263360  0.14966171  1
  O  O234  1  0.51143740  0.85873078  0.40167140  1
  O  O235  1  0.50881181  0.87013889  0.60419292  1
  O  O236  1  0.49590170  0.88966345  0.85066847  1
  O  O237  1  0.75229054  0.13284555  0.10013050  1
  O  O238  1  0.74909335  0.11370033  0.41008090  1
  O  O239  1  0.75395438  0.12215443  0.60123041  1
  O  O240  1  0.75395955  0.13157645  0.90168225  1
  O  O241  1  0.75515098  0.33986856  0.16278456  1
  O  O242  1  0.75583327  0.39750041  0.38335869  1
  O  O243  1  0.75424465  0.36885494  0.60448902  1
  O  O244  1  0.75582667  0.34312534  0.87830370  1
  O  O245  1  0.74617049  0.65442279  0.10683620  1
  O  O246  1  0.74503527  0.61015317  0.40832384  1
  O  O247  1  0.75140365  0.62579480  0.59513324  1
  O  O248  1  0.76288911  0.63677245  0.86703925  1
  O  O249  1  0.74290850  0.83989603  0.11804470  1
  O  O250  1  0.74542310  0.91952256  0.36077651  1
  O  O251  1  0.75393540  0.89654058  0.63856768  1
  O  O252  1  0.75119577  0.84658933  0.85964108  1
  O  O253  1  0.13646306  -0.00415850  0.09704547  1
  O  O254  1  0.09589532  0.00908239  0.35875381  1
  O  O255  1  0.10519443  -0.00026179  0.62210118  1
  O  O256  1  0.12697331  -0.00408492  0.90276775  1
  O  O257  1  0.08452264  0.23695938  0.12538000  1
  O  O258  1  0.14856789  0.26213060  0.40804388  1
  O  O259  1  0.13499217  0.24730061  0.61579201  1
  O  O260  1  0.09893677  0.23734212  0.86556445  1
  O  O261  1  0.15626397  0.50697268  0.12665794  1
  O  O262  1  0.10334065  0.49701963  0.36266130  1
  O  O263  1  0.11890418  0.50049900  0.63636139  1
  O  O264  1  0.14306759  0.48831197  0.88516241  1
  O  O265  1  0.09952634  0.75705989  0.13206314  1
  O  O266  1  0.13708926  0.73991003  0.38763971  1
  O  O267  1  0.12517357  0.74919275  0.63716543  1
  O  O268  1  0.11381044  0.75821247  0.84248307  1
  O  O269  1  0.35654061  0.00474460  0.10718090  1
  O  O270  1  0.40663533  0.00753760  0.39075012  1
  O  O271  1  0.37863581  -0.00019951  0.60345169  1
  O  O272  1  0.37318351  -0.00407886  0.90772158  1
  O  O273  1  0.37837791  0.25328519  0.14800552  1
  O  O274  1  0.33458817  0.25947037  0.34210802  1
  O  O275  1  0.37149136  0.25287479  0.62830005  1
  O  O276  1  0.40091071  0.24610329  0.84983352  1
  O  O277  1  0.34222080  0.49933859  0.11302537  1
  O  O278  1  0.39969934  0.50021769  0.37066640  1
  O  O279  1  0.35919682  0.50452802  0.63246510  1
  O  O280  1  0.33616562  0.49435274  0.87691426  1
  O  O281  1  0.40461117  0.74233603  0.13364617  1
  O  O282  1  0.34174200  0.74063970  0.37358920  1
  O  O283  1  0.38162049  0.74479086  0.62575858  1
  O  O284  1  0.39444496  0.75948568  0.86672566  1
  O  O285  1  0.64909678  -0.01072739  0.13453981  1
  O  O286  1  0.59434570  0.00439798  0.36895831  1
  O  O287  1  0.61508793  0.00381554  0.63588401  1
  O  O288  1  0.63144906  0.00531111  0.88962763  1
  O  O289  1  0.60799042  0.23987023  0.15257538  1
  O  O290  1  0.64965290  0.25257184  0.36068640  1
  O  O291  1  0.63772060  0.24854471  0.62481902  1
  O  O292  1  0.61307505  0.24621493  0.88013319  1
  O  O293  1  0.65969669  0.49830592  0.12666370  1
  O  O294  1  0.59561913  0.50584825  0.37829700  1
  O  O295  1  0.63243250  0.49742977  0.62538483  1
  O  O296  1  0.64683118  0.49141390  0.86480155  1
  O  O297  1  0.58592716  0.75073518  0.12946076  1
  O  O298  1  0.66054814  0.75205333  0.40298704  1
  O  O299  1  0.63101860  0.75498639  0.59617293  1
  O  O300  1  0.59963608  0.75191142  0.87973533  1
  O  O301  1  0.84898826  -0.00873701  0.09276369  1
  O  O302  1  0.88902411  -0.00741823  0.40097229  1
  O  O303  1  0.90104892  -0.00582980  0.60425566  1
  O  O304  1  0.84276475  -0.01214432  0.89284417  1
  O  O305  1  0.89371240  0.22253672  0.11793302  1
  O  O306  1  0.85206786  0.26083399  0.34121247  1
  O  O307  1  0.87616633  0.24022991  0.65219511  1
  O  O308  1  0.88789026  0.23306576  0.83625970  1
  O  O309  1  0.84694254  0.50302110  0.10512293  1
  O  O310  1  0.91739793  0.49436702  0.40467741  1
  O  O311  1  0.87273710  0.49827655  0.59591367  1
  O  O312  1  0.87882222  0.50611894  0.87132333  1
  O  O313  1  0.88811963  0.75285603  0.15471073  1
  O  O314  1  0.84055158  0.76047429  0.35512800  1
  O  O315  1  0.86888146  0.74988087  0.64900146  1
  O  O316  1  0.89524434  0.74895502  0.84956239  1
