# generated using pymatgen
data_Mg32Ti42(Bi17O64)3
_symmetry_space_group_name_H-M   'P 1'
_cell_length_a   15.94573825
_cell_length_b   15.92574733
_cell_length_c   15.96799094
_cell_angle_alpha   90.03629922
_cell_angle_beta   89.91029623
_cell_angle_gamma   90.04432239
_symmetry_Int_Tables_number   1
_chemical_formula_structural   Mg32Ti42(Bi17O64)3
_chemical_formula_sum   'Mg32 Ti42 Bi51 O192'
_cell_volume   4055.02914972
_cell_formula_units_Z   1
loop_
 _symmetry_equiv_pos_site_id
 _symmetry_equiv_pos_as_xyz
  1  'x, y, z'
loop_
 _atom_site_type_symbol
 _atom_site_label
 _atom_site_symmetry_multiplicity
 _atom_site_fract_x
 _atom_site_fract_y
 _atom_site_fract_z
 _atom_site_occupancy
  Mg  Mg0  1  0.62934188  0.13095191  0.86805579  1
  Mg  Mg1  1  0.11048309  0.62721491  0.11195749  1
  Mg  Mg2  1  0.86434998  0.86382768  0.39190061  1
  Mg  Mg3  1  0.36649537  0.37463517  0.37367102  1
  Mg  Mg4  1  0.11843517  0.61903142  0.38357497  1
  Mg  Mg5  1  0.12988711  0.36661925  0.62774662  1
  Mg  Mg6  1  0.37680839  0.63575724  0.86866600  1
  Mg  Mg7  1  0.62661734  0.12564936  0.12978861  1
  Mg  Mg8  1  0.38308809  0.62312823  0.62050795  1
  Mg  Mg9  1  0.37244137  0.37509533  0.87250684  1
  Mg  Mg10  1  0.87908366  0.86215230  0.11827930  1
  Mg  Mg11  1  0.11970617  0.11403170  0.12424803  1
  Mg  Mg12  1  0.38191987  0.87911584  0.62549217  1
  Mg  Mg13  1  0.87238471  0.12427898  0.63284743  1
  Mg  Mg14  1  0.62857823  0.13392004  0.62197998  1
  Mg  Mg15  1  0.61969881  0.86681520  0.13735000  1
  Mg  Mg16  1  0.37880710  0.62071634  0.14138854  1
  Mg  Mg17  1  0.37853668  0.12574086  0.12935716  1
  Mg  Mg18  1  0.12074599  0.63179903  0.63393771  1
  Mg  Mg19  1  0.05622037  0.43438539  0.02857907  1
  Mg  Mg20  1  0.17936824  0.26531820  0.23439733  1
  Mg  Mg21  1  0.28371139  0.75549121  0.76576120  1
  Mg  Mg22  1  -0.03289571  0.27533575  0.55573918  1
  Mg  Mg23  1  0.77059973  0.73900177  0.53665880  1
  Mg  Mg24  1  0.48381513  0.70952653  0.48120859  1
  Mg  Mg25  1  0.03408355  0.00721437  0.78810496  1
  Mg  Mg26  1  0.77192692  0.05703298  0.45781210  1
  Mg  Mg27  1  0.46654597  0.50048481  0.47078130  1
  Mg  Mg28  1  0.06160776  0.74308473  0.51479749  1
  Mg  Mg29  1  -0.00010455  0.24955781  0.08316079  1
  Mg  Mg30  1  0.49896845  0.70666346  0.30048326  1
  Mg  Mg31  1  0.00028771  0.77829848  -0.06331588  1
  Ti  Ti32  1  0.89405612  0.63327008  0.63464765  1
  Ti  Ti33  1  0.37603077  0.87601485  0.14373574  1
  Ti  Ti34  1  0.87023674  0.88367511  0.86981211  1
  Ti  Ti35  1  0.88031396  0.10988262  0.11234332  1
  Ti  Ti36  1  0.36160945  0.61552924  0.37373458  1
  Ti  Ti37  1  0.12678380  0.12688231  0.88452459  1
  Ti  Ti38  1  0.38418783  0.87361992  0.86987020  1
  Ti  Ti39  1  0.62536754  0.62067876  0.62425213  1
  Ti  Ti40  1  0.87434906  0.62703058  0.11065008  1
  Ti  Ti41  1  0.38114855  0.37390297  0.11907121  1
  Ti  Ti42  1  0.88158173  0.62212066  0.38848714  1
  Ti  Ti43  1  0.62593084  0.86522405  0.61564371  1
  Ti  Ti44  1  0.86081334  0.37309894  0.11715179  1
  Ti  Ti45  1  0.62456249  0.13818058  0.37073522  1
  Ti  Ti46  1  0.12963786  0.12609871  0.62813813  1
  Ti  Ti47  1  0.87945421  0.11919099  0.87516303  1
  Ti  Ti48  1  0.86763504  0.38416533  0.37181280  1
  Ti  Ti49  1  0.89870330  0.37075510  0.89058915  1
  Ti  Ti50  1  0.12047564  0.86861876  0.13490208  1
  Ti  Ti51  1  0.62816120  0.37574559  0.87246112  1
  Ti  Ti52  1  0.62824371  0.37591688  0.11446854  1
  Ti  Ti53  1  0.38989241  0.12501415  0.61910303  1
  Ti  Ti54  1  0.63286317  0.38272965  0.38234127  1
  Ti  Ti55  1  0.12762323  0.89249942  0.61884102  1
  Ti  Ti56  1  0.88962796  0.63064269  0.87524542  1
  Ti  Ti57  1  0.62584086  0.38491571  0.61900700  1
  Ti  Ti58  1  0.12710087  0.13333369  0.37370372  1
  Ti  Ti59  1  0.61570884  0.62863345  0.13551398  1
  Ti  Ti60  1  0.63058324  0.61698419  0.38896704  1
  Ti  Ti61  1  0.37709475  0.12756726  0.37544334  1
  Ti  Ti62  1  0.86946888  0.88036252  0.61114756  1
  Ti  Ti63  1  0.37406116  0.86957250  0.38493408  1
  Ti  Ti64  1  0.63336160  0.63003532  0.87334368  1
  Ti  Ti65  1  0.37502693  0.12399809  0.88339713  1
  Ti  Ti66  1  0.13332914  0.37309383  0.86622083  1
  Ti  Ti67  1  0.13496110  0.87795984  0.86498918  1
  Ti  Ti68  1  0.13170070  0.37418338  0.38658038  1
  Ti  Ti69  1  0.62176549  0.85610885  0.37881818  1
  Ti  Ti70  1  0.38290090  0.39328244  0.62080638  1
  Ti  Ti71  1  0.62056126  0.87863926  0.86719151  1
  Ti  Ti72  1  0.11760916  0.63497791  0.86325549  1
  Ti  Ti73  1  0.13697887  0.87745692  0.38034037  1
  Bi  Bi74  1  -0.00567479  0.05261258  0.50773854  1
  Bi  Bi75  1  0.74792944  0.00367920  0.72467167  1
  Bi  Bi76  1  -0.01328853  0.50007271  0.21927244  1
  Bi  Bi77  1  0.47349517  0.74900231  0.02314226  1
  Bi  Bi78  1  0.00416081  -0.03438108  0.01082458  1
  Bi  Bi79  1  0.51728928  -0.01295491  0.27842292  1
  Bi  Bi80  1  0.00598229  0.75899142  0.28390433  1
  Bi  Bi81  1  0.50635918  0.22241258  0.01447075  1
  Bi  Bi82  1  0.50166479  0.74782494  0.72486605  1
  Bi  Bi83  1  0.22642732  0.52032984  0.51973610  1
  Bi  Bi84  1  0.75747071  0.26348015  0.72035865  1
  Bi  Bi85  1  -0.01507510  -0.00229759  0.29258232  1
  Bi  Bi86  1  0.25252390  0.73438693  0.02677466  1
  Bi  Bi87  1  0.21946755  0.72010298  0.24790423  1
  Bi  Bi88  1  0.77993051  0.24994475  0.50379534  1
  Bi  Bi89  1  0.77361531  0.75105121  0.25265309  1
  Bi  Bi90  1  0.49449462  0.25959260  0.24882050  1
  Bi  Bi91  1  0.54181039  0.00743306  0.49507825  1
  Bi  Bi92  1  0.00730359  0.46185335  0.50890679  1
  Bi  Bi93  1  0.22518700  0.25994806  0.03851940  1
  Bi  Bi94  1  0.26339716  0.24592103  0.75797640  1
  Bi  Bi95  1  0.73552013  -0.01702951  0.02626865  1
  Bi  Bi96  1  -0.00995269  0.27930922  0.27064654  1
  Bi  Bi97  1  0.23823368  0.50601031  -0.01006732  1
  Bi  Bi98  1  0.25040532  0.03537580  0.25967137  1
  Bi  Bi99  1  0.74980020  0.50922956  -0.00991618  1
  Bi  Bi100  1  0.51243316  0.48020686  0.24032840  1
  Bi  Bi101  1  0.77134721  0.49092517  0.77014183  1
  Bi  Bi102  1  0.25321909  0.00054330  0.02999916  1
  Bi  Bi103  1  0.76735064  -0.01609746  0.27247415  1
  Bi  Bi104  1  0.50068904  0.50222683  0.76251534  1
  Bi  Bi105  1  0.51032844  0.25839997  0.75217510  1
  Bi  Bi106  1  0.26194367  0.26497162  0.52219505  1
  Bi  Bi107  1  0.77985168  0.21557015  0.25196959  1
  Bi  Bi108  1  0.75705522  0.51903055  0.24324103  1
  Bi  Bi109  1  0.00052510  0.79301477  0.73375426  1
  Bi  Bi110  1  0.27458793  0.00162899  0.75806656  1
  Bi  Bi111  1  0.46894772  0.50723536  -0.01712994  1
  Bi  Bi112  1  0.22382871  0.47021098  0.21017728  1
  Bi  Bi113  1  0.25792165  0.53373407  0.75607986  1
  Bi  Bi114  1  0.75047134  0.76308998  0.74320471  1
  Bi  Bi115  1  0.50666075  -0.00719884  0.02716442  1
  Bi  Bi116  1  0.51510147  0.01983804  0.76075737  1
  Bi  Bi117  1  0.74900249  0.22110627  -0.00666662  1
  Bi  Bi118  1  0.27611824  0.00563453  0.51119882  1
  Bi  Bi119  1  0.49413083  0.27400093  0.48716042  1
  Bi  Bi120  1  0.77374024  0.51117358  0.53565836  1
  Bi  Bi121  1  0.71736982  0.75850651  -0.00049544  1
  Bi  Bi122  1  0.26153358  0.74937669  0.53641565  1
  Bi  Bi123  1  0.00282942  0.22792789  0.75877330  1
  Bi  Bi124  1  -0.00622830  0.47072522  0.72327587  1
  O  O125  1  0.14896815  0.13582295  -0.00600458  1
  O  O126  1  0.14159821  0.12419470  0.24881010  1
  O  O127  1  0.12535534  0.12054839  0.49252710  1
  O  O128  1  0.09514140  0.11179011  0.74249824  1
  O  O129  1  0.15566617  0.36697710  -0.00905910  1
  O  O130  1  0.12799241  0.38210374  0.26050246  1
  O  O131  1  0.09481385  0.34517773  0.49753381  1
  O  O132  1  0.10194702  0.38472219  0.75420163  1
  O  O133  1  0.16436347  0.63178428  -0.01498029  1
  O  O134  1  0.10681032  0.64006025  0.25060403  1
  O  O135  1  0.15161952  0.64253155  0.50592331  1
  O  O136  1  0.10932921  0.59838734  0.75442216  1
  O  O137  1  0.10113091  0.85975630  -0.02129240  1
  O  O138  1  0.11900562  0.85848295  0.24923820  1
  O  O139  1  0.12931970  0.87165867  0.49674809  1
  O  O140  1  0.10075413  0.89680605  0.74038468  1
  O  O141  1  0.36476919  0.14950950  -0.00742415  1
  O  O142  1  0.37865140  0.10790140  0.25737109  1
  O  O143  1  0.34961718  0.14222924  0.50060269  1
  O  O144  1  0.38463071  0.09783570  0.73891140  1
  O  O145  1  0.36546481  0.36454507  0.00523101  1
  O  O146  1  0.41332444  0.37801385  0.25403967  1
  O  O147  1  0.37437622  0.34428179  0.50209747  1
  O  O148  1  0.39394541  0.40363168  0.73856413  1
  O  O149  1  0.36668925  0.65299809  -0.00318385  1
  O  O150  1  0.40447278  0.62685823  0.26555920  1
  O  O151  1  0.36243870  0.65513150  0.49611915  1
  O  O152  1  0.38922390  0.59377193  0.74473286  1
  O  O153  1  0.37184011  0.84976139  -0.01600571  1
  O  O154  1  0.38859059  0.89529150  0.25368334  1
  O  O155  1  0.35146664  0.86449595  0.50042444  1
  O  O156  1  0.37923441  0.90792102  0.74841178  1
  O  O157  1  0.62977151  0.14265224  -0.00696451  1
  O  O158  1  0.60980671  0.13019852  0.25546006  1
  O  O159  1  0.65098986  0.10180004  0.49687499  1
  O  O160  1  0.58936680  0.13850910  0.74784272  1
  O  O161  1  0.63874711  0.38789226  -0.00066316  1
  O  O162  1  0.59368977  0.36955484  0.25877677  1
  O  O163  1  0.65217636  0.38583256  0.50254739  1
  O  O164  1  0.59854831  0.37658254  0.75084635  1
  O  O165  1  0.65388685  0.61499509  -0.00320686  1
  O  O166  1  0.59459585  0.64527507  0.24805507  1
  O  O167  1  0.65906318  0.61211229  0.49911188  1
  O  O168  1  0.60507454  0.64044768  0.74513586  1
  O  O169  1  0.63459153  0.88274079  -0.01352389  1
  O  O170  1  0.59395700  0.86734505  0.26127265  1
  O  O171  1  0.62918768  0.88697010  0.50195296  1
  O  O172  1  0.61615257  0.83365848  0.75316167  1
  O  O173  1  0.87334567  0.14996821  -0.00625288  1
  O  O174  1  0.85652804  0.09826710  0.23227851  1
  O  O175  1  0.85379219  0.13537420  0.50522817  1
  O  O176  1  0.90627242  0.12171896  0.75773175  1
  O  O177  1  0.84784575  0.36351640  0.00040702  1
  O  O178  1  0.88500686  0.39642939  0.24571043  1
  O  O179  1  0.88397397  0.34222274  0.48299924  1
  O  O180  1  0.88943441  0.39680512  0.77162612  1
  O  O181  1  0.84648050  0.63281507  -0.00101496  1
  O  O182  1  0.88855680  0.58865945  0.26160189  1
  O  O183  1  0.83884795  0.63780123  0.50225656  1
  O  O184  1  0.89640449  0.60890733  0.75290133  1
  O  O185  1  0.90626047  0.85811442  -0.01396214  1
  O  O186  1  0.85766177  0.88424818  0.24452704  1
  O  O187  1  0.83541064  0.84384833  0.50880942  1
  O  O188  1  0.87575612  0.86779218  0.74786023  1
  O  O189  1  -0.00517064  0.12515281  0.11211684  1
  O  O190  1  0.00575291  0.10773982  0.37349374  1
  O  O191  1  -0.00142021  0.15810743  0.59748005  1
  O  O192  1  0.00794737  0.09941947  0.88369707  1
  O  O193  1  -0.01523386  0.37702265  0.10841756  1
  O  O194  1  -0.00605924  0.38293564  0.36135445  1
  O  O195  1  -0.00080425  0.37465635  0.62395556  1
  O  O196  1  0.00733749  0.39721789  0.91506765  1
  O  O197  1  -0.01250629  0.59690811  0.11281712  1
  O  O198  1  -0.00925166  0.62724892  0.40466172  1
  O  O199  1  -0.00160480  0.66203204  0.60381541  1
  O  O200  1  0.00290092  0.62438224  0.90227507  1
  O  O201  1  0.00443403  0.88473769  0.12482297  1
  O  O202  1  -0.00620371  0.88198192  0.36757777  1
  O  O203  1  -0.01372323  0.85878520  0.60876387  1
  O  O204  1  -0.00481136  0.89633040  0.85419398  1
  O  O205  1  0.25417451  0.10193215  0.12800119  1
  O  O206  1  0.25129503  0.12993719  0.36676705  1
  O  O207  1  0.24303734  0.09779725  0.63273393  1
  O  O208  1  0.24790209  0.13452652  0.84540906  1
  O  O209  1  0.26288194  0.34407281  0.15892249  1
  O  O210  1  0.24349135  0.35148521  0.39353709  1
  O  O211  1  0.25839377  0.38843562  0.61139195  1
  O  O212  1  0.24764427  0.35799813  0.84551538  1
  O  O213  1  0.25133299  0.64173760  0.13846531  1
  O  O214  1  0.24905394  0.63070409  0.35099861  1
  O  O215  1  0.25106798  0.60103894  0.63571652  1
  O  O216  1  0.24698611  0.65053228  0.83051975  1
  O  O217  1  0.25357284  0.88434389  0.12101250  1
  O  O218  1  0.25050731  0.86003525  0.36356294  1
  O  O219  1  0.24027391  0.91141842  0.62889375  1
  O  O220  1  0.24554047  0.85371124  0.84370480  1
  O  O221  1  0.50178723  0.11278909  0.09993541  1
  O  O222  1  0.49927023  0.10322233  0.39359298  1
  O  O223  1  0.50035054  0.13840993  0.60136607  1
  O  O224  1  0.49096086  0.10088075  0.88253199  1
  O  O225  1  0.50191899  0.40859988  0.11647834  1
  O  O226  1  0.50908213  0.39341539  0.41495059  1
  O  O227  1  0.50255196  0.35226570  0.61024284  1
  O  O228  1  0.50010297  0.41514213  0.88254674  1
  O  O229  1  0.50351312  0.62023635  0.10107807  1
  O  O230  1  0.50569001  0.60540006  0.40965868  1
  O  O231  1  0.51105130  0.66466239  0.60073836  1
  O  O232  1  0.50718566  0.59746564  0.88272651  1
  O  O233  1  0.49559261  0.87629282  0.10641269  1
  O  O234  1  0.49472997  0.90671367  0.39272347  1
  O  O235  1  0.50859182  0.84869598  0.62384379  1
  O  O236  1  0.50137362  0.89342146  0.87306465  1
  O  O237  1  0.75269741  0.13419622  0.10595009  1
  O  O238  1  0.74131920  0.13563654  0.36227071  1
  O  O239  1  0.74807646  0.12696616  0.66412182  1
  O  O240  1  0.76087400  0.15167929  0.86847363  1
  O  O241  1  0.74118973  0.35953410  0.14185832  1
  O  O242  1  0.74861697  0.36627855  0.35994989  1
  O  O243  1  0.73964430  0.40043179  0.65437147  1
  O  O244  1  0.74241953  0.36543488  0.85353254  1
  O  O245  1  0.74936669  0.62811190  0.15558021  1
  O  O246  1  0.74183732  0.63444512  0.34242437  1
  O  O247  1  0.74683358  0.59623635  0.64434998  1
  O  O248  1  0.74951169  0.64219324  0.85139831  1
  O  O249  1  0.75053942  0.86797404  0.10116483  1
  O  O250  1  0.73387548  0.85304892  0.35715310  1
  O  O251  1  0.74470883  0.87942868  0.65447835  1
  O  O252  1  0.75151521  0.85540737  0.86711040  1
  O  O253  1  0.12659930  -0.01156866  0.09708958  1
  O  O254  1  0.12666146  -0.00577797  0.35623674  1
  O  O255  1  0.08836070  0.00586094  0.60848467  1
  O  O256  1  0.14061821  -0.00235400  0.87083552  1
  O  O257  1  0.11960494  0.24500153  0.12503446  1
  O  O258  1  0.11191666  0.24758400  0.35004178  1
  O  O259  1  0.14954657  0.24164547  0.63913583  1
  O  O260  1  0.11066631  0.24575807  0.85780879  1
  O  O261  1  0.13529099  0.49929154  0.10837237  1
  O  O262  1  0.12799493  0.49169617  0.40953094  1
  O  O263  1  0.11254906  0.49752010  0.59619239  1
  O  O264  1  0.15040151  0.49743148  0.88495705  1
  O  O265  1  0.13140547  0.75356074  0.11590416  1
  O  O266  1  0.09975877  0.75485023  0.38449355  1
  O  O267  1  0.13222774  0.76634909  0.62694966  1
  O  O268  1  0.09756245  0.75249264  0.85303639  1
  O  O269  1  0.38106986  -0.00715879  0.09621583  1
  O  O270  1  0.35644820  0.00077706  0.39279831  1
  O  O271  1  0.38825440  0.00553212  0.59055188  1
  O  O272  1  0.34778692  0.00100019  0.88501468  1
  O  O273  1  0.41063501  0.25298892  0.13203470  1
  O  O274  1  0.40460419  0.24451441  0.36775615  1
  O  O275  1  0.35439360  0.24355673  0.63919596  1
  O  O276  1  0.38472981  0.24408447  0.83949417  1
  O  O277  1  0.34995820  0.49239551  0.12673328  1
  O  O278  1  0.36383568  0.50283282  0.39585396  1
  O  O279  1  0.40510030  0.49846718  0.58266539  1
  O  O280  1  0.35315029  0.50671950  0.89793207  1
  O  O281  1  0.38245022  0.75646757  0.13013825  1
  O  O282  1  0.41145911  0.75812163  0.37520256  1
  O  O283  1  0.34202281  0.75316203  0.65195951  1
  O  O284  1  0.38921537  0.75918924  0.83708653  1
  O  O285  1  0.62793258  -0.00398795  0.11500970  1
  O  O286  1  0.62768785  -0.00282695  0.36942467  1
  O  O287  1  0.62299091  -0.00991967  0.65209536  1
  O  O288  1  0.63663487  -0.00598336  0.84292055  1
  O  O289  1  0.59620883  0.26103872  0.11894518  1
  O  O290  1  0.60945807  0.25437071  0.38649283  1
  O  O291  1  0.65220678  0.26242337  0.62555435  1
  O  O292  1  0.59047499  0.26216172  0.87110217  1
  O  O293  1  0.63527629  0.50215902  0.15012173  1
  O  O294  1  0.63446610  0.50100906  0.35638120  1
  O  O295  1  0.59826821  0.50574371  0.62632612  1
  O  O296  1  0.65569335  0.50367751  0.86761995  1
  O  O297  1  0.62516762  0.74497563  0.10397990  1
  O  O298  1  0.58851986  0.74340714  0.39472533  1
  O  O299  1  0.66598664  0.74685894  0.61021946  1
  O  O300  1  0.61218976  0.74536050  0.89868972  1
  O  O301  1  0.87146895  -0.00330337  0.08847819  1
  O  O302  1  0.84972435  -0.00937483  0.38044611  1
  O  O303  1  0.86187313  -0.00396166  0.61611368  1
  O  O304  1  0.85415231  0.00127011  0.88257060  1
  O  O305  1  0.88347518  0.25194985  0.14286529  1
  O  O306  1  0.87683954  0.25503741  0.34089046  1
  O  O307  1  0.85410918  0.25497612  0.62341743  1
  O  O308  1  0.90974312  0.25637540  0.86483144  1
  O  O309  1  0.85023354  0.49699387  0.12120450  1
  O  O310  1  0.85887862  0.49840294  0.40345994  1
  O  O311  1  0.89693128  0.51452791  0.60590844  1
  O  O312  1  0.85366418  0.50480056  0.89152045  1
  O  O313  1  0.88041660  0.73661581  0.14915241  1
  O  O314  1  0.87481800  0.74062085  0.35035272  1
  O  O315  1  0.84825456  0.74265547  0.63955288  1
  O  O316  1  0.89759845  0.74678183  0.86530193  1
