# generated using pymatgen
data_Mg32Ti42(Bi17O64)3
_symmetry_space_group_name_H-M   'P 1'
_cell_length_a   15.97682894
_cell_length_b   15.98690341
_cell_length_c   15.93161226
_cell_angle_alpha   89.90636482
_cell_angle_beta   90.00083706
_cell_angle_gamma   90.06550510
_symmetry_Int_Tables_number   1
_chemical_formula_structural   Mg32Ti42(Bi17O64)3
_chemical_formula_sum   'Mg32 Ti42 Bi51 O192'
_cell_volume   4069.24464676
_cell_formula_units_Z   1
loop_
 _symmetry_equiv_pos_site_id
 _symmetry_equiv_pos_as_xyz
  1  'x, y, z'
loop_
 _atom_site_type_symbol
 _atom_site_label
 _atom_site_symmetry_multiplicity
 _atom_site_fract_x
 _atom_site_fract_y
 _atom_site_fract_z
 _atom_site_occupancy
  Mg  Mg0  1  0.13683584  0.11975364  0.62294268  1
  Mg  Mg1  1  0.60124646  0.13221164  0.62172373  1
  Mg  Mg2  1  0.11883572  0.63768810  0.36762521  1
  Mg  Mg3  1  0.61983889  0.11887370  0.37718178  1
  Mg  Mg4  1  0.87365609  0.37227018  0.12898013  1
  Mg  Mg5  1  0.11574363  0.36796541  0.36955418  1
  Mg  Mg6  1  0.38359925  0.12582251  0.86509776  1
  Mg  Mg7  1  0.62125590  0.88465163  0.87636207  1
  Mg  Mg8  1  0.87169535  0.12587189  0.86917362  1
  Mg  Mg9  1  0.87989068  0.86774929  0.87855515  1
  Mg  Mg10  1  0.86786773  0.35863848  0.62420605  1
  Mg  Mg11  1  0.13449857  0.12744372  0.12086393  1
  Mg  Mg12  1  0.85343289  0.62510901  0.12872670  1
  Mg  Mg13  1  0.12755513  0.37343612  0.87608984  1
  Mg  Mg14  1  0.87182945  0.37956809  0.87808444  1
  Mg  Mg15  1  0.62644841  0.13147587  0.12076658  1
  Mg  Mg16  1  0.63114601  0.37654362  0.37548996  1
  Mg  Mg17  1  0.11922796  0.37511805  0.61886839  1
  Mg  Mg18  1  0.62723935  0.62680259  0.87311056  1
  Mg  Mg19  1  0.50200808  0.29833244  -0.03667480  1
  Mg  Mg20  1  0.30230645  -0.01556476  0.71452627  1
  Mg  Mg21  1  -0.01347073  0.68556442  0.76527827  1
  Mg  Mg22  1  0.28343821  0.20077354  -0.01753347  1
  Mg  Mg23  1  0.74053109  0.18559262  0.71983375  1
  Mg  Mg24  1  0.50272884  0.08044814  0.00201243  1
  Mg  Mg25  1  0.01053506  0.03755819  0.53240048  1
  Mg  Mg26  1  -0.05097223  0.72999910  0.23315696  1
  Mg  Mg27  1  0.43657811  0.27198124  0.69448749  1
  Mg  Mg28  1  0.73894122  0.72314850  0.29298756  1
  Mg  Mg29  1  0.70172963  0.76711052  -0.03285947  1
  Mg  Mg30  1  0.05127201  0.21036174  0.25144302  1
  Mg  Mg31  1  0.44849036  -0.04475887  0.54761525  1
  Ti  Ti32  1  0.63670788  0.35865260  0.63192605  1
  Ti  Ti33  1  0.36825966  0.36385108  0.87888524  1
  Ti  Ti34  1  0.13309197  0.36266230  0.13010974  1
  Ti  Ti35  1  0.11737094  0.62220090  0.87292677  1
  Ti  Ti36  1  0.36655927  0.88799485  0.87487978  1
  Ti  Ti37  1  0.12082559  0.87440403  0.36553614  1
  Ti  Ti38  1  0.11330032  0.87532587  0.86889975  1
  Ti  Ti39  1  0.63634313  0.86601922  0.11880336  1
  Ti  Ti40  1  0.61350155  0.37036559  0.12122407  1
  Ti  Ti41  1  0.63696296  0.63492790  0.63542586  1
  Ti  Ti42  1  0.63652073  0.87359876  0.36848737  1
  Ti  Ti43  1  0.38633811  0.11196602  0.38650983  1
  Ti  Ti44  1  0.88047259  0.62932754  0.61520419  1
  Ti  Ti45  1  0.89217526  0.86914562  0.37038384  1
  Ti  Ti46  1  0.13654048  0.11367414  0.37426365  1
  Ti  Ti47  1  0.86698144  0.87092101  0.13031144  1
  Ti  Ti48  1  0.86383077  0.62842207  0.89052213  1
  Ti  Ti49  1  0.37712650  0.12785596  0.12095843  1
  Ti  Ti50  1  0.38959826  0.63644776  0.62984243  1
  Ti  Ti51  1  0.12379774  0.62880756  0.12770925  1
  Ti  Ti52  1  0.87247484  0.13875828  0.12755573  1
  Ti  Ti53  1  0.12187224  0.88142196  0.63520902  1
  Ti  Ti54  1  0.12544559  0.62251303  0.63056482  1
  Ti  Ti55  1  0.62061083  0.60762341  0.12641634  1
  Ti  Ti56  1  0.62321504  0.13893748  0.86301352  1
  Ti  Ti57  1  0.62147403  0.88229911  0.62877818  1
  Ti  Ti58  1  0.37912688  0.60657445  0.12523887  1
  Ti  Ti59  1  0.62406559  0.61976088  0.38395158  1
  Ti  Ti60  1  0.37140471  0.62281666  0.86842455  1
  Ti  Ti61  1  0.88692485  0.88106575  0.61494220  1
  Ti  Ti62  1  0.38601002  0.12253156  0.61742066  1
  Ti  Ti63  1  0.37728405  0.63345572  0.36980879  1
  Ti  Ti64  1  0.87645548  0.10535806  0.36773853  1
  Ti  Ti65  1  0.88434060  0.62919013  0.36704048  1
  Ti  Ti66  1  0.13771115  0.11725126  0.88140203  1
  Ti  Ti67  1  0.87718831  0.12717956  0.62279972  1
  Ti  Ti68  1  0.38253369  0.87527065  0.36927495  1
  Ti  Ti69  1  0.62939943  0.37751764  0.86757047  1
  Ti  Ti70  1  0.36695574  0.35823916  0.11221542  1
  Ti  Ti71  1  0.38031834  0.87701781  0.11395934  1
  Ti  Ti72  1  0.87469673  0.36320815  0.37209914  1
  Ti  Ti73  1  0.11907682  0.87341231  0.12414852  1
  Bi  Bi74  1  0.76656912  0.76741211  0.49764762  1
  Bi  Bi75  1  0.50627300  0.50556802  -0.03273703  1
  Bi  Bi76  1  0.52823320  0.76421881  0.50677622  1
  Bi  Bi77  1  0.73056593  0.00908380  -0.01021853  1
  Bi  Bi78  1  0.76402067  0.48478607  0.23427312  1
  Bi  Bi79  1  0.02411057  0.74233046  0.50957363  1
  Bi  Bi80  1  0.49488553  0.24090498  0.25054022  1
  Bi  Bi81  1  0.00949873  0.01185059  0.22383848  1
  Bi  Bi82  1  0.50945688  -0.02695492  0.22758152  1
  Bi  Bi83  1  0.03787237  0.25216639  0.73314111  1
  Bi  Bi84  1  0.25464736  0.77009947  0.49838630  1
  Bi  Bi85  1  0.23259282  0.50044905  0.28799099  1
  Bi  Bi86  1  0.28092326  0.51540413  0.49904862  1
  Bi  Bi87  1  0.75527930  0.48535009  -0.00134675  1
  Bi  Bi88  1  -0.03720377  -0.00008135  -0.01226257  1
  Bi  Bi89  1  0.27481062  0.26992438  0.29430475  1
  Bi  Bi90  1  0.00260168  0.02820145  0.73782314  1
  Bi  Bi91  1  0.02666553  0.49406297  0.48865366  1
  Bi  Bi92  1  0.52448757  0.49956641  0.50635385  1
  Bi  Bi93  1  0.23580735  -0.00971592  0.00849081  1
  Bi  Bi94  1  0.00708977  0.47755093  0.24309475  1
  Bi  Bi95  1  0.72638275  0.25474705  0.24622730  1
  Bi  Bi96  1  0.46912056  0.45810246  0.26984865  1
  Bi  Bi97  1  0.00147418  0.47224476  0.00979915  1
  Bi  Bi98  1  0.76070668  -0.02924100  0.76436150  1
  Bi  Bi99  1  0.26549593  0.77103999  0.73388825  1
  Bi  Bi100  1  0.78611915  0.48694255  0.49336925  1
  Bi  Bi101  1  0.48147189  0.28231786  0.47828621  1
  Bi  Bi102  1  0.71494185  0.01183162  0.51818191  1
  Bi  Bi103  1  0.51737315  0.73424601  0.25869868  1
  Bi  Bi104  1  -0.02527837  0.74430408  0.02449570  1
  Bi  Bi105  1  0.49636885  0.76703840  0.78543284  1
  Bi  Bi106  1  0.25638952  0.21134236  0.73749637  1
  Bi  Bi107  1  0.25908722  0.73654713  0.21993535  1
  Bi  Bi108  1  0.27058429  0.30349183  0.51326607  1
  Bi  Bi109  1  0.22621168  0.74718503  -0.01831375  1
  Bi  Bi110  1  0.50486605  0.47462006  0.73251800  1
  Bi  Bi111  1  0.27663915  0.47136049  0.72138926  1
  Bi  Bi112  1  0.78471959  0.75235903  0.75869092  1
  Bi  Bi113  1  0.00488937  0.22828461  0.46497189  1
  Bi  Bi114  1  0.74054188  0.23108264  0.47950418  1
  Bi  Bi115  1  0.24046055  -0.01642772  0.48114129  1
  Bi  Bi116  1  0.50098575  0.72930469  0.01089631  1
  Bi  Bi117  1  0.00492891  0.24448626  -0.03439725  1
  Bi  Bi118  1  0.73329100  0.02218027  0.23582629  1
  Bi  Bi119  1  0.50553667  0.00251664  0.76869320  1
  Bi  Bi120  1  0.23934912  0.48597202  -0.01846052  1
  Bi  Bi121  1  0.77727551  0.49892175  0.73406200  1
  Bi  Bi122  1  0.26777740  0.00530342  0.23697080  1
  Bi  Bi123  1  0.76294079  0.24239508  -0.02141060  1
  Bi  Bi124  1  -0.00377164  0.46434202  0.73236347  1
  O  O125  1  0.16022809  0.14265916  -0.00166354  1
  O  O126  1  0.12707037  0.10220674  0.25485454  1
  O  O127  1  0.09941463  0.12671969  0.49551925  1
  O  O128  1  0.11580170  0.12002194  0.75919657  1
  O  O129  1  0.12536795  0.39811454  0.01047720  1
  O  O130  1  0.13235982  0.39555535  0.24332780  1
  O  O131  1  0.10228513  0.38102719  0.49419879  1
  O  O132  1  0.11249688  0.37940081  0.75154505  1
  O  O133  1  0.13069095  0.63259431  0.00226565  1
  O  O134  1  0.15984693  0.64037286  0.24571931  1
  O  O135  1  0.09952417  0.61878014  0.50372860  1
  O  O136  1  0.11635126  0.64272468  0.75080956  1
  O  O137  1  0.14815484  0.87936870  0.00377183  1
  O  O138  1  0.11606785  0.88199771  0.25091483  1
  O  O139  1  0.15743675  0.87844180  0.51335996  1
  O  O140  1  0.10020540  0.86891227  0.75354182  1
  O  O141  1  0.37501845  0.10421757  0.00116923  1
  O  O142  1  0.37649530  0.16046321  0.24795009  1
  O  O143  1  0.38815674  0.07977544  0.50217451  1
  O  O144  1  0.38867063  0.16445095  0.74506752  1
  O  O145  1  0.40331922  0.38554908  0.00433270  1
  O  O146  1  0.37858715  0.34530769  0.24136395  1
  O  O147  1  0.38632224  0.37592448  0.50527715  1
  O  O148  1  0.36222181  0.36195372  0.75991763  1
  O  O149  1  0.40104023  0.61598496  0.00729879  1
  O  O150  1  0.36437733  0.64471729  0.25093064  1
  O  O151  1  0.38360310  0.61035497  0.50555699  1
  O  O152  1  0.36426391  0.64748866  0.75274641  1
  O  O153  1  0.36105576  0.90429667  -0.00359018  1
  O  O154  1  0.39048968  0.86422937  0.24958391  1
  O  O155  1  0.34960224  0.89340840  0.49296137  1
  O  O156  1  0.37759665  0.84507966  0.75697479  1
  O  O157  1  0.62897626  0.11068470  -0.00614275  1
  O  O158  1  0.64490278  0.13080402  0.25115641  1
  O  O159  1  0.63901642  0.13191028  0.50279427  1
  O  O160  1  0.62430704  0.12423975  0.74723677  1
  O  O161  1  0.59580774  0.37544702  0.00501079  1
  O  O162  1  0.64574510  0.36990276  0.24750214  1
  O  O163  1  0.59510685  0.37394006  0.51137475  1
  O  O164  1  0.65029811  0.38994500  0.75468675  1
  O  O165  1  0.59302784  0.61924283  0.00562026  1
  O  O166  1  0.63345429  0.65315275  0.24555947  1
  O  O167  1  0.60150065  0.62092819  0.50038787  1
  O  O168  1  0.64792460  0.63351281  0.74795494  1
  O  O169  1  0.65215990  0.88966605  0.00209731  1
  O  O170  1  0.60220547  0.85823210  0.24526831  1
  O  O171  1  0.64061928  0.86258324  0.48945607  1
  O  O172  1  0.61337557  0.88782002  0.74417181  1
  O  O173  1  0.87691304  0.11565664  0.01042557  1
  O  O174  1  0.84796740  0.12378919  0.25495910  1
  O  O175  1  0.91489043  0.11931862  0.49994643  1
  O  O176  1  0.87909127  0.10468389  0.74572033  1
  O  O177  1  0.87375158  0.41206614  0.00725252  1
  O  O178  1  0.83856787  0.36771243  0.25570175  1
  O  O179  1  0.88933097  0.39450231  0.49466293  1
  O  O180  1  0.86366282  0.39341107  0.75277860  1
  O  O181  1  0.89090375  0.62180998  0.00276742  1
  O  O182  1  0.84290832  0.66153421  0.25752811  1
  O  O183  1  0.89270624  0.61786884  0.49749370  1
  O  O184  1  0.86376590  0.62887712  0.74511578  1
  O  O185  1  0.87829234  0.87254617  0.00999268  1
  O  O186  1  0.90274702  0.84785784  0.25467168  1
  O  O187  1  0.84728873  0.88198587  0.49846849  1
  O  O188  1  0.86775164  0.87568300  0.73857678  1
  O  O189  1  -0.00791492  0.13702820  0.15893968  1
  O  O190  1  -0.00615208  0.14423937  0.35286313  1
  O  O191  1  0.00170348  0.13105608  0.64073043  1
  O  O192  1  0.00622131  0.11259105  0.89737443  1
  O  O193  1  0.00427103  0.38467447  0.12805397  1
  O  O194  1  -0.01117329  0.36801690  0.34295329  1
  O  O195  1  -0.00824886  0.35997012  0.64365231  1
  O  O196  1  -0.00056624  0.38052886  0.90237472  1
  O  O197  1  0.01245431  0.66540746  0.13950150  1
  O  O198  1  -0.00827348  0.65119145  0.33441447  1
  O  O199  1  -0.00734039  0.66180765  0.63716859  1
  O  O200  1  0.00243070  0.61063251  0.86721645  1
  O  O201  1  0.00849654  0.84918242  0.11609414  1
  O  O202  1  0.00291551  0.86634672  0.39786269  1
  O  O203  1  -0.00129113  0.84876383  0.60523253  1
  O  O204  1  0.00400753  0.89847116  0.88997408  1
  O  O205  1  0.25774812  0.09714962  0.13200065  1
  O  O206  1  0.25090391  0.10542127  0.37895316  1
  O  O207  1  0.25996586  0.09378409  0.65625239  1
  O  O208  1  0.25541325  0.14522092  0.86759199  1
  O  O209  1  0.25362615  0.38842979  0.11529957  1
  O  O210  1  0.24467262  0.38450647  0.37231362  1
  O  O211  1  0.24140722  0.40384567  0.61158167  1
  O  O212  1  0.25426209  0.36862680  0.90415261  1
  O  O213  1  0.26312141  0.62866415  0.11926647  1
  O  O214  1  0.25201785  0.60708143  0.39310465  1
  O  O215  1  0.23796758  0.58839528  0.61933557  1
  O  O216  1  0.25474513  0.64655159  0.88518697  1
  O  O217  1  0.25453927  0.90809898  0.13417390  1
  O  O218  1  0.24547639  0.89736892  0.36897866  1
  O  O219  1  0.23631225  0.89197269  0.66404692  1
  O  O220  1  0.25312609  0.85349534  0.86931564  1
  O  O221  1  0.49708769  0.13302973  0.11652063  1
  O  O222  1  0.49583508  0.14338467  0.37292484  1
  O  O223  1  0.48693503  0.17616020  0.61409898  1
  O  O224  1  0.50661560  0.09618227  0.87775350  1
  O  O225  1  0.49758097  0.34473832  0.14228790  1
  O  O226  1  0.50545328  0.34446879  0.35592816  1
  O  O227  1  0.51629336  0.35955244  0.66119582  1
  O  O228  1  0.49959740  0.38958817  0.86626726  1
  O  O229  1  0.49633720  0.65084299  0.14218886  1
  O  O230  1  0.49371790  0.63386791  0.36151330  1
  O  O231  1  0.49801883  0.65980691  0.63576460  1
  O  O232  1  0.49476934  0.60169018  0.86150976  1
  O  O233  1  0.50091217  0.88149840  0.11478840  1
  O  O234  1  0.49333689  0.87266281  0.40104834  1
  O  O235  1  0.50518691  0.85938900  0.60270613  1
  O  O236  1  0.49385291  0.89311405  0.86224391  1
  O  O237  1  0.75564681  0.09879819  0.12188510  1
  O  O238  1  0.76552323  0.11332947  0.40746090  1
  O  O239  1  0.76186489  0.09124658  0.62572532  1
  O  O240  1  0.74581443  0.16500163  0.85616265  1
  O  O241  1  0.73930079  0.40758491  0.11448398  1
  O  O242  1  0.75284185  0.38857804  0.40425969  1
  O  O243  1  0.74555879  0.40595170  0.60845577  1
  O  O244  1  0.74221481  0.36257350  0.90911829  1
  O  O245  1  0.73453815  0.59152883  0.11487713  1
  O  O246  1  0.73833873  0.63290337  0.38772085  1
  O  O247  1  0.74782627  0.61402578  0.60884447  1
  O  O248  1  0.75290571  0.66946235  0.90132711  1
  O  O249  1  0.75271665  0.88474796  0.14618060  1
  O  O250  1  0.74564896  0.84279173  0.34873214  1
  O  O251  1  0.74261542  0.90456747  0.63014935  1
  O  O252  1  0.74952803  0.85530285  0.85903455  1
  O  O253  1  0.09878970  -0.00203163  0.11623786  1
  O  O254  1  0.11312740  -0.00272817  0.39738469  1
  O  O255  1  0.09451348  -0.00545408  0.62187350  1
  O  O256  1  0.14719032  -0.00111405  0.88564958  1
  O  O257  1  0.12510837  0.25231585  0.15133355  1
  O  O258  1  0.12384724  0.23949976  0.35898902  1
  O  O259  1  0.13839304  0.24677191  0.63926339  1
  O  O260  1  0.10397386  0.24660436  0.87078843  1
  O  O261  1  0.10579297  0.51797182  0.13497733  1
  O  O262  1  0.10858246  0.50799986  0.36331704  1
  O  O263  1  0.08169613  0.50821643  0.62571073  1
  O  O264  1  0.14823302  0.50948101  0.87752237  1
  O  O265  1  0.15859432  0.76014659  0.12123349  1
  O  O266  1  0.13496275  0.76063120  0.39572821  1
  O  O267  1  0.13912206  0.74624250  0.60255037  1
  O  O268  1  0.11487111  0.75534416  0.89283173  1
  O  O269  1  0.38903325  0.00530863  0.15474023  1
  O  O270  1  0.38351932  0.00169205  0.34637310  1
  O  O271  1  0.40833717  0.01061444  0.65304684  1
  O  O272  1  0.36214276  -0.00366857  0.82864803  1
  O  O273  1  0.34450093  0.24445919  0.09177307  1
  O  O274  1  0.35310865  0.23379764  0.40475819  1
  O  O275  1  0.33822304  0.23909667  0.61250596  1
  O  O276  1  0.39031077  0.25381000  0.90836443  1
  O  O277  1  0.38851592  0.49548843  0.14811503  1
  O  O278  1  0.37532695  0.50818066  0.35590072  1
  O  O279  1  0.39096228  0.51110912  0.65267452  1
  O  O280  1  0.35415186  0.50318196  0.87893124  1
  O  O281  1  0.36161940  0.76570827  0.10809998  1
  O  O282  1  0.36075700  0.75346036  0.38662343  1
  O  O283  1  0.33509451  0.74025278  0.61459924  1
  O  O284  1  0.40643940  0.74733376  0.89185478  1
  O  O285  1  0.62150376  -0.00413060  0.14362435  1
  O  O286  1  0.63473228  -0.01026396  0.36119549  1
  O  O287  1  0.59670894  -0.00258458  0.59980125  1
  O  O288  1  0.65906581  0.00776876  0.86866950  1
  O  O289  1  0.64964323  0.25644890  0.12319377  1
  O  O290  1  0.65690414  0.24875631  0.37444861  1
  O  O291  1  0.66281632  0.25114205  0.63945790  1
  O  O292  1  0.59860802  0.25304385  0.88754511  1
  O  O293  1  0.59052478  0.49912348  0.13886661  1
  O  O294  1  0.59994444  0.50262199  0.38002794  1
  O  O295  1  0.59403587  0.51196880  0.62790160  1
  O  O296  1  0.63372195  0.49524511  0.88981267  1
  O  O297  1  0.63958207  0.75456644  0.08940271  1
  O  O298  1  0.61014538  0.74565829  0.37522573  1
  O  O299  1  0.63678422  0.75387006  0.61124225  1
  O  O300  1  0.59574327  0.75518768  0.89476255  1
  O  O301  1  0.90015298  -0.01159696  0.13664741  1
  O  O302  1  0.88298378  -0.00895968  0.35994019  1
  O  O303  1  0.91622063  -0.00576596  0.61644607  1
  O  O304  1  0.85684940  -0.00161284  0.88970746  1
  O  O305  1  0.85414684  0.24923430  0.11160926  1
  O  O306  1  0.86517671  0.25006924  0.39307125  1
  O  O307  1  0.84428711  0.23505566  0.63455649  1
  O  O308  1  0.88243350  0.25198370  0.90227485  1
  O  O309  1  0.88156019  0.50551051  0.16303147  1
  O  O310  1  0.87409790  0.51126395  0.35935014  1
  O  O311  1  0.88538772  0.51031822  0.63354007  1
  O  O312  1  0.83751144  0.51536960  0.86971444  1
  O  O313  1  0.87430831  0.74976147  0.11859259  1
  O  O314  1  0.87199002  0.75170763  0.40223327  1
  O  O315  1  0.84800935  0.75353779  0.61637227  1
  O  O316  1  0.89931212  0.74413704  0.84859027  1
