# generated using pymatgen
data_Mg32Ti42(Bi17O64)3
_symmetry_space_group_name_H-M   'P 1'
_cell_length_a   15.92931086
_cell_length_b   15.98625292
_cell_length_c   15.95950186
_cell_angle_alpha   90.01163208
_cell_angle_beta   89.92360306
_cell_angle_gamma   89.99478255
_symmetry_Int_Tables_number   1
_chemical_formula_structural   Mg32Ti42(Bi17O64)3
_chemical_formula_sum   'Mg32 Ti42 Bi51 O192'
_cell_volume   4064.08331247
_cell_formula_units_Z   1
loop_
 _symmetry_equiv_pos_site_id
 _symmetry_equiv_pos_as_xyz
  1  'x, y, z'
loop_
 _atom_site_type_symbol
 _atom_site_label
 _atom_site_symmetry_multiplicity
 _atom_site_fract_x
 _atom_site_fract_y
 _atom_site_fract_z
 _atom_site_occupancy
  Mg  Mg0  1  0.12210732  0.38315086  0.11780359  1
  Mg  Mg1  1  0.61855759  0.86961030  0.12395466  1
  Mg  Mg2  1  0.37175151  0.13395237  0.62496978  1
  Mg  Mg3  1  0.36579551  0.86922494  0.37187524  1
  Mg  Mg4  1  0.88992532  0.87498249  0.36938543  1
  Mg  Mg5  1  0.87721959  0.87257586  0.88169968  1
  Mg  Mg6  1  0.38007891  0.87224235  0.62791552  1
  Mg  Mg7  1  0.61899426  0.11991228  0.38348204  1
  Mg  Mg8  1  0.88096763  0.12312899  0.37346413  1
  Mg  Mg9  1  0.13021114  0.62433125  0.88162271  1
  Mg  Mg10  1  0.12152429  0.36719991  0.36490824  1
  Mg  Mg11  1  0.37408400  0.87650274  0.88446717  1
  Mg  Mg12  1  0.11408681  0.88089376  0.86729054  1
  Mg  Mg13  1  0.36546787  0.12241788  0.87743527  1
  Mg  Mg14  1  0.36796282  0.62764224  0.62412155  1
  Mg  Mg15  1  0.62807359  0.87321501  0.88598943  1
  Mg  Mg16  1  0.12763422  0.10920131  0.12077193  1
  Mg  Mg17  1  0.87594242  0.38045818  0.87438473  1
  Mg  Mg18  1  0.37954949  0.37019204  0.62946298  1
  Mg  Mg19  1  0.27477027  0.77421978  0.52934559  1
  Mg  Mg20  1  -0.00901019  0.19267968  0.01176324  1
  Mg  Mg21  1  0.04443743  0.24981695  0.20328355  1
  Mg  Mg22  1  0.01598966  0.19051799  0.70482509  1
  Mg  Mg23  1  0.73139154  0.75468254  0.00738230  1
  Mg  Mg24  1  0.01084751  -0.03907709  0.01273513  1
  Mg  Mg25  1  0.76506551  0.76445534  0.46367225  1
  Mg  Mg26  1  0.24776806  0.74742094  -0.01216522  1
  Mg  Mg27  1  0.23998815  -0.00837699  -0.06643440  1
  Mg  Mg28  1  0.48624487  0.17454174  0.75945736  1
  Mg  Mg29  1  0.22968178  0.06412912  0.53219276  1
  Mg  Mg30  1  0.45496155  0.01317445  -0.02529283  1
  Mg  Mg31  1  0.23715465  0.78015899  0.23712774  1
  Ti  Ti32  1  0.13384652  0.62945373  0.37503478  1
  Ti  Ti33  1  0.86626192  0.63489212  0.37690975  1
  Ti  Ti34  1  0.62301066  0.37982559  0.63353341  1
  Ti  Ti35  1  0.36793395  0.37745123  0.37764963  1
  Ti  Ti36  1  0.87119304  0.35997885  0.36766471  1
  Ti  Ti37  1  0.36527198  0.62462777  0.37749512  1
  Ti  Ti38  1  0.86737861  0.86092773  0.62831573  1
  Ti  Ti39  1  0.10920377  0.11247151  0.88538301  1
  Ti  Ti40  1  0.62485451  0.63805356  0.62866411  1
  Ti  Ti41  1  0.36237021  0.13561685  0.38465278  1
  Ti  Ti42  1  0.87878118  0.11298834  0.12728318  1
  Ti  Ti43  1  0.13945923  0.87185936  0.61537399  1
  Ti  Ti44  1  0.61614890  0.11240225  0.12113541  1
  Ti  Ti45  1  0.39054423  0.34892145  0.86409937  1
  Ti  Ti46  1  0.86833840  0.12072583  0.62382218  1
  Ti  Ti47  1  0.62426076  0.12452807  0.88468071  1
  Ti  Ti48  1  0.86817092  0.63018755  0.89436368  1
  Ti  Ti49  1  0.36866983  0.87631647  0.12076635  1
  Ti  Ti50  1  0.62158164  0.62781428  0.88929097  1
  Ti  Ti51  1  0.12455728  0.62545585  0.11832557  1
  Ti  Ti52  1  0.62489826  0.88211060  0.38537571  1
  Ti  Ti53  1  0.36386770  0.10602634  0.11250457  1
  Ti  Ti54  1  0.62766313  0.11914118  0.63295355  1
  Ti  Ti55  1  0.37372945  0.62941154  0.88622649  1
  Ti  Ti56  1  0.11451609  0.36993698  0.88018108  1
  Ti  Ti57  1  0.62654461  0.87617800  0.62171651  1
  Ti  Ti58  1  0.63262140  0.63388677  0.13243761  1
  Ti  Ti59  1  0.62847322  0.38588325  0.38038356  1
  Ti  Ti60  1  0.62693465  0.36821397  0.13226994  1
  Ti  Ti61  1  0.62167166  0.37699626  0.88737229  1
  Ti  Ti62  1  0.11981093  0.14629249  0.35684660  1
  Ti  Ti63  1  0.62094568  0.62854534  0.37977464  1
  Ti  Ti64  1  0.88148932  0.62585905  0.12917810  1
  Ti  Ti65  1  0.87850813  0.12648508  0.86683907  1
  Ti  Ti66  1  0.14034452  0.86358818  0.38639970  1
  Ti  Ti67  1  0.13583576  0.87292509  0.12065528  1
  Ti  Ti68  1  0.87808938  0.85472497  0.12456204  1
  Ti  Ti69  1  0.87342916  0.62082689  0.63011869  1
  Ti  Ti70  1  0.36067461  0.64026995  0.13645166  1
  Ti  Ti71  1  0.13556001  0.64155098  0.61511480  1
  Ti  Ti72  1  0.87493196  0.37913557  0.63985180  1
  Ti  Ti73  1  0.88533494  0.36471187  0.13159933  1
  Bi  Bi74  1  -0.00180267  0.73514720  0.50317430  1
  Bi  Bi75  1  0.74280432  0.25540375  0.52230218  1
  Bi  Bi76  1  0.00123700  -0.02275463  0.71259028  1
  Bi  Bi77  1  -0.00327432  0.50570521  -0.01718911  1
  Bi  Bi78  1  0.52016323  0.24460154  0.52834456  1
  Bi  Bi79  1  0.77308123  0.24913316  0.00664091  1
  Bi  Bi80  1  0.23166781  0.49370723  0.23876885  1
  Bi  Bi81  1  0.47898000  0.02011688  0.26739760  1
  Bi  Bi82  1  0.73509431  0.22458854  0.26618813  1
  Bi  Bi83  1  0.72373093  0.50325812  0.76750757  1
  Bi  Bi84  1  0.22958327  0.47312162  0.51777941  1
  Bi  Bi85  1  0.00882096  0.49946009  0.27323398  1
  Bi  Bi86  1  0.24312875  0.76075396  0.78145742  1
  Bi  Bi87  1  0.50292526  0.26634566  0.28165415  1
  Bi  Bi88  1  0.21770737  0.26606713  0.55877625  1
  Bi  Bi89  1  0.48304034  0.75038076  0.00634470  1
  Bi  Bi90  1  0.22273824  0.23047235  0.00539601  1
  Bi  Bi91  1  0.51280001  -0.02308708  0.78136146  1
  Bi  Bi92  1  0.77825447  -0.01958322  0.48700119  1
  Bi  Bi93  1  0.49810158  0.49988601  0.02979723  1
  Bi  Bi94  1  0.00281799  -0.00444693  0.22716557  1
  Bi  Bi95  1  0.73101786  0.76726770  0.26095255  1
  Bi  Bi96  1  0.24081220  0.00683272  0.27806298  1
  Bi  Bi97  1  0.47750463  0.49639703  0.24704259  1
  Bi  Bi98  1  0.47937665  0.75658504  0.74614788  1
  Bi  Bi99  1  0.46393447  0.26050383  0.03231549  1
  Bi  Bi100  1  0.76400218  0.48910924  0.02280072  1
  Bi  Bi101  1  0.02220670  0.76442648  0.26135487  1
  Bi  Bi102  1  0.25422603  0.46261433  -0.01356961  1
  Bi  Bi103  1  0.75511694  -0.00398079  0.77687671  1
  Bi  Bi104  1  0.00369877  0.72113427  0.75411869  1
  Bi  Bi105  1  0.74067261  0.25518989  0.77832809  1
  Bi  Bi106  1  0.21198428  0.21298778  0.75256799  1
  Bi  Bi107  1  0.76566932  0.50273993  0.25448692  1
  Bi  Bi108  1  -0.00914386  0.48870221  0.48734803  1
  Bi  Bi109  1  0.74730856  0.01668231  0.25392773  1
  Bi  Bi110  1  0.48168266  0.51424087  0.73403140  1
  Bi  Bi111  1  0.47545722  0.75333117  0.49141518  1
  Bi  Bi112  1  0.27176361  0.28074085  0.21805460  1
  Bi  Bi113  1  0.49138374  0.77568610  0.24915328  1
  Bi  Bi114  1  0.47076841  0.50047963  0.51036541  1
  Bi  Bi115  1  0.02889914  0.48396910  0.70709677  1
  Bi  Bi116  1  0.02569919  0.76072885  -0.01139823  1
  Bi  Bi117  1  0.28462504  0.00399870  0.72863578  1
  Bi  Bi118  1  0.74386690  0.52714518  0.51430145  1
  Bi  Bi119  1  0.74641779  -0.03183471  0.02622692  1
  Bi  Bi120  1  0.74810647  0.75278921  0.77489430  1
  Bi  Bi121  1  -0.02443595  0.25444104  0.52035450  1
  Bi  Bi122  1  0.03548146  0.02897637  0.49155157  1
  Bi  Bi123  1  0.25345630  0.46611741  0.75270883  1
  Bi  Bi124  1  0.45434419  -0.01333246  0.50451272  1
  O  O125  1  0.10874849  0.15520028  0.00264341  1
  O  O126  1  0.12841804  0.09066023  0.24747476  1
  O  O127  1  0.13571887  0.13371211  0.47992644  1
  O  O128  1  0.10484439  0.12037834  0.76708972  1
  O  O129  1  0.15370217  0.35819719  -0.00267292  1
  O  O130  1  0.11421111  0.41324815  0.24443310  1
  O  O131  1  0.14971835  0.36900898  0.48724741  1
  O  O132  1  0.12464843  0.40569155  0.76274521  1
  O  O133  1  0.14471205  0.66428610  0.00909542  1
  O  O134  1  0.11082836  0.59946104  0.24950107  1
  O  O135  1  0.12118379  0.65703098  0.48997057  1
  O  O136  1  0.10523375  0.62063897  0.73589597  1
  O  O137  1  0.14846933  0.83736495  0.00703617  1
  O  O138  1  0.09550000  0.88652623  0.24245548  1
  O  O139  1  0.16560561  0.83063361  0.49426311  1
  O  O140  1  0.11083707  0.89901005  0.73382429  1
  O  O141  1  0.39719388  0.13165962  0.00053601  1
  O  O142  1  0.36388457  0.09089134  0.23625993  1
  O  O143  1  0.34699028  0.12127747  0.49659930  1
  O  O144  1  0.38382117  0.09481228  0.75208224  1
  O  O145  1  0.36179667  0.33767367  -0.01832430  1
  O  O146  1  0.40453262  0.37523503  0.25578098  1
  O  O147  1  0.36236357  0.39478137  0.49491661  1
  O  O148  1  0.38683860  0.40612585  0.75650771  1
  O  O149  1  0.36430668  0.66558399  0.01104749  1
  O  O150  1  0.39071931  0.61880218  0.25709710  1
  O  O151  1  0.38157082  0.60657579  0.49643146  1
  O  O152  1  0.39056565  0.61388498  0.76154595  1
  O  O153  1  0.35067272  0.83434894  0.01185270  1
  O  O154  1  0.40843393  0.88905192  0.24819229  1
  O  O155  1  0.37340490  0.86674512  0.49940927  1
  O  O156  1  0.40953789  0.88354895  0.75040749  1
  O  O157  1  0.63401736  0.12969079  -0.00126241  1
  O  O158  1  0.63649046  0.11650297  0.24395470  1
  O  O159  1  0.62182839  0.14357661  0.50765204  1
  O  O160  1  0.61036054  0.14209113  0.74770279  1
  O  O161  1  0.64895711  0.38383773  -0.00131354  1
  O  O162  1  0.60021187  0.37951712  0.24614690  1
  O  O163  1  0.64421786  0.36839583  0.49325367  1
  O  O164  1  0.61633450  0.38816290  0.74703190  1
  O  O165  1  0.65055662  0.63051372  -0.00135228  1
  O  O166  1  0.62267041  0.64564681  0.24928376  1
  O  O167  1  0.63870992  0.62159093  0.49909359  1
  O  O168  1  0.62017984  0.62260523  0.74769156  1
  O  O169  1  0.66131691  0.86553009  0.00446862  1
  O  O170  1  0.61228751  0.85412828  0.25539564  1
  O  O171  1  0.66116667  0.87098037  0.50165949  1
  O  O172  1  0.59502981  0.86954802  0.74509354  1
  O  O173  1  0.87203429  0.15126545  0.00333046  1
  O  O174  1  0.87463791  0.08777004  0.24460774  1
  O  O175  1  0.86682815  0.16148626  0.50581270  1
  O  O176  1  0.90049328  0.12743705  0.74680816  1
  O  O177  1  0.84955481  0.36590883  0.00967696  1
  O  O178  1  0.88025334  0.40460006  0.24627806  1
  O  O179  1  0.86502904  0.34230662  0.49041042  1
  O  O180  1  0.89264509  0.40368670  0.74720923  1
  O  O181  1  0.84249008  0.65774557  0.00245200  1
  O  O182  1  0.88085607  0.60184749  0.24489655  1
  O  O183  1  0.84299560  0.65608284  0.49153772  1
  O  O184  1  0.90021574  0.60909266  0.73949160  1
  O  O185  1  0.83693583  0.85326872  0.00903754  1
  O  O186  1  0.91443504  0.88543297  0.24114217  1
  O  O187  1  0.84287583  0.85812068  0.50589204  1
  O  O188  1  0.90594349  0.88721489  0.74445260  1
  O  O189  1  -0.00401810  0.15691548  0.13377795  1
  O  O190  1  0.00871532  0.11710702  0.37642944  1
  O  O191  1  -0.00690923  0.11996067  0.60185014  1
  O  O192  1  -0.00860487  0.13844582  0.89446604  1
  O  O193  1  -0.00188488  0.34378513  0.12708436  1
  O  O194  1  -0.00900914  0.38216870  0.38302277  1
  O  O195  1  -0.00708940  0.39380508  0.60143064  1
  O  O196  1  0.00299462  0.38735696  0.89983096  1
  O  O197  1  -0.00176789  0.63932162  0.11005674  1
  O  O198  1  -0.00846525  0.65558614  0.38134598  1
  O  O199  1  -0.01285899  0.61810521  0.58688435  1
  O  O200  1  -0.00448201  0.62184138  0.89527672  1
  O  O201  1  -0.00156254  0.85195809  0.09268982  1
  O  O202  1  0.01707023  0.84030659  0.38710274  1
  O  O203  1  -0.00716542  0.89989229  0.59998724  1
  O  O204  1  -0.00281353  0.87844691  0.91757186  1
  O  O205  1  0.25243912  0.10210968  0.09394507  1
  O  O206  1  0.24778123  0.12406640  0.35632594  1
  O  O207  1  0.24393531  0.10923195  0.65086539  1
  O  O208  1  0.23447762  0.11976223  0.88709263  1
  O  O209  1  0.25297176  0.39362152  0.14554187  1
  O  O210  1  0.25615623  0.39004933  0.34416625  1
  O  O211  1  0.24910911  0.39336654  0.62892893  1
  O  O212  1  0.26285514  0.38119157  0.86159303  1
  O  O213  1  0.25048990  0.61409482  0.14072082  1
  O  O214  1  0.24915934  0.60254719  0.37241920  1
  O  O215  1  0.24615304  0.66615554  0.60940422  1
  O  O216  1  0.25479664  0.66322137  0.88042511  1
  O  O217  1  0.24866653  0.88849883  0.15097270  1
  O  O218  1  0.24825730  0.86419246  0.33262661  1
  O  O219  1  0.25020324  0.84898123  0.63802621  1
  O  O220  1  0.24384918  0.87351861  0.86122481  1
  O  O221  1  0.50424413  0.12269656  0.13539462  1
  O  O222  1  0.48736993  0.13435493  0.36179114  1
  O  O223  1  0.49902643  0.14601776  0.62668186  1
  O  O224  1  0.50921912  0.10618081  0.87548738  1
  O  O225  1  0.50816391  0.37810523  0.09638092  1
  O  O226  1  0.50492110  0.35309355  0.38909829  1
  O  O227  1  0.50669947  0.37441799  0.60442292  1
  O  O228  1  0.50306150  0.37730362  0.89304053  1
  O  O229  1  0.50825739  0.65844265  0.10585894  1
  O  O230  1  0.50669563  0.65118419  0.38471850  1
  O  O231  1  0.51130421  0.60414892  0.61875398  1
  O  O232  1  0.50264027  0.63318869  0.89938007  1
  O  O233  1  0.49236865  0.83786681  0.11703380  1
  O  O234  1  0.50644301  0.84227484  0.38724434  1
  O  O235  1  0.51303307  0.88749994  0.59068068  1
  O  O236  1  0.50219236  0.90975700  0.90470067  1
  O  O237  1  0.75897648  0.10237067  0.12971039  1
  O  O238  1  0.75038244  0.11697438  0.36121080  1
  O  O239  1  0.75070578  0.15004120  0.63347022  1
  O  O240  1  0.74916420  0.12957836  0.84610765  1
  O  O241  1  0.74368594  0.40591547  0.13848351  1
  O  O242  1  0.74963501  0.38822005  0.35682035  1
  O  O243  1  0.75702763  0.35355582  0.62941095  1
  O  O244  1  0.74531985  0.38710347  0.84979602  1
  O  O245  1  0.75162024  0.59240542  0.13647051  1
  O  O246  1  0.74935035  0.60416026  0.35862017  1
  O  O247  1  0.75104141  0.62283758  0.62863008  1
  O  O248  1  0.75546467  0.61545683  0.85156057  1
  O  O249  1  0.76779548  0.90335809  0.14965733  1
  O  O250  1  0.74586407  0.89633358  0.35630935  1
  O  O251  1  0.75245841  0.86644707  0.65623514  1
  O  O252  1  0.75356981  0.87383135  0.84184998  1
  O  O253  1  0.09623868  -0.01458291  0.10401866  1
  O  O254  1  0.14014761  -0.01984675  0.38901478  1
  O  O255  1  0.14648103  -0.01948453  0.57714446  1
  O  O256  1  0.11589452  0.00061261  0.91550171  1
  O  O257  1  0.15728773  0.24961513  0.13887786  1
  O  O258  1  0.10624351  0.25099142  0.31640409  1
  O  O259  1  0.12146045  0.25152748  0.65674991  1
  O  O260  1  0.12949730  0.25659565  0.86543329  1
  O  O261  1  0.12336575  0.51151053  0.09796094  1
  O  O262  1  0.09861681  0.51214210  0.38833871  1
  O  O263  1  0.12869708  0.52161792  0.60513049  1
  O  O264  1  0.14556338  0.50010187  0.90518990  1
  O  O265  1  0.13677861  0.75221327  0.15996667  1
  O  O266  1  0.14371998  0.74174251  0.33273007  1
  O  O267  1  0.08773787  0.75439811  0.63117138  1
  O  O268  1  0.11200793  0.75321640  0.84687573  1
  O  O269  1  0.39765143  -0.01377866  0.09116386  1
  O  O270  1  0.38233011  0.00135066  0.37560805  1
  O  O271  1  0.36154847  -0.00229106  0.60912776  1
  O  O272  1  0.35587129  -0.00237875  0.90074085  1
  O  O273  1  0.36953329  0.23215624  0.13059472  1
  O  O274  1  0.36918103  0.25264437  0.36718587  1
  O  O275  1  0.34264880  0.25350449  0.63241999  1
  O  O276  1  0.40143834  0.24256623  0.83266920  1
  O  O277  1  0.40167745  0.52182361  0.12418802  1
  O  O278  1  0.40232379  0.49824584  0.37059481  1
  O  O279  1  0.38904286  0.50162936  0.62777003  1
  O  O280  1  0.36222994  0.51764771  0.90436869  1
  O  O281  1  0.34799158  0.75415803  0.17132136  1
  O  O282  1  0.35824695  0.73883282  0.40459420  1
  O  O283  1  0.40038225  0.74828270  0.63110155  1
  O  O284  1  0.38425232  0.75442885  0.84933502  1
  O  O285  1  0.62471333  -0.00302430  0.11269196  1
  O  O286  1  0.59753800  -0.00809300  0.38273537  1
  O  O287  1  0.63740179  0.00435637  0.63270160  1
  O  O288  1  0.64409592  0.00428419  0.86185958  1
  O  O289  1  0.63788595  0.25380548  0.13061358  1
  O  O290  1  0.63290859  0.25350477  0.35576671  1
  O  O291  1  0.62459149  0.25838418  0.61728872  1
  O  O292  1  0.63793385  0.25563362  0.87551519  1
  O  O293  1  0.59860070  0.51272142  0.12093011  1
  O  O294  1  0.60929912  0.50223238  0.37348129  1
  O  O295  1  0.64900435  0.49484368  0.61624846  1
  O  O296  1  0.62649481  0.50433582  0.86969478  1
  O  O297  1  0.66788880  0.74629661  0.11938794  1
  O  O298  1  0.66362266  0.74626090  0.38527818  1
  O  O299  1  0.61619201  0.75200491  0.62310033  1
  O  O300  1  0.64974785  0.74562624  0.87829496  1
  O  O301  1  0.91543554  0.00469866  0.09524074  1
  O  O302  1  0.88763762  -0.00353921  0.40915920  1
  O  O303  1  0.85407849  0.00666858  0.61242105  1
  O  O304  1  0.85695865  0.01029706  0.87737877  1
  O  O305  1  0.84702020  0.25494106  0.13508939  1
  O  O306  1  0.86551171  0.25154844  0.34143506  1
  O  O307  1  0.91075780  0.25862164  0.64207891  1
  O  O308  1  0.84696949  0.25265280  0.87290226  1
  O  O309  1  0.89015614  0.50318746  0.09536310  1
  O  O310  1  0.88570971  0.51165533  0.39523246  1
  O  O311  1  0.86254080  0.50019725  0.59829263  1
  O  O312  1  0.87470696  0.50786540  0.91249852  1
  O  O313  1  0.86136998  0.74525127  0.15036209  1
  O  O314  1  0.84595883  0.75282337  0.35799683  1
  O  O315  1  0.88718650  0.74847581  0.63781160  1
  O  O316  1  0.87182942  0.74359683  0.84943725  1
