# generated using pymatgen
data_Mg32Ti42(Bi17O64)3
_symmetry_space_group_name_H-M   'P 1'
_cell_length_a   15.94416437
_cell_length_b   15.95813413
_cell_length_c   15.93760739
_cell_angle_alpha   89.98851819
_cell_angle_beta   89.96834030
_cell_angle_gamma   89.96082529
_symmetry_Int_Tables_number   1
_chemical_formula_structural   Mg32Ti42(Bi17O64)3
_chemical_formula_sum   'Mg32 Ti42 Bi51 O192'
_cell_volume   4055.14904921
_cell_formula_units_Z   1
loop_
 _symmetry_equiv_pos_site_id
 _symmetry_equiv_pos_as_xyz
  1  'x, y, z'
loop_
 _atom_site_type_symbol
 _atom_site_label
 _atom_site_symmetry_multiplicity
 _atom_site_fract_x
 _atom_site_fract_y
 _atom_site_fract_z
 _atom_site_occupancy
  Mg  Mg0  1  0.12438366  0.37536170  0.36927967  1
  Mg  Mg1  1  0.37441600  0.37757149  0.11528406  1
  Mg  Mg2  1  0.61612475  0.13135668  0.38145217  1
  Mg  Mg3  1  0.61746035  0.63249661  0.62438723  1
  Mg  Mg4  1  0.63191332  0.88095272  0.12270848  1
  Mg  Mg5  1  0.12703607  0.37177615  0.87656500  1
  Mg  Mg6  1  0.87004637  0.12634183  0.11817461  1
  Mg  Mg7  1  0.61568943  0.36309230  0.62612217  1
  Mg  Mg8  1  0.62746497  0.12434730  0.87386759  1
  Mg  Mg9  1  0.38009739  0.12634140  0.12180331  1
  Mg  Mg10  1  0.87421057  0.61970152  0.62448373  1
  Mg  Mg11  1  0.62462556  0.37234050  0.11611933  1
  Mg  Mg12  1  0.12549591  0.87923310  0.12643496  1
  Mg  Mg13  1  0.11701877  0.61918138  0.87341705  1
  Mg  Mg14  1  0.87320677  0.61951598  0.37220440  1
  Mg  Mg15  1  0.37508379  0.86639224  0.38139070  1
  Mg  Mg16  1  0.86993817  0.88152019  0.62330238  1
  Mg  Mg17  1  0.10971031  0.13372052  0.84876759  1
  Mg  Mg18  1  0.37641716  0.88404385  0.86755880  1
  Mg  Mg19  1  0.80446350  0.23334325  0.24135896  1
  Mg  Mg20  1  0.53498737  0.49809612  0.53991476  1
  Mg  Mg21  1  0.49254388  -0.03968493  0.48208564  1
  Mg  Mg22  1  0.72253996  0.68515678  0.26233362  1
  Mg  Mg23  1  0.05083205  0.25813343  0.26519066  1
  Mg  Mg24  1  0.19412516  0.28024473  0.69185104  1
  Mg  Mg25  1  0.49964091  0.22618223  0.74827313  1
  Mg  Mg26  1  0.01927116  0.29971410  0.71693721  1
  Mg  Mg27  1  0.17325206  0.47777889  0.73973276  1
  Mg  Mg28  1  0.01300889  -0.05381177  0.70043751  1
  Mg  Mg29  1  0.21068674  0.77924602  0.56623400  1
  Mg  Mg30  1  0.49475507  0.28247152  0.47058315  1
  Mg  Mg31  1  0.72619470  0.03546559  0.00549921  1
  Ti  Ti32  1  0.37868936  0.38252443  0.37613206  1
  Ti  Ti33  1  0.62184720  0.37633588  0.87319535  1
  Ti  Ti34  1  0.37128766  0.13225402  0.86323434  1
  Ti  Ti35  1  0.37026847  0.62139388  0.60639981  1
  Ti  Ti36  1  0.86656003  0.62290355  0.87994997  1
  Ti  Ti37  1  0.38174236  0.88102569  0.12094403  1
  Ti  Ti38  1  0.62709994  0.87707445  0.61455217  1
  Ti  Ti39  1  0.62491923  0.62354183  0.11751017  1
  Ti  Ti40  1  0.11849369  0.12995382  0.63161834  1
  Ti  Ti41  1  0.61479865  0.60367266  0.37927379  1
  Ti  Ti42  1  0.87737292  0.36719220  0.86826641  1
  Ti  Ti43  1  0.63619111  0.86061733  0.37269379  1
  Ti  Ti44  1  0.87729999  0.37014786  0.12571869  1
  Ti  Ti45  1  0.87072865  0.87628510  0.37466113  1
  Ti  Ti46  1  0.37463782  0.62480971  0.13295380  1
  Ti  Ti47  1  0.88161317  0.12821210  0.64860877  1
  Ti  Ti48  1  0.62084010  0.36978650  0.37158614  1
  Ti  Ti49  1  0.36784516  0.62711213  0.37511622  1
  Ti  Ti50  1  0.63224748  0.61491570  0.86709809  1
  Ti  Ti51  1  0.88006132  0.12520089  0.87326742  1
  Ti  Ti52  1  0.11973808  0.62676660  0.62611237  1
  Ti  Ti53  1  0.87731320  0.89522112  0.87292398  1
  Ti  Ti54  1  0.12842755  0.11711926  0.38170199  1
  Ti  Ti55  1  0.87631978  0.12846463  0.37508999  1
  Ti  Ti56  1  0.13701936  0.62802708  0.12006169  1
  Ti  Ti57  1  0.62757178  0.13567858  0.12581435  1
  Ti  Ti58  1  0.38067245  0.86462215  0.62099817  1
  Ti  Ti59  1  0.38688777  0.35635774  0.62588669  1
  Ti  Ti60  1  0.87221906  0.87795191  0.14022460  1
  Ti  Ti61  1  0.64006960  0.88843892  0.87933058  1
  Ti  Ti62  1  0.12761246  0.12349055  0.13594292  1
  Ti  Ti63  1  0.36458770  0.13051302  0.63298099  1
  Ti  Ti64  1  0.11075212  0.86345500  0.87906023  1
  Ti  Ti65  1  0.13160603  0.88303777  0.37295859  1
  Ti  Ti66  1  0.88470857  0.37103967  0.36959069  1
  Ti  Ti67  1  0.12637213  0.62571395  0.38384157  1
  Ti  Ti68  1  0.60565111  0.12451753  0.61824111  1
  Ti  Ti69  1  0.37031367  0.36272034  0.86855858  1
  Ti  Ti70  1  0.86753628  0.36568441  0.61385984  1
  Ti  Ti71  1  0.13158460  0.37752311  0.12626113  1
  Ti  Ti72  1  0.38900353  0.14138416  0.38351900  1
  Ti  Ti73  1  0.86652065  0.62300890  0.13532090  1
  Bi  Bi74  1  0.77077703  0.73185038  0.50333655  1
  Bi  Bi75  1  0.50094543  -0.01113564  0.73954873  1
  Bi  Bi76  1  0.01845257  0.75308372  0.27692606  1
  Bi  Bi77  1  0.74139681  0.01320055  0.48042334  1
  Bi  Bi78  1  0.72362899  0.50552398  0.72309784  1
  Bi  Bi79  1  0.45438073  0.50210644  0.73807034  1
  Bi  Bi80  1  0.47825618  0.00297711  -0.02023214  1
  Bi  Bi81  1  0.25396871  0.71110809  0.75799144  1
  Bi  Bi82  1  0.75514664  0.49051004  0.00952277  1
  Bi  Bi83  1  0.48253869  0.74259443  0.76335209  1
  Bi  Bi84  1  0.00507640  0.51037501  0.00357012  1
  Bi  Bi85  1  0.49340251  0.74017196  0.48064521  1
  Bi  Bi86  1  0.23090109  0.24175518  0.49681773  1
  Bi  Bi87  1  0.51043942  0.48835264  0.22327855  1
  Bi  Bi88  1  0.71853090  0.25772983  0.75502673  1
  Bi  Bi89  1  0.47639714  0.50050988  -0.02892455  1
  Bi  Bi90  1  -0.01039915  0.02682965  0.24122488  1
  Bi  Bi91  1  0.73702357  0.01747814  0.23638949  1
  Bi  Bi92  1  0.75075278  0.75272181  0.72270050  1
  Bi  Bi93  1  0.51919668  0.73753795  -0.02293834  1
  Bi  Bi94  1  0.72731396  0.00757324  0.73281070  1
  Bi  Bi95  1  0.29644910  0.74430926  -0.01915913  1
  Bi  Bi96  1  0.51265376  -0.00374630  0.27815924  1
  Bi  Bi97  1  0.74020309  0.51451437  0.48883734  1
  Bi  Bi98  1  0.26302443  0.78691064  0.24193878  1
  Bi  Bi99  1  -0.01484966  0.74600039  0.76720442  1
  Bi  Bi100  1  0.00245117  0.24599417  0.50733665  1
  Bi  Bi101  1  -0.03115888  0.00551851  0.50673944  1
  Bi  Bi102  1  0.76136819  0.47624151  0.24629067  1
  Bi  Bi103  1  0.25390262  0.52585536  -0.03960523  1
  Bi  Bi104  1  0.72867149  0.26405534  0.48181464  1
  Bi  Bi105  1  -0.00120482  0.75118553  0.02899513  1
  Bi  Bi106  1  0.02554059  0.48036598  0.53296324  1
  Bi  Bi107  1  0.28426173  0.00749427  0.49246583  1
  Bi  Bi108  1  0.48916948  0.23761163  -0.01638375  1
  Bi  Bi109  1  0.50111228  0.24945762  0.22196377  1
  Bi  Bi110  1  0.01864975  0.01900167  0.01166241  1
  Bi  Bi111  1  0.76323549  0.23739264  -0.01572708  1
  Bi  Bi112  1  0.51590366  0.75798089  0.22672339  1
  Bi  Bi113  1  0.01206506  0.27012360  -0.00310976  1
  Bi  Bi114  1  0.25479315  0.49418647  0.27639669  1
  Bi  Bi115  1  0.02131799  0.77997400  0.51440609  1
  Bi  Bi116  1  0.21784656  -0.04181073  0.74335803  1
  Bi  Bi117  1  0.01512113  0.52479400  0.25199133  1
  Bi  Bi118  1  -0.04066731  0.50081784  0.75381792  1
  Bi  Bi119  1  0.28425660  0.01701974  0.24599493  1
  Bi  Bi120  1  0.24208787  0.46531556  0.52549888  1
  Bi  Bi121  1  0.76356133  0.78123315  0.00543499  1
  Bi  Bi122  1  0.26902641  0.26714581  0.23576891  1
  Bi  Bi123  1  0.23293546  -0.00558694  -0.03063796  1
  Bi  Bi124  1  0.23348156  0.23563978  -0.01994574  1
  O  O125  1  0.14352042  0.09878646  0.01214334  1
  O  O126  1  0.09204735  0.13768737  0.25841574  1
  O  O127  1  0.15953351  0.11367535  0.50256589  1
  O  O128  1  0.09944821  0.18678442  0.73266973  1
  O  O129  1  0.11090727  0.38088372  0.00910217  1
  O  O130  1  0.13584798  0.34852474  0.24653739  1
  O  O131  1  0.12561986  0.39903479  0.49078232  1
  O  O132  1  0.12401867  0.36378077  0.75108453  1
  O  O133  1  0.12053937  0.59392698  0.00227394  1
  O  O134  1  0.10547395  0.63614566  0.23580405  1
  O  O135  1  0.12393261  0.61665010  0.49736166  1
  O  O136  1  0.14850035  0.61419781  0.74371279  1
  O  O137  1  0.13821794  0.89677983  -0.00428347  1
  O  O138  1  0.11757612  0.85287675  0.25316874  1
  O  O139  1  0.14083207  0.84883132  0.48898538  1
  O  O140  1  0.10565909  0.87994155  0.75929950  1
  O  O141  1  0.37267836  0.15628554  -0.00650673  1
  O  O142  1  0.39312299  0.11204282  0.26686323  1
  O  O143  1  0.34491645  0.13673733  0.50531017  1
  O  O144  1  0.40695173  0.12645181  0.74906116  1
  O  O145  1  0.40251188  0.35792924  -0.01069969  1
  O  O146  1  0.34933649  0.37877806  0.25310624  1
  O  O147  1  0.39475347  0.36036810  0.49722728  1
  O  O148  1  0.38002410  0.38137013  0.74728511  1
  O  O149  1  0.37140394  0.63342326  0.00904719  1
  O  O150  1  0.37573138  0.64113997  0.25319425  1
  O  O151  1  0.36424018  0.60084884  0.49365594  1
  O  O152  1  0.37497380  0.64985513  0.73950370  1
  O  O153  1  0.37222685  0.88724407  0.00321908  1
  O  O154  1  0.38482848  0.86198893  0.25392798  1
  O  O155  1  0.37425382  0.89310940  0.50649001  1
  O  O156  1  0.41088925  0.86805749  0.74300961  1
  O  O157  1  0.65089027  0.14263882  0.00874201  1
  O  O158  1  0.60701378  0.09327327  0.25376308  1
  O  O159  1  0.65219230  0.14175423  0.50804989  1
  O  O160  1  0.61211952  0.09128292  0.74728360  1
  O  O161  1  0.62555851  0.36093767  -0.01161587  1
  O  O162  1  0.62758180  0.40853989  0.26076486  1
  O  O163  1  0.60320411  0.33687970  0.50095256  1
  O  O164  1  0.64444548  0.38776087  0.74886342  1
  O  O165  1  0.63402508  0.64835160  0.00421807  1
  O  O166  1  0.61883549  0.59603635  0.25958198  1
  O  O167  1  0.64446230  0.63589872  0.49655870  1
  O  O168  1  0.61103549  0.60207680  0.75410045  1
  O  O169  1  0.63435175  0.85149839  -0.00545669  1
  O  O170  1  0.60763160  0.89181576  0.25777421  1
  O  O171  1  0.64398613  0.86205879  0.50154427  1
  O  O172  1  0.61534415  0.90854216  0.75357897  1
  O  O173  1  0.82929209  0.10997249  -0.00113025  1
  O  O174  1  0.90039263  0.14085586  0.25804801  1
  O  O175  1  0.85656573  0.09839293  0.50097258  1
  O  O176  1  0.90480252  0.14396110  0.76065364  1
  O  O177  1  0.86200461  0.39729962  0.00613916  1
  O  O178  1  0.84064571  0.35580921  0.25185872  1
  O  O179  1  0.88150864  0.37339219  0.49537510  1
  O  O180  1  0.90135411  0.35042104  0.75510696  1
  O  O181  1  0.86113112  0.59084594  -0.00407508  1
  O  O182  1  0.85154221  0.65355337  0.24491290  1
  O  O183  1  0.84818515  0.61638745  0.49943892  1
  O  O184  1  0.89451181  0.62871248  0.75454691  1
  O  O185  1  0.85504012  0.88220045  -0.01011615  1
  O  O186  1  0.88254281  0.85897340  0.25307113  1
  O  O187  1  0.85745440  0.91204895  0.49485657  1
  O  O188  1  0.91204513  0.86438123  0.75316505  1
  O  O189  1  -0.00451720  0.11504468  0.10890495  1
  O  O190  1  -0.00312317  0.13817960  0.40854353  1
  O  O191  1  0.00779884  0.12912215  0.58857628  1
  O  O192  1  -0.00667042  0.11345798  0.91041286  1
  O  O193  1  -0.00870514  0.36482818  0.13426999  1
  O  O194  1  -0.00667436  0.33910755  0.35002425  1
  O  O195  1  -0.00550161  0.38614280  0.62367281  1
  O  O196  1  -0.00735690  0.38179937  0.89756998  1
  O  O197  1  -0.01059888  0.62523377  0.10722943  1
  O  O198  1  0.00132526  0.62884954  0.36136229  1
  O  O199  1  0.00481607  0.59890476  0.62717088  1
  O  O200  1  -0.00581256  0.58326790  0.88224796  1
  O  O201  1  -0.00843164  0.86348291  0.11020579  1
  O  O202  1  -0.00100681  0.85360588  0.38569656  1
  O  O203  1  -0.00461191  0.88348950  0.59328860  1
  O  O204  1  -0.00181400  0.89360138  0.89637463  1
  O  O205  1  0.24694252  0.11853253  0.15623577  1
  O  O206  1  0.24342738  0.10015858  0.35856052  1
  O  O207  1  0.25436112  0.16725712  0.64909432  1
  O  O208  1  0.25807985  0.15367213  0.86818581  1
  O  O209  1  0.24651688  0.36255541  0.11708824  1
  O  O210  1  0.25382506  0.40230636  0.38583378  1
  O  O211  1  0.26675721  0.35550700  0.61261387  1
  O  O212  1  0.26111829  0.33906666  0.88601343  1
  O  O213  1  0.24971152  0.61250156  0.13060351  1
  O  O214  1  0.24831472  0.60914716  0.36301026  1
  O  O215  1  0.25193066  0.66789787  0.61551346  1
  O  O216  1  0.24575158  0.64676774  0.88809249  1
  O  O217  1  0.25494299  0.88750098  0.14890199  1
  O  O218  1  0.24877620  0.88725765  0.35684042  1
  O  O219  1  0.26691929  0.85474186  0.64465327  1
  O  O220  1  0.24526538  0.86758567  0.86000578  1
  O  O221  1  0.50831398  0.14237366  0.11530968  1
  O  O222  1  0.49455094  0.17295243  0.40751573  1
  O  O223  1  0.49860687  0.09831935  0.60469144  1
  O  O224  1  0.50388161  0.11228566  0.90022261  1
  O  O225  1  0.49997383  0.36745711  0.14983740  1
  O  O226  1  0.49575033  0.35411730  0.36141293  1
  O  O227  1  0.49389525  0.41612742  0.62798203  1
  O  O228  1  0.50909587  0.41345709  0.86337758  1
  O  O229  1  0.49911658  0.65420145  0.12988372  1
  O  O230  1  0.50101583  0.63934448  0.38164857  1
  O  O231  1  0.49380473  0.60155231  0.60623641  1
  O  O232  1  0.51291658  0.61350250  0.89688298  1
  O  O233  1  0.50104844  0.85169826  0.12295433  1
  O  O234  1  0.50782041  0.85333272  0.40055304  1
  O  O235  1  0.50893142  0.91105383  0.60655961  1
  O  O236  1  0.51131916  0.91864713  0.88069257  1
  O  O237  1  0.75011633  0.13701316  0.17312423  1
  O  O238  1  0.75403789  0.09561155  0.36314116  1
  O  O239  1  0.76679479  0.12906509  0.65730309  1
  O  O240  1  0.75278385  0.15925447  0.86079304  1
  O  O241  1  0.74514268  0.40659660  0.12394807  1
  O  O242  1  0.73814859  0.39429823  0.39812223  1
  O  O243  1  0.75316568  0.34271182  0.61644840  1
  O  O244  1  0.75404720  0.34482744  0.86994981  1
  O  O245  1  0.74344029  0.59914605  0.12791359  1
  O  O246  1  0.74015705  0.59711272  0.36664745  1
  O  O247  1  0.74485179  0.63253344  0.64731668  1
  O  O248  1  0.75140882  0.64443684  0.86419019  1
  O  O249  1  0.75672583  0.85920558  0.12213625  1
  O  O250  1  0.74779981  0.90250637  0.36758389  1
  O  O251  1  0.74707277  0.87827006  0.65290276  1
  O  O252  1  0.75440827  0.85555940  0.85691038  1
  O  O253  1  0.10724160  0.00377288  0.14425997  1
  O  O254  1  0.10273802  -0.00360919  0.37163668  1
  O  O255  1  0.11455689  0.01914932  0.66443130  1
  O  O256  1  0.14969272  0.01144529  0.86091279  1
  O  O257  1  0.11698089  0.24040996  0.11669551  1
  O  O258  1  0.13537435  0.23996918  0.38769958  1
  O  O259  1  0.12196124  0.25255845  0.58659705  1
  O  O260  1  0.11446948  0.24514716  0.90757199  1
  O  O261  1  0.11328300  0.49414273  0.14463869  1
  O  O262  1  0.11841810  0.50305290  0.34267382  1
  O  O263  1  0.14396945  0.50354069  0.61953307  1
  O  O264  1  0.16489059  0.49380677  0.86353975  1
  O  O265  1  0.12473644  0.74323315  0.09894309  1
  O  O266  1  0.12768755  0.74075014  0.36581756  1
  O  O267  1  0.10431263  0.74277165  0.62456524  1
  O  O268  1  0.09365950  0.74900679  0.87410321  1
  O  O269  1  0.38757575  -0.00114302  0.13746209  1
  O  O270  1  0.39805294  0.01318705  0.40290687  1
  O  O271  1  0.34431923  0.01423464  0.62450291  1
  O  O272  1  0.36875315  0.01318084  0.88374453  1
  O  O273  1  0.37795411  0.24919468  0.14936349  1
  O  O274  1  0.34603809  0.25245879  0.36539851  1
  O  O275  1  0.41764368  0.24926986  0.63803870  1
  O  O276  1  0.42073754  0.25108552  0.85499211  1
  O  O277  1  0.39407871  0.50856563  0.12627834  1
  O  O278  1  0.38398671  0.49979570  0.35589029  1
  O  O279  1  0.34640441  0.51347725  0.64414477  1
  O  O280  1  0.36606174  0.48953857  0.88225137  1
  O  O281  1  0.35063207  0.75526499  0.12179605  1
  O  O282  1  0.37410617  0.74124074  0.40386991  1
  O  O283  1  0.40660822  0.75402230  0.60445988  1
  O  O284  1  0.40644194  0.76195694  0.88328963  1
  O  O285  1  0.65730211  0.00865598  0.11056550  1
  O  O286  1  0.58430235  0.00128602  0.39890385  1
  O  O287  1  0.65453222  0.00455187  0.61318520  1
  O  O288  1  0.66512630  -0.00062580  0.90216324  1
  O  O289  1  0.62705456  0.25004356  0.15244170  1
  O  O290  1  0.64835081  0.25624248  0.36139539  1
  O  O291  1  0.59798894  0.23633466  0.66183831  1
  O  O292  1  0.60184807  0.25489925  0.84170973  1
  O  O293  1  0.59132271  0.50771333  0.11182215  1
  O  O294  1  0.59730163  0.49460678  0.42303722  1
  O  O295  1  0.64637540  0.49455445  0.60596426  1
  O  O296  1  0.65357356  0.50145310  0.88632171  1
  O  O297  1  0.64213313  0.73462333  0.16798154  1
  O  O298  1  0.65198126  0.74970422  0.35312625  1
  O  O299  1  0.62266011  0.76218351  0.64949795  1
  O  O300  1  0.59614164  0.75250932  0.86134578  1
  O  O301  1  0.87062706  -0.00494657  0.15014179  1
  O  O302  1  0.90169472  0.00111197  0.36024666  1
  O  O303  1  0.90750473  0.00954385  0.64443500  1
  O  O304  1  0.86041364  0.00536457  0.85847985  1
  O  O305  1  0.85457418  0.25600148  0.11728122  1
  O  O306  1  0.84231489  0.24322964  0.37553338  1
  O  O307  1  0.90402970  0.24717440  0.61735624  1
  O  O308  1  0.88804971  0.24812221  0.90891265  1
  O  O309  1  0.88009188  0.50254990  0.15495912  1
  O  O310  1  0.88808149  0.48547556  0.35285845  1
  O  O311  1  0.85674425  0.48583323  0.64674109  1
  O  O312  1  0.85525172  0.48975607  0.84823406  1
  O  O313  1  0.87235475  0.74171124  0.09516220  1
  O  O314  1  0.85748340  0.76044514  0.39867848  1
  O  O315  1  0.85714664  0.75214716  0.61689793  1
  O  O316  1  0.90215240  0.73725907  0.88129072  1
