# generated using pymatgen
data_Mg32Ti42(Bi17O64)3
_symmetry_space_group_name_H-M   'P 1'
_cell_length_a   15.92741816
_cell_length_b   15.94159833
_cell_length_c   15.95213809
_cell_angle_alpha   90.05571686
_cell_angle_beta   90.04487911
_cell_angle_gamma   90.01353009
_symmetry_Int_Tables_number   1
_chemical_formula_structural   Mg32Ti42(Bi17O64)3
_chemical_formula_sum   'Mg32 Ti42 Bi51 O192'
_cell_volume   4050.38022832
_cell_formula_units_Z   1
loop_
 _symmetry_equiv_pos_site_id
 _symmetry_equiv_pos_as_xyz
  1  'x, y, z'
loop_
 _atom_site_type_symbol
 _atom_site_label
 _atom_site_symmetry_multiplicity
 _atom_site_fract_x
 _atom_site_fract_y
 _atom_site_fract_z
 _atom_site_occupancy
  Mg  Mg0  1  0.12638116  0.87657517  0.36995571  1
  Mg  Mg1  1  0.36194471  0.11374815  0.62731729  1
  Mg  Mg2  1  0.37297781  0.88663514  0.12582602  1
  Mg  Mg3  1  0.87475519  0.87575768  0.12112567  1
  Mg  Mg4  1  0.36378890  0.87406447  0.86297606  1
  Mg  Mg5  1  0.12782958  0.37615358  0.12311660  1
  Mg  Mg6  1  0.38372310  0.62568997  0.12112836  1
  Mg  Mg7  1  0.87011953  0.13183628  0.87490515  1
  Mg  Mg8  1  0.36784122  0.63462809  0.62373706  1
  Mg  Mg9  1  0.37647914  0.87405884  0.37983403  1
  Mg  Mg10  1  0.62606578  0.87099360  0.87022897  1
  Mg  Mg11  1  0.37201965  0.37175248  0.37073290  1
  Mg  Mg12  1  0.37392805  0.62792944  0.37517440  1
  Mg  Mg13  1  0.13756953  0.12244078  0.37253261  1
  Mg  Mg14  1  0.62975260  0.12869049  0.61953384  1
  Mg  Mg15  1  0.11733560  0.88305309  0.87864542  1
  Mg  Mg16  1  0.13358777  0.12469282  0.12745021  1
  Mg  Mg17  1  0.88199210  0.38748829  0.38158530  1
  Mg  Mg18  1  0.63585276  0.63943376  0.63739497  1
  Mg  Mg19  1  0.22022997  0.74768865  0.78876997  1
  Mg  Mg20  1  0.24218364  -0.03475251  0.73455380  1
  Mg  Mg21  1  0.79556199  0.25952244  0.47506096  1
  Mg  Mg22  1  0.69348055  0.46256481  0.18430143  1
  Mg  Mg23  1  0.26971519  0.29678892  0.55725418  1
  Mg  Mg24  1  -0.03988281  0.01659583  -0.01185992  1
  Mg  Mg25  1  0.51289188  0.66985850  0.49637803  1
  Mg  Mg26  1  0.49925346  -0.00934196  -0.05837284  1
  Mg  Mg27  1  0.50121575  0.54748639  0.70078872  1
  Mg  Mg28  1  0.29540971  -0.01211019  0.27810648  1
  Mg  Mg29  1  0.76258181  0.77479878  0.74960001  1
  Mg  Mg30  1  -0.02053992  0.53795185  0.49462800  1
  Mg  Mg31  1  0.53736694  0.43517985  0.03540423  1
  Ti  Ti32  1  0.37800019  0.12733569  0.37578205  1
  Ti  Ti33  1  0.37500005  0.12701089  0.87266809  1
  Ti  Ti34  1  0.61699392  0.62161967  0.11369370  1
  Ti  Ti35  1  0.87611956  0.88804980  0.62488987  1
  Ti  Ti36  1  0.87947634  0.12254250  0.36025466  1
  Ti  Ti37  1  0.62842779  0.85979323  0.12729459  1
  Ti  Ti38  1  0.12044356  0.62156857  0.13381930  1
  Ti  Ti39  1  0.61047573  0.62698855  0.87066665  1
  Ti  Ti40  1  0.62814597  0.87084919  0.38893518  1
  Ti  Ti41  1  0.61976637  0.87490423  0.63404166  1
  Ti  Ti42  1  0.87994895  0.63240916  0.62436658  1
  Ti  Ti43  1  0.12852439  0.63167123  0.62252023  1
  Ti  Ti44  1  0.12089387  0.62455058  0.88594407  1
  Ti  Ti45  1  0.87637979  0.86422907  0.37727919  1
  Ti  Ti46  1  0.87113021  0.62965767  0.12360079  1
  Ti  Ti47  1  0.37501944  0.37944671  0.12590664  1
  Ti  Ti48  1  0.63969334  0.37017334  0.62963521  1
  Ti  Ti49  1  0.38157243  0.38991123  0.88555092  1
  Ti  Ti50  1  0.87655397  0.37563378  0.13481980  1
  Ti  Ti51  1  0.61885638  0.11309685  0.13399408  1
  Ti  Ti52  1  0.37614084  0.11694460  0.13496770  1
  Ti  Ti53  1  0.36910801  0.63320884  0.87025385  1
  Ti  Ti54  1  0.12533496  0.61933638  0.38090460  1
  Ti  Ti55  1  0.13131738  0.38475866  0.38273018  1
  Ti  Ti56  1  0.11867634  0.12865799  0.88697210  1
  Ti  Ti57  1  0.11951206  0.39813570  0.62723598  1
  Ti  Ti58  1  0.12957367  0.88764895  0.12864647  1
  Ti  Ti59  1  0.88541997  0.13144014  0.62179076  1
  Ti  Ti60  1  0.61888913  0.13155509  0.86564423  1
  Ti  Ti61  1  0.14293448  0.11443059  0.62821602  1
  Ti  Ti62  1  0.62840012  0.36512650  0.39276424  1
  Ti  Ti63  1  0.88182784  0.62233922  0.36738613  1
  Ti  Ti64  1  0.61191025  0.37437158  0.86367605  1
  Ti  Ti65  1  0.11642030  0.87083806  0.62724348  1
  Ti  Ti66  1  0.12048330  0.37377910  0.88379668  1
  Ti  Ti67  1  0.36488682  0.87138722  0.62348920  1
  Ti  Ti68  1  0.62321959  0.12660473  0.37632383  1
  Ti  Ti69  1  0.87661460  0.88715753  0.86952959  1
  Ti  Ti70  1  0.87436735  0.62873565  0.87604996  1
  Ti  Ti71  1  0.87010570  0.37234833  0.88203985  1
  Ti  Ti72  1  0.86499978  0.11865182  0.11830849  1
  Ti  Ti73  1  0.87805359  0.38884323  0.61906322  1
  Bi  Bi74  1  0.50421194  0.02294143  0.51055437  1
  Bi  Bi75  1  0.26624623  0.23685324  0.01537975  1
  Bi  Bi76  1  0.73325679  0.69485672  0.26534883  1
  Bi  Bi77  1  0.49990614  0.22523772  0.01013822  1
  Bi  Bi78  1  0.01063117  0.27317239  0.50154445  1
  Bi  Bi79  1  -0.01673063  0.49764988  0.76830715  1
  Bi  Bi80  1  0.49198029  0.45326579  0.52856468  1
  Bi  Bi81  1  0.45929996  0.24054993  0.51475384  1
  Bi  Bi82  1  0.75745307  0.27994977  0.26875895  1
  Bi  Bi83  1  0.52306076  0.51962968  0.29463882  1
  Bi  Bi84  1  0.28745311  0.48912936  0.52170865  1
  Bi  Bi85  1  0.26617436  0.23518100  0.26693688  1
  Bi  Bi86  1  0.75056146  0.51246982  0.74241238  1
  Bi  Bi87  1  0.48017854  -0.00462562  0.73332225  1
  Bi  Bi88  1  0.01429004  0.01815508  0.48003630  1
  Bi  Bi89  1  0.71748673  0.26137079  0.03362785  1
  Bi  Bi90  1  0.73515411  0.01196936  0.74901156  1
  Bi  Bi91  1  0.26939346  0.75424960  0.01967588  1
  Bi  Bi92  1  0.73718125  0.75365047  -0.02827384  1
  Bi  Bi93  1  0.47334652  0.74133399  0.73534951  1
  Bi  Bi94  1  0.28010236  0.75862299  0.24063696  1
  Bi  Bi95  1  0.24790217  0.50881232  0.03002404  1
  Bi  Bi96  1  0.24582400  -0.02189742  0.49656758  1
  Bi  Bi97  1  0.76130157  0.02330297  0.48056591  1
  Bi  Bi98  1  0.27998935  0.50774557  0.26292449  1
  Bi  Bi99  1  0.48754847  0.78768355  0.00098417  1
  Bi  Bi100  1  0.71442703  0.54018643  0.48472578  1
  Bi  Bi101  1  -0.01134071  0.24206743  0.76553320  1
  Bi  Bi102  1  0.26991929  0.73589935  0.48483350  1
  Bi  Bi103  1  0.26611753  -0.00091662  -0.03338037  1
  Bi  Bi104  1  0.45856206  0.27664703  0.73024624  1
  Bi  Bi105  1  0.75574175  -0.03303263  0.23637042  1
  Bi  Bi106  1  0.03188384  0.25776469  0.26317410  1
  Bi  Bi107  1  0.23564612  0.25640203  0.75400387  1
  Bi  Bi108  1  0.00602888  0.77350854  0.23266429  1
  Bi  Bi109  1  0.75258550  0.23976763  0.73577720  1
  Bi  Bi110  1  0.01942176  0.74681008  0.75296933  1
  Bi  Bi111  1  0.50986261  -0.01929976  0.26893941  1
  Bi  Bi112  1  0.01749686  0.74508506  0.48241349  1
  Bi  Bi113  1  0.52784083  0.29132826  0.23834324  1
  Bi  Bi114  1  0.01345403  0.49552343  0.25227244  1
  Bi  Bi115  1  0.72673886  0.01428804  -0.01335769  1
  Bi  Bi116  1  0.73240966  0.50108407  -0.01896140  1
  Bi  Bi117  1  0.24918173  0.49034539  0.78089448  1
  Bi  Bi118  1  0.00318874  0.23433599  0.03211835  1
  Bi  Bi119  1  0.00245220  0.78574370  0.00334797  1
  Bi  Bi120  1  0.01892427  0.01548077  0.23837693  1
  Bi  Bi121  1  -0.02063828  0.49590999  0.01951817  1
  Bi  Bi122  1  0.75044700  0.77024750  0.53333023  1
  Bi  Bi123  1  0.00670720  0.01602296  0.75731538  1
  Bi  Bi124  1  0.51188489  0.74651032  0.27245648  1
  O  O125  1  0.13769347  0.14103463  -0.00037313  1
  O  O126  1  0.09349796  0.13009532  0.24994438  1
  O  O127  1  0.14167392  0.09178237  0.50806281  1
  O  O128  1  0.09582500  0.13007632  0.75057465  1
  O  O129  1  0.09975878  0.37609704  -0.00684215  1
  O  O130  1  0.10961634  0.38684001  0.25710393  1
  O  O131  1  0.12730179  0.36110882  0.50606267  1
  O  O132  1  0.14854511  0.36339014  0.74064618  1
  O  O133  1  0.11087918  0.60316119  -0.00423968  1
  O  O134  1  0.12350076  0.60821324  0.25507081  1
  O  O135  1  0.08375390  0.61455720  0.50260858  1
  O  O136  1  0.13840304  0.65934642  0.73891250  1
  O  O137  1  0.10669883  0.87604933  0.00711423  1
  O  O138  1  0.12419946  0.85063766  0.24599183  1
  O  O139  1  0.12564067  0.90489581  0.50717839  1
  O  O140  1  0.13745999  0.83973110  0.74519577  1
  O  O141  1  0.35594164  0.11968680  0.00712711  1
  O  O142  1  0.39580406  0.15910475  0.24307470  1
  O  O143  1  0.36618541  0.12000830  0.49225474  1
  O  O144  1  0.39848946  0.11448947  0.75727177  1
  O  O145  1  0.41896692  0.39830697  -0.00394457  1
  O  O146  1  0.34644149  0.36880338  0.23910848  1
  O  O147  1  0.36331469  0.37122057  0.49902239  1
  O  O148  1  0.35044027  0.35178751  0.76228173  1
  O  O149  1  0.36870917  0.64390777  -0.01322010  1
  O  O150  1  0.35163070  0.63200019  0.24806288  1
  O  O151  1  0.38613917  0.65232270  0.49938497  1
  O  O152  1  0.40201090  0.61702887  0.74856955  1
  O  O153  1  0.36267635  0.86459606  -0.00603878  1
  O  O154  1  0.36145903  0.87035859  0.25064698  1
  O  O155  1  0.35894267  0.86545226  0.50588766  1
  O  O156  1  0.36584479  0.91487083  0.74336254  1
  O  O157  1  0.64654783  0.13802090  -0.00732324  1
  O  O158  1  0.60697149  0.10069604  0.24718078  1
  O  O159  1  0.64848543  0.12159083  0.49020347  1
  O  O160  1  0.61437635  0.09153832  0.75312053  1
  O  O161  1  0.60649315  0.34325541  -0.01731717  1
  O  O162  1  0.64063113  0.37573310  0.25663797  1
  O  O163  1  0.61990842  0.35132004  0.50445662  1
  O  O164  1  0.64736520  0.38623866  0.75021917  1
  O  O165  1  0.63668196  0.64583863  -0.00525894  1
  O  O166  1  0.65349289  0.58088319  0.22997029  1
  O  O167  1  0.63394840  0.64260862  0.51048739  1
  O  O168  1  0.61473989  0.59296605  0.75728010  1
  O  O169  1  0.62797000  0.83575703  0.00410996  1
  O  O170  1  0.62435877  0.89707993  0.24332395  1
  O  O171  1  0.62309115  0.84696438  0.50078427  1
  O  O172  1  0.63726459  0.89887432  0.74743896  1
  O  O173  1  0.86079002  0.11748216  -0.00008146  1
  O  O174  1  0.89923228  0.11445279  0.24819198  1
  O  O175  1  0.83837249  0.14357963  0.50993001  1
  O  O176  1  0.90681865  0.12165012  0.74745576  1
  O  O177  1  0.89624917  0.36461672  -0.00574443  1
  O  O178  1  0.86605517  0.38093076  0.25106595  1
  O  O179  1  0.88330731  0.34246137  0.50617769  1
  O  O180  1  0.86968581  0.40572294  0.74199826  1
  O  O181  1  0.89195526  0.63050239  -0.00749171  1
  O  O182  1  0.87131533  0.61747606  0.24752064  1
  O  O183  1  0.89464532  0.64023491  0.50576100  1
  O  O184  1  0.87056727  0.59278074  0.74895772  1
  O  O185  1  0.90824903  0.89112267  -0.00288913  1
  O  O186  1  0.86962315  0.89008075  0.25967846  1
  O  O187  1  0.87647111  0.85548805  0.50853851  1
  O  O188  1  0.84923489  0.87891186  0.75056845  1
  O  O189  1  -0.00837418  0.10131114  0.09169710  1
  O  O190  1  -0.00960363  0.13736922  0.40456096  1
  O  O191  1  -0.00046198  0.13558732  0.60155946  1
  O  O192  1  0.00352741  0.16571238  0.88719779  1
  O  O193  1  -0.00394816  0.40605576  0.13396555  1
  O  O194  1  0.00387768  0.34923883  0.38529455  1
  O  O195  1  0.00575570  0.35247602  0.62700316  1
  O  O196  1  0.00550589  0.36680456  0.84648509  1
  O  O197  1  0.00217282  0.58782299  0.13265910  1
  O  O198  1  -0.00138705  0.65605699  0.36750878  1
  O  O199  1  -0.00457003  0.64671098  0.64562080  1
  O  O200  1  0.00221214  0.63241897  0.85140160  1
  O  O201  1  0.00143744  0.87811359  0.14107502  1
  O  O202  1  -0.00651921  0.85205324  0.37585752  1
  O  O203  1  -0.00377521  0.85837698  0.64113775  1
  O  O204  1  -0.00780583  0.84620650  0.86247961  1
  O  O205  1  0.25743740  0.15936358  0.13501857  1
  O  O206  1  0.26115631  0.10496702  0.33440152  1
  O  O207  1  0.24673999  0.07639843  0.65980785  1
  O  O208  1  0.24930695  0.10592058  0.87050983  1
  O  O209  1  0.25711493  0.36773166  0.08428031  1
  O  O210  1  0.24284026  0.40839591  0.37760130  1
  O  O211  1  0.24146630  0.40419360  0.61606350  1
  O  O212  1  0.25113419  0.39706826  0.88769959  1
  O  O213  1  0.23816852  0.63777881  0.10417132  1
  O  O214  1  0.23972420  0.60880613  0.39663431  1
  O  O215  1  0.24136307  0.61275495  0.60321805  1
  O  O216  1  0.24660193  0.60613725  0.86416154  1
  O  O217  1  0.24140800  0.85785930  0.11525719  1
  O  O218  1  0.24776725  0.91649611  0.37501872  1
  O  O219  1  0.24734003  0.89434082  0.62667215  1
  O  O220  1  0.23715813  0.91825803  0.85882093  1
  O  O221  1  0.49985114  0.11261921  0.10205794  1
  O  O222  1  0.50367246  0.13993187  0.39380427  1
  O  O223  1  0.50373200  0.13688535  0.59654232  1
  O  O224  1  0.50036152  0.11905221  0.89920888  1
  O  O225  1  0.49324229  0.39518710  0.15006056  1
  O  O226  1  0.50582385  0.36345060  0.35906710  1
  O  O227  1  0.50661222  0.34742442  0.62272802  1
  O  O228  1  0.49731783  0.37090986  0.84164246  1
  O  O229  1  0.50757995  0.61864717  0.13553507  1
  O  O230  1  0.50234271  0.64012628  0.36606168  1
  O  O231  1  0.50884213  0.65911631  0.62837515  1
  O  O232  1  0.50105456  0.65166812  0.87801874  1
  O  O233  1  0.50475580  0.87822923  0.10762383  1
  O  O234  1  0.50259271  0.86005213  0.35664443  1
  O  O235  1  0.50299187  0.85696657  0.64362402  1
  O  O236  1  0.49780810  0.87006156  0.88919229  1
  O  O237  1  0.74751012  0.15217151  0.13487731  1
  O  O238  1  0.75045429  0.09615906  0.36192872  1
  O  O239  1  0.75559729  0.11733297  0.65959191  1
  O  O240  1  0.74454251  0.10618152  0.85608929  1
  O  O241  1  0.75549666  0.36901298  0.12107501  1
  O  O242  1  0.75078247  0.35773252  0.38945617  1
  O  O243  1  0.75449096  0.39912820  0.61332022  1
  O  O244  1  0.75303154  0.38779338  0.89049508  1
  O  O245  1  0.75832320  0.64216404  0.11423390  1
  O  O246  1  0.76144216  0.61473906  0.38088398  1
  O  O247  1  0.75730201  0.59250358  0.62584482  1
  O  O248  1  0.75572625  0.59151954  0.87435927  1
  O  O249  1  0.74751772  0.86579706  0.13229263  1
  O  O250  1  0.74442603  0.89955013  0.38174648  1
  O  O251  1  0.75232038  0.89233371  0.60756454  1
  O  O252  1  0.75905250  0.88267259  0.90085932  1
  O  O253  1  0.13531370  -0.00062477  0.14936483  1
  O  O254  1  0.08760562  0.00161089  0.36351385  1
  O  O255  1  0.11006812  -0.01042717  0.65976523  1
  O  O256  1  0.07821229  0.01427318  0.88504788  1
  O  O257  1  0.09847729  0.25317367  0.13361988  1
  O  O258  1  0.14103378  0.25404108  0.35682735  1
  O  O259  1  0.17731222  0.22880676  0.62062302  1
  O  O260  1  0.14991521  0.25545694  0.86942558  1
  O  O261  1  0.15313830  0.49963510  0.12637862  1
  O  O262  1  0.09079391  0.49976941  0.38560193  1
  O  O263  1  0.10290158  0.50787372  0.63858812  1
  O  O264  1  0.11906423  0.49759208  0.84884182  1
  O  O265  1  0.09393592  0.73594488  0.12333359  1
  O  O266  1  0.13718590  0.74393094  0.40186446  1
  O  O267  1  0.12751280  0.75239238  0.59281699  1
  O  O268  1  0.13890758  0.74094064  0.88781388  1
  O  O269  1  0.35237803  0.00981551  0.16024642  1
  O  O270  1  0.39812201  0.00623534  0.35735712  1
  O  O271  1  0.40915762  -0.00436671  0.61243495  1
  O  O272  1  0.38414600  0.00359512  0.89592760  1
  O  O273  1  0.38952783  0.25986745  0.09578744  1
  O  O274  1  0.35306312  0.24567810  0.37831463  1
  O  O275  1  0.36420296  0.23954305  0.62089522  1
  O  O276  1  0.37292755  0.24487732  0.89513095  1
  O  O277  1  0.34929845  0.50153718  0.12803894  1
  O  O278  1  0.38865519  0.50077210  0.35301386  1
  O  O279  1  0.40114373  0.50871443  0.61271884  1
  O  O280  1  0.37538317  0.50176733  0.86174760  1
  O  O281  1  0.36680065  0.75178390  0.12092931  1
  O  O282  1  0.34086194  0.75267193  0.36943187  1
  O  O283  1  0.35998330  0.75925406  0.65470362  1
  O  O284  1  0.33842055  0.74752685  0.84180090  1
  O  O285  1  0.64443213  0.00110285  0.10447235  1
  O  O286  1  0.59665234  -0.00513661  0.38024200  1
  O  O287  1  0.60525224  -0.00663064  0.60437451  1
  O  O288  1  0.61778484  -0.00316854  0.90482034  1
  O  O289  1  0.60717400  0.23945077  0.11875959  1
  O  O290  1  0.63756084  0.24106956  0.35065362  1
  O  O291  1  0.65088291  0.25340265  0.64223975  1
  O  O292  1  0.62493237  0.24504019  0.84806919  1
  O  O293  1  0.62983834  0.50268881  0.08587135  1
  O  O294  1  0.61489932  0.48595841  0.39563452  1
  O  O295  1  0.58990255  0.49097830  0.61930433  1
  O  O296  1  0.61290937  0.49273768  0.90538362  1
  O  O297  1  0.61996543  0.74482749  0.15845809  1
  O  O298  1  0.63168017  0.75801955  0.34362683  1
  O  O299  1  0.66969486  0.76054891  0.65283411  1
  O  O300  1  0.66167754  0.74054105  0.85321085  1
  O  O301  1  0.84793151  0.00474376  0.12724752  1
  O  O302  1  0.88484096  0.00251589  0.40289747  1
  O  O303  1  0.88952644  0.00213558  0.61867250  1
  O  O304  1  0.89748998  0.00082082  0.87401024  1
  O  O305  1  0.89671797  0.25302930  0.12774841  1
  O  O306  1  0.85452007  0.23734868  0.36429949  1
  O  O307  1  0.86225011  0.25094708  0.64840286  1
  O  O308  1  0.86769592  0.25934087  0.84674039  1
  O  O309  1  0.86257932  0.49860386  0.10094375  1
  O  O310  1  0.90504345  0.51065248  0.39396316  1
  O  O311  1  0.91047211  0.49624404  0.59579643  1
  O  O312  1  0.90194451  0.49565464  0.88338024  1
  O  O313  1  0.90293106  0.74374016  0.12479545  1
  O  O314  1  0.85128102  0.75233716  0.36656862  1
  O  O315  1  0.84432407  0.74373157  0.64604209  1
  O  O316  1  0.84587193  0.73976892  0.85523415  1
