# generated using pymatgen
data_Mg32Ti42(Bi17O64)3
_symmetry_space_group_name_H-M   'P 1'
_cell_length_a   15.95514489
_cell_length_b   15.95578737
_cell_length_c   15.96150176
_cell_angle_alpha   89.98118600
_cell_angle_beta   90.03605097
_cell_angle_gamma   89.93897360
_symmetry_Int_Tables_number   1
_chemical_formula_structural   Mg32Ti42(Bi17O64)3
_chemical_formula_sum   'Mg32 Ti42 Bi51 O192'
_cell_volume   4063.42629849
_cell_formula_units_Z   1
loop_
 _symmetry_equiv_pos_site_id
 _symmetry_equiv_pos_as_xyz
  1  'x, y, z'
loop_
 _atom_site_type_symbol
 _atom_site_label
 _atom_site_symmetry_multiplicity
 _atom_site_fract_x
 _atom_site_fract_y
 _atom_site_fract_z
 _atom_site_occupancy
  Mg  Mg0  1  0.86878874  0.62200077  0.36883300  1
  Mg  Mg1  1  0.86629708  0.37142156  0.12536030  1
  Mg  Mg2  1  0.63006585  0.63007163  0.62447054  1
  Mg  Mg3  1  0.36773544  0.11752519  0.87709917  1
  Mg  Mg4  1  0.14045282  0.37459890  0.11379147  1
  Mg  Mg5  1  0.88090008  0.12521850  0.87273566  1
  Mg  Mg6  1  0.11815705  0.62350595  0.62986755  1
  Mg  Mg7  1  0.12929899  0.87263938  0.11329979  1
  Mg  Mg8  1  0.12479384  0.62661328  0.11789676  1
  Mg  Mg9  1  0.35869763  0.11777576  0.37914729  1
  Mg  Mg10  1  0.62956033  0.62133617  0.87302812  1
  Mg  Mg11  1  0.36797897  0.89093876  0.63242867  1
  Mg  Mg12  1  0.37219561  0.37886683  0.62557528  1
  Mg  Mg13  1  0.12878496  0.62533711  0.36297332  1
  Mg  Mg14  1  0.11651819  0.35611328  0.63244856  1
  Mg  Mg15  1  0.38013142  0.38232185  0.37876672  1
  Mg  Mg16  1  0.36883614  0.62479617  0.62800157  1
  Mg  Mg17  1  0.11440777  0.87308103  0.36900238  1
  Mg  Mg18  1  0.63034041  0.13500268  0.86942229  1
  Mg  Mg19  1  0.44752935  -0.01974601  0.26071045  1
  Mg  Mg20  1  0.21875023  -0.03195256  0.73205821  1
  Mg  Mg21  1  0.30675332  0.01495117  0.03158231  1
  Mg  Mg22  1  0.78451340  0.24765934  0.71590437  1
  Mg  Mg23  1  -0.04190207  -0.06104920  0.23711405  1
  Mg  Mg24  1  -0.00010189  -0.00807889  0.74341948  1
  Mg  Mg25  1  0.04206471  0.28032971  0.43746689  1
  Mg  Mg26  1  0.21053538  0.25136436  0.81525830  1
  Mg  Mg27  1  0.72755029  0.28765575  0.24963569  1
  Mg  Mg28  1  0.00244684  0.69815777  0.45861349  1
  Mg  Mg29  1  0.19810863  -0.00146631  0.45881597  1
  Mg  Mg30  1  0.23670064  0.30637607  0.30757418  1
  Mg  Mg31  1  0.21202905  0.73768771  -0.02095157  1
  Ti  Ti32  1  0.62291614  0.88932136  0.61802268  1
  Ti  Ti33  1  0.88292109  0.87901499  0.61765537  1
  Ti  Ti34  1  0.63925132  0.13106069  0.63221917  1
  Ti  Ti35  1  0.86557106  0.63222764  0.87313494  1
  Ti  Ti36  1  0.63375922  0.13390992  0.36771509  1
  Ti  Ti37  1  0.10535880  0.38279421  0.87513199  1
  Ti  Ti38  1  0.88414869  0.85977036  0.38437346  1
  Ti  Ti39  1  0.37321574  0.36342236  0.12870434  1
  Ti  Ti40  1  0.12445186  0.11274195  0.11540700  1
  Ti  Ti41  1  0.88121132  0.13670996  0.35662851  1
  Ti  Ti42  1  0.63532576  0.13747427  0.13006364  1
  Ti  Ti43  1  0.88597682  0.12989875  0.62055307  1
  Ti  Ti44  1  0.13091302  0.87110038  0.88672042  1
  Ti  Ti45  1  0.87847363  0.13300150  0.12444822  1
  Ti  Ti46  1  0.62024354  0.37415979  0.37364473  1
  Ti  Ti47  1  0.12967077  0.11646081  0.62704153  1
  Ti  Ti48  1  0.40471712  0.12408119  0.13487615  1
  Ti  Ti49  1  0.61960048  0.62934193  0.12283903  1
  Ti  Ti50  1  0.86676751  0.36452438  0.36183846  1
  Ti  Ti51  1  0.61916832  0.63257259  0.37582971  1
  Ti  Ti52  1  0.62996048  0.37039064  0.62839125  1
  Ti  Ti53  1  0.38304844  0.87340053  0.11840441  1
  Ti  Ti54  1  0.88551871  0.37280609  0.61493847  1
  Ti  Ti55  1  0.10694285  0.62669510  0.87545175  1
  Ti  Ti56  1  0.35202601  0.89091235  0.87517128  1
  Ti  Ti57  1  0.86883616  0.37619174  0.86306593  1
  Ti  Ti58  1  0.13320381  0.12334524  0.35123527  1
  Ti  Ti59  1  0.62255914  0.37581601  0.86195081  1
  Ti  Ti60  1  0.62111291  0.37534320  0.12296448  1
  Ti  Ti61  1  0.88786209  0.87081881  0.86496140  1
  Ti  Ti62  1  0.36915192  0.62415473  0.37229482  1
  Ti  Ti63  1  0.87631825  0.64022303  0.62116592  1
  Ti  Ti64  1  0.11791189  0.88570402  0.61328838  1
  Ti  Ti65  1  0.38458968  0.63501790  0.11608432  1
  Ti  Ti66  1  0.86948666  0.62160131  0.12840643  1
  Ti  Ti67  1  0.36384354  0.37592345  0.88029797  1
  Ti  Ti68  1  0.62642913  0.88762775  0.37515231  1
  Ti  Ti69  1  0.36090118  0.88717950  0.38865475  1
  Ti  Ti70  1  0.35020189  0.11669423  0.63484857  1
  Ti  Ti71  1  0.61178122  0.89037028  0.13168780  1
  Ti  Ti72  1  0.13039016  0.09874179  0.87649458  1
  Ti  Ti73  1  0.37104262  0.63110240  0.87053670  1
  Bi  Bi74  1  0.72529692  0.50617395  0.49463022  1
  Bi  Bi75  1  0.23954216  0.75233504  0.71640464  1
  Bi  Bi76  1  0.75615630  0.01313780  0.24204277  1
  Bi  Bi77  1  0.47887614  0.02918808  0.51298368  1
  Bi  Bi78  1  -0.00533916  0.49991835  0.72926230  1
  Bi  Bi79  1  0.76014206  0.51908031  0.73135662  1
  Bi  Bi80  1  0.75754641  0.48868388  -0.00865708  1
  Bi  Bi81  1  0.23454825  0.26677513  0.50491832  1
  Bi  Bi82  1  0.26865252  0.22586030  0.01896617  1
  Bi  Bi83  1  0.74999923  0.51979042  0.24902577  1
  Bi  Bi84  1  0.48228354  0.50602558  0.50975969  1
  Bi  Bi85  1  0.02483119  0.25913275  0.23643979  1
  Bi  Bi86  1  0.48369384  0.26020532  0.51875599  1
  Bi  Bi87  1  0.52964019  0.01847887  -0.01260105  1
  Bi  Bi88  1  0.49844164  0.75801607  0.27270940  1
  Bi  Bi89  1  0.01816616  0.25831856  0.01424599  1
  Bi  Bi90  1  0.23731512  -0.02382573  0.23242300  1
  Bi  Bi91  1  0.45410341  0.24901518  0.74673856  1
  Bi  Bi92  1  -0.01591560  -0.00438952  0.03123774  1
  Bi  Bi93  1  0.23763142  0.51802967  -0.01067043  1
  Bi  Bi94  1  -0.01692570  0.49966064  0.02233170  1
  Bi  Bi95  1  0.00668953  0.73498580  0.25226744  1
  Bi  Bi96  1  0.50368840  0.75820892  0.72479532  1
  Bi  Bi97  1  0.20694020  0.72699064  0.49607067  1
  Bi  Bi98  1  0.23992377  0.74853764  0.21980425  1
  Bi  Bi99  1  -0.01714626  0.50209342  0.46571587  1
  Bi  Bi100  1  0.72489597  0.77553744  0.00308066  1
  Bi  Bi101  1  0.46530986  0.75659606  0.50849769  1
  Bi  Bi102  1  0.20172024  0.47098071  0.48410139  1
  Bi  Bi103  1  -0.02983510  0.77217142  0.03162567  1
  Bi  Bi104  1  0.50749999  0.51078813  -0.02262453  1
  Bi  Bi105  1  0.77920558  0.00894891  0.74277728  1
  Bi  Bi106  1  -0.00219296  0.02443703  0.46267383  1
  Bi  Bi107  1  0.50457828  0.77734958  -0.04986940  1
  Bi  Bi108  1  0.73559891  0.77328448  0.50988936  1
  Bi  Bi109  1  0.75897817  0.78608335  0.21797525  1
  Bi  Bi110  1  0.27801326  0.50442300  0.22999332  1
  Bi  Bi111  1  0.49966663  0.52597374  0.74054761  1
  Bi  Bi112  1  0.46561271  0.23889050  0.27842418  1
  Bi  Bi113  1  0.74436636  0.26621467  0.49677499  1
  Bi  Bi114  1  0.01335622  0.21645382  0.76404162  1
  Bi  Bi115  1  0.76211362  0.01125289  -0.02493220  1
  Bi  Bi116  1  0.23105389  0.47220082  0.73238001  1
  Bi  Bi117  1  0.53988484  -0.00912382  0.78220997  1
  Bi  Bi118  1  0.72107552  0.78391290  0.77643147  1
  Bi  Bi119  1  0.04848318  0.46881435  0.25902746  1
  Bi  Bi120  1  0.50805707  0.49810714  0.23029630  1
  Bi  Bi121  1  0.50250937  0.26037994  -0.02545146  1
  Bi  Bi122  1  0.76070077  0.24882461  -0.01686136  1
  Bi  Bi123  1  0.02383752  0.75687182  0.74230644  1
  Bi  Bi124  1  0.74794984  0.02350952  0.49460696  1
  O  O125  1  0.09790914  0.10289255  -0.01035128  1
  O  O126  1  0.13270821  0.14361484  0.23757747  1
  O  O127  1  0.13116046  0.08872092  0.51689377  1
  O  O128  1  0.13816727  0.15712090  0.76054897  1
  O  O129  1  0.09847808  0.38958712  -0.00880871  1
  O  O130  1  0.13240427  0.34996191  0.24172631  1
  O  O131  1  0.11254059  0.36499825  0.50379529  1
  O  O132  1  0.15682545  0.35703722  0.75739890  1
  O  O133  1  0.11782228  0.59968741  -0.00607807  1
  O  O134  1  0.13107656  0.66406130  0.24119448  1
  O  O135  1  0.10830998  0.62827756  0.50395865  1
  O  O136  1  0.13881713  0.65654156  0.76038995  1
  O  O137  1  0.08851329  0.88584106  -0.00660421  1
  O  O138  1  0.15991226  0.86380900  0.24471804  1
  O  O139  1  0.11233147  0.90723363  0.50381370  1
  O  O140  1  0.13964698  0.84321698  0.76597681  1
  O  O141  1  0.38114038  0.12970668  0.01235517  1
  O  O142  1  0.39282151  0.10388105  0.25126371  1
  O  O143  1  0.37537694  0.12231442  0.50878094  1
  O  O144  1  0.37368960  0.13592950  0.74881595  1
  O  O145  1  0.40129205  0.35804975  0.01014920  1
  O  O146  1  0.33580368  0.37580883  0.25245200  1
  O  O147  1  0.41304277  0.38418988  0.50200123  1
  O  O148  1  0.36978998  0.36831465  0.75900249  1
  O  O149  1  0.40778796  0.62928615  0.00490042  1
  O  O150  1  0.35099697  0.63275977  0.25234525  1
  O  O151  1  0.39799697  0.63226425  0.49774922  1
  O  O152  1  0.36334565  0.60029370  0.75935653  1
  O  O153  1  0.39881817  0.86722541  0.00770750  1
  O  O154  1  0.35142825  0.89461381  0.25636423  1
  O  O155  1  0.39621057  0.87909959  0.50346121  1
  O  O156  1  0.32833047  0.90377768  0.76418032  1
  O  O157  1  0.61399151  0.13253543  0.00962373  1
  O  O158  1  0.64279678  0.10145925  0.24977199  1
  O  O159  1  0.66468685  0.13768282  0.48876729  1
  O  O160  1  0.63389144  0.10274632  0.74420685  1
  O  O161  1  0.60435349  0.35240478  0.01280916  1
  O  O162  1  0.65169554  0.39081599  0.25846423  1
  O  O163  1  0.61549192  0.33240280  0.49884022  1
  O  O164  1  0.63596468  0.39163892  0.74796181  1
  O  O165  1  0.60000778  0.63191615  0.00900732  1
  O  O166  1  0.63354926  0.59112757  0.25251277  1
  O  O167  1  0.61928713  0.63369817  0.49337908  1
  O  O168  1  0.63870717  0.58920312  0.74839464  1
  O  O169  1  0.59995373  0.85932854  0.01641655  1
  O  O170  1  0.66426104  0.89146222  0.25350641  1
  O  O171  1  0.61488108  0.84983141  0.49628962  1
  O  O172  1  0.65636819  0.90150417  0.73606988  1
  O  O173  1  0.88442471  0.09266853  0.00257254  1
  O  O174  1  0.87519125  0.15823980  0.24432321  1
  O  O175  1  0.87947939  0.10470104  0.50512264  1
  O  O176  1  0.85181753  0.14398420  0.74669945  1
  O  O177  1  0.88266910  0.40664312  -0.00623220  1
  O  O178  1  0.83483881  0.35316768  0.25225180  1
  O  O179  1  0.90910464  0.37848640  0.50344259  1
  O  O180  1  0.84149820  0.35347570  0.75256502  1
  O  O181  1  0.88825807  0.60101150  -0.00527665  1
  O  O182  1  0.85121639  0.63488456  0.24322703  1
  O  O183  1  0.90730822  0.61332479  0.50696521  1
  O  O184  1  0.84528997  0.63130364  0.74869176  1
  O  O185  1  0.90047941  0.88690282  -0.01181324  1
  O  O186  1  0.84837745  0.87913385  0.26775208  1
  O  O187  1  0.89974444  0.90173086  0.50102096  1
  O  O188  1  0.84372596  0.86833165  0.74680836  1
  O  O189  1  0.00110040  0.15369783  0.11933300  1
  O  O190  1  0.00939463  0.15678872  0.39023708  1
  O  O191  1  0.00357852  0.13092925  0.64611918  1
  O  O192  1  0.00571690  0.09712568  0.83490316  1
  O  O193  1  -0.00240251  0.34602931  0.13188685  1
  O  O194  1  -0.01211114  0.34897244  0.34756630  1
  O  O195  1  -0.00650750  0.36746133  0.66049714  1
  O  O196  1  -0.00807640  0.39562072  0.85138234  1
  O  O197  1  -0.00970720  0.65540320  0.13256791  1
  O  O198  1  -0.00091970  0.61026046  0.36414355  1
  O  O199  1  -0.00832923  0.63297955  0.65915489  1
  O  O200  1  -0.00195928  0.60686356  0.85626638  1
  O  O201  1  0.00503513  0.84026961  0.15116842  1
  O  O202  1  -0.00788468  0.87002259  0.33823153  1
  O  O203  1  -0.00398396  0.86353471  0.64970686  1
  O  O204  1  -0.00263885  0.89612044  0.83393129  1
  O  O205  1  0.24176030  0.10674325  0.09615971  1
  O  O206  1  0.23939031  0.08914446  0.37731006  1
  O  O207  1  0.24419102  0.07836212  0.64961455  1
  O  O208  1  0.23816752  0.15308956  0.89392044  1
  O  O209  1  0.26360853  0.39188603  0.10186574  1
  O  O210  1  0.25853867  0.37462042  0.41257256  1
  O  O211  1  0.24745269  0.39241770  0.60529349  1
  O  O212  1  0.25224554  0.34895892  0.89411862  1
  O  O213  1  0.26590056  0.59954658  0.10574288  1
  O  O214  1  0.25372680  0.64290764  0.39536995  1
  O  O215  1  0.24526283  0.64554009  0.61531296  1
  O  O216  1  0.25743438  0.63717438  0.91322924  1
  O  O217  1  0.26460317  0.91510646  0.10883689  1
  O  O218  1  0.24909747  0.89857902  0.39954490  1
  O  O219  1  0.23627546  0.88290124  0.62852935  1
  O  O220  1  0.24217040  0.84383143  0.91377528  1
  O  O221  1  0.51403380  0.14959694  0.13811523  1
  O  O222  1  0.51998073  0.14994882  0.37915003  1
  O  O223  1  0.52748048  0.14462060  0.60202963  1
  O  O224  1  0.49880831  0.09608402  0.87193749  1
  O  O225  1  0.50122916  0.36400719  0.16330364  1
  O  O226  1  0.50675630  0.35355796  0.35621009  1
  O  O227  1  0.51646627  0.33823182  0.63336078  1
  O  O228  1  0.50351702  0.38798579  0.87993882  1
  O  O229  1  0.49913964  0.62670320  0.15755955  1
  O  O230  1  0.50038873  0.62967861  0.35590690  1
  O  O231  1  0.50401463  0.63488409  0.65545975  1
  O  O232  1  0.49631563  0.59815701  0.86539557  1
  O  O233  1  0.49785168  0.87565173  0.16778554  1
  O  O234  1  0.51469343  0.88127624  0.34106203  1
  O  O235  1  0.50973907  0.87812412  0.64660323  1
  O  O236  1  0.47783518  0.88944314  0.86601056  1
  O  O237  1  0.75534944  0.10028301  0.12001596  1
  O  O238  1  0.76749164  0.09608147  0.36335291  1
  O  O239  1  0.76137688  0.09536169  0.61792309  1
  O  O240  1  0.75270322  0.12953579  0.90244536  1
  O  O241  1  0.73976282  0.40094981  0.10460047  1
  O  O242  1  0.75096293  0.38424690  0.40715566  1
  O  O243  1  0.75312136  0.38566128  0.59681305  1
  O  O244  1  0.74507930  0.37029003  0.90047236  1
  O  O245  1  0.74213120  0.59588045  0.11960972  1
  O  O246  1  0.74345310  0.59843829  0.37785223  1
  O  O247  1  0.75744860  0.60669888  0.60876020  1
  O  O248  1  0.75448716  0.64709990  0.89596323  1
  O  O249  1  0.73701315  0.87096971  0.10918574  1
  O  O250  1  0.75518112  0.86289083  0.40605496  1
  O  O251  1  0.75564617  0.88159071  0.59399683  1
  O  O252  1  0.75840868  0.85473857  0.89620901  1
  O  O253  1  0.10704247  0.00121299  0.13965547  1
  O  O254  1  0.10262439  0.00688751  0.36394063  1
  O  O255  1  0.10492271  -0.00828867  0.67255835  1
  O  O256  1  0.15700799  -0.00975422  0.85052735  1
  O  O257  1  0.13771977  0.24381273  0.08464352  1
  O  O258  1  0.15492328  0.23890808  0.38918909  1
  O  O259  1  0.14284772  0.23176771  0.60868044  1
  O  O260  1  0.09522253  0.26073447  0.88088372  1
  O  O261  1  0.11604049  0.49980512  0.14475145  1
  O  O262  1  0.14222695  0.50006551  0.35292474  1
  O  O263  1  0.11738005  0.49791870  0.65601228  1
  O  O264  1  0.14706182  0.49980701  0.85309228  1
  O  O265  1  0.17267526  0.75145908  0.09720370  1
  O  O266  1  0.10391478  0.75155144  0.39821847  1
  O  O267  1  0.12112914  0.76043788  0.62740251  1
  O  O268  1  0.10635113  0.74432087  0.90343782  1
  O  O269  1  0.40230873  0.00327101  0.12115003  1
  O  O270  1  0.40274761  -0.00317839  0.38277749  1
  O  O271  1  0.40501178  0.01280662  0.62828508  1
  O  O272  1  0.33835541  -0.00350066  0.91184831  1
  O  O273  1  0.36370379  0.24382112  0.14088971  1
  O  O274  1  0.35697100  0.24594828  0.36175034  1
  O  O275  1  0.37440687  0.24488222  0.62391132  1
  O  O276  1  0.39547605  0.25064039  0.87767356  1
  O  O277  1  0.39269347  0.49802520  0.14612790  1
  O  O278  1  0.37153023  0.50971577  0.36383159  1
  O  O279  1  0.40773261  0.50123080  0.62527003  1
  O  O280  1  0.35899414  0.49258312  0.90114649  1
  O  O281  1  0.37149029  0.75355766  0.13334993  1
  O  O282  1  0.39491218  0.76352187  0.37786503  1
  O  O283  1  0.38999040  0.75871251  0.63249528  1
  O  O284  1  0.38740848  0.74484458  0.85943121  1
  O  O285  1  0.61419801  0.00108957  0.11461605  1
  O  O286  1  0.63134736  -0.00058348  0.39431524  1
  O  O287  1  0.62483973  0.00279024  0.59264908  1
  O  O288  1  0.62954921  0.00074315  0.89256231  1
  O  O289  1  0.65990896  0.25021079  0.14954504  1
  O  O290  1  0.66600240  0.24676580  0.35238952  1
  O  O291  1  0.67589714  0.24423590  0.64645264  1
  O  O292  1  0.60757143  0.25800768  0.86950531  1
  O  O293  1  0.59373059  0.49376413  0.11809341  1
  O  O294  1  0.61256262  0.48662291  0.40236069  1
  O  O295  1  0.61026239  0.48353711  0.59491831  1
  O  O296  1  0.63218840  0.49251625  0.90740649  1
  O  O297  1  0.63037805  0.74254187  0.14761068  1
  O  O298  1  0.62360977  0.74644509  0.34940030  1
  O  O299  1  0.63082662  0.75827923  0.64726771  1
  O  O300  1  0.60578974  0.74691419  0.85273201  1
  O  O301  1  0.90664590  0.01290821  0.14963833  1
  O  O302  1  0.91374073  0.01914189  0.35040559  1
  O  O303  1  0.89583699  -0.00187856  0.66000206  1
  O  O304  1  0.85174230  -0.00546277  0.86488615  1
  O  O305  1  0.85691106  0.24480425  0.08827124  1
  O  O306  1  0.85652438  0.24818566  0.39535920  1
  O  O307  1  0.86284694  0.24664109  0.61453807  1
  O  O308  1  0.87627400  0.25823416  0.89982652  1
  O  O309  1  0.89831363  0.50329584  0.13585503  1
  O  O310  1  0.88457030  0.48644779  0.37234278  1
  O  O311  1  0.88589483  0.49405106  0.63926907  1
  O  O312  1  0.84781137  0.50078520  0.85448617  1
  O  O313  1  0.84564551  0.73858435  0.09380068  1
  O  O314  1  0.89265041  0.74766166  0.39995466  1
  O  O315  1  0.86678142  0.75394389  0.60515648  1
  O  O316  1  0.89859874  0.74881255  0.87622337  1
