# generated using pymatgen
data_Mg32Ti42(Bi17O64)3
_symmetry_space_group_name_H-M   'P 1'
_cell_length_a   15.92642388
_cell_length_b   15.92632260
_cell_length_c   15.92190549
_cell_angle_alpha   90.15124412
_cell_angle_beta   89.94299129
_cell_angle_gamma   90.04282707
_symmetry_Int_Tables_number   1
_chemical_formula_structural   Mg32Ti42(Bi17O64)3
_chemical_formula_sum   'Mg32 Ti42 Bi51 O192'
_cell_volume   4038.56402071
_cell_formula_units_Z   1
loop_
 _symmetry_equiv_pos_site_id
 _symmetry_equiv_pos_as_xyz
  1  'x, y, z'
loop_
 _atom_site_type_symbol
 _atom_site_label
 _atom_site_symmetry_multiplicity
 _atom_site_fract_x
 _atom_site_fract_y
 _atom_site_fract_z
 _atom_site_occupancy
  Mg  Mg0  1  0.62030554  0.87843588  0.37438627  1
  Mg  Mg1  1  0.12861071  0.87786227  0.87105507  1
  Mg  Mg2  1  0.62543763  0.36558836  0.63149098  1
  Mg  Mg3  1  0.11503191  0.61486965  0.88054714  1
  Mg  Mg4  1  0.12774946  0.62178247  0.37657692  1
  Mg  Mg5  1  0.38703675  0.88280098  0.86659318  1
  Mg  Mg6  1  0.13400536  0.39012814  0.12211098  1
  Mg  Mg7  1  0.61214729  0.61820997  0.37254879  1
  Mg  Mg8  1  0.87877109  0.13093343  0.37079049  1
  Mg  Mg9  1  0.36170980  0.61856234  0.61352842  1
  Mg  Mg10  1  0.87151670  0.62512948  0.14886652  1
  Mg  Mg11  1  0.38305771  0.87176121  0.61138187  1
  Mg  Mg12  1  0.11426680  0.88729760  0.62119198  1
  Mg  Mg13  1  0.87418455  0.36773244  0.13214092  1
  Mg  Mg14  1  0.63257112  0.86815323  0.87983058  1
  Mg  Mg15  1  0.12294746  0.37548116  0.37594317  1
  Mg  Mg16  1  0.62400875  0.64033626  0.12535275  1
  Mg  Mg17  1  0.12918802  0.88106953  0.37271947  1
  Mg  Mg18  1  0.62650371  0.12733629  0.13072779  1
  Mg  Mg19  1  0.72792332  0.78041016  0.48279971  1
  Mg  Mg20  1  0.26475616  0.84027869  0.73682840  1
  Mg  Mg21  1  0.28945807  -0.00806774  0.51108004  1
  Mg  Mg22  1  0.28807840  0.20979197  0.55076467  1
  Mg  Mg23  1  -0.03208376  0.24371188  0.50628083  1
  Mg  Mg24  1  0.74399926  0.71921630  0.30194429  1
  Mg  Mg25  1  0.45580258  -0.00358647  0.70587789  1
  Mg  Mg26  1  0.52012343  0.51419705  0.24446646  1
  Mg  Mg27  1  0.01297018  0.27555181  0.23579766  1
  Mg  Mg28  1  0.25313859  0.49947245  0.26349642  1
  Mg  Mg29  1  0.02790715  0.00931995  0.23564178  1
  Mg  Mg30  1  0.72334385  0.54394532  0.24938289  1
  Mg  Mg31  1  0.72311267  0.25953108  0.26907439  1
  Ti  Ti32  1  0.87027619  0.12425308  0.62198849  1
  Ti  Ti33  1  0.63494514  0.62857929  0.88405869  1
  Ti  Ti34  1  0.12053928  0.62229807  0.62569859  1
  Ti  Ti35  1  0.87392887  0.86971397  0.88172612  1
  Ti  Ti36  1  0.86067004  0.86736522  0.37464308  1
  Ti  Ti37  1  0.35267650  0.12663647  0.37061175  1
  Ti  Ti38  1  0.63465635  0.86507882  0.12357900  1
  Ti  Ti39  1  0.63494284  0.13863423  0.62272346  1
  Ti  Ti40  1  0.11047899  0.13990556  0.59360925  1
  Ti  Ti41  1  0.63559834  0.37213841  0.14777879  1
  Ti  Ti42  1  0.60878348  0.38750406  0.37579793  1
  Ti  Ti43  1  0.37330324  0.36187388  0.86598224  1
  Ti  Ti44  1  0.13984754  0.61720582  0.12924115  1
  Ti  Ti45  1  0.36759616  0.11312330  0.12231067  1
  Ti  Ti46  1  0.87199153  0.12096895  0.87481507  1
  Ti  Ti47  1  0.88659419  0.87671788  0.13701340  1
  Ti  Ti48  1  0.37753706  0.62364399  0.13128727  1
  Ti  Ti49  1  0.13026778  0.12649644  0.12428335  1
  Ti  Ti50  1  0.61431832  0.88167779  0.61732137  1
  Ti  Ti51  1  0.38002746  0.86923174  0.37375803  1
  Ti  Ti52  1  0.37529287  0.61440358  0.38236808  1
  Ti  Ti53  1  0.86365400  0.37025957  0.62505159  1
  Ti  Ti54  1  0.12285064  0.37767412  0.87973486  1
  Ti  Ti55  1  0.87518783  0.87855214  0.61754071  1
  Ti  Ti56  1  0.87390560  0.61201120  0.38114033  1
  Ti  Ti57  1  0.12895839  0.87559591  0.13306898  1
  Ti  Ti58  1  0.63269796  0.12171141  0.36916451  1
  Ti  Ti59  1  0.87172843  0.38061439  0.87773268  1
  Ti  Ti60  1  0.61646272  0.12101319  0.87680682  1
  Ti  Ti61  1  0.61295051  0.37395576  0.87590718  1
  Ti  Ti62  1  0.37739822  0.86342121  0.12208266  1
  Ti  Ti63  1  0.36949173  0.38512966  0.14624736  1
  Ti  Ti64  1  0.11592070  0.12276838  0.36074001  1
  Ti  Ti65  1  0.87220134  0.63634189  0.87143374  1
  Ti  Ti66  1  0.88665171  0.12915267  0.13356065  1
  Ti  Ti67  1  0.87965182  0.63668615  0.62377602  1
  Ti  Ti68  1  0.11928121  0.36790430  0.62358466  1
  Ti  Ti69  1  0.12838937  0.12691235  0.87422965  1
  Ti  Ti70  1  0.36366820  0.37954806  0.63058055  1
  Ti  Ti71  1  0.35896961  0.37019972  0.37931393  1
  Ti  Ti72  1  0.37773285  0.11873468  0.87618005  1
  Ti  Ti73  1  0.88768560  0.36053880  0.37253763  1
  Bi  Bi74  1  0.23031451  0.26193879  0.75222996  1
  Bi  Bi75  1  0.02976699  0.00025934  0.01223378  1
  Bi  Bi76  1  0.44637494  0.73653003  0.73587922  1
  Bi  Bi77  1  0.49361612  0.73710618  -0.03592121  1
  Bi  Bi78  1  0.48391797  0.24195339  0.01778994  1
  Bi  Bi79  1  -0.01964746  -0.00687173  0.76516300  1
  Bi  Bi80  1  0.00296576  0.48465748  0.51379517  1
  Bi  Bi81  1  0.48297394  0.26184750  0.48856046  1
  Bi  Bi82  1  0.72819035  0.25441176  0.77481901  1
  Bi  Bi83  1  -0.02093405  0.25239664  0.74768304  1
  Bi  Bi84  1  0.24695034  0.26442616  0.01055752  1
  Bi  Bi85  1  0.52903456  0.71550127  0.52726039  1
  Bi  Bi86  1  0.00936521  0.77184594  0.48310609  1
  Bi  Bi87  1  0.00945034  0.47362203  0.25004703  1
  Bi  Bi88  1  0.78605796  0.74550461  0.02645166  1
  Bi  Bi89  1  0.51535833  0.48852886  0.02411128  1
  Bi  Bi90  1  -0.02360912  0.51173849  0.74830900  1
  Bi  Bi91  1  0.77045198  0.00210246  0.25167044  1
  Bi  Bi92  1  0.75451858  -0.00541975  0.50985097  1
  Bi  Bi93  1  0.04078095  0.75352367  0.76513766  1
  Bi  Bi94  1  0.74076547  0.01272525  0.02278704  1
  Bi  Bi95  1  0.50948984  -0.02179497  0.24862275  1
  Bi  Bi96  1  0.71359194  0.51425440  0.73217681  1
  Bi  Bi97  1  0.25344759  -0.02719940  0.25462224  1
  Bi  Bi98  1  0.49365057  0.04011649  0.51541347  1
  Bi  Bi99  1  0.21688401  0.25732786  0.25451546  1
  Bi  Bi100  1  0.51981883  0.73625568  0.26656789  1
  Bi  Bi101  1  0.26003241  -0.01869186  -0.03167655  1
  Bi  Bi102  1  0.00891949  0.72162214  0.26332298  1
  Bi  Bi103  1  0.24473822  0.53746745  0.75553197  1
  Bi  Bi104  1  -0.02264532  0.25197290  -0.00541425  1
  Bi  Bi105  1  0.25850095  0.72654886  0.26163377  1
  Bi  Bi106  1  0.74231375  0.26274184  0.47386877  1
  Bi  Bi107  1  0.24004209  0.77689305  0.52570091  1
  Bi  Bi108  1  0.72402875  0.74198511  0.71548548  1
  Bi  Bi109  1  0.27323423  0.73361744  -0.04462768  1
  Bi  Bi110  1  0.01377392  0.00784863  0.47172251  1
  Bi  Bi111  1  0.51780905  -0.01875030  -0.01012896  1
  Bi  Bi112  1  0.73027977  0.24884901  0.02354451  1
  Bi  Bi113  1  0.51648878  0.49040760  0.54183444  1
  Bi  Bi114  1  0.22911595  0.49989734  0.48886952  1
  Bi  Bi115  1  0.46657614  0.22246439  0.72543051  1
  Bi  Bi116  1  0.28709959  0.51511511  -0.02250318  1
  Bi  Bi117  1  -0.02229650  0.51782343  0.03049050  1
  Bi  Bi118  1  0.47598440  0.52423601  0.77982624  1
  Bi  Bi119  1  0.03124093  0.74869075  0.00197527  1
  Bi  Bi120  1  0.49209626  0.21746630  0.25032100  1
  Bi  Bi121  1  0.73519932  0.53903938  0.50211072  1
  Bi  Bi122  1  0.23136747  0.03111920  0.69508688  1
  Bi  Bi123  1  0.73630889  -0.02352805  0.75707577  1
  Bi  Bi124  1  0.74473376  0.51425877  0.02519368  1
  O  O125  1  0.11538974  0.13218948  0.00348554  1
  O  O126  1  0.13114353  0.09076341  0.24591766  1
  O  O127  1  0.07671169  0.15489519  0.48401182  1
  O  O128  1  0.15375670  0.13530790  0.74938170  1
  O  O129  1  0.15578798  0.37563345  -0.00487742  1
  O  O130  1  0.10513077  0.37303568  0.24742523  1
  O  O131  1  0.13266940  0.39793401  0.50342203  1
  O  O132  1  0.11330462  0.33982008  0.74685672  1
  O  O133  1  0.10333003  0.62375760  0.01051886  1
  O  O134  1  0.13465395  0.64960173  0.24927946  1
  O  O135  1  0.10891364  0.58810169  0.50290025  1
  O  O136  1  0.13720496  0.62760833  0.74686006  1
  O  O137  1  0.10786756  0.87152287  0.00459398  1
  O  O138  1  0.11384570  0.91261433  0.24906997  1
  O  O139  1  0.12792713  0.85490324  0.49660489  1
  O  O140  1  0.13700457  0.85668662  0.74288357  1
  O  O141  1  0.37039160  0.15583838  0.00544060  1
  O  O142  1  0.38112012  0.12102273  0.24705618  1
  O  O143  1  0.38036595  0.15141850  0.48294247  1
  O  O144  1  0.40961510  0.09875190  0.76133858  1
  O  O145  1  0.36207728  0.34403630  -0.01051089  1
  O  O146  1  0.36181035  0.41543364  0.25449002  1
  O  O147  1  0.35439923  0.33934510  0.49650693  1
  O  O148  1  0.39953826  0.38810922  0.74569864  1
  O  O149  1  0.36735123  0.63276284  0.00739142  1
  O  O150  1  0.33270363  0.60282896  0.24308487  1
  O  O151  1  0.39686248  0.64302726  0.49020826  1
  O  O152  1  0.36695505  0.60728122  0.74484567  1
  O  O153  1  0.35152345  0.85832535  0.01045020  1
  O  O154  1  0.38593775  0.90777177  0.24600556  1
  O  O155  1  0.35338532  0.86640786  0.48672472  1
  O  O156  1  0.38719101  0.89499713  0.74148375  1
  O  O157  1  0.64207296  0.11730953  -0.00254327  1
  O  O158  1  0.63971163  0.15979465  0.25354789  1
  O  O159  1  0.63672788  0.10345062  0.50078489  1
  O  O160  1  0.62543669  0.14670161  0.74938573  1
  O  O161  1  0.62731288  0.39900652  0.00445422  1
  O  O162  1  0.62190694  0.34116359  0.25787970  1
  O  O163  1  0.64098601  0.41198333  0.48882590  1
  O  O164  1  0.62230935  0.34182738  0.75844987  1
  O  O165  1  0.61335810  0.58856273  0.00605687  1
  O  O166  1  0.64822634  0.65142282  0.25148060  1
  O  O167  1  0.60729199  0.59721822  0.49514611  1
  O  O168  1  0.64684533  0.63575190  0.76226364  1
  O  O169  1  0.63780173  0.90616804  0.00740321  1
  O  O170  1  0.59800939  0.87005402  0.24349178  1
  O  O171  1  0.64321709  0.89211557  0.49972535  1
  O  O172  1  0.64164367  0.86005310  0.74491050  1
  O  O173  1  0.89571122  0.13326146  -0.00516526  1
  O  O174  1  0.86076781  0.11235984  0.24490332  1
  O  O175  1  0.87901341  0.14926755  0.50795400  1
  O  O176  1  0.89036438  0.10108066  0.74849852  1
  O  O177  1  0.87369522  0.34468157  -0.00169686  1
  O  O178  1  0.91519429  0.36811137  0.25423174  1
  O  O179  1  0.87349813  0.35334897  0.50661086  1
  O  O180  1  0.90345854  0.37834869  0.75329140  1
  O  O181  1  0.89020164  0.64487586  -0.00798734  1
  O  O182  1  0.82465725  0.62350719  0.26776496  1
  O  O183  1  0.89513650  0.62170063  0.50798136  1
  O  O184  1  0.85910317  0.59949448  0.75119509  1
  O  O185  1  0.88480978  0.86225038  -0.00403904  1
  O  O186  1  0.87415127  0.88909467  0.25397478  1
  O  O187  1  0.83315822  0.85959179  0.50095756  1
  O  O188  1  0.86876908  0.90735984  0.73883865  1
  O  O189  1  0.00228197  0.08612755  0.13501209  1
  O  O190  1  0.00004526  0.07456644  0.34987326  1
  O  O191  1  0.00109569  0.15404138  0.63017647  1
  O  O192  1  0.01595499  0.13911500  0.85775555  1
  O  O193  1  0.00834211  0.41187110  0.11482487  1
  O  O194  1  0.00094239  0.41267091  0.38728347  1
  O  O195  1  0.00989927  0.33184866  0.60034974  1
  O  O196  1  0.00955726  0.35002191  0.88793845  1
  O  O197  1  0.00144064  0.60177920  0.14446222  1
  O  O198  1  -0.00921450  0.61037006  0.34870995  1
  O  O199  1  -0.00336172  0.62716931  0.65078396  1
  O  O200  1  -0.00937992  0.63716179  0.85295068  1
  O  O201  1  -0.00213711  0.90806786  0.13298574  1
  O  O202  1  -0.01317519  0.88871912  0.40564611  1
  O  O203  1  -0.01157837  0.86523741  0.60728883  1
  O  O204  1  -0.00559434  0.86416632  0.84678781  1
  O  O205  1  0.24977258  0.14862479  0.12829063  1
  O  O206  1  0.24089395  0.15290579  0.36641189  1
  O  O207  1  0.23622687  0.09480409  0.57290114  1
  O  O208  1  0.26203341  0.09925080  0.88019908  1
  O  O209  1  0.25764491  0.34870748  0.13342953  1
  O  O210  1  0.24739802  0.35044617  0.35936912  1
  O  O211  1  0.24888545  0.38952471  0.64476485  1
  O  O212  1  0.25815496  0.38121115  0.84961154  1
  O  O213  1  0.24624011  0.66012772  0.11189681  1
  O  O214  1  0.25771583  0.66033779  0.38537448  1
  O  O215  1  0.23706464  0.59273495  0.61877174  1
  O  O216  1  0.24422981  0.61052065  0.88400305  1
  O  O217  1  0.24712893  0.86828014  0.15165195  1
  O  O218  1  0.25481948  0.86554106  0.34384460  1
  O  O219  1  0.24644707  0.89548892  0.61239594  1
  O  O220  1  0.25654753  0.88047252  0.86795590  1
  O  O221  1  0.49406942  0.12640743  0.12165405  1
  O  O222  1  0.51110331  0.12350442  0.36486961  1
  O  O223  1  0.51176628  0.15088378  0.60421196  1
  O  O224  1  0.50417017  0.14282524  0.89857888  1
  O  O225  1  0.51450809  0.42070784  0.14931023  1
  O  O226  1  0.49565415  0.39004300  0.39019128  1
  O  O227  1  0.49744641  0.35412317  0.59650162  1
  O  O228  1  0.50199334  0.35301471  0.88854608  1
  O  O229  1  0.49413890  0.59934579  0.14635481  1
  O  O230  1  0.48663841  0.60585409  0.33199442  1
  O  O231  1  0.48848192  0.64361914  0.63608952  1
  O  O232  1  0.51142305  0.63270315  0.86745959  1
  O  O233  1  0.49139188  0.90479838  0.11289550  1
  O  O234  1  0.49117076  0.91501036  0.37549973  1
  O  O235  1  0.50592217  0.83315489  0.61824521  1
  O  O236  1  0.50653761  0.86784997  0.90841606  1
  O  O237  1  0.76506766  0.14031749  0.10502799  1
  O  O238  1  0.75156513  0.16422782  0.37414451  1
  O  O239  1  0.75170627  0.10029342  0.63084183  1
  O  O240  1  0.75869659  0.11329608  0.86785879  1
  O  O241  1  0.75059795  0.32715157  0.15001467  1
  O  O242  1  0.76787416  0.34164742  0.35940172  1
  O  O243  1  0.75433809  0.39337270  0.63711418  1
  O  O244  1  0.75829409  0.37637861  0.86051113  1
  O  O245  1  0.75074686  0.63411541  0.10150959  1
  O  O246  1  0.75001702  0.65688324  0.41780459  1
  O  O247  1  0.75845505  0.60333877  0.62377068  1
  O  O248  1  0.75200480  0.60668373  0.89757486  1
  O  O249  1  0.74892921  0.84714653  0.12963829  1
  O  O250  1  0.74665037  0.83068208  0.36143219  1
  O  O251  1  0.74181438  0.91129503  0.63037857  1
  O  O252  1  0.75900578  0.89914274  0.87279052  1
  O  O253  1  0.14245649  -0.00138618  0.09741334  1
  O  O254  1  0.13973896  0.00944676  0.41201997  1
  O  O255  1  0.10770753  0.01698490  0.63233144  1
  O  O256  1  0.12180381  0.00456796  0.89010648  1
  O  O257  1  0.10558151  0.23877209  0.14636851  1
  O  O258  1  0.09794160  0.23709828  0.33226427  1
  O  O259  1  0.17002345  0.24353926  0.60712816  1
  O  O260  1  0.16345959  0.24482819  0.88178955  1
  O  O261  1  0.17190505  0.51028370  0.15359750  1
  O  O262  1  0.17030356  0.50283540  0.36126790  1
  O  O263  1  0.09021364  0.48315540  0.64200320  1
  O  O264  1  0.11504561  0.48859759  0.86067708  1
  O  O265  1  0.09815251  0.76150650  0.12848734  1
  O  O266  1  0.09168258  0.75225956  0.37050759  1
  O  O267  1  0.12816025  0.73496850  0.60756622  1
  O  O268  1  0.11737330  0.74709828  0.88403787  1
  O  O269  1  0.35042518  0.00477837  0.10787489  1
  O  O270  1  0.33973660  0.01283575  0.39070028  1
  O  O271  1  0.39159186  -0.00180070  0.59598674  1
  O  O272  1  0.39084174  0.00313124  0.91080288  1
  O  O273  1  0.41039453  0.27267850  0.14041218  1
  O  O274  1  0.39329442  0.25887653  0.34795505  1
  O  O275  1  0.35853660  0.25153470  0.64588246  1
  O  O276  1  0.36897752  0.24139488  0.84295912  1
  O  O277  1  0.36501144  0.49775795  0.09864473  1
  O  O278  1  0.35063877  0.50033050  0.39554894  1
  O  O279  1  0.38309064  0.49079774  0.60132830  1
  O  O280  1  0.39366838  0.48426005  0.89185819  1
  O  O281  1  0.39084986  0.74875942  0.14399663  1
  O  O282  1  0.39654815  0.75715809  0.34436123  1
  O  O283  1  0.33402689  0.75494258  0.65453928  1
  O  O284  1  0.38126181  0.75372851  0.87339608  1
  O  O285  1  0.65740138  0.00310224  0.13850321  1
  O  O286  1  0.64734964  0.00902842  0.34939925  1
  O  O287  1  0.57001645  -0.00681463  0.63638925  1
  O  O288  1  0.61123022  0.00647299  0.86406950  1
  O  O289  1  0.61056865  0.25834782  0.09910548  1
  O  O290  1  0.61717833  0.26290109  0.40774115  1
  O  O291  1  0.65635241  0.24631837  0.60791108  1
  O  O292  1  0.65057271  0.24904670  0.89161491  1
  O  O293  1  0.67361849  0.48750279  0.14836670  1
  O  O294  1  0.62900980  0.49655643  0.32624245  1
  O  O295  1  0.59805780  0.48761985  0.65340172  1
  O  O296  1  0.61398087  0.49118488  0.85372868  1
  O  O297  1  0.59816761  0.75976591  0.10179587  1
  O  O298  1  0.59157553  0.74967032  0.38249925  1
  O  O299  1  0.66002982  0.75787243  0.59388517  1
  O  O300  1  0.63196943  0.74203464  0.90801000  1
  O  O301  1  0.84747071  -0.00727066  0.12040958  1
  O  O302  1  0.83820811  -0.00954050  0.38403401  1
  O  O303  1  0.88330152  0.00160671  0.59541663  1
  O  O304  1  0.90474546  -0.00095098  0.88069243  1
  O  O305  1  0.92295312  0.24072079  0.13588450  1
  O  O306  1  0.92444148  0.25290117  0.38034004  1
  O  O307  1  0.86181340  0.24644056  0.65433942  1
  O  O308  1  0.88101143  0.24149667  0.86079682  1
  O  O309  1  0.86113369  0.49848309  0.10854078  1
  O  O310  1  0.85207451  0.50136509  0.38858320  1
  O  O311  1  0.90249326  0.48523716  0.62585431  1
  O  O312  1  0.89149986  0.49321063  0.88913266  1
  O  O313  1  0.88673297  0.75520718  0.12769811  1
  O  O314  1  0.90263338  0.75262778  0.37093978  1
  O  O315  1  0.85985380  0.75073722  0.63567285  1
  O  O316  1  0.85241153  0.75221225  0.85544179  1
