# generated using pymatgen
data_Mg32Ti42(Bi17O64)3
_symmetry_space_group_name_H-M   'P 1'
_cell_length_a   15.90730749
_cell_length_b   15.94709057
_cell_length_c   15.94990673
_cell_angle_alpha   90.29340307
_cell_angle_beta   89.97732330
_cell_angle_gamma   90.12753567
_symmetry_Int_Tables_number   1
_chemical_formula_structural   Mg32Ti42(Bi17O64)3
_chemical_formula_sum   'Mg32 Ti42 Bi51 O192'
_cell_volume   4046.03357304
_cell_formula_units_Z   1
loop_
 _symmetry_equiv_pos_site_id
 _symmetry_equiv_pos_as_xyz
  1  'x, y, z'
loop_
 _atom_site_type_symbol
 _atom_site_label
 _atom_site_symmetry_multiplicity
 _atom_site_fract_x
 _atom_site_fract_y
 _atom_site_fract_z
 _atom_site_occupancy
  Mg  Mg0  1  0.87014102  0.10927089  0.62338089  1
  Mg  Mg1  1  0.62946714  0.62923503  0.89344544  1
  Mg  Mg2  1  0.62430614  0.12320370  0.88758036  1
  Mg  Mg3  1  0.12075143  0.87045838  0.36080990  1
  Mg  Mg4  1  0.12342938  0.38223203  0.38813787  1
  Mg  Mg5  1  0.62843218  0.11924496  0.62078550  1
  Mg  Mg6  1  0.13167853  0.12281862  0.87412152  1
  Mg  Mg7  1  0.87236063  0.11069247  0.87288969  1
  Mg  Mg8  1  0.12779199  0.12350246  0.62551856  1
  Mg  Mg9  1  0.12210161  0.36933377  0.87871513  1
  Mg  Mg10  1  0.12691448  0.12694025  0.37129145  1
  Mg  Mg11  1  0.87503139  0.61554370  0.12362950  1
  Mg  Mg12  1  0.12779887  0.62508355  0.61975019  1
  Mg  Mg13  1  0.12786729  0.38276377  0.12941392  1
  Mg  Mg14  1  0.87710401  0.86969900  0.87349595  1
  Mg  Mg15  1  0.86636006  0.61708916  0.36576460  1
  Mg  Mg16  1  0.61888884  0.86610668  0.62295639  1
  Mg  Mg17  1  0.62953749  0.38061992  0.63076401  1
  Mg  Mg18  1  0.88594399  0.13045510  0.12844176  1
  Mg  Mg19  1  0.48152336  0.55627354  -0.02099926  1
  Mg  Mg20  1  -0.01150612  0.81939223  0.02559590  1
  Mg  Mg21  1  0.50073755  0.75950162  0.43661803  1
  Mg  Mg22  1  0.49268389  0.70522720  0.20120045  1
  Mg  Mg23  1  0.76722595  0.51214116  0.54212578  1
  Mg  Mg24  1  0.42516052  0.73381239  -0.01164285  1
  Mg  Mg25  1  0.49736795  0.20578699  0.04411189  1
  Mg  Mg26  1  0.76350315  0.45782754  0.22746976  1
  Mg  Mg27  1  0.01258930  0.28979643  0.02411282  1
  Mg  Mg28  1  0.77807420  -0.03879068  0.75269224  1
  Mg  Mg29  1  0.49696632  -0.03637012  0.27708251  1
  Mg  Mg30  1  0.28581939  0.48965472  0.50249982  1
  Mg  Mg31  1  -0.05726580  -0.05447464  0.22120231  1
  Ti  Ti32  1  0.62018609  0.11384345  0.37141001  1
  Ti  Ti33  1  0.12676328  0.60886811  0.13626634  1
  Ti  Ti34  1  0.37250115  0.87342291  0.38304505  1
  Ti  Ti35  1  0.12964422  0.87708381  0.63510885  1
  Ti  Ti36  1  0.37817134  0.62364471  0.38402206  1
  Ti  Ti37  1  0.38047895  0.36688738  0.38007051  1
  Ti  Ti38  1  0.86130719  0.38625259  0.37615130  1
  Ti  Ti39  1  0.89346756  0.37465194  0.88159681  1
  Ti  Ti40  1  0.11908573  0.38406893  0.62199073  1
  Ti  Ti41  1  0.37087262  0.86730614  0.13191735  1
  Ti  Ti42  1  0.36970199  0.12402872  0.13950745  1
  Ti  Ti43  1  0.61710569  0.62970615  0.61951775  1
  Ti  Ti44  1  0.37867889  0.36329496  0.13270970  1
  Ti  Ti45  1  0.86767484  0.11819175  0.37570100  1
  Ti  Ti46  1  0.38197515  0.62414285  0.61985538  1
  Ti  Ti47  1  0.37981235  0.12891492  0.87815056  1
  Ti  Ti48  1  0.38167191  0.88161400  0.87861687  1
  Ti  Ti49  1  0.37684389  0.87015443  0.62739565  1
  Ti  Ti50  1  0.38608780  0.36456610  0.62232822  1
  Ti  Ti51  1  0.36599312  0.60915895  0.12999522  1
  Ti  Ti52  1  0.62486113  0.38057166  0.88759958  1
  Ti  Ti53  1  0.12353962  0.12856475  0.13110694  1
  Ti  Ti54  1  0.62066955  0.86635088  0.37524973  1
  Ti  Ti55  1  0.88393829  0.86633334  0.63005743  1
  Ti  Ti56  1  0.86928334  0.62856839  0.87896093  1
  Ti  Ti57  1  0.61500394  0.85739027  0.13317077  1
  Ti  Ti58  1  0.62129573  0.36741244  0.11908080  1
  Ti  Ti59  1  0.62489410  0.87949057  0.89878730  1
  Ti  Ti60  1  0.38168365  0.12557778  0.62769372  1
  Ti  Ti61  1  0.62974124  0.38163646  0.36715416  1
  Ti  Ti62  1  0.63488517  0.62094855  0.12508595  1
  Ti  Ti63  1  0.12484256  0.62069502  0.38623635  1
  Ti  Ti64  1  0.87876907  0.63231405  0.63902847  1
  Ti  Ti65  1  0.37877737  0.37187823  0.89434384  1
  Ti  Ti66  1  0.13593684  0.88758148  0.88145739  1
  Ti  Ti67  1  0.62947667  0.12159457  0.12216062  1
  Ti  Ti68  1  0.87610810  0.86601064  0.37777704  1
  Ti  Ti69  1  0.13687130  0.88700631  0.12966118  1
  Ti  Ti70  1  0.88832394  0.37436512  0.11781125  1
  Ti  Ti71  1  0.62114867  0.62558353  0.36598690  1
  Ti  Ti72  1  0.88133324  0.38168149  0.64406069  1
  Ti  Ti73  1  0.38086335  0.12355459  0.38290813  1
  Bi  Bi74  1  0.02031500  0.76652062  0.49672274  1
  Bi  Bi75  1  0.75308646  -0.02467457  0.25403997  1
  Bi  Bi76  1  0.77837612  -0.01784682  0.03247608  1
  Bi  Bi77  1  0.76293178  0.73718868  0.25714956  1
  Bi  Bi78  1  0.72924359  0.50382813  0.75638418  1
  Bi  Bi79  1  0.01986534  0.53120744  -0.02933542  1
  Bi  Bi80  1  -0.00613509  0.73920620  0.20865847  1
  Bi  Bi81  1  0.22863874  0.27070452  0.00997852  1
  Bi  Bi82  1  0.75596247  0.26085882  0.53728375  1
  Bi  Bi83  1  0.25426698  0.49398337  0.27450168  1
  Bi  Bi84  1  0.75142147  0.23588403  0.24741545  1
  Bi  Bi85  1  -0.00372405  0.00789643  0.76265060  1
  Bi  Bi86  1  0.24455664  0.01717232  0.52088553  1
  Bi  Bi87  1  0.72297187  0.76402095  0.75079736  1
  Bi  Bi88  1  0.26615351  0.52171891  -0.04225932  1
  Bi  Bi89  1  0.26269023  0.70642013  0.77593000  1
  Bi  Bi90  1  0.50410854  0.25715016  0.77685293  1
  Bi  Bi91  1  0.24609471  0.01567573  0.01387492  1
  Bi  Bi92  1  0.03192520  0.52904629  0.75686158  1
  Bi  Bi93  1  0.27180152  0.47805925  0.73387545  1
  Bi  Bi94  1  0.24507238  0.73725479  0.26008682  1
  Bi  Bi95  1  0.78374797  0.22560913  -0.00784384  1
  Bi  Bi96  1  0.49485375  0.73393188  0.79843109  1
  Bi  Bi97  1  0.01016062  0.01234964  0.01224839  1
  Bi  Bi98  1  0.51473002  0.24062272  0.25617336  1
  Bi  Bi99  1  -0.01712120  0.25212170  0.28436884  1
  Bi  Bi100  1  0.79162529  0.77017672  0.01906339  1
  Bi  Bi101  1  -0.03331570  0.51520993  0.50765490  1
  Bi  Bi102  1  -0.00338342  0.22065539  0.75215125  1
  Bi  Bi103  1  0.53558640  0.01124978  0.76386183  1
  Bi  Bi104  1  0.23229545  0.26779996  0.50680496  1
  Bi  Bi105  1  0.50446787  0.50117654  0.78107174  1
  Bi  Bi106  1  0.27789309  -0.00016603  0.76136945  1
  Bi  Bi107  1  0.51104760  -0.01436093  0.52201595  1
  Bi  Bi108  1  0.51035745  0.49270316  0.22238311  1
  Bi  Bi109  1  -0.00017000  0.49408705  0.27538948  1
  Bi  Bi110  1  -0.00098867  0.21568733  0.51333935  1
  Bi  Bi111  1  0.74600920  0.20754775  0.76253869  1
  Bi  Bi112  1  0.53442352  0.48858046  0.50269676  1
  Bi  Bi113  1  0.25305578  -0.00142629  0.28758439  1
  Bi  Bi114  1  0.76194512  0.49802161  0.00339991  1
  Bi  Bi115  1  0.22713088  0.25802062  0.76433966  1
  Bi  Bi116  1  0.21112703  0.73520214  0.00679769  1
  Bi  Bi117  1  0.76208454  0.72623029  0.50735942  1
  Bi  Bi118  1  0.01974331  -0.00119471  0.45571894  1
  Bi  Bi119  1  0.22501619  0.26783349  0.26472086  1
  Bi  Bi120  1  0.49711053  -0.00784313  0.03942346  1
  Bi  Bi121  1  0.75640627  -0.02670329  0.52146726  1
  Bi  Bi122  1  0.03170763  0.74594468  0.79886236  1
  Bi  Bi123  1  0.25365866  0.73948416  0.52479396  1
  Bi  Bi124  1  0.53517195  0.25721120  0.49919349  1
  O  O125  1  0.12351729  0.09173173  -0.00093822  1
  O  O126  1  0.13370976  0.15094187  0.24329592  1
  O  O127  1  0.10756815  0.09851294  0.49907978  1
  O  O128  1  0.12949749  0.15766835  0.74608586  1
  O  O129  1  0.15281355  0.38469257  0.00380546  1
  O  O130  1  0.11561920  0.34652959  0.25219508  1
  O  O131  1  0.16856953  0.40515843  0.51157976  1
  O  O132  1  0.11894122  0.34487338  0.74334249  1
  O  O133  1  0.14551429  0.60839849  0.01495172  1
  O  O134  1  0.11974015  0.66556740  0.24577747  1
  O  O135  1  0.14337700  0.60211492  0.49412432  1
  O  O136  1  0.10898585  0.64413825  0.74554403  1
  O  O137  1  0.12827726  0.91751086  -0.00449563  1
  O  O138  1  0.14389895  0.84862871  0.23663604  1
  O  O139  1  0.09136993  0.88681512  0.49491622  1
  O  O140  1  0.13386941  0.85326189  0.74719849  1
  O  O141  1  0.40827750  0.12944149  -0.01129162  1
  O  O142  1  0.34978293  0.13092943  0.24824453  1
  O  O143  1  0.39284451  0.10697094  0.49426721  1
  O  O144  1  0.35252723  0.12656105  0.73983059  1
  O  O145  1  0.35833267  0.36263284  0.00542779  1
  O  O146  1  0.39561369  0.37262333  0.25246446  1
  O  O147  1  0.35336002  0.38013617  0.49971143  1
  O  O148  1  0.39679133  0.39131012  0.73930365  1
  O  O149  1  0.35682876  0.62357139  0.01049295  1
  O  O150  1  0.39026241  0.64107007  0.24922124  1
  O  O151  1  0.34052731  0.61402196  0.49593341  1
  O  O152  1  0.38620544  0.63457238  0.73643913  1
  O  O153  1  0.40369213  0.87928475  -0.00708807  1
  O  O154  1  0.34925150  0.86621456  0.24208709  1
  O  O155  1  0.38935288  0.89582292  0.49452765  1
  O  O156  1  0.35291904  0.86939351  0.74068288  1
  O  O157  1  0.60292535  0.14149042  0.00949776  1
  O  O158  1  0.62661332  0.15052264  0.24649890  1
  O  O159  1  0.60697602  0.13087919  0.48592362  1
  O  O160  1  0.64578381  0.10574502  0.74777939  1
  O  O161  1  0.63993029  0.37486289  0.00370968  1
  O  O162  1  0.59016464  0.37328353  0.25211979  1
  O  O163  1  0.63047461  0.37252941  0.48888030  1
  O  O164  1  0.61225876  0.41320465  0.75468973  1
  O  O165  1  0.65063717  0.61658763  0.01581420  1
  O  O166  1  0.58335852  0.62838180  0.25506512  1
  O  O167  1  0.63634489  0.64627524  0.50260824  1
  O  O168  1  0.61674311  0.59441703  0.74792231  1
  O  O169  1  0.59144291  0.87253684  0.00995064  1
  O  O170  1  0.63837238  0.87549776  0.24923267  1
  O  O171  1  0.58083475  0.85961370  0.48914044  1
  O  O172  1  0.66974565  0.89168114  0.74840650  1
  O  O173  1  0.86576736  0.10460830  0.00198067  1
  O  O174  1  0.87537442  0.16476160  0.25127899  1
  O  O175  1  0.87914820  0.11263731  0.49226230  1
  O  O176  1  0.87097420  0.14424023  0.74615529  1
  O  O177  1  0.84948800  0.38857237  -0.00423169  1
  O  O178  1  0.88664440  0.34952075  0.23386755  1
  O  O179  1  0.83769068  0.42001958  0.48170458  1
  O  O180  1  0.89729836  0.36871814  0.75339198  1
  O  O181  1  0.85949634  0.60059717  -0.00349707  1
  O  O182  1  0.88241652  0.66476766  0.24601522  1
  O  O183  1  0.85009183  0.59924603  0.49211865  1
  O  O184  1  0.89107619  0.63757997  0.75064242  1
  O  O185  1  0.87605796  0.88457784  0.00282944  1
  O  O186  1  0.84296954  0.86887089  0.25572331  1
  O  O187  1  0.88965362  0.89264653  0.49463463  1
  O  O188  1  0.84829949  0.85124240  0.74105704  1
  O  O189  1  0.01034019  0.09380196  0.12698512  1
  O  O190  1  -0.00815097  0.13585421  0.37024521  1
  O  O191  1  -0.00279693  0.13661692  0.63207251  1
  O  O192  1  0.00006367  0.12091054  0.85148263  1
  O  O193  1  -0.00107891  0.39481854  0.09991575  1
  O  O194  1  -0.01015875  0.39860448  0.37700856  1
  O  O195  1  0.00296335  0.40198524  0.60628333  1
  O  O196  1  -0.00114238  0.34300022  0.91092418  1
  O  O197  1  0.00757922  0.61422757  0.13609489  1
  O  O198  1  0.00005368  0.59765525  0.37609946  1
  O  O199  1  -0.00559510  0.61209777  0.60464453  1
  O  O200  1  -0.00537437  0.63950862  0.88866528  1
  O  O201  1  0.01457484  0.90740475  0.12368779  1
  O  O202  1  -0.01388709  0.87694755  0.33637161  1
  O  O203  1  -0.00425992  0.88075293  0.64476446  1
  O  O204  1  0.00870212  0.85697800  0.89634614  1
  O  O205  1  0.25593254  0.13716846  0.09876247  1
  O  O206  1  0.25688125  0.10027185  0.38705679  1
  O  O207  1  0.25424070  0.13848573  0.59006700  1
  O  O208  1  0.26347647  0.09782817  0.88375011  1
  O  O209  1  0.25771792  0.34585562  0.14682006  1
  O  O210  1  0.25451480  0.37777625  0.35452623  1
  O  O211  1  0.25842316  0.36028511  0.64791359  1
  O  O212  1  0.26420047  0.38756670  0.85449845  1
  O  O213  1  0.24932185  0.65716064  0.14192854  1
  O  O214  1  0.24683918  0.62614545  0.34873556  1
  O  O215  1  0.25320572  0.65313215  0.63628131  1
  O  O216  1  0.25306558  0.59409759  0.84786913  1
  O  O217  1  0.25573731  0.85739704  0.09541143  1
  O  O218  1  0.25195859  0.89141217  0.38079193  1
  O  O219  1  0.24568722  0.86148430  0.59954146  1
  O  O220  1  0.25696592  0.90371876  0.88178049  1
  O  O221  1  0.49635868  0.11064950  0.13727116  1
  O  O222  1  0.49732094  0.13173550  0.35065347  1
  O  O223  1  0.49622625  0.09704829  0.63478584  1
  O  O224  1  0.50159363  0.13299139  0.83901050  1
  O  O225  1  0.49602659  0.40504832  0.11383537  1
  O  O226  1  0.49483371  0.38374433  0.39798260  1
  O  O227  1  0.50072228  0.39045734  0.59945231  1
  O  O228  1  0.49944627  0.35904769  0.87337431  1
  O  O229  1  0.49242792  0.59819830  0.11092638  1
  O  O230  1  0.49217513  0.63463260  0.40482713  1
  O  O231  1  0.50028770  0.60647873  0.60726627  1
  O  O232  1  0.50439336  0.66388932  0.91658708  1
  O  O233  1  0.49849322  0.90931678  0.15425841  1
  O  O234  1  0.49179685  0.86228782  0.35026391  1
  O  O235  1  0.49165319  0.90113647  0.63414155  1
  O  O236  1  0.50094320  0.86447358  0.84708074  1
  O  O237  1  0.74486877  0.15695090  0.12892955  1
  O  O238  1  0.74389423  0.12660898  0.36389258  1
  O  O239  1  0.75313844  0.15250561  0.61580729  1
  O  O240  1  0.74784836  0.13409726  0.88326140  1
  O  O241  1  0.73473434  0.35376791  0.15040646  1
  O  O242  1  0.74241585  0.38212357  0.33449429  1
  O  O243  1  0.75970379  0.36366831  0.63575505  1
  O  O244  1  0.73817272  0.41657233  0.86728639  1
  O  O245  1  0.74610599  0.65037580  0.14835078  1
  O  O246  1  0.73648029  0.63298942  0.34945159  1
  O  O247  1  0.75430122  0.63969133  0.62766129  1
  O  O248  1  0.75262772  0.59517666  0.86143028  1
  O  O249  1  0.73315119  0.86417533  0.11076996  1
  O  O250  1  0.73853850  0.88782216  0.39272815  1
  O  O251  1  0.74629366  0.85159462  0.58466744  1
  O  O252  1  0.74039364  0.88174811  0.91171498  1
  O  O253  1  0.16489298  0.00263804  0.13903972  1
  O  O254  1  0.11637020  -0.00171927  0.35612112  1
  O  O255  1  0.14473693  -0.00619466  0.63549198  1
  O  O256  1  0.11119778  -0.00457193  0.84024424  1
  O  O257  1  0.10989101  0.24107061  0.08918415  1
  O  O258  1  0.13708510  0.25360626  0.40186770  1
  O  O259  1  0.11761165  0.26092828  0.58919491  1
  O  O260  1  0.15705537  0.24734637  0.88820269  1
  O  O261  1  0.14453999  0.50327568  0.16151387  1
  O  O262  1  0.13139445  0.50343053  0.34442981  1
  O  O263  1  0.13893649  0.49770814  0.66266757  1
  O  O264  1  0.10049597  0.49225326  0.86757077  1
  O  O265  1  0.10056227  0.77060512  0.07934273  1
  O  O266  1  0.11603286  0.74370124  0.39767387  1
  O  O267  1  0.11493296  0.75394534  0.59268494  1
  O  O268  1  0.14720387  0.76224423  0.88267144  1
  O  O269  1  0.36579933  0.00188973  0.11337532  1
  O  O270  1  0.38936048  -0.00237475  0.34468072  1
  O  O271  1  0.34564080  0.00042798  0.62663417  1
  O  O272  1  0.39584003  0.00136430  0.84483293  1
  O  O273  1  0.40283396  0.24750851  0.12234971  1
  O  O274  1  0.37182728  0.24822894  0.38254840  1
  O  O275  1  0.39971546  0.24859857  0.62068745  1
  O  O276  1  0.37822332  0.24806127  0.85876150  1
  O  O277  1  0.34942947  0.49849110  0.13692374  1
  O  O278  1  0.36110375  0.50295327  0.37667276  1
  O  O279  1  0.35117431  0.50518213  0.61515650  1
  O  O280  1  0.39889301  0.49076117  0.90184917  1
  O  O281  1  0.40903546  0.75630924  0.11466217  1
  O  O282  1  0.37106267  0.75261446  0.39483010  1
  O  O283  1  0.38225707  0.75299860  0.59669914  1
  O  O284  1  0.36874795  0.76123455  0.87452032  1
  O  O285  1  0.64165834  0.00806884  0.12146151  1
  O  O286  1  0.60091536  -0.00073422  0.35757214  1
  O  O287  1  0.63671494  -0.00810589  0.59221241  1
  O  O288  1  0.60290402  -0.00460045  0.88733966  1
  O  O289  1  0.58568381  0.25752651  0.12495583  1
  O  O290  1  0.60992304  0.25760458  0.37160411  1
  O  O291  1  0.62061978  0.25339536  0.60813523  1
  O  O292  1  0.62732380  0.26480499  0.85273306  1
  O  O293  1  0.64212799  0.50104231  0.15511335  1
  O  O294  1  0.61730615  0.50394490  0.37864037  1
  O  O295  1  0.64980087  0.50586287  0.59501807  1
  O  O296  1  0.57828622  0.50385297  0.89934226  1
  O  O297  1  0.59579837  0.74495150  0.13839973  1
  O  O298  1  0.61595499  0.75082601  0.37026339  1
  O  O299  1  0.61402686  0.74246377  0.65623465  1
  O  O300  1  0.63242601  0.75581164  0.85641315  1
  O  O301  1  0.85037015  0.00651564  0.15365684  1
  O  O302  1  0.87052944  0.00602181  0.34437141  1
  O  O303  1  0.83980971  -0.01506500  0.64044946  1
  O  O304  1  0.87700735  -0.01054474  0.83419122  1
  O  O305  1  0.90127177  0.25577416  0.08093871  1
  O  O306  1  0.87904344  0.26674823  0.38650943  1
  O  O307  1  0.88992146  0.27240482  0.59186922  1
  O  O308  1  0.85327584  0.26104949  0.87793060  1
  O  O309  1  0.84050382  0.48990867  0.13127090  1
  O  O310  1  0.86267395  0.49567495  0.31792500  1
  O  O311  1  0.86437071  0.50363310  0.62907833  1
  O  O312  1  0.91242637  0.49612289  0.87154847  1
  O  O313  1  0.90856067  0.74461050  0.09226141  1
  O  O314  1  0.86207560  0.75291722  0.38915084  1
  O  O315  1  0.88315466  0.74643807  0.59849230  1
  O  O316  1  0.85533261  0.74236300  0.88874577  1
