# generated using pymatgen
data_Mg32Ti42(Bi17O64)3
_symmetry_space_group_name_H-M   'P 1'
_cell_length_a   15.95172005
_cell_length_b   15.94989821
_cell_length_c   15.91888294
_cell_angle_alpha   89.99923241
_cell_angle_beta   89.88352267
_cell_angle_gamma   90.05713281
_symmetry_Int_Tables_number   1
_chemical_formula_structural   Mg32Ti42(Bi17O64)3
_chemical_formula_sum   'Mg32 Ti42 Bi51 O192'
_cell_volume   4050.20411560
_cell_formula_units_Z   1
loop_
 _symmetry_equiv_pos_site_id
 _symmetry_equiv_pos_as_xyz
  1  'x, y, z'
loop_
 _atom_site_type_symbol
 _atom_site_label
 _atom_site_symmetry_multiplicity
 _atom_site_fract_x
 _atom_site_fract_y
 _atom_site_fract_z
 _atom_site_occupancy
  Mg  Mg0  1  0.88251238  0.61485542  0.62771268  1
  Mg  Mg1  1  0.37877343  0.37756141  0.87978453  1
  Mg  Mg2  1  0.37461015  0.88130226  0.11710920  1
  Mg  Mg3  1  0.63254349  0.13056803  0.12685021  1
  Mg  Mg4  1  0.12385801  0.87503035  0.11117895  1
  Mg  Mg5  1  0.37098345  0.87813047  0.62644162  1
  Mg  Mg6  1  0.11612997  0.62068166  0.86748753  1
  Mg  Mg7  1  0.14830258  0.38153848  0.11976659  1
  Mg  Mg8  1  0.13616762  0.62162838  0.12658842  1
  Mg  Mg9  1  0.12593080  0.13814627  0.62308868  1
  Mg  Mg10  1  0.14453224  0.38303211  0.36922190  1
  Mg  Mg11  1  0.37053234  0.62412190  0.86604244  1
  Mg  Mg12  1  0.12706687  0.13640017  0.36267506  1
  Mg  Mg13  1  0.86903130  0.86131781  0.11625274  1
  Mg  Mg14  1  0.87864922  0.37695064  0.87082341  1
  Mg  Mg15  1  0.87847517  0.88686893  0.38438909  1
  Mg  Mg16  1  0.11529716  0.13267084  0.12509664  1
  Mg  Mg17  1  0.85578780  0.11249688  0.86494744  1
  Mg  Mg18  1  0.38064937  0.87636940  0.38286259  1
  Mg  Mg19  1  0.71546592  0.20431264  0.31552254  1
  Mg  Mg20  1  0.03434779  0.28407515  0.24936256  1
  Mg  Mg21  1  0.21819641  0.21394607  -0.01828904  1
  Mg  Mg22  1  -0.01917264  0.80518904  0.74802133  1
  Mg  Mg23  1  0.21150683  -0.01218918  0.20636693  1
  Mg  Mg24  1  0.70419276  0.07190388  0.69458245  1
  Mg  Mg25  1  0.25536643  0.50607188  0.25417831  1
  Mg  Mg26  1  0.00021012  0.80023408  0.53147019  1
  Mg  Mg27  1  0.79065520  0.71514459  0.01693630  1
  Mg  Mg28  1  -0.00091747  0.49002235  0.73250891  1
  Mg  Mg29  1  0.51732177  0.00552445  0.56961113  1
  Mg  Mg30  1  0.48083233  0.53885136  -0.02461560  1
  Mg  Mg31  1  0.28407158  0.47453858  0.75307602  1
  Ti  Ti32  1  0.61896680  0.37791178  0.38767903  1
  Ti  Ti33  1  0.87583132  0.37805183  0.13849197  1
  Ti  Ti34  1  0.38302828  0.37707966  0.36377447  1
  Ti  Ti35  1  0.36604012  0.88143247  0.87163136  1
  Ti  Ti36  1  0.89116048  0.61759151  0.86411083  1
  Ti  Ti37  1  0.88262103  0.13026680  0.37268271  1
  Ti  Ti38  1  0.86971597  0.87396449  0.88360207  1
  Ti  Ti39  1  0.62329590  0.63401198  0.88009268  1
  Ti  Ti40  1  0.88421718  0.38213169  0.62600608  1
  Ti  Ti41  1  0.86935189  0.89395371  0.62735357  1
  Ti  Ti42  1  0.38258243  0.62194329  0.36047043  1
  Ti  Ti43  1  0.37286709  0.11380720  0.62117727  1
  Ti  Ti44  1  0.62521908  0.62643365  0.38129320  1
  Ti  Ti45  1  0.63794890  0.37391348  0.12030550  1
  Ti  Ti46  1  0.37894413  0.37170589  0.63055956  1
  Ti  Ti47  1  0.86950459  0.13039059  0.62131175  1
  Ti  Ti48  1  0.87540968  0.37642576  0.37391447  1
  Ti  Ti49  1  0.11389302  0.63273143  0.63418197  1
  Ti  Ti50  1  0.12297665  0.86764364  0.37423626  1
  Ti  Ti51  1  0.62626133  0.86268466  0.38968768  1
  Ti  Ti52  1  0.13754333  0.38435605  0.63627552  1
  Ti  Ti53  1  0.87390133  0.61254355  0.14053775  1
  Ti  Ti54  1  0.35880961  0.62501409  0.63555797  1
  Ti  Ti55  1  0.62028404  0.36851942  0.88446463  1
  Ti  Ti56  1  0.37800480  0.40244042  0.12171879  1
  Ti  Ti57  1  0.62950168  0.37429259  0.62780426  1
  Ti  Ti58  1  0.37854260  0.62880308  0.11727676  1
  Ti  Ti59  1  0.12638809  0.86880200  0.62676045  1
  Ti  Ti60  1  0.37511745  0.10938222  0.37577592  1
  Ti  Ti61  1  0.62416873  0.62725860  0.64219400  1
  Ti  Ti62  1  0.62800270  0.86584947  0.63185842  1
  Ti  Ti63  1  0.62214609  0.13798780  0.88719953  1
  Ti  Ti64  1  0.12958790  0.38504883  0.86662036  1
  Ti  Ti65  1  0.88970683  0.61489495  0.38067426  1
  Ti  Ti66  1  0.87326612  0.14009307  0.12868287  1
  Ti  Ti67  1  0.63735004  0.87281504  0.88124665  1
  Ti  Ti68  1  0.38211909  0.13406978  0.86399391  1
  Ti  Ti69  1  0.11121635  0.86727132  0.87804653  1
  Ti  Ti70  1  0.37331633  0.11100132  0.14479105  1
  Ti  Ti71  1  0.62866753  0.63513100  0.11604395  1
  Ti  Ti72  1  0.63217368  0.87439663  0.12426363  1
  Ti  Ti73  1  0.12850522  0.62740227  0.37751500  1
  Bi  Bi74  1  0.23063770  0.75901127  0.76126819  1
  Bi  Bi75  1  0.76228808  0.24879062  0.75886179  1
  Bi  Bi76  1  0.26283049  0.79018080  0.23741299  1
  Bi  Bi77  1  0.23965644  0.23521475  0.21900230  1
  Bi  Bi78  1  0.26822880  0.24588676  0.48091946  1
  Bi  Bi79  1  0.25555089  0.50073492  -0.02566407  1
  Bi  Bi80  1  0.51337992  0.22244890  0.71671266  1
  Bi  Bi81  1  0.26806759  0.01891241  -0.00273319  1
  Bi  Bi82  1  0.73987763  0.50253117  0.27370209  1
  Bi  Bi83  1  0.48910708  0.78004524  0.24591087  1
  Bi  Bi84  1  0.27022984  0.73746141  0.48125396  1
  Bi  Bi85  1  0.03342130  0.50274146  0.51261849  1
  Bi  Bi86  1  0.51015470  0.48506400  0.76702269  1
  Bi  Bi87  1  0.01218604  0.02136313  0.74094030  1
  Bi  Bi88  1  0.45177070  0.24854486  0.02100141  1
  Bi  Bi89  1  0.00261935  0.72885867  0.03137724  1
  Bi  Bi90  1  0.73964888  0.51489645  -0.01337763  1
  Bi  Bi91  1  0.78481484  0.74987730  0.74707511  1
  Bi  Bi92  1  0.03673256  0.03442875  -0.03706093  1
  Bi  Bi93  1  0.75693808  0.77356955  0.26984877  1
  Bi  Bi94  1  0.49298215  0.51040185  0.52265835  1
  Bi  Bi95  1  0.01483019  0.02836245  0.48134905  1
  Bi  Bi96  1  0.53090471  -0.00611210  0.76908897  1
  Bi  Bi97  1  0.77212432  0.00679567  0.02295062  1
  Bi  Bi98  1  0.71198279  0.02836348  0.49414126  1
  Bi  Bi99  1  0.48676905  0.76044818  0.52377776  1
  Bi  Bi100  1  -0.02567546  0.76753038  0.26177184  1
  Bi  Bi101  1  0.52548078  0.52282773  0.23615736  1
  Bi  Bi102  1  0.76974773  0.25714956  0.49950539  1
  Bi  Bi103  1  0.74980618  0.01700195  0.26164673  1
  Bi  Bi104  1  0.78974669  0.74661157  0.51766349  1
  Bi  Bi105  1  0.49232179  0.77409110  -0.00435220  1
  Bi  Bi106  1  0.75913234  0.48995201  0.76362867  1
  Bi  Bi107  1  0.22836873  0.22781820  0.76301178  1
  Bi  Bi108  1  0.26762863  0.49126201  0.48337240  1
  Bi  Bi109  1  0.73829899  0.51382406  0.51819801  1
  Bi  Bi110  1  0.03570590  0.26214233  0.47833489  1
  Bi  Bi111  1  0.77076199  0.25610775  0.00096731  1
  Bi  Bi112  1  -0.00763271  0.24232855  0.76983185  1
  Bi  Bi113  1  0.51467188  0.27518858  0.23271236  1
  Bi  Bi114  1  0.53122413  0.20027582  0.48734203  1
  Bi  Bi115  1  0.24354056  0.73237514  -0.00169764  1
  Bi  Bi116  1  0.51922806  0.01458192  0.01908944  1
  Bi  Bi117  1  0.53650664  0.03285366  0.27865979  1
  Bi  Bi118  1  0.24164982  0.00170815  0.47061471  1
  Bi  Bi119  1  0.48252174  0.76905826  0.76339844  1
  Bi  Bi120  1  0.01854201  0.50214451  0.00282451  1
  Bi  Bi121  1  0.00544445  0.27513965  0.00523212  1
  Bi  Bi122  1  0.04000237  0.50004802  0.24836765  1
  Bi  Bi123  1  0.22262536  0.01878774  0.75457359  1
  Bi  Bi124  1  -0.01418550  -0.01047142  0.20086043  1
  O  O125  1  0.14037926  0.11386221  -0.00174893  1
  O  O126  1  0.11302727  0.18258287  0.24388470  1
  O  O127  1  0.11422740  0.13104269  0.50183021  1
  O  O128  1  0.12799204  0.12385236  0.74685382  1
  O  O129  1  0.10009383  0.37353858  -0.00171864  1
  O  O130  1  0.11605673  0.38148284  0.24579857  1
  O  O131  1  0.12317844  0.38066756  0.50929782  1
  O  O132  1  0.10248489  0.41293434  0.75238227  1
  O  O133  1  0.08280851  0.62611369  -0.00537900  1
  O  O134  1  0.15134347  0.58527567  0.25026205  1
  O  O135  1  0.10572686  0.62680439  0.49113116  1
  O  O136  1  0.14234780  0.63988066  0.74460309  1
  O  O137  1  0.11745611  0.90841660  -0.01244671  1
  O  O138  1  0.14579802  0.89196033  0.26418598  1
  O  O139  1  0.10303879  0.87652666  0.50894895  1
  O  O140  1  0.11029182  0.83917704  0.75008242  1
  O  O141  1  0.32989626  0.14427077  -0.00481564  1
  O  O142  1  0.38286050  0.08895418  0.25485534  1
  O  O143  1  0.37741874  0.15101921  0.49886647  1
  O  O144  1  0.40010917  0.11405248  0.74762403  1
  O  O145  1  0.35980494  0.35505197  0.01387299  1
  O  O146  1  0.40769857  0.38318714  0.24938530  1
  O  O147  1  0.34294105  0.36481203  0.50692386  1
  O  O148  1  0.39177980  0.40870722  0.74883471  1
  O  O149  1  0.40781656  0.64951516  0.00495882  1
  O  O150  1  0.35798993  0.58622628  0.24971060  1
  O  O151  1  0.38591589  0.65250350  0.49592886  1
  O  O152  1  0.34084871  0.58925009  0.74374307  1
  O  O153  1  0.36869168  0.84531290  -0.00964926  1
  O  O154  1  0.37597417  0.87406045  0.25252889  1
  O  O155  1  0.37216024  0.83335948  0.50481949  1
  O  O156  1  0.40072930  0.88502267  0.75235265  1
  O  O157  1  0.63326893  0.10342329  0.00150333  1
  O  O158  1  0.64381093  0.11716860  0.25474270  1
  O  O159  1  0.58662539  0.07609999  0.48951463  1
  O  O160  1  0.61000042  0.12328038  0.76181911  1
  O  O161  1  0.63770733  0.37038403  0.00073320  1
  O  O162  1  0.60607829  0.37342461  0.25600586  1
  O  O163  1  0.62850469  0.40037884  0.50328842  1
  O  O164  1  0.60714317  0.37342034  0.74916057  1
  O  O165  1  0.59902949  0.59935397  0.00103371  1
  O  O166  1  0.64367072  0.61461777  0.24060545  1
  O  O167  1  0.61087592  0.61265728  0.49397621  1
  O  O168  1  0.64626135  0.62770219  0.75598259  1
  O  O169  1  0.62410266  0.88680518  -0.00144512  1
  O  O170  1  0.61887285  0.84565296  0.24046652  1
  O  O171  1  0.63492206  0.87619542  0.50197083  1
  O  O172  1  0.60507665  0.86675480  0.75294961  1
  O  O173  1  0.85013044  0.13750855  0.00239197  1
  O  O174  1  0.86723175  0.11300618  0.25331196  1
  O  O175  1  0.87726772  0.15871971  0.50313185  1
  O  O176  1  0.81882841  0.11003488  0.73466915  1
  O  O177  1  0.88221371  0.34510697  -0.00307475  1
  O  O178  1  0.87197241  0.38881147  0.25205570  1
  O  O179  1  0.87578263  0.35028366  0.50021629  1
  O  O180  1  0.88797091  0.41185899  0.74565132  1
  O  O181  1  0.89914434  0.64028046  -0.01466716  1
  O  O182  1  0.85719355  0.59388538  0.25097527  1
  O  O183  1  0.88723648  0.64017883  0.49411432  1
  O  O184  1  0.83462975  0.60709694  0.75228575  1
  O  O185  1  0.85843871  0.82862626  -0.01012689  1
  O  O186  1  0.87229240  0.86669683  0.25174898  1
  O  O187  1  0.88698143  0.85208421  0.50840482  1
  O  O188  1  0.86680588  0.87415502  0.74858573  1
  O  O189  1  -0.01208623  0.13457815  0.11823307  1
  O  O190  1  -0.00137341  0.14589108  0.38682635  1
  O  O191  1  -0.01182507  0.11644351  0.63838122  1
  O  O192  1  -0.01649424  0.11784837  0.84721517  1
  O  O193  1  -0.01054061  0.33251276  0.13521226  1
  O  O194  1  -0.01182331  0.33126494  0.36312067  1
  O  O195  1  -0.00170723  0.39942474  0.62355501  1
  O  O196  1  0.00658636  0.34036964  0.87094250  1
  O  O197  1  -0.00698418  0.64206289  0.14173408  1
  O  O198  1  0.00088104  0.63370351  0.34776044  1
  O  O199  1  0.00417395  0.58650520  0.64586291  1
  O  O200  1  -0.00850456  0.57656019  0.83427959  1
  O  O201  1  0.00135672  0.86085569  0.14579467  1
  O  O202  1  0.00370095  0.85031681  0.37280266  1
  O  O203  1  -0.01219895  0.87981944  0.63989638  1
  O  O204  1  -0.00587528  0.86607709  0.86666343  1
  O  O205  1  0.25029245  0.10213788  0.15893144  1
  O  O206  1  0.25300359  0.11307905  0.38012076  1
  O  O207  1  0.25648725  0.12531255  0.63995919  1
  O  O208  1  0.25990612  0.12005804  0.84748527  1
  O  O209  1  0.26857659  0.42487377  0.15182664  1
  O  O210  1  0.26471053  0.42062828  0.35355270  1
  O  O211  1  0.25274896  0.39013552  0.65964665  1
  O  O212  1  0.24877754  0.40921147  0.85595152  1
  O  O213  1  0.26271138  0.61527431  0.09020259  1
  O  O214  1  0.24972498  0.60781170  0.39330080  1
  O  O215  1  0.25087262  0.65602766  0.60795751  1
  O  O216  1  0.24572313  0.62111304  0.90806519  1
  O  O217  1  0.25001136  0.89227577  0.13388978  1
  O  O218  1  0.24522187  0.88489079  0.40216406  1
  O  O219  1  0.24118964  0.85488488  0.63934746  1
  O  O220  1  0.24721725  0.87830190  0.85035149  1
  O  O221  1  0.49395106  0.12641907  0.10668387  1
  O  O222  1  0.48969448  0.14314453  0.36075025  1
  O  O223  1  0.49558946  0.12779712  0.61782536  1
  O  O224  1  0.49525197  0.10687399  0.89887095  1
  O  O225  1  0.49740086  0.34700143  0.11469725  1
  O  O226  1  0.49761845  0.35941216  0.39420446  1
  O  O227  1  0.49508754  0.40061298  0.61462058  1
  O  O228  1  0.50826141  0.41046542  0.88803864  1
  O  O229  1  0.50933098  0.64283704  0.14966946  1
  O  O230  1  0.50065997  0.63418152  0.35010591  1
  O  O231  1  0.50576932  0.60101557  0.63427550  1
  O  O232  1  0.50574583  0.60467998  0.86117475  1
  O  O233  1  0.50045667  0.84954776  0.11745721  1
  O  O234  1  0.50743261  0.84717174  0.37842868  1
  O  O235  1  0.50601182  0.88113821  0.60397010  1
  O  O236  1  0.49626264  0.87111724  0.88433414  1
  O  O237  1  0.75545386  0.08965556  0.13303355  1
  O  O238  1  0.75636212  0.10118651  0.38238638  1
  O  O239  1  0.74083224  0.13001234  0.58901426  1
  O  O240  1  0.73647832  0.15992088  0.87715496  1
  O  O241  1  0.75247683  0.38854049  0.12273592  1
  O  O242  1  0.74714614  0.39862673  0.37639484  1
  O  O243  1  0.74579912  0.35789286  0.63223844  1
  O  O244  1  0.74442713  0.35064611  0.86209374  1
  O  O245  1  0.75444273  0.60916483  0.09674836  1
  O  O246  1  0.74817506  0.59416681  0.38158310  1
  O  O247  1  0.74274016  0.63374906  0.59714745  1
  O  O248  1  0.74206256  0.64033760  0.91937850  1
  O  O249  1  0.74547290  0.89937809  0.12667981  1
  O  O250  1  0.75172281  0.87069806  0.36764524  1
  O  O251  1  0.74836393  0.85463639  0.62521172  1
  O  O252  1  0.74820469  0.85262110  0.86534430  1
  O  O253  1  0.10563305  0.00538815  0.14042775  1
  O  O254  1  0.11538327  0.00069323  0.39133294  1
  O  O255  1  0.12350506  -0.01080057  0.64814219  1
  O  O256  1  0.11196358  -0.00957050  0.84574924  1
  O  O257  1  0.18005113  0.25633801  0.09935611  1
  O  O258  1  0.14672652  0.26077325  0.39508295  1
  O  O259  1  0.12605100  0.26764957  0.64506426  1
  O  O260  1  0.16300205  0.26564909  0.87854545  1
  O  O261  1  0.09812602  0.49917278  0.11389107  1
  O  O262  1  0.10027285  0.50012540  0.38148423  1
  O  O263  1  0.14011425  0.51013106  0.60428648  1
  O  O264  1  0.12240176  0.49781523  0.90348089  1
  O  O265  1  0.14011440  0.74785532  0.09831404  1
  O  O266  1  0.14285139  0.74691259  0.36402976  1
  O  O267  1  0.08362892  0.74547498  0.61272836  1
  O  O268  1  0.14338229  0.75234917  0.88976342  1
  O  O269  1  0.38064822  0.00423797  0.08728164  1
  O  O270  1  0.37765519  0.00103903  0.40778397  1
  O  O271  1  0.38230250  0.00373103  0.59898072  1
  O  O272  1  0.36389777  -0.00218475  0.89458093  1
  O  O273  1  0.37300001  0.23197081  0.14214410  1
  O  O274  1  0.34557925  0.26282942  0.36720901  1
  O  O275  1  0.38629678  0.25959048  0.64346009  1
  O  O276  1  0.38187812  0.24833099  0.86140627  1
  O  O277  1  0.41865420  0.50627021  0.09546399  1
  O  O278  1  0.39090942  0.50299753  0.40869995  1
  O  O279  1  0.36641086  0.50999591  0.59151998  1
  O  O280  1  0.37521992  0.50509438  0.91028759  1
  O  O281  1  0.36332265  0.74164466  0.14782313  1
  O  O282  1  0.35189165  0.73745205  0.35327422  1
  O  O283  1  0.40353226  0.73948394  0.64578035  1
  O  O284  1  0.36895487  0.74944600  0.84511307  1
  O  O285  1  0.59802918  -0.00880036  0.13936908  1
  O  O286  1  0.63229599  -0.02203577  0.35593780  1
  O  O287  1  0.62366889  -0.00995138  0.64591897  1
  O  O288  1  0.63144339  -0.00647521  0.86325314  1
  O  O289  1  0.62972835  0.25443199  0.14212301  1
  O  O290  1  0.64122309  0.25957675  0.39703719  1
  O  O291  1  0.60241434  0.26111923  0.61258364  1
  O  O292  1  0.59250609  0.25101219  0.88430932  1
  O  O293  1  0.61357445  0.49124010  0.13288874  1
  O  O294  1  0.61114422  0.50120458  0.35614367  1
  O  O295  1  0.64695127  0.50303285  0.63207785  1
  O  O296  1  0.65370143  0.49677267  0.86902581  1
  O  O297  1  0.65186654  0.74522182  0.09765118  1
  O  O298  1  0.65056960  0.74027903  0.37536903  1
  O  O299  1  0.60867852  0.74522759  0.62860038  1
  O  O300  1  0.60785023  0.74730152  0.88410157  1
  O  O301  1  0.89377216  -0.00867761  0.09681909  1
  O  O302  1  0.90081025  0.01208327  0.39266326  1
  O  O303  1  0.86045685  0.00441019  0.60571509  1
  O  O304  1  0.86648030  -0.01301986  0.89967861  1
  O  O305  1  0.84090910  0.24875702  0.13035511  1
  O  O306  1  0.82763425  0.24683401  0.36512744  1
  O  O307  1  0.87921169  0.25203604  0.65672917  1
  O  O308  1  0.87450762  0.24709937  0.83698419  1
  O  O309  1  0.89476628  0.49219834  0.10908807  1
  O  O310  1  0.89596607  0.49079782  0.39101213  1
  O  O311  1  0.85117640  0.49238437  0.60186184  1
  O  O312  1  0.84055908  0.50125584  0.88539800  1
  O  O313  1  0.85648900  0.73269256  0.13202997  1
  O  O314  1  0.86182111  0.73289430  0.35507580  1
  O  O315  1  0.87409382  0.74246817  0.63559245  1
  O  O316  1  0.89597114  0.73585999  0.83047985  1
