# generated using pymatgen
data_Mg32Ti42(Bi17O64)3
_symmetry_space_group_name_H-M   'P 1'
_cell_length_a   15.90056015
_cell_length_b   15.99050773
_cell_length_c   15.98301667
_cell_angle_alpha   89.81792151
_cell_angle_beta   90.05382649
_cell_angle_gamma   90.13370149
_symmetry_Int_Tables_number   1
_chemical_formula_structural   Mg32Ti42(Bi17O64)3
_chemical_formula_sum   'Mg32 Ti42 Bi51 O192'
_cell_volume   4063.77698069
_cell_formula_units_Z   1
loop_
 _symmetry_equiv_pos_site_id
 _symmetry_equiv_pos_as_xyz
  1  'x, y, z'
loop_
 _atom_site_type_symbol
 _atom_site_label
 _atom_site_symmetry_multiplicity
 _atom_site_fract_x
 _atom_site_fract_y
 _atom_site_fract_z
 _atom_site_occupancy
  Mg  Mg0  1  0.12090455  0.37673084  0.62917308  1
  Mg  Mg1  1  0.62973898  0.88028080  0.13838417  1
  Mg  Mg2  1  0.87285123  0.38926274  0.37703202  1
  Mg  Mg3  1  0.87209259  0.62583248  0.62969110  1
  Mg  Mg4  1  0.37292633  0.88552831  0.88631120  1
  Mg  Mg5  1  0.86806243  0.36520562  0.12584308  1
  Mg  Mg6  1  0.63690770  0.87489370  0.86321997  1
  Mg  Mg7  1  0.86267676  0.36103751  0.62800209  1
  Mg  Mg8  1  0.61958324  0.13871733  0.11917083  1
  Mg  Mg9  1  0.62662199  0.12168768  0.36975852  1
  Mg  Mg10  1  0.12457820  0.87895321  0.61759092  1
  Mg  Mg11  1  0.12527270  0.37371864  0.12711012  1
  Mg  Mg12  1  0.37771402  0.37419853  0.88052692  1
  Mg  Mg13  1  0.12689982  0.87426083  0.87342438  1
  Mg  Mg14  1  0.11475086  0.87907339  0.13925885  1
  Mg  Mg15  1  0.62050272  0.62470065  0.12063841  1
  Mg  Mg16  1  0.12541576  0.13068860  0.11930774  1
  Mg  Mg17  1  0.12184845  0.38115376  0.37759126  1
  Mg  Mg18  1  0.87892151  0.38003364  0.87653504  1
  Mg  Mg19  1  0.00569132  0.05294698  0.26733439  1
  Mg  Mg20  1  0.30868841  0.49621146  0.76668151  1
  Mg  Mg21  1  -0.03439955  0.45531079  0.72892839  1
  Mg  Mg22  1  0.52462786  0.68997485  0.30551702  1
  Mg  Mg23  1  0.76621693  0.70595464  0.77524695  1
  Mg  Mg24  1  0.50114558  0.54146494  0.79862078  1
  Mg  Mg25  1  0.76231651  0.29112360  0.77659254  1
  Mg  Mg26  1  0.47871470  0.23198638  0.23546063  1
  Mg  Mg27  1  0.74294240  0.02141589  0.52503203  1
  Mg  Mg28  1  0.74964956  0.02589248  0.78405867  1
  Mg  Mg29  1  0.71498892  0.03412857  0.21901002  1
  Mg  Mg30  1  0.24487340  -0.03848914  0.04523822  1
  Mg  Mg31  1  0.49301822  0.80924283  0.48145559  1
  Ti  Ti32  1  0.87479643  0.62511687  0.39122728  1
  Ti  Ti33  1  0.36193131  0.12205968  0.87937380  1
  Ti  Ti34  1  0.62693147  0.13281969  0.63607321  1
  Ti  Ti35  1  0.12545530  0.39546331  0.86624768  1
  Ti  Ti36  1  0.88141253  0.12457698  0.12979203  1
  Ti  Ti37  1  0.88125636  0.88529968  0.13464681  1
  Ti  Ti38  1  0.88221194  0.60259497  0.86169645  1
  Ti  Ti39  1  0.37415801  0.87657812  0.12814172  1
  Ti  Ti40  1  0.62959106  0.89229194  0.36661952  1
  Ti  Ti41  1  0.38055189  0.87893561  0.62549758  1
  Ti  Ti42  1  0.63082439  0.63451914  0.87558744  1
  Ti  Ti43  1  0.86561149  0.87325935  0.37282667  1
  Ti  Ti44  1  0.12104985  0.13282687  0.87822814  1
  Ti  Ti45  1  0.11578508  0.63375000  0.38769021  1
  Ti  Ti46  1  0.61897547  0.36555145  0.37147912  1
  Ti  Ti47  1  0.38555158  0.88891421  0.36191952  1
  Ti  Ti48  1  0.85887847  0.87505820  0.62769303  1
  Ti  Ti49  1  0.85946344  0.11827418  0.63600371  1
  Ti  Ti50  1  0.86654197  0.88194946  0.87803699  1
  Ti  Ti51  1  0.12340418  0.62600346  0.86207268  1
  Ti  Ti52  1  0.11882830  0.12659399  0.38453660  1
  Ti  Ti53  1  0.10505678  0.12350508  0.62560716  1
  Ti  Ti54  1  0.38010342  0.38220290  0.62296232  1
  Ti  Ti55  1  0.62858913  0.36929497  0.12968849  1
  Ti  Ti56  1  0.61766620  0.87483373  0.63170211  1
  Ti  Ti57  1  0.36258349  0.62287355  0.87796945  1
  Ti  Ti58  1  0.36792111  0.36988933  0.37852667  1
  Ti  Ti59  1  0.38085222  0.12684969  0.63178389  1
  Ti  Ti60  1  0.38720672  0.64312712  0.13112527  1
  Ti  Ti61  1  0.37051841  0.36260729  0.13633175  1
  Ti  Ti62  1  0.37615667  0.12813206  0.37159679  1
  Ti  Ti63  1  0.62109764  0.36576010  0.62741345  1
  Ti  Ti64  1  0.11159481  0.88151269  0.37728438  1
  Ti  Ti65  1  0.38201694  0.63317522  0.38794479  1
  Ti  Ti66  1  0.13639868  0.63384263  0.62835864  1
  Ti  Ti67  1  0.86081220  0.10444432  0.36454431  1
  Ti  Ti68  1  0.63081901  0.13380880  0.87672596  1
  Ti  Ti69  1  0.61897033  0.38950006  0.87212925  1
  Ti  Ti70  1  0.61447602  0.62723525  0.64008146  1
  Ti  Ti71  1  0.37801711  0.63036069  0.63227798  1
  Ti  Ti72  1  0.36706061  0.12245828  0.11520463  1
  Ti  Ti73  1  0.87080690  0.12284836  0.88781051  1
  Bi  Bi74  1  0.50319195  0.01820030  0.77514748  1
  Bi  Bi75  1  0.76132226  0.53263703  0.03181394  1
  Bi  Bi76  1  0.22995492  0.26379194  0.51975946  1
  Bi  Bi77  1  -0.00912400  0.26885934  0.01456738  1
  Bi  Bi78  1  0.22454291  0.03017329  0.24661832  1
  Bi  Bi79  1  -0.03509253  0.25710173  0.49179985  1
  Bi  Bi80  1  0.21960823  0.75800993  0.26189428  1
  Bi  Bi81  1  -0.00669522  0.75323877  0.52771161  1
  Bi  Bi82  1  0.22178565  0.26158063  0.26653994  1
  Bi  Bi83  1  0.49639109  0.26842925  0.76571689  1
  Bi  Bi84  1  0.75374659  -0.02050306  0.01621361  1
  Bi  Bi85  1  0.49972332  0.26907572  0.01791715  1
  Bi  Bi86  1  0.50197794  0.02138527  0.23718099  1
  Bi  Bi87  1  0.75263090  0.74745523  0.04184067  1
  Bi  Bi88  1  0.75442975  0.24048988  0.24860179  1
  Bi  Bi89  1  -0.00741197  0.26313706  0.77070565  1
  Bi  Bi90  1  0.72407385  0.73215597  0.27378858  1
  Bi  Bi91  1  0.52581959  0.77542623  0.01323404  1
  Bi  Bi92  1  0.53227425  -0.00200427  0.00542946  1
  Bi  Bi93  1  -0.03952374  0.52065953  0.22384565  1
  Bi  Bi94  1  0.00108206  -0.02117670  0.76762130  1
  Bi  Bi95  1  0.22288730  0.53398319  0.03395917  1
  Bi  Bi96  1  0.22092593  0.53594451  0.25131419  1
  Bi  Bi97  1  0.73277016  0.51972286  0.49276287  1
  Bi  Bi98  1  0.50741246  0.52111644  0.49638723  1
  Bi  Bi99  1  0.46981016  0.49704032  0.25775740  1
  Bi  Bi100  1  -0.01378089  0.27412483  0.27105083  1
  Bi  Bi101  1  0.52713775  0.01408440  0.51119401  1
  Bi  Bi102  1  0.24731560  0.01892338  0.52131566  1
  Bi  Bi103  1  0.25392646  0.78360575  0.49321854  1
  Bi  Bi104  1  0.22497119  0.77208975  0.02179965  1
  Bi  Bi105  1  0.23168694  0.27014659  0.00409915  1
  Bi  Bi106  1  0.75052700  0.27328954  -0.02366490  1
  Bi  Bi107  1  0.03263111  0.00095546  0.01760762  1
  Bi  Bi108  1  -0.04038228  -0.00970891  0.50304671  1
  Bi  Bi109  1  0.70600075  0.51559871  0.26823233  1
  Bi  Bi110  1  0.74538062  0.49918071  0.72411385  1
  Bi  Bi111  1  0.22325800  -0.00059376  0.75857016  1
  Bi  Bi112  1  0.24616477  0.77122033  0.76353872  1
  Bi  Bi113  1  0.00300322  0.71633930  0.03274384  1
  Bi  Bi114  1  -0.02371989  0.75365191  0.77060921  1
  Bi  Bi115  1  -0.02843365  0.74325121  0.24881283  1
  Bi  Bi116  1  -0.01600832  0.50582794  0.01715466  1
  Bi  Bi117  1  0.49129763  0.23416652  0.48529288  1
  Bi  Bi118  1  0.74874202  0.26574655  0.47472017  1
  Bi  Bi119  1  0.22900536  0.50138668  0.50130220  1
  Bi  Bi120  1  0.48555331  0.76451334  0.77849889  1
  Bi  Bi121  1  0.26098789  0.27279392  0.76208313  1
  Bi  Bi122  1  0.46534414  0.49922429  0.01719375  1
  Bi  Bi123  1  0.71658380  0.74719031  0.52345182  1
  Bi  Bi124  1  0.00291786  0.50176038  0.52850031  1
  O  O125  1  0.12504245  0.11339791  -0.00997958  1
  O  O126  1  0.11710507  0.12422234  0.24907564  1
  O  O127  1  0.13080211  0.10116190  0.49627110  1
  O  O128  1  0.12473648  0.13596811  0.73856430  1
  O  O129  1  0.16497073  0.38888522  -0.01415364  1
  O  O130  1  0.10897377  0.34478101  0.25065622  1
  O  O131  1  0.15366774  0.38098290  0.50043328  1
  O  O132  1  0.08564360  0.37393152  0.75146298  1
  O  O133  1  0.13275857  0.62297872  -0.01411743  1
  O  O134  1  0.12398289  0.63308831  0.26513970  1
  O  O135  1  0.15830629  0.62638870  0.49864437  1
  O  O136  1  0.11690444  0.63504831  0.74223149  1
  O  O137  1  0.15249737  0.88716516  -0.00488724  1
  O  O138  1  0.11532471  0.85399169  0.26046784  1
  O  O139  1  0.16304044  0.89035347  0.49049110  1
  O  O140  1  0.11990763  0.88840024  0.74243802  1
  O  O141  1  0.36534034  0.13746027  -0.00132869  1
  O  O142  1  0.39831199  0.12691355  0.24754001  1
  O  O143  1  0.40193977  0.11777545  0.49263673  1
  O  O144  1  0.37222253  0.11307263  0.74617033  1
  O  O145  1  0.37123042  0.36186800  0.00855728  1
  O  O146  1  0.41056258  0.35177205  0.25111949  1
  O  O147  1  0.35732870  0.38105423  0.49626482  1
  O  O148  1  0.38312908  0.35909423  0.74410521  1
  O  O149  1  0.36357166  0.61331196  -0.00496959  1
  O  O150  1  0.41725863  0.63341148  0.24508524  1
  O  O151  1  0.38086412  0.59931066  0.50066370  1
  O  O152  1  0.39801649  0.61140658  0.74828282  1
  O  O153  1  0.33455625  0.87528999  0.00631055  1
  O  O154  1  0.39307189  0.87293672  0.24482668  1
  O  O155  1  0.37148706  0.86293833  0.49048778  1
  O  O156  1  0.40356613  0.87530799  0.74042867  1
  O  O157  1  0.61333587  0.14703974  -0.00931106  1
  O  O158  1  0.60666870  0.10366898  0.24411440  1
  O  O159  1  0.60034412  0.13908611  0.50654246  1
  O  O160  1  0.64511075  0.08993129  0.74456117  1
  O  O161  1  0.63330934  0.35103711  0.00119840  1
  O  O162  1  0.62018132  0.39369094  0.25477962  1
  O  O163  1  0.63845065  0.34781081  0.51085329  1
  O  O164  1  0.59511970  0.38432211  0.75611597  1
  O  O165  1  0.65259643  0.63376864  -0.00991675  1
  O  O166  1  0.62171025  0.62070765  0.24731917  1
  O  O167  1  0.63893747  0.61862846  0.51403846  1
  O  O168  1  0.60505304  0.59465078  0.75270264  1
  O  O169  1  0.62962855  0.87232563  -0.00700215  1
  O  O170  1  0.63372209  0.93229752  0.25474533  1
  O  O171  1  0.62269646  0.83454613  0.48750806  1
  O  O172  1  0.59611350  0.88208983  0.74078747  1
  O  O173  1  0.87290355  0.12912799  0.00294128  1
  O  O174  1  0.90235374  0.12314253  0.24621611  1
  O  O175  1  0.84436423  0.09147380  0.47910036  1
  O  O176  1  0.84950651  0.10122511  0.74645645  1
  O  O177  1  0.86154868  0.35445450  -0.00229682  1
  O  O178  1  0.89523085  0.37444227  0.25045695  1
  O  O179  1  0.86204923  0.35187343  0.50280957  1
  O  O180  1  0.88976758  0.35465357  0.75284537  1
  O  O181  1  0.87831880  0.60944170  -0.01844198  1
  O  O182  1  0.89058866  0.63097986  0.25815459  1
  O  O183  1  0.84935156  0.62533972  0.50474322  1
  O  O184  1  0.88501505  0.64754931  0.75106454  1
  O  O185  1  0.86295752  0.88118101  -0.00646554  1
  O  O186  1  0.89285122  0.86213539  0.24642696  1
  O  O187  1  0.85667842  0.88795695  0.48875750  1
  O  O188  1  0.88799923  0.88657654  0.73782841  1
  O  O189  1  -0.00288788  0.08771282  0.11929879  1
  O  O190  1  0.00257662  0.12385057  0.38026975  1
  O  O191  1  -0.00790221  0.09403589  0.62016288  1
  O  O192  1  0.00201925  0.15204884  0.87258768  1
  O  O193  1  0.00367630  0.38495544  0.08976893  1
  O  O194  1  -0.00268464  0.35326860  0.39151920  1
  O  O195  1  -0.00629144  0.39917075  0.61480901  1
  O  O196  1  0.00856781  0.34456810  0.88895050  1
  O  O197  1  0.00250326  0.60189243  0.11202101  1
  O  O198  1  0.00342388  0.63100335  0.40125159  1
  O  O199  1  0.00312599  0.61893428  0.59934920  1
  O  O200  1  0.00361946  0.65408142  0.87109277  1
  O  O201  1  -0.00593790  0.90770582  0.11277424  1
  O  O202  1  0.00414268  0.87599607  0.40528245  1
  O  O203  1  -0.00670495  0.88662999  0.59314594  1
  O  O204  1  -0.00297290  0.87050246  0.86135859  1
  O  O205  1  0.25484789  0.13816862  0.14546634  1
  O  O206  1  0.25262287  0.11792517  0.35793045  1
  O  O207  1  0.26277895  0.13535341  0.60291123  1
  O  O208  1  0.25079018  0.10277180  0.86663300  1
  O  O209  1  0.25716519  0.34461059  0.14308479  1
  O  O210  1  0.25425250  0.37026042  0.34521563  1
  O  O211  1  0.25389396  0.34174928  0.63375928  1
  O  O212  1  0.24466148  0.39602318  0.82592171  1
  O  O213  1  0.26704018  0.62509495  0.13978873  1
  O  O214  1  0.27042000  0.64357570  0.35577391  1
  O  O215  1  0.25614023  0.63910901  0.63595351  1
  O  O216  1  0.25412514  0.59454595  0.84980606  1
  O  O217  1  0.24988974  0.85146196  0.14074481  1
  O  O218  1  0.26909897  0.84779565  0.36022938  1
  O  O219  1  0.26303880  0.84950752  0.62605536  1
  O  O220  1  0.25587108  0.88675910  0.83757986  1
  O  O221  1  0.49236142  0.09041729  0.11544977  1
  O  O222  1  0.49826891  0.15957317  0.36569532  1
  O  O223  1  0.50606331  0.09178491  0.63491553  1
  O  O224  1  0.51025603  0.14314952  0.84673551  1
  O  O225  1  0.50662334  0.38977086  0.09982085  1
  O  O226  1  0.50406764  0.36748726  0.39415515  1
  O  O227  1  0.49930994  0.38680888  0.61006543  1
  O  O228  1  0.50540467  0.34250009  0.88855658  1
  O  O229  1  0.49894438  0.60500059  0.09867800  1
  O  O230  1  0.49927333  0.58904693  0.37627714  1
  O  O231  1  0.50159013  0.59503821  0.61449020  1
  O  O232  1  0.50918910  0.64748781  0.88023273  1
  O  O233  1  0.49696216  0.88678737  0.09880731  1
  O  O234  1  0.50690279  0.89711527  0.38489610  1
  O  O235  1  0.50249947  0.88118297  0.59080610  1
  O  O236  1  0.49808535  0.84547044  0.88831864  1
  O  O237  1  0.75125696  0.14531697  0.14922398  1
  O  O238  1  0.75216644  0.10642862  0.32352688  1
  O  O239  1  0.74217210  0.12857486  0.60426406  1
  O  O240  1  0.75193391  0.09752754  0.88696074  1
  O  O241  1  0.74145417  0.33268866  0.13293635  1
  O  O242  1  0.74902158  0.36847543  0.38140225  1
  O  O243  1  0.73808705  0.35381333  0.66711737  1
  O  O244  1  0.74361561  0.38078172  0.86945482  1
  O  O245  1  0.75542060  0.63381827  0.12116424  1
  O  O246  1  0.75378466  0.63378062  0.36685814  1
  O  O247  1  0.74064003  0.63315300  0.66319627  1
  O  O248  1  0.75977990  0.60203003  0.85223341  1
  O  O249  1  0.75687951  0.86525421  0.11879064  1
  O  O250  1  0.75187854  0.85672156  0.35670167  1
  O  O251  1  0.74190685  0.84902165  0.62452246  1
  O  O252  1  0.75803875  0.91841175  0.85079692  1
  O  O253  1  0.14619551  0.00009035  0.11678343  1
  O  O254  1  0.11979967  -0.00218517  0.34683470  1
  O  O255  1  0.15451930  0.00611659  0.62378901  1
  O  O256  1  0.11399041  0.00896383  0.85283333  1
  O  O257  1  0.11810307  0.25290333  0.08713227  1
  O  O258  1  0.13880897  0.24180636  0.38605992  1
  O  O259  1  0.11149379  0.23967426  0.59503603  1
  O  O260  1  0.15910729  0.24991388  0.87908806  1
  O  O261  1  0.14695018  0.49506912  0.14049876  1
  O  O262  1  0.14298190  0.50925955  0.38165808  1
  O  O263  1  0.12920581  0.50753686  0.60405798  1
  O  O264  1  0.10198493  0.50447297  0.87025757  1
  O  O265  1  0.10726976  0.75799187  0.10772633  1
  O  O266  1  0.13411895  0.75361054  0.38696465  1
  O  O267  1  0.10866939  0.75042863  0.60772134  1
  O  O268  1  0.15569707  0.74567382  0.86964674  1
  O  O269  1  0.34691786  -0.00283366  0.12028911  1
  O  O270  1  0.37143929  0.00094330  0.36562972  1
  O  O271  1  0.35988481  -0.00665312  0.61529517  1
  O  O272  1  0.40638196  0.00995961  0.88283700  1
  O  O273  1  0.40386623  0.24243614  0.12809570  1
  O  O274  1  0.36184564  0.24760438  0.38892255  1
  O  O275  1  0.40413029  0.23967158  0.62071421  1
  O  O276  1  0.36153868  0.24414423  0.86134284  1
  O  O277  1  0.37803609  0.48678429  0.13575172  1
  O  O278  1  0.36985502  0.49127367  0.35049097  1
  O  O279  1  0.34809593  0.48918456  0.64263634  1
  O  O280  1  0.39876075  0.49964111  0.86220633  1
  O  O281  1  0.39640399  0.75280737  0.11228837  1
  O  O282  1  0.43048241  0.73871316  0.38853974  1
  O  O283  1  0.40011105  0.74040553  0.62457695  1
  O  O284  1  0.35891446  0.74166558  0.85224266  1
  O  O285  1  0.64423671  0.00724134  0.10003486  1
  O  O286  1  0.64903488  -0.00159831  0.42193240  1
  O  O287  1  0.64000179  -0.01281899  0.59605506  1
  O  O288  1  0.60334977  0.00487255  0.87941053  1
  O  O289  1  0.58141800  0.25615901  0.14939412  1
  O  O290  1  0.64899323  0.24828282  0.36323107  1
  O  O291  1  0.60490391  0.24377456  0.65107536  1
  O  O292  1  0.65990119  0.24230638  0.84469995  1
  O  O293  1  0.65621303  0.49111785  0.12556946  1
  O  O294  1  0.63788048  0.48699016  0.39276220  1
  O  O295  1  0.65279262  0.48853434  0.61337517  1
  O  O296  1  0.59522566  0.49793721  0.88770208  1
  O  O297  1  0.62836810  0.75341558  0.11674388  1
  O  O298  1  0.61054406  0.77264724  0.33017233  1
  O  O299  1  0.61289029  0.74215759  0.62764360  1
  O  O300  1  0.65937193  0.74092317  0.84140367  1
  O  O301  1  0.83592736  0.00293676  0.13221007  1
  O  O302  1  0.89805221  -0.00852508  0.35084085  1
  O  O303  1  0.84933945  -0.00510259  0.60675230  1
  O  O304  1  0.90875552  0.00663170  0.87580140  1
  O  O305  1  0.90521911  0.24200835  0.13178218  1
  O  O306  1  0.86876241  0.23141370  0.38174755  1
  O  O307  1  0.88740483  0.23006372  0.61841003  1
  O  O308  1  0.85136097  0.23820136  0.86044035  1
  O  O309  1  0.87452478  0.49145344  0.11449423  1
  O  O310  1  0.88107797  0.51083561  0.37946758  1
  O  O311  1  0.86213973  0.49654707  0.64901939  1
  O  O312  1  0.91320996  0.49667659  0.84179937  1
  O  O313  1  0.90088878  0.76069928  0.11929552  1
  O  O314  1  0.89247986  0.75316481  0.36971206  1
  O  O315  1  0.89001185  0.75783285  0.62035117  1
  O  O316  1  0.85852159  0.76630992  0.85280187  1
