# generated using pymatgen
data_Mg32Ti42(Bi17O64)3
_symmetry_space_group_name_H-M   'P 1'
_cell_length_a   15.99926075
_cell_length_b   15.98444834
_cell_length_c   15.93695934
_cell_angle_alpha   89.97115321
_cell_angle_beta   89.91027166
_cell_angle_gamma   89.97185491
_symmetry_Int_Tables_number   1
_chemical_formula_structural   Mg32Ti42(Bi17O64)3
_chemical_formula_sum   'Mg32 Ti42 Bi51 O192'
_cell_volume   4075.70172963
_cell_formula_units_Z   1
loop_
 _symmetry_equiv_pos_site_id
 _symmetry_equiv_pos_as_xyz
  1  'x, y, z'
loop_
 _atom_site_type_symbol
 _atom_site_label
 _atom_site_symmetry_multiplicity
 _atom_site_fract_x
 _atom_site_fract_y
 _atom_site_fract_z
 _atom_site_occupancy
  Mg  Mg0  1  0.86263816  0.62669583  0.62189862  1
  Mg  Mg1  1  0.87943869  0.12244716  0.88087464  1
  Mg  Mg2  1  0.12197653  0.37568523  0.37147341  1
  Mg  Mg3  1  0.12041215  0.37855290  0.62574978  1
  Mg  Mg4  1  0.85887697  0.88676018  0.12408702  1
  Mg  Mg5  1  0.37775293  0.62633945  0.12475229  1
  Mg  Mg6  1  0.12926335  0.62666644  0.63533425  1
  Mg  Mg7  1  0.61519127  0.13073112  0.88060361  1
  Mg  Mg8  1  0.11504916  0.12524096  0.63034535  1
  Mg  Mg9  1  0.62393411  0.87307413  0.62446279  1
  Mg  Mg10  1  0.88004699  0.12144650  0.37611651  1
  Mg  Mg11  1  0.12342860  0.87477717  0.64140924  1
  Mg  Mg12  1  0.88550925  0.37291480  0.86639449  1
  Mg  Mg13  1  0.63039557  0.13585787  0.62130744  1
  Mg  Mg14  1  0.63461115  0.88528111  0.37039773  1
  Mg  Mg15  1  0.36752986  0.36692357  0.87859733  1
  Mg  Mg16  1  0.61533638  0.61992020  0.37699653  1
  Mg  Mg17  1  0.36923911  0.37404479  0.13372968  1
  Mg  Mg18  1  0.37904892  0.86422441  0.61129719  1
  Mg  Mg19  1  0.51782285  0.76195226  0.79795485  1
  Mg  Mg20  1  0.52628605  0.78751897  0.48957282  1
  Mg  Mg21  1  -0.04556126  0.79124410  0.24423329  1
  Mg  Mg22  1  -0.07225697  -0.00197659  0.74987147  1
  Mg  Mg23  1  0.00403910  0.21652925  0.79092086  1
  Mg  Mg24  1  0.75780401  0.05296746  0.24958309  1
  Mg  Mg25  1  -0.02064894  0.44605780  0.05513932  1
  Mg  Mg26  1  0.79514470  0.30349965  0.01891227  1
  Mg  Mg27  1  0.51481090  0.44126585  0.47468338  1
  Mg  Mg28  1  0.78370987  0.25036368  0.45226038  1
  Mg  Mg29  1  0.22870291  0.22926787  -0.00771060  1
  Mg  Mg30  1  0.57460235  0.24969473  0.47584635  1
  Mg  Mg31  1  0.24062536  0.77874452  0.25301691  1
  Ti  Ti32  1  0.37407027  0.86545507  0.37845081  1
  Ti  Ti33  1  0.12436587  0.88344142  0.12347873  1
  Ti  Ti34  1  0.62678079  0.87558384  0.87700447  1
  Ti  Ti35  1  0.37661076  0.87423369  0.13776879  1
  Ti  Ti36  1  0.37639828  0.13113778  0.87099956  1
  Ti  Ti37  1  0.60660054  0.64372813  0.62547494  1
  Ti  Ti38  1  0.11956824  0.11398398  0.88403071  1
  Ti  Ti39  1  0.61896951  0.61233240  0.12759691  1
  Ti  Ti40  1  0.36770571  0.12416646  0.37880060  1
  Ti  Ti41  1  0.64303712  0.37632999  0.36088523  1
  Ti  Ti42  1  0.37824276  0.61943398  0.60950197  1
  Ti  Ti43  1  0.12168287  0.36655372  0.88082293  1
  Ti  Ti44  1  0.61522196  0.62349536  0.86710523  1
  Ti  Ti45  1  0.88150189  0.62820646  0.87313145  1
  Ti  Ti46  1  0.36351368  0.37389147  0.37656578  1
  Ti  Ti47  1  0.63511228  0.37086139  0.62651759  1
  Ti  Ti48  1  0.36896109  0.36895644  0.61218582  1
  Ti  Ti49  1  0.13540443  0.62213292  0.88202080  1
  Ti  Ti50  1  0.11805930  0.86999298  0.36645449  1
  Ti  Ti51  1  0.12414301  0.63738312  0.37179703  1
  Ti  Ti52  1  0.62007327  0.36860605  0.86297269  1
  Ti  Ti53  1  0.11865880  0.12170948  0.11870891  1
  Ti  Ti54  1  0.88289592  0.14335890  0.63342601  1
  Ti  Ti55  1  0.88007420  0.11166878  0.11402822  1
  Ti  Ti56  1  0.36483738  0.12396151  0.61338299  1
  Ti  Ti57  1  0.88374152  0.63855197  0.38361393  1
  Ti  Ti58  1  0.62086315  0.12334128  0.12313301  1
  Ti  Ti59  1  0.11857591  0.85731228  0.87187562  1
  Ti  Ti60  1  0.86756374  0.38563705  0.62366829  1
  Ti  Ti61  1  0.86728020  0.86947748  0.86845997  1
  Ti  Ti62  1  0.62947788  0.36702109  0.11028088  1
  Ti  Ti63  1  0.38589135  0.61491294  0.87758529  1
  Ti  Ti64  1  0.87381125  0.40114666  0.38724607  1
  Ti  Ti65  1  0.13547351  0.63925150  0.12410237  1
  Ti  Ti66  1  0.86269421  0.87012018  0.62458756  1
  Ti  Ti67  1  0.63053653  0.88647395  0.13069256  1
  Ti  Ti68  1  0.37012539  0.11943313  0.13507796  1
  Ti  Ti69  1  0.36947218  0.63868768  0.37556462  1
  Ti  Ti70  1  0.11584743  0.12540748  0.37332145  1
  Ti  Ti71  1  0.12544096  0.37222336  0.12781257  1
  Ti  Ti72  1  0.63764378  0.12092526  0.36757364  1
  Ti  Ti73  1  0.86860203  0.87803901  0.38392998  1
  Bi  Bi74  1  -0.00045383  -0.00361374  0.52257142  1
  Bi  Bi75  1  0.73806102  0.72962503  0.01311372  1
  Bi  Bi76  1  0.24532639  -0.01160538  0.27168516  1
  Bi  Bi77  1  0.49691319  0.22662425  0.71613256  1
  Bi  Bi78  1  0.02401145  0.50523687  0.77782488  1
  Bi  Bi79  1  0.53360259  0.75547989  0.26449530  1
  Bi  Bi80  1  0.79482873  0.48549247  0.20570493  1
  Bi  Bi81  1  0.48563065  0.25434596  0.28038580  1
  Bi  Bi82  1  0.26060901  -0.03394008  0.77578982  1
  Bi  Bi83  1  -0.02834329  -0.00474592  0.25302888  1
  Bi  Bi84  1  -0.01596572  0.73480487  0.73581205  1
  Bi  Bi85  1  -0.03750475  0.73733221  0.04346279  1
  Bi  Bi86  1  0.24761268  0.51676480  0.25130783  1
  Bi  Bi87  1  0.49128479  0.00329946  0.26391292  1
  Bi  Bi88  1  0.76912629  0.71321672  0.23975192  1
  Bi  Bi89  1  0.25734234  0.46760260  0.74837323  1
  Bi  Bi90  1  0.48475440  0.48546343  0.71345349  1
  Bi  Bi91  1  0.71185474  0.02538605  0.75169978  1
  Bi  Bi92  1  0.74572715  0.01679752  -0.00178100  1
  Bi  Bi93  1  0.75554259  0.24509354  0.79070250  1
  Bi  Bi94  1  0.45530583  0.24980749  0.01209903  1
  Bi  Bi95  1  0.01384959  0.51721700  0.51474733  1
  Bi  Bi96  1  -0.01206542  0.26777325  0.00812058  1
  Bi  Bi97  1  0.48591841  0.50871549  0.27849558  1
  Bi  Bi98  1  -0.00866799  0.26258605  0.52005557  1
  Bi  Bi99  1  0.72961840  0.73726553  0.47928671  1
  Bi  Bi100  1  0.72161701  0.50509326  0.51428823  1
  Bi  Bi101  1  0.52617886  -0.00155433  0.52501819  1
  Bi  Bi102  1  -0.02827255  0.27517709  0.27255559  1
  Bi  Bi103  1  0.50939433  0.75934318  0.02143181  1
  Bi  Bi104  1  0.23543613  0.74173686  0.52601912  1
  Bi  Bi105  1  0.23223703  -0.01489543  0.52260665  1
  Bi  Bi106  1  0.75503411  0.03887496  0.51180028  1
  Bi  Bi107  1  0.77222055  0.50107537  0.76314031  1
  Bi  Bi108  1  0.48791360  -0.01547040  -0.02618256  1
  Bi  Bi109  1  0.23401550  0.22032677  0.75955405  1
  Bi  Bi110  1  0.22315482  0.23865280  0.24196668  1
  Bi  Bi111  1  0.74808569  0.74182226  0.74756593  1
  Bi  Bi112  1  0.30714411  0.73463757  0.75371658  1
  Bi  Bi113  1  0.48168766  0.47222736  -0.00112339  1
  Bi  Bi114  1  0.26909252  0.50158969  0.01545885  1
  Bi  Bi115  1  0.01487204  0.75681912  0.52625660  1
  Bi  Bi116  1  -0.00500002  0.54145172  0.22395013  1
  Bi  Bi117  1  0.75466415  0.26268941  0.21432587  1
  Bi  Bi118  1  0.47894234  -0.03728084  0.75609856  1
  Bi  Bi119  1  0.27138354  -0.01744110  -0.00615538  1
  Bi  Bi120  1  0.21599685  0.24522872  0.50694202  1
  Bi  Bi121  1  0.22835912  0.48805970  0.48964904  1
  Bi  Bi122  1  -0.00602502  -0.03110362  -0.02349161  1
  Bi  Bi123  1  0.73558918  0.50025473  -0.01662365  1
  Bi  Bi124  1  0.25901571  0.75099201  0.01402935  1
  O  O125  1  0.15712475  0.12262318  0.00160618  1
  O  O126  1  0.12055976  0.14653677  0.24165765  1
  O  O127  1  0.14303343  0.12059587  0.48817910  1
  O  O128  1  0.10900515  0.15482905  0.75749445  1
  O  O129  1  0.09167797  0.37310611  -0.00273758  1
  O  O130  1  0.12969272  0.35443642  0.24438389  1
  O  O131  1  0.15296697  0.37143948  0.49641725  1
  O  O132  1  0.11978456  0.40643675  0.75117685  1
  O  O133  1  0.13856074  0.64079960  0.00714083  1
  O  O134  1  0.13713969  0.60550742  0.25173996  1
  O  O135  1  0.12572842  0.65076484  0.48994240  1
  O  O136  1  0.10784002  0.61245621  0.75873072  1
  O  O137  1  0.10567999  0.87127846  0.00307228  1
  O  O138  1  0.16061189  0.87960666  0.24468524  1
  O  O139  1  0.10582389  0.87389328  0.48390506  1
  O  O140  1  0.15273305  0.87706211  0.76041963  1
  O  O141  1  0.37481909  0.10310115  0.01780138  1
  O  O142  1  0.40991066  0.12827576  0.26015097  1
  O  O143  1  0.36344035  0.13508582  0.49705646  1
  O  O144  1  0.37503330  0.15096841  0.75485392  1
  O  O145  1  0.38445623  0.36929244  0.00622789  1
  O  O146  1  0.40110922  0.38612579  0.25827750  1
  O  O147  1  0.35005030  0.36572732  0.49781905  1
  O  O148  1  0.38409471  0.39012087  0.75074604  1
  O  O149  1  0.34772183  0.64119219  -0.00680329  1
  O  O150  1  0.36606211  0.59238602  0.25487148  1
  O  O151  1  0.36959814  0.63562611  0.49470552  1
  O  O152  1  0.37334656  0.60366669  0.75708782  1
  O  O153  1  0.38640920  0.90161124  0.01243044  1
  O  O154  1  0.33356996  0.86799051  0.24789276  1
  O  O155  1  0.40999064  0.84245730  0.48480138  1
  O  O156  1  0.36594823  0.88190062  0.74162246  1
  O  O157  1  0.63783831  0.10476093  0.00654067  1
  O  O158  1  0.65760475  0.13862246  0.24803721  1
  O  O159  1  0.64783049  0.12797775  0.49424019  1
  O  O160  1  0.61973771  0.12464890  0.74758411  1
  O  O161  1  0.66589982  0.37398242  -0.00665590  1
  O  O162  1  0.63424884  0.35990673  0.24497821  1
  O  O163  1  0.63375068  0.39020541  0.50467999  1
  O  O164  1  0.59367287  0.37367720  0.74460412  1
  O  O165  1  0.65326752  0.61964562  -0.00864318  1
  O  O166  1  0.62451162  0.63041023  0.24276064  1
  O  O167  1  0.63826642  0.62036608  0.50656394  1
  O  O168  1  0.58824065  0.65837533  0.75449613  1
  O  O169  1  0.59170877  0.88638503  0.00375831  1
  O  O170  1  0.64027673  0.84788127  0.24352817  1
  O  O171  1  0.59708023  0.88951362  0.49145762  1
  O  O172  1  0.60738189  0.85646011  0.75811289  1
  O  O173  1  0.86168808  0.09714751  0.00074392  1
  O  O174  1  0.87749351  0.09861859  0.24441267  1
  O  O175  1  0.84404560  0.14732215  0.50409490  1
  O  O176  1  0.91527999  0.12529940  0.74802088  1
  O  O177  1  0.89686244  0.37460046  -0.00675852  1
  O  O178  1  0.88295647  0.39229259  0.26349468  1
  O  O179  1  0.85020216  0.35060465  0.49374852  1
  O  O180  1  0.88098781  0.40450818  0.73738457  1
  O  O181  1  0.85666227  0.65627487  -0.01111571  1
  O  O182  1  0.86078723  0.61062903  0.26420988  1
  O  O183  1  0.86046419  0.66290030  0.49672071  1
  O  O184  1  0.88160919  0.60458623  0.75006830  1
  O  O185  1  0.89306761  0.86316440  -0.00688693  1
  O  O186  1  0.87027686  0.90228574  0.25606041  1
  O  O187  1  0.89912252  0.86274590  0.50359458  1
  O  O188  1  0.85662260  0.89564612  0.74883637  1
  O  O189  1  0.00681982  0.14323459  0.10808171  1
  O  O190  1  0.00548183  0.14815895  0.37757705  1
  O  O191  1  -0.00730874  0.12391710  0.58521588  1
  O  O192  1  0.00746527  0.14475173  0.89486718  1
  O  O193  1  0.00654081  0.33780264  0.12754490  1
  O  O194  1  -0.00618788  0.35944227  0.38162981  1
  O  O195  1  -0.01124089  0.39155816  0.58769832  1
  O  O196  1  0.00771069  0.32924706  0.85072095  1
  O  O197  1  0.01779018  0.65455289  0.14794137  1
  O  O198  1  0.00416649  0.64191468  0.37099527  1
  O  O199  1  -0.00402718  0.64341596  0.61789371  1
  O  O200  1  -0.00734989  0.62857666  0.88346398  1
  O  O201  1  0.02025933  0.84102902  0.14772524  1
  O  O202  1  0.01050536  0.85691273  0.33894856  1
  O  O203  1  -0.00346803  0.84506747  0.64206404  1
  O  O204  1  0.00083740  0.86757452  0.86192211  1
  O  O205  1  0.25782772  0.11268855  0.15357199  1
  O  O206  1  0.25868198  0.11402502  0.35450031  1
  O  O207  1  0.24619671  0.14945036  0.63728506  1
  O  O208  1  0.24405607  0.11200940  0.84968329  1
  O  O209  1  0.24178163  0.40311410  0.11680687  1
  O  O210  1  0.25584517  0.40488298  0.36333766  1
  O  O211  1  0.25184233  0.36760769  0.64841401  1
  O  O212  1  0.24202609  0.39179697  0.86623774  1
  O  O213  1  0.24596112  0.58866174  0.12666718  1
  O  O214  1  0.25126241  0.59495226  0.37504933  1
  O  O215  1  0.25566216  0.64489855  0.62554861  1
  O  O216  1  0.24632113  0.61205689  0.86595619  1
  O  O217  1  0.25075647  0.88928579  0.09475927  1
  O  O218  1  0.25872155  0.90323061  0.39153233  1
  O  O219  1  0.25154489  0.86822578  0.59370301  1
  O  O220  1  0.24371791  0.89142419  0.89312487  1
  O  O221  1  0.51165810  0.13992688  0.12655913  1
  O  O222  1  0.52466837  0.16455236  0.38432341  1
  O  O223  1  0.48585438  0.11648139  0.63142344  1
  O  O224  1  0.48961886  0.14501868  0.88527985  1
  O  O225  1  0.51690884  0.35774895  0.10358249  1
  O  O226  1  0.52023425  0.33795891  0.39576520  1
  O  O227  1  0.48979619  0.40477709  0.60013296  1
  O  O228  1  0.50973549  0.36618045  0.89884454  1
  O  O229  1  0.50496455  0.63829668  0.10960475  1
  O  O230  1  0.48633129  0.63394125  0.35597397  1
  O  O231  1  0.49697426  0.59787552  0.61741707  1
  O  O232  1  0.50279379  0.60602635  0.90008833  1
  O  O233  1  0.49271001  0.85134678  0.14115524  1
  O  O234  1  0.48563229  0.87079602  0.33092025  1
  O  O235  1  0.49509019  0.90933098  0.62644709  1
  O  O236  1  0.49884260  0.88540211  0.87140238  1
  O  O237  1  0.76057170  0.07518903  0.12624977  1
  O  O238  1  0.75501487  0.08546641  0.37159707  1
  O  O239  1  0.76462389  0.11529378  0.64543578  1
  O  O240  1  0.75349992  0.11016971  0.85115683  1
  O  O241  1  0.76021332  0.37436499  0.12597599  1
  O  O242  1  0.75308084  0.41403109  0.36744033  1
  O  O243  1  0.74672115  0.35278951  0.63933524  1
  O  O244  1  0.74765975  0.37909519  0.83948572  1
  O  O245  1  0.74244550  0.63763198  0.12221570  1
  O  O246  1  0.74757414  0.64754687  0.37720057  1
  O  O247  1  0.72917655  0.64856045  0.64717673  1
  O  O248  1  0.73782367  0.63883843  0.84286029  1
  O  O249  1  0.73874270  0.89335889  0.09678696  1
  O  O250  1  0.75777576  0.87336383  0.39918276  1
  O  O251  1  0.75115658  0.86631303  0.61008400  1
  O  O252  1  0.74736672  0.86753053  0.88830908  1
  O  O253  1  0.11348631  0.00197321  0.12647913  1
  O  O254  1  0.12288647  0.00182777  0.35527344  1
  O  O255  1  0.11987047  -0.00233144  0.61190112  1
  O  O256  1  0.10682457  0.00201748  0.88146692  1
  O  O257  1  0.16405743  0.24952944  0.10751624  1
  O  O258  1  0.15320696  0.24535800  0.37578073  1
  O  O259  1  0.10704006  0.25297767  0.59954584  1
  O  O260  1  0.15487386  0.25385562  0.89183214  1
  O  O261  1  0.08291711  0.49043429  0.12402259  1
  O  O262  1  0.11238668  0.50651220  0.40643508  1
  O  O263  1  0.12594308  0.50658553  0.59543485  1
  O  O264  1  0.10465552  0.50266240  0.88838238  1
  O  O265  1  0.17688909  0.74668009  0.13948995  1
  O  O266  1  0.15742890  0.75263966  0.35245997  1
  O  O267  1  0.12820395  0.75328146  0.61265339  1
  O  O268  1  0.13410583  0.74572582  0.87381594  1
  O  O269  1  0.39005888  -0.00342852  0.15662888  1
  O  O270  1  0.39627345  0.00435482  0.37235019  1
  O  O271  1  0.34390745  0.01006644  0.61395990  1
  O  O272  1  0.37780134  0.01077805  0.87126272  1
  O  O273  1  0.37124971  0.24284562  0.12729095  1
  O  O274  1  0.36922108  0.25248003  0.35903183  1
  O  O275  1  0.39240866  0.25633516  0.62700922  1
  O  O276  1  0.33996953  0.23763566  0.91935254  1
  O  O277  1  0.38404368  0.50090387  0.09666385  1
  O  O278  1  0.41776785  0.48197196  0.39590671  1
  O  O279  1  0.35773291  0.50162501  0.62360393  1
  O  O280  1  0.38064959  0.49662298  0.90387839  1
  O  O281  1  0.35374722  0.75484701  0.11655651  1
  O  O282  1  0.34467218  0.74795184  0.35388566  1
  O  O283  1  0.38959285  0.73840105  0.64517940  1
  O  O284  1  0.40577127  0.73394698  0.84977203  1
  O  O285  1  0.60896982  -0.00131548  0.15061174  1
  O  O286  1  0.60517831  0.01064584  0.36008251  1
  O  O287  1  0.63394253  0.00656543  0.61145936  1
  O  O288  1  0.62484592  -0.00542637  0.86827652  1
  O  O289  1  0.65815993  0.24488837  0.11467129  1
  O  O290  1  0.67368674  0.26101996  0.39315438  1
  O  O291  1  0.59321763  0.25689237  0.60547392  1
  O  O292  1  0.64208198  0.25392302  0.86795037  1
  O  O293  1  0.62961798  0.49524009  0.11440447  1
  O  O294  1  0.59416923  0.49090723  0.37666359  1
  O  O295  1  0.64645379  0.49587158  0.63171251  1
  O  O296  1  0.64293234  0.50189274  0.87249300  1
  O  O297  1  0.62325561  0.75184945  0.09955536  1
  O  O298  1  0.60409221  0.75397519  0.39141061  1
  O  O299  1  0.58789077  0.75113824  0.59627088  1
  O  O300  1  0.60243790  0.75006980  0.89749127  1
  O  O301  1  0.92076571  -0.00547246  0.11955551  1
  O  O302  1  0.90768771  -0.00699478  0.39296601  1
  O  O303  1  0.89900510  -0.00719018  0.62292897  1
  O  O304  1  0.89393536  -0.00895353  0.87229922  1
  O  O305  1  0.84988475  0.22900747  0.11112806  1
  O  O306  1  0.86037497  0.24783831  0.35246534  1
  O  O307  1  0.89863282  0.25668914  0.63479544  1
  O  O308  1  0.84455662  0.24920011  0.89270675  1
  O  O309  1  0.90111630  0.51018180  0.12696963  1
  O  O310  1  0.89247904  0.51207677  0.40506784  1
  O  O311  1  0.84513568  0.49890221  0.59849883  1
  O  O312  1  0.84828384  0.50931124  0.88312344  1
  O  O313  1  0.87311079  0.76281607  0.14625673  1
  O  O314  1  0.87796457  0.75664617  0.34397262  1
  O  O315  1  0.86581659  0.75164857  0.66125341  1
  O  O316  1  0.87029651  0.75145844  0.83981898  1
