# generated using pymatgen
data_Mg32Ti42(Bi17O64)3
_symmetry_space_group_name_H-M   'P 1'
_cell_length_a   15.95376265
_cell_length_b   15.90754333
_cell_length_c   15.95670886
_cell_angle_alpha   90.13214972
_cell_angle_beta   89.90106729
_cell_angle_gamma   90.08991617
_symmetry_Int_Tables_number   1
_chemical_formula_structural   Mg32Ti42(Bi17O64)3
_chemical_formula_sum   'Mg32 Ti42 Bi51 O192'
_cell_volume   4049.55431142
_cell_formula_units_Z   1
loop_
 _symmetry_equiv_pos_site_id
 _symmetry_equiv_pos_as_xyz
  1  'x, y, z'
loop_
 _atom_site_type_symbol
 _atom_site_label
 _atom_site_symmetry_multiplicity
 _atom_site_fract_x
 _atom_site_fract_y
 _atom_site_fract_z
 _atom_site_occupancy
  Mg  Mg0  1  0.37867704  0.37484245  0.61956356  1
  Mg  Mg1  1  0.12291693  0.38171286  0.37626724  1
  Mg  Mg2  1  0.87574334  0.63096028  0.12964352  1
  Mg  Mg3  1  0.37399970  0.62335704  0.87848144  1
  Mg  Mg4  1  0.86857001  0.88446983  0.87245490  1
  Mg  Mg5  1  0.88333115  0.62945176  0.38625359  1
  Mg  Mg6  1  0.62122169  0.37931538  0.38607983  1
  Mg  Mg7  1  0.62538640  0.86882432  0.37278241  1
  Mg  Mg8  1  0.62285665  0.12275703  0.37316383  1
  Mg  Mg9  1  0.13332848  0.12811792  0.39000989  1
  Mg  Mg10  1  0.63218241  0.11882040  0.12665458  1
  Mg  Mg11  1  0.37892595  0.88082373  0.87571987  1
  Mg  Mg12  1  0.13457824  0.64023143  0.11902791  1
  Mg  Mg13  1  0.88045462  0.37193173  0.13179593  1
  Mg  Mg14  1  0.12824601  0.87908395  0.12666277  1
  Mg  Mg15  1  0.37543770  0.86548260  0.61955404  1
  Mg  Mg16  1  0.62291073  0.87081927  0.88091330  1
  Mg  Mg17  1  0.87444641  0.88394607  0.13020149  1
  Mg  Mg18  1  0.35878603  0.12582994  0.60798249  1
  Mg  Mg19  1  0.28276946  0.45327153  -0.00567848  1
  Mg  Mg20  1  0.21473066  0.03391624  -0.01190890  1
  Mg  Mg21  1  0.24396251  0.26703563  0.51037356  1
  Mg  Mg22  1  0.45012680  0.00078606  0.69414602  1
  Mg  Mg23  1  -0.02738433  0.22763534  0.72215571  1
  Mg  Mg24  1  -0.01655090  0.76188232  0.20949172  1
  Mg  Mg25  1  0.74668436  0.25375169  0.06391734  1
  Mg  Mg26  1  0.49645175  0.71116280  0.55372048  1
  Mg  Mg27  1  0.17249031  0.77683431  0.29653850  1
  Mg  Mg28  1  0.48899859  0.54894952  0.47582961  1
  Mg  Mg29  1  0.78421139  0.74445370  0.52387599  1
  Mg  Mg30  1  -0.04117827  0.49956847  0.53851364  1
  Mg  Mg31  1  0.22972960  0.25636785  0.30656365  1
  Ti  Ti32  1  0.87326401  0.36594531  0.88289770  1
  Ti  Ti33  1  0.36695731  0.62978286  0.11162096  1
  Ti  Ti34  1  0.37805624  0.10636282  0.88377795  1
  Ti  Ti35  1  0.12577681  0.38051904  0.63225485  1
  Ti  Ti36  1  0.36563745  0.86257263  0.13038323  1
  Ti  Ti37  1  0.11652522  0.61213837  0.62623286  1
  Ti  Ti38  1  0.12293252  0.61511054  0.88532753  1
  Ti  Ti39  1  0.13209317  0.36538338  0.12661971  1
  Ti  Ti40  1  0.87792539  0.36443438  0.62669399  1
  Ti  Ti41  1  0.63540010  0.62084005  0.62191588  1
  Ti  Ti42  1  0.37309324  0.11362591  0.12909863  1
  Ti  Ti43  1  0.61250006  0.38619256  0.62431198  1
  Ti  Ti44  1  0.37334549  0.85562060  0.36443390  1
  Ti  Ti45  1  0.38866265  0.36731338  0.87169099  1
  Ti  Ti46  1  0.62604680  0.62403436  0.38557919  1
  Ti  Ti47  1  0.13206235  0.13075482  0.13131390  1
  Ti  Ti48  1  0.63182543  0.87350858  0.12880740  1
  Ti  Ti49  1  0.88121814  0.37439471  0.37443235  1
  Ti  Ti50  1  0.37437656  0.62382241  0.35862738  1
  Ti  Ti51  1  0.62283800  0.86364538  0.62293023  1
  Ti  Ti52  1  0.87432258  0.61906908  0.87962885  1
  Ti  Ti53  1  0.63181485  0.62299169  0.12441984  1
  Ti  Ti54  1  0.13274552  0.13638100  0.63218198  1
  Ti  Ti55  1  0.12582188  0.61920793  0.38517204  1
  Ti  Ti56  1  0.87129059  0.12861556  0.86655725  1
  Ti  Ti57  1  0.87614651  0.86425526  0.62618149  1
  Ti  Ti58  1  0.37629642  0.36037596  0.36490117  1
  Ti  Ti59  1  0.87128260  0.11613944  0.62741448  1
  Ti  Ti60  1  0.12607462  0.37113281  0.87866130  1
  Ti  Ti61  1  0.62370682  0.11825577  0.88379206  1
  Ti  Ti62  1  0.37832993  0.37164700  0.12749377  1
  Ti  Ti63  1  0.88247728  0.12206466  0.38651819  1
  Ti  Ti64  1  0.88121959  0.13109552  0.13800966  1
  Ti  Ti65  1  0.62661604  0.36651442  0.87654219  1
  Ti  Ti66  1  0.36432836  0.13339161  0.37742663  1
  Ti  Ti67  1  0.13208784  0.86217847  0.62349030  1
  Ti  Ti68  1  0.62786599  0.37958370  0.12746462  1
  Ti  Ti69  1  0.62268147  0.62576284  0.88518294  1
  Ti  Ti70  1  0.87697308  0.62206787  0.62999404  1
  Ti  Ti71  1  0.37125523  0.60966532  0.62562965  1
  Ti  Ti72  1  0.87074784  0.87771610  0.38781130  1
  Ti  Ti73  1  0.10857735  0.14211069  0.86326227  1
  Bi  Bi74  1  0.76437294  0.49598149  0.49577993  1
  Bi  Bi75  1  0.72251726  0.23272922  0.73399515  1
  Bi  Bi76  1  0.51523434  0.21126210  0.53615029  1
  Bi  Bi77  1  0.27232712  0.23890148  0.00890207  1
  Bi  Bi78  1  0.25290384  0.50167023  0.22680053  1
  Bi  Bi79  1  0.50185854  0.51265197  0.00868105  1
  Bi  Bi80  1  0.74218190  -0.01429118  0.52562121  1
  Bi  Bi81  1  0.23670264  0.73572509  0.76626346  1
  Bi  Bi82  1  0.02091078  0.48946866  0.02547841  1
  Bi  Bi83  1  -0.01035679  0.24481075  0.01653975  1
  Bi  Bi84  1  0.77666549  0.49916400  0.02973825  1
  Bi  Bi85  1  0.25056208  0.71667322  0.50534549  1
  Bi  Bi86  1  0.50307187  -0.01981454  0.00605657  1
  Bi  Bi87  1  0.26514684  0.49474808  0.78041636  1
  Bi  Bi88  1  0.25776086  -0.01657336  0.26698602  1
  Bi  Bi89  1  0.51829806  0.49289353  0.27325151  1
  Bi  Bi90  1  0.01771028  0.55371017  0.24881960  1
  Bi  Bi91  1  0.02151435  0.00749971  0.53457763  1
  Bi  Bi92  1  0.02754452  0.77509119  0.47894153  1
  Bi  Bi93  1  0.21907091  0.80611971  -0.02545982  1
  Bi  Bi94  1  0.48005682  0.75947565  0.00394090  1
  Bi  Bi95  1  -0.00280952  0.75960778  0.01528650  1
  Bi  Bi96  1  0.52390606  0.23130339  0.26050220  1
  Bi  Bi97  1  0.73716373  0.49478834  0.77398289  1
  Bi  Bi98  1  0.03079490  -0.03640999  0.28284798  1
  Bi  Bi99  1  0.52013031  0.23970611  0.02341064  1
  Bi  Bi100  1  0.48820528  0.20000979  0.74886700  1
  Bi  Bi101  1  0.27118182  0.47048218  0.48100155  1
  Bi  Bi102  1  0.00703132  0.74737704  0.78584130  1
  Bi  Bi103  1  0.78281206  0.49450362  0.26565264  1
  Bi  Bi104  1  0.75263431  0.75440208  0.78137243  1
  Bi  Bi105  1  0.51306617  -0.01381995  0.26043203  1
  Bi  Bi106  1  0.78050806  0.75616986  0.26817976  1
  Bi  Bi107  1  0.78108558  0.02648476  0.01062990  1
  Bi  Bi108  1  0.22239331  -0.01444408  0.77949113  1
  Bi  Bi109  1  0.51002384  -0.01519253  0.49680890  1
  Bi  Bi110  1  0.74782130  0.00666493  0.27431417  1
  Bi  Bi111  1  0.02619550  0.24644336  0.27470624  1
  Bi  Bi112  1  0.50740300  0.51356292  0.74283457  1
  Bi  Bi113  1  0.52614674  0.73331788  0.25132040  1
  Bi  Bi114  1  0.02255773  0.26176019  0.50947081  1
  Bi  Bi115  1  0.71867347  0.24542100  0.51690260  1
  Bi  Bi116  1  0.27310054  0.26423046  0.73543350  1
  Bi  Bi117  1  0.26209187  -0.03374505  0.50434127  1
  Bi  Bi118  1  0.02461164  -0.00657385  0.01333247  1
  Bi  Bi119  1  0.74989285  0.23810335  0.28431948  1
  Bi  Bi120  1  0.47815665  0.77549581  0.75801009  1
  Bi  Bi121  1  -0.00430111  0.46843628  0.76345733  1
  Bi  Bi122  1  0.00494977  -0.03053095  0.77143569  1
  Bi  Bi123  1  0.76473328  0.78706254  0.00392755  1
  Bi  Bi124  1  0.71578659  -0.00371112  0.75398962  1
  O  O125  1  0.10896160  0.10957956  -0.01395519  1
  O  O126  1  0.15127126  0.16094793  0.23907209  1
  O  O127  1  0.09358836  0.13484021  0.51136296  1
  O  O128  1  0.15262482  0.14034475  0.75018550  1
  O  O129  1  0.12862988  0.40939784  -0.00473661  1
  O  O130  1  0.13567010  0.34484558  0.23839650  1
  O  O131  1  0.13853282  0.34994580  0.50682846  1
  O  O132  1  0.11683872  0.37004054  0.75195557  1
  O  O133  1  0.11771977  0.59751100  -0.00336894  1
  O  O134  1  0.13059532  0.65302964  0.26616636  1
  O  O135  1  0.15488318  0.61069273  0.50863158  1
  O  O136  1  0.11497486  0.64932869  0.73956508  1
  O  O137  1  0.15215788  0.92583438  0.00481119  1
  O  O138  1  0.08540819  0.84253567  0.24034352  1
  O  O139  1  0.10834981  0.89268696  0.50891953  1
  O  O140  1  0.12296600  0.88135447  0.74004117  1
  O  O141  1  0.38478426  0.15419462  -0.00182106  1
  O  O142  1  0.34957407  0.10557795  0.23941509  1
  O  O143  1  0.40213499  0.13823681  0.48685303  1
  O  O144  1  0.39029274  0.09633069  0.76078601  1
  O  O145  1  0.36723893  0.35191718  -0.00888169  1
  O  O146  1  0.36636460  0.40701919  0.23917029  1
  O  O147  1  0.35045198  0.34949289  0.48770416  1
  O  O148  1  0.35582797  0.38661620  0.75272672  1
  O  O149  1  0.36445819  0.65487763  0.00143234  1
  O  O150  1  0.36734231  0.59029656  0.24792928  1
  O  O151  1  0.39599490  0.64523540  0.50660370  1
  O  O152  1  0.38167217  0.58351127  0.74447728  1
  O  O153  1  0.36439487  0.84285397  0.00772749  1
  O  O154  1  0.39170496  0.89962557  0.24601902  1
  O  O155  1  0.35568587  0.86440207  0.48391210  1
  O  O156  1  0.40743840  0.89393576  0.74860007  1
  O  O157  1  0.61612803  0.13302947  0.00192283  1
  O  O158  1  0.63639906  0.14344377  0.24665779  1
  O  O159  1  0.61830710  0.13401278  0.49716472  1
  O  O160  1  0.64594445  0.11890647  0.75905576  1
  O  O161  1  0.61552073  0.36133192  -0.00954276  1
  O  O162  1  0.62631419  0.40007562  0.24196684  1
  O  O163  1  0.62496911  0.35735717  0.50934940  1
  O  O164  1  0.63561686  0.39381501  0.74439622  1
  O  O165  1  0.63242869  0.63292081  -0.00138359  1
  O  O166  1  0.61222580  0.60606234  0.24649912  1
  O  O167  1  0.59243882  0.63524157  0.49858581  1
  O  O168  1  0.62450432  0.60662120  0.73874417  1
  O  O169  1  0.64701547  0.86688447  0.01079158  1
  O  O170  1  0.58692770  0.86485509  0.24619962  1
  O  O171  1  0.62199046  0.90201130  0.49489204  1
  O  O172  1  0.63796880  0.87001814  0.74022345  1
  O  O173  1  0.89753884  0.10398914  -0.01218397  1
  O  O174  1  0.86946453  0.14990062  0.24804079  1
  O  O175  1  0.88323848  0.10887832  0.50102131  1
  O  O176  1  0.86101219  0.15761673  0.74553182  1
  O  O177  1  0.87297997  0.40281128  -0.00632503  1
  O  O178  1  0.85249673  0.36666331  0.25550699  1
  O  O179  1  0.88085089  0.40414200  0.49767138  1
  O  O180  1  0.90662282  0.35173395  0.74408595  1
  O  O181  1  0.87506237  0.59937039  -0.00649486  1
  O  O182  1  0.87496541  0.65276524  0.25927576  1
  O  O183  1  0.87375575  0.59097801  0.50504030  1
  O  O184  1  0.88665342  0.64847747  0.74106178  1
  O  O185  1  0.84958727  0.89513568  0.00015201  1
  O  O186  1  0.89042964  0.83884397  0.25416413  1
  O  O187  1  0.86893913  0.90400220  0.49999430  1
  O  O188  1  0.85776972  0.85678527  0.73858608  1
  O  O189  1  0.00389050  0.15274798  0.12446919  1
  O  O190  1  -0.00344829  0.13215453  0.36079312  1
  O  O191  1  -0.01033829  0.10195909  0.64665241  1
  O  O192  1  0.00080153  0.15921969  0.83597584  1
  O  O193  1  0.00756057  0.36124795  0.10572092  1
  O  O194  1  -0.00499288  0.35891251  0.36404491  1
  O  O195  1  0.00726960  0.40186805  0.60491444  1
  O  O196  1  -0.00006854  0.38720471  0.88031757  1
  O  O197  1  0.00632747  0.65016140  0.14409245  1
  O  O198  1  0.01218129  0.64361497  0.39489327  1
  O  O199  1  0.00286193  0.59975442  0.61029837  1
  O  O200  1  -0.00058548  0.63828833  0.87385497  1
  O  O201  1  0.00005402  0.87484558  0.09409513  1
  O  O202  1  -0.01041298  0.87569889  0.38528832  1
  O  O203  1  -0.00902879  0.89291734  0.62863076  1
  O  O204  1  -0.00727596  0.86936167  0.86533609  1
  O  O205  1  0.24615744  0.10982028  0.08790528  1
  O  O206  1  0.25492997  0.17268216  0.40505567  1
  O  O207  1  0.23917825  0.17020768  0.60110109  1
  O  O208  1  0.25801536  0.09304187  0.88573913  1
  O  O209  1  0.24691137  0.40665220  0.11266389  1
  O  O210  1  0.25197827  0.37672831  0.36138322  1
  O  O211  1  0.24377258  0.34656409  0.62600350  1
  O  O212  1  0.24285977  0.38611316  0.87930432  1
  O  O213  1  0.25341164  0.60314189  0.12948795  1
  O  O214  1  0.25972068  0.63146381  0.38806078  1
  O  O215  1  0.25862017  0.64870803  0.63964877  1
  O  O216  1  0.24361598  0.62461548  0.85368012  1
  O  O217  1  0.25471476  0.87684680  0.14438967  1
  O  O218  1  0.25699143  0.86220663  0.33737507  1
  O  O219  1  0.24705009  0.86180227  0.61643899  1
  O  O220  1  0.25545452  0.88506779  0.86123793  1
  O  O221  1  0.48995983  0.14968319  0.13556098  1
  O  O222  1  0.49102007  0.12611077  0.34396866  1
  O  O223  1  0.49167245  0.11258424  0.63156756  1
  O  O224  1  0.50576090  0.13020268  0.87599884  1
  O  O225  1  0.49453627  0.35703073  0.12303111  1
  O  O226  1  0.49165093  0.37063035  0.35492845  1
  O  O227  1  0.50116065  0.40408729  0.63482225  1
  O  O228  1  0.50129139  0.37988201  0.86395840  1
  O  O229  1  0.49526945  0.61401411  0.10568720  1
  O  O230  1  0.49355291  0.62027317  0.36172655  1
  O  O231  1  0.49989152  0.59202679  0.62352897  1
  O  O232  1  0.50417687  0.61181269  0.88380867  1
  O  O233  1  0.50051291  0.86789944  0.09606904  1
  O  O234  1  0.48802865  0.90673155  0.38119242  1
  O  O235  1  0.50419422  0.90478476  0.61114391  1
  O  O236  1  0.50123248  0.86321839  0.90956774  1
  O  O237  1  0.75959579  0.13472683  0.10477983  1
  O  O238  1  0.75508660  0.11912577  0.36578388  1
  O  O239  1  0.75779420  0.15617830  0.61731225  1
  O  O240  1  0.75723074  0.12164306  0.89056094  1
  O  O241  1  0.74469191  0.37463633  0.10797968  1
  O  O242  1  0.75076718  0.40855874  0.38166786  1
  O  O243  1  0.76403214  0.35080671  0.62021902  1
  O  O244  1  0.75493528  0.38017158  0.86196773  1
  O  O245  1  0.74584020  0.61447372  0.12737977  1
  O  O246  1  0.73906357  0.59816359  0.38701583  1
  O  O247  1  0.75019517  0.64987524  0.60769337  1
  O  O248  1  0.75353032  0.61968960  0.85810931  1
  O  O249  1  0.74679912  0.85431664  0.14580168  1
  O  O250  1  0.75185621  0.88638478  0.34840814  1
  O  O251  1  0.74518372  0.85067956  0.58927005  1
  O  O252  1  0.74741047  0.85734427  0.87245128  1
  O  O253  1  0.09960594  0.01470192  0.14043235  1
  O  O254  1  0.14087124  0.00744521  0.35007839  1
  O  O255  1  0.13519130  0.01316277  0.61944098  1
  O  O256  1  0.10819120  0.01481364  0.85301935  1
  O  O257  1  0.14006195  0.25299630  0.08877858  1
  O  O258  1  0.11666079  0.25189208  0.37316017  1
  O  O259  1  0.07965538  0.24972058  0.63837979  1
  O  O260  1  0.13237240  0.25556464  0.89350397  1
  O  O261  1  0.09929090  0.49881931  0.14598879  1
  O  O262  1  0.12102570  0.50598926  0.35617046  1
  O  O263  1  0.14579947  0.49838540  0.63998779  1
  O  O264  1  0.11589016  0.50471315  0.84785188  1
  O  O265  1  0.12362135  0.75936092  0.07671779  1
  O  O266  1  0.14277698  0.74799323  0.41307395  1
  O  O267  1  0.11465142  0.74830321  0.60153318  1
  O  O268  1  0.12885686  0.74430259  0.87371433  1
  O  O269  1  0.39466796  0.00118288  0.10284760  1
  O  O270  1  0.33579858  0.01403054  0.38158450  1
  O  O271  1  0.35604659  -0.00079681  0.60056679  1
  O  O272  1  0.39633213  -0.00060688  0.91571773  1
  O  O273  1  0.34098263  0.25793857  0.12762665  1
  O  O274  1  0.36981013  0.25178288  0.32702776  1
  O  O275  1  0.38525505  0.24650860  0.65516204  1
  O  O276  1  0.37451612  0.24852217  0.84581814  1
  O  O277  1  0.38057544  0.49378148  0.08044151  1
  O  O278  1  0.38289713  0.50279942  0.40620785  1
  O  O279  1  0.35059483  0.49884197  0.59370431  1
  O  O280  1  0.35766032  0.49314215  0.89161403  1
  O  O281  1  0.38368474  0.74506964  0.14661792  1
  O  O282  1  0.38918025  0.74609878  0.34908749  1
  O  O283  1  0.40968334  0.74447766  0.64211722  1
  O  O284  1  0.37035543  0.74574315  0.83618130  1
  O  O285  1  0.62233643  -0.00835167  0.13836848  1
  O  O286  1  0.62672249  -0.00093861  0.34621633  1
  O  O287  1  0.65499221  -0.01054060  0.63094057  1
  O  O288  1  0.62922913  0.00088302  0.87595632  1
  O  O289  1  0.62873924  0.25663001  0.11749383  1
  O  O290  1  0.63480538  0.25533086  0.36496080  1
  O  O291  1  0.62008492  0.25939790  0.63544151  1
  O  O292  1  0.62854246  0.25121005  0.85665222  1
  O  O293  1  0.61324548  0.49644613  0.09902698  1
  O  O294  1  0.58928826  0.50281369  0.39286758  1
  O  O295  1  0.65123711  0.50306962  0.60814587  1
  O  O296  1  0.63737170  0.49882509  0.87405814  1
  O  O297  1  0.61438388  0.73975722  0.13828090  1
  O  O298  1  0.62219253  0.74081490  0.35637008  1
  O  O299  1  0.59675865  0.74714582  0.62039386  1
  O  O300  1  0.62887917  0.73965852  0.85820371  1
  O  O301  1  0.86788819  0.01208564  0.13107354  1
  O  O302  1  0.87239881  0.00267574  0.35240942  1
  O  O303  1  0.84003073  0.00216545  0.63538730  1
  O  O304  1  0.88637002  0.01171305  0.84630350  1
  O  O305  1  0.87187886  0.25017578  0.09261893  1
  O  O306  1  0.85276667  0.25219424  0.38984271  1
  O  O307  1  0.90759885  0.25180312  0.60824045  1
  O  O308  1  0.87713983  0.25428278  0.90070162  1
  O  O309  1  0.87025029  0.50048619  0.13626062  1
  O  O310  1  0.88951291  0.50023645  0.34990232  1
  O  O311  1  0.86708978  0.50121885  0.64235079  1
  O  O312  1  0.87919826  0.50158505  0.84270263  1
  O  O313  1  0.88486528  0.75405200  0.09873424  1
  O  O314  1  0.84003201  0.75780827  0.40733892  1
  O  O315  1  0.88786384  0.75011376  0.59579252  1
  O  O316  1  0.86579770  0.74306322  0.88210325  1
