# generated using pymatgen
data_Mg32Ti42(Bi17O64)3
_symmetry_space_group_name_H-M   'P 1'
_cell_length_a   15.92896089
_cell_length_b   15.95141353
_cell_length_c   15.95693823
_cell_angle_alpha   89.97199120
_cell_angle_beta   89.79043883
_cell_angle_gamma   90.06107531
_symmetry_Int_Tables_number   1
_chemical_formula_structural   Mg32Ti42(Bi17O64)3
_chemical_formula_sum   'Mg32 Ti42 Bi51 O192'
_cell_volume   4054.45961945
_cell_formula_units_Z   1
loop_
 _symmetry_equiv_pos_site_id
 _symmetry_equiv_pos_as_xyz
  1  'x, y, z'
loop_
 _atom_site_type_symbol
 _atom_site_label
 _atom_site_symmetry_multiplicity
 _atom_site_fract_x
 _atom_site_fract_y
 _atom_site_fract_z
 _atom_site_occupancy
  Mg  Mg0  1  0.88460417  0.37461359  0.62888868  1
  Mg  Mg1  1  0.35810971  0.36911877  0.11926576  1
  Mg  Mg2  1  0.36600259  0.12220424  0.12758029  1
  Mg  Mg3  1  0.38128967  0.11384469  0.38650101  1
  Mg  Mg4  1  0.13739352  0.63599813  0.62200869  1
  Mg  Mg5  1  0.87277738  0.63162927  0.11580993  1
  Mg  Mg6  1  0.11729883  0.13420536  0.12681073  1
  Mg  Mg7  1  0.61669654  0.87190274  0.12863194  1
  Mg  Mg8  1  0.12808786  0.62706893  0.11570510  1
  Mg  Mg9  1  0.62515794  0.13769760  0.12285555  1
  Mg  Mg10  1  0.37124587  0.61832968  0.12132981  1
  Mg  Mg11  1  0.62140376  0.36852953  0.61955446  1
  Mg  Mg12  1  0.88223695  0.12940810  0.12127478  1
  Mg  Mg13  1  0.62604885  0.12291367  0.62162432  1
  Mg  Mg14  1  0.61510231  0.37953351  0.87632381  1
  Mg  Mg15  1  0.87521918  0.38860869  0.37179856  1
  Mg  Mg16  1  0.62392448  0.12769746  0.87524886  1
  Mg  Mg17  1  0.88108682  0.13042735  0.36874899  1
  Mg  Mg18  1  0.37908878  0.37335290  0.62685654  1
  Mg  Mg19  1  0.00062433  -0.02716207  0.79784610  1
  Mg  Mg20  1  0.00375871  0.30087769  0.78688281  1
  Mg  Mg21  1  -0.01339522  0.28681814  0.23271129  1
  Mg  Mg22  1  0.22936847  0.78097700  0.49017109  1
  Mg  Mg23  1  -0.02703843  0.27256417  0.44634354  1
  Mg  Mg24  1  0.50702933  0.78995860  -0.00381155  1
  Mg  Mg25  1  0.27076267  0.50015491  -0.03510692  1
  Mg  Mg26  1  0.46948664  0.50116939  0.00906550  1
  Mg  Mg27  1  0.26377685  0.77762633  -0.03354669  1
  Mg  Mg28  1  0.24778943  0.00694446  -0.01346781  1
  Mg  Mg29  1  0.52255556  0.21333768  0.49253429  1
  Mg  Mg30  1  0.21423067  0.01843309  0.50013223  1
  Mg  Mg31  1  0.40928810  -0.06565927  0.53307354  1
  Ti  Ti32  1  0.85890056  0.86986300  0.36419864  1
  Ti  Ti33  1  0.13929304  0.88204985  0.61219103  1
  Ti  Ti34  1  0.12272235  0.63758602  0.38556891  1
  Ti  Ti35  1  0.13599100  0.88215793  0.10908832  1
  Ti  Ti36  1  0.88032332  0.38550651  0.87075133  1
  Ti  Ti37  1  0.37755001  0.36449001  0.38358607  1
  Ti  Ti38  1  0.63011750  0.88522551  0.59965975  1
  Ti  Ti39  1  0.13698465  0.88040056  0.86843069  1
  Ti  Ti40  1  0.62510063  0.13239423  0.37296764  1
  Ti  Ti41  1  0.88165210  0.13309239  0.63228224  1
  Ti  Ti42  1  0.11064800  0.12929950  0.62245570  1
  Ti  Ti43  1  0.60242248  0.62320098  0.89222809  1
  Ti  Ti44  1  0.87853902  0.38075384  0.11306886  1
  Ti  Ti45  1  0.61706466  0.89197971  0.87661469  1
  Ti  Ti46  1  0.88568764  0.12885924  0.86858819  1
  Ti  Ti47  1  0.62723347  0.37452832  0.36408139  1
  Ti  Ti48  1  0.38813998  0.12766502  0.61000745  1
  Ti  Ti49  1  0.61720275  0.88121910  0.37286091  1
  Ti  Ti50  1  0.61854108  0.61362125  0.36684127  1
  Ti  Ti51  1  0.87522269  0.64122424  0.86760078  1
  Ti  Ti52  1  0.61953445  0.37825462  0.12742814  1
  Ti  Ti53  1  0.86552260  0.87291660  0.12711589  1
  Ti  Ti54  1  0.36222706  0.87890291  0.37435523  1
  Ti  Ti55  1  0.11728079  0.36855681  0.63373207  1
  Ti  Ti56  1  0.36756693  0.88502327  0.11743373  1
  Ti  Ti57  1  0.86951588  0.62978782  0.37322975  1
  Ti  Ti58  1  0.11762693  0.37264508  0.37289650  1
  Ti  Ti59  1  0.85940528  0.87575339  0.88046611  1
  Ti  Ti60  1  0.12416327  0.36413492  0.12277016  1
  Ti  Ti61  1  0.11186970  0.13194544  0.38733405  1
  Ti  Ti62  1  0.36854368  0.61418568  0.36346099  1
  Ti  Ti63  1  0.37209145  0.38570264  0.87739572  1
  Ti  Ti64  1  0.37856015  0.88436934  0.87938876  1
  Ti  Ti65  1  0.12948089  0.88631087  0.36599240  1
  Ti  Ti66  1  0.37689371  0.63893348  0.90279872  1
  Ti  Ti67  1  0.37184426  0.12079455  0.87594502  1
  Ti  Ti68  1  0.87488375  0.62867810  0.62815188  1
  Ti  Ti69  1  0.13273267  0.38316416  0.88484215  1
  Ti  Ti70  1  0.13510834  0.64222727  0.87595862  1
  Ti  Ti71  1  0.61088016  0.61851300  0.12246175  1
  Ti  Ti72  1  0.12358106  0.12924624  0.86054650  1
  Ti  Ti73  1  0.36878600  0.61811166  0.60502734  1
  Bi  Bi74  1  0.76081926  0.04215786  0.49457634  1
  Bi  Bi75  1  0.78894403  0.26937906  0.25037723  1
  Bi  Bi76  1  0.71441814  0.76150014  0.00388072  1
  Bi  Bi77  1  -0.01090495  0.01691743  0.25316826  1
  Bi  Bi78  1  -0.00002826  0.78292989  -0.00168956  1
  Bi  Bi79  1  0.22448898  0.02597862  0.25632731  1
  Bi  Bi80  1  0.22854788  0.49525521  0.49605265  1
  Bi  Bi81  1  0.49776431  0.27689791  0.00321399  1
  Bi  Bi82  1  0.77489482  0.25691444  0.52201545  1
  Bi  Bi83  1  0.73739710  0.03577500  0.23755159  1
  Bi  Bi84  1  0.27371772  0.23513201  -0.00222591  1
  Bi  Bi85  1  0.27722604  0.25756706  0.74411492  1
  Bi  Bi86  1  0.71662518  0.72272180  0.51019554  1
  Bi  Bi87  1  0.77790801  -0.01940229  0.71839240  1
  Bi  Bi88  1  0.50016053  0.02824414  0.00884768  1
  Bi  Bi89  1  0.27439695  0.76837532  0.72307428  1
  Bi  Bi90  1  -0.03327567  0.75922988  0.50195114  1
  Bi  Bi91  1  0.46477544  0.48277225  0.24030899  1
  Bi  Bi92  1  0.50367431  0.50574276  0.71544335  1
  Bi  Bi93  1  0.74953452  0.02789203  0.00104270  1
  Bi  Bi94  1  0.50003617  -0.01933304  0.71254368  1
  Bi  Bi95  1  0.74355131  0.50420241  -0.01986632  1
  Bi  Bi96  1  0.48749876  0.23791257  0.26695302  1
  Bi  Bi97  1  0.24500162  0.74734525  0.22575618  1
  Bi  Bi98  1  0.48695123  0.73603139  0.72261210  1
  Bi  Bi99  1  0.00946284  0.52695400  0.74242893  1
  Bi  Bi100  1  -0.03464339  -0.02538845  0.49890293  1
  Bi  Bi101  1  0.73257614  0.26591466  -0.01531743  1
  Bi  Bi102  1  0.26099023  0.23658137  0.25621384  1
  Bi  Bi103  1  0.72444297  0.74330255  0.24611025  1
  Bi  Bi104  1  -0.01365865  0.79190335  0.72827851  1
  Bi  Bi105  1  0.48068671  0.75088043  0.47506821  1
  Bi  Bi106  1  0.47552879  0.75529386  0.23627118  1
  Bi  Bi107  1  0.01131755  0.24970499  -0.00898785  1
  Bi  Bi108  1  0.25698907  0.01801034  0.71272406  1
  Bi  Bi109  1  -0.00040303  0.53735954  -0.00894223  1
  Bi  Bi110  1  0.23835309  0.51088318  0.23350629  1
  Bi  Bi111  1  0.01144828  0.50861104  0.22750296  1
  Bi  Bi112  1  0.73881864  0.26661335  0.74653205  1
  Bi  Bi113  1  0.51925898  0.48874528  0.49713954  1
  Bi  Bi114  1  0.00174432  0.72907450  0.23133795  1
  Bi  Bi115  1  0.70960934  0.76024814  0.73692556  1
  Bi  Bi116  1  0.52009032  0.23864130  0.72707857  1
  Bi  Bi117  1  0.75196419  0.48935533  0.50891459  1
  Bi  Bi118  1  0.50568942  0.00770865  0.23483990  1
  Bi  Bi119  1  0.24926459  0.27323793  0.51286233  1
  Bi  Bi120  1  0.76237406  0.50507639  0.22114614  1
  Bi  Bi121  1  -0.01398861  0.50303467  0.50384285  1
  Bi  Bi122  1  0.72016385  0.53979370  0.74524620  1
  Bi  Bi123  1  0.00627079  0.02201880  0.00823105  1
  Bi  Bi124  1  0.24685835  0.50686090  0.73279345  1
  O  O125  1  0.09795922  0.13807192  -0.00638822  1
  O  O126  1  0.10938791  0.10279423  0.25969503  1
  O  O127  1  0.13688322  0.12129801  0.50162580  1
  O  O128  1  0.14023353  0.11932487  0.74178221  1
  O  O129  1  0.13109517  0.35019313  0.00261548  1
  O  O130  1  0.09115006  0.36563142  0.25928354  1
  O  O131  1  0.15172028  0.37059149  0.50436536  1
  O  O132  1  0.10338099  0.37754689  0.75274191  1
  O  O133  1  0.10270258  0.63177371  -0.00653871  1
  O  O134  1  0.10304421  0.61663320  0.26457564  1
  O  O135  1  0.15917043  0.61573391  0.49714302  1
  O  O136  1  0.13294997  0.59841262  0.75943752  1
  O  O137  1  0.15173601  0.83358838  0.00064393  1
  O  O138  1  0.11847496  0.90584241  0.25057290  1
  O  O139  1  0.17004615  0.89082124  0.50036823  1
  O  O140  1  0.10088281  0.89973532  0.75734962  1
  O  O141  1  0.33763699  0.09871792  0.00105189  1
  O  O142  1  0.37447182  0.15736709  0.25343593  1
  O  O143  1  0.42321959  0.13370392  0.50430051  1
  O  O144  1  0.36456992  0.13316287  0.76129141  1
  O  O145  1  0.33078748  0.39086147  -0.00668159  1
  O  O146  1  0.39397315  0.35158360  0.25458295  1
  O  O147  1  0.35261740  0.37370346  0.50039640  1
  O  O148  1  0.38162600  0.35082767  0.76191206  1
  O  O149  1  0.36132323  0.57495530  0.00439620  1
  O  O150  1  0.40915107  0.61836446  0.25098185  1
  O  O151  1  0.36328371  0.61513614  0.49161103  1
  O  O152  1  0.39554993  0.65321443  0.78632213  1
  O  O153  1  0.33095655  0.89461352  0.00402936  1
  O  O154  1  0.40625162  0.87647943  0.26142866  1
  O  O155  1  0.35297901  0.83063478  0.48784865  1
  O  O156  1  0.40101049  0.84177676  0.77205852  1
  O  O157  1  0.62025894  0.09250142  0.00176517  1
  O  O158  1  0.65219580  0.14450924  0.24749440  1
  O  O159  1  0.61253572  0.11683906  0.48736670  1
  O  O160  1  0.63522882  0.16593634  0.75344782  1
  O  O161  1  0.65938692  0.39357396  0.00537246  1
  O  O162  1  0.59864288  0.36502879  0.24741001  1
  O  O163  1  0.63123299  0.40350206  0.49000080  1
  O  O164  1  0.62108782  0.34184384  0.75211298  1
  O  O165  1  0.65017096  0.60582766  0.00625096  1
  O  O166  1  0.61282564  0.64977826  0.24883127  1
  O  O167  1  0.66030435  0.59821449  0.48805403  1
  O  O168  1  0.61421788  0.63278865  0.77149388  1
  O  O169  1  0.64607913  0.88304392  -0.00214710  1
  O  O170  1  0.60788903  0.84111288  0.25932299  1
  O  O171  1  0.65792237  0.89289950  0.49193263  1
  O  O172  1  0.60233187  0.84703717  0.76620677  1
  O  O173  1  0.91431170  0.13229056  -0.00672748  1
  O  O174  1  0.87574895  0.10020914  0.24641746  1
  O  O175  1  0.86958798  0.14376693  0.49696271  1
  O  O176  1  0.86429065  0.10925189  0.74831773  1
  O  O177  1  0.86246971  0.35943897  -0.00092353  1
  O  O178  1  0.88035037  0.39174312  0.24585800  1
  O  O179  1  0.87575298  0.34528836  0.49369365  1
  O  O180  1  0.90245659  0.37675916  0.75650106  1
  O  O181  1  0.89612716  0.63351412  -0.01228474  1
  O  O182  1  0.89841774  0.60891409  0.26066152  1
  O  O183  1  0.86569237  0.65380596  0.50225254  1
  O  O184  1  0.88838743  0.60680088  0.74687926  1
  O  O185  1  0.86812047  0.84272600  -0.00512276  1
  O  O186  1  0.88602894  0.88722860  0.24527975  1
  O  O187  1  0.87917357  0.86176471  0.48907114  1
  O  O188  1  0.90441092  0.89972128  0.76053888  1
  O  O189  1  0.00274705  0.08319087  0.13166081  1
  O  O190  1  0.00319380  0.09000291  0.38741841  1
  O  O191  1  -0.00082667  0.10940088  0.62105564  1
  O  O192  1  0.00519093  0.08111416  0.85485514  1
  O  O193  1  -0.00708908  0.40397224  0.11522833  1
  O  O194  1  0.00626034  0.39220912  0.40566574  1
  O  O195  1  0.00941850  0.39669620  0.60780104  1
  O  O196  1  0.00374761  0.38480330  0.89088222  1
  O  O197  1  0.00049993  0.60701037  0.12942387  1
  O  O198  1  0.00818623  0.62033660  0.40571864  1
  O  O199  1  0.00931945  0.60913948  0.62464198  1
  O  O200  1  0.00619379  0.59999193  0.86418283  1
  O  O201  1  0.01332861  0.88429486  0.09576429  1
  O  O202  1  0.01574821  0.89003335  0.39468694  1
  O  O203  1  0.02130976  0.86481372  0.60516002  1
  O  O204  1  0.01315200  0.88584948  0.89884709  1
  O  O205  1  0.23887899  0.13958693  0.15509164  1
  O  O206  1  0.24515949  0.13576029  0.35731675  1
  O  O207  1  0.26794643  0.11068561  0.60281996  1
  O  O208  1  0.23854354  0.14284325  0.88079215  1
  O  O209  1  0.23315517  0.35168521  0.14936863  1
  O  O210  1  0.25149440  0.33925884  0.37518205  1
  O  O211  1  0.24943004  0.35054808  0.64017711  1
  O  O212  1  0.24079961  0.34846934  0.85585901  1
  O  O213  1  0.24683501  0.62409488  0.15293855  1
  O  O214  1  0.25598037  0.62770741  0.34726114  1
  O  O215  1  0.26173092  0.62364103  0.65728645  1
  O  O216  1  0.25237187  0.65768200  0.90295783  1
  O  O217  1  0.24943351  0.86357339  0.15005425  1
  O  O218  1  0.25371527  0.85631345  0.34978956  1
  O  O219  1  0.25296891  0.88768800  0.66232942  1
  O  O220  1  0.25633468  0.84679390  0.86059771  1
  O  O221  1  0.49764623  0.10707209  0.12778639  1
  O  O222  1  0.50663560  0.11006179  0.33840474  1
  O  O223  1  0.50325899  0.10868395  0.65897160  1
  O  O224  1  0.48705541  0.11363964  0.89866657  1
  O  O225  1  0.50260580  0.39979633  0.09349014  1
  O  O226  1  0.49737537  0.40227721  0.39253462  1
  O  O227  1  0.49886202  0.40888009  0.61605607  1
  O  O228  1  0.48660417  0.39723165  0.91451510  1
  O  O229  1  0.50275110  0.58841441  0.10660261  1
  O  O230  1  0.50664676  0.60719607  0.39454014  1
  O  O231  1  0.48812513  0.61267607  0.62990033  1
  O  O232  1  0.49671817  0.59104750  0.91354076  1
  O  O233  1  0.48600631  0.86695802  0.09817104  1
  O  O234  1  0.50267172  0.87445963  0.41027068  1
  O  O235  1  0.50983191  0.89444001  0.60140636  1
  O  O236  1  0.49723597  0.88842761  0.91016241  1
  O  O237  1  0.75463670  0.11740778  0.10955998  1
  O  O238  1  0.74732666  0.12623501  0.37763026  1
  O  O239  1  0.75038647  0.13812021  0.60995155  1
  O  O240  1  0.76581962  0.13707196  0.90416069  1
  O  O241  1  0.74773918  0.36854025  0.15336273  1
  O  O242  1  0.74336868  0.35995916  0.35902456  1
  O  O243  1  0.74999809  0.35622081  0.62386806  1
  O  O244  1  0.76167286  0.34357533  0.86690328  1
  O  O245  1  0.74999982  0.63844438  0.14986444  1
  O  O246  1  0.75529359  0.64441121  0.35560510  1
  O  O247  1  0.75814590  0.64160545  0.64035480  1
  O  O248  1  0.76018780  0.64193895  0.87131208  1
  O  O249  1  0.75221139  0.84225437  0.13134026  1
  O  O250  1  0.74873014  0.85570977  0.35651698  1
  O  O251  1  0.74392510  0.86452090  0.65219158  1
  O  O252  1  0.74633785  0.85460878  0.86021992  1
  O  O253  1  0.15725702  -0.00766034  0.08171757  1
  O  O254  1  0.15887988  0.00016301  0.38419964  1
  O  O255  1  0.14722373  0.00392067  0.61715377  1
  O  O256  1  0.15721177  -0.00853860  0.89559615  1
  O  O257  1  0.07497701  0.25514354  0.13560238  1
  O  O258  1  0.08947260  0.24643195  0.39245331  1
  O  O259  1  0.11869504  0.24672256  0.62289537  1
  O  O260  1  0.08979763  0.24123427  0.86238499  1
  O  O261  1  0.13089635  0.49085550  0.14008829  1
  O  O262  1  0.14632505  0.48910344  0.38160408  1
  O  O263  1  0.15658400  0.49046173  0.62121456  1
  O  O264  1  0.15896460  0.49250298  0.90312661  1
  O  O265  1  0.11748094  0.75197486  0.15246420  1
  O  O266  1  0.13349503  0.75337476  0.39538214  1
  O  O267  1  0.16998748  0.76068583  0.60887467  1
  O  O268  1  0.11224438  0.74890037  0.85387679  1
  O  O269  1  0.37061985  -0.00522019  0.14838300  1
  O  O270  1  0.35554400  -0.01278090  0.42276005  1
  O  O271  1  0.38303441  0.00139688  0.63530042  1
  O  O272  1  0.35934061  -0.00527281  0.86294367  1
  O  O273  1  0.37914083  0.24727645  0.09105656  1
  O  O274  1  0.41629696  0.25354820  0.38954454  1
  O  O275  1  0.37967407  0.24367457  0.63207561  1
  O  O276  1  0.37674683  0.24435593  0.90462764  1
  O  O277  1  0.35567044  0.48917903  0.15700806  1
  O  O278  1  0.36494160  0.49249218  0.35137300  1
  O  O279  1  0.36456248  0.50192420  0.64970921  1
  O  O280  1  0.34403534  0.49577672  0.85830641  1
  O  O281  1  0.36706288  0.75026812  0.14399946  1
  O  O282  1  0.40211962  0.73881453  0.36074063  1
  O  O283  1  0.38089658  0.73663601  0.63219783  1
  O  O284  1  0.39328588  0.74754836  0.94211391  1
  O  O285  1  0.62567204  -0.00533531  0.15706193  1
  O  O286  1  0.62837651  -0.00639648  0.34523075  1
  O  O287  1  0.63813199  -0.00471176  0.65059992  1
  O  O288  1  0.63211610  -0.00125120  0.85334278  1
  O  O289  1  0.61191100  0.26237303  0.09959398  1
  O  O290  1  0.59741405  0.25175169  0.38573125  1
  O  O291  1  0.58023735  0.24837739  0.60189024  1
  O  O292  1  0.61655430  0.25351587  0.91165717  1
  O  O293  1  0.64525540  0.50192534  0.14516578  1
  O  O294  1  0.63805087  0.50009759  0.34853394  1
  O  O295  1  0.63043942  0.49654546  0.65461353  1
  O  O296  1  0.65176376  0.50274864  0.86876518  1
  O  O297  1  0.60672183  0.74108957  0.09594188  1
  O  O298  1  0.61483410  0.74139779  0.40841727  1
  O  O299  1  0.62544192  0.76044618  0.61450349  1
  O  O300  1  0.59896239  0.73971782  0.91632008  1
  O  O301  1  0.86315969  -0.01655761  0.09518735  1
  O  O302  1  0.86401819  -0.00945013  0.39770595  1
  O  O303  1  0.85391066  0.00820084  0.60500536  1
  O  O304  1  0.85990611  -0.00937724  0.89163070  1
  O  O305  1  0.89059571  0.25951667  0.14658788  1
  O  O306  1  0.91020515  0.25395625  0.33729808  1
  O  O307  1  0.87623627  0.24669316  0.63063215  1
  O  O308  1  0.91269973  0.23886561  0.85813619  1
  O  O309  1  0.84768579  0.50109443  0.11041849  1
  O  O310  1  0.86388093  0.51089415  0.41054177  1
  O  O311  1  0.87099341  0.50563055  0.59853452  1
  O  O312  1  0.86315447  0.49711068  0.88273729  1
  O  O313  1  0.91028868  0.75337828  0.13077478  1
  O  O314  1  0.89774013  0.75193846  0.36328151  1
  O  O315  1  0.89962205  0.74577949  0.63278324  1
  O  O316  1  0.89794188  0.75334876  0.84865393  1
