# generated using pymatgen
data_Mg32Ti42(Bi17O64)3
_symmetry_space_group_name_H-M   'P 1'
_cell_length_a   15.97012393
_cell_length_b   15.99230325
_cell_length_c   15.99674658
_cell_angle_alpha   89.94429339
_cell_angle_beta   90.05455818
_cell_angle_gamma   89.80604112
_symmetry_Int_Tables_number   1
_chemical_formula_structural   Mg32Ti42(Bi17O64)3
_chemical_formula_sum   'Mg32 Ti42 Bi51 O192'
_cell_volume   4085.52690920
_cell_formula_units_Z   1
loop_
 _symmetry_equiv_pos_site_id
 _symmetry_equiv_pos_as_xyz
  1  'x, y, z'
loop_
 _atom_site_type_symbol
 _atom_site_label
 _atom_site_symmetry_multiplicity
 _atom_site_fract_x
 _atom_site_fract_y
 _atom_site_fract_z
 _atom_site_occupancy
  Mg  Mg0  1  0.86228286  0.37288996  0.60836342  1
  Mg  Mg1  1  0.88296776  0.87854864  0.36906646  1
  Mg  Mg2  1  0.64277506  0.62363962  0.36156637  1
  Mg  Mg3  1  0.62297938  0.86448274  0.36880050  1
  Mg  Mg4  1  0.36616946  0.88188679  0.11085247  1
  Mg  Mg5  1  0.12401517  0.87399544  0.61963734  1
  Mg  Mg6  1  0.14591728  0.62147266  0.63135389  1
  Mg  Mg7  1  0.12382548  0.12914750  0.62939943  1
  Mg  Mg8  1  0.86878677  0.87446033  0.86548288  1
  Mg  Mg9  1  0.12712938  0.38229003  0.13914496  1
  Mg  Mg10  1  0.37274702  0.38072038  0.61433644  1
  Mg  Mg11  1  0.37563102  0.12148774  0.11486154  1
  Mg  Mg12  1  0.61683021  0.12747012  0.37221241  1
  Mg  Mg13  1  0.38457096  0.36541782  0.88124434  1
  Mg  Mg14  1  0.62661614  0.87040739  0.11359980  1
  Mg  Mg15  1  0.12706503  0.37751125  0.61324254  1
  Mg  Mg16  1  0.11716447  0.36817310  0.87365272  1
  Mg  Mg17  1  0.37505227  0.37564074  0.12451358  1
  Mg  Mg18  1  0.13521758  0.62444962  0.37159563  1
  Mg  Mg19  1  0.74344871  0.51024475  0.20663027  1
  Mg  Mg20  1  0.49032527  -0.02098020  0.01316329  1
  Mg  Mg21  1  0.25769483  0.51658057  0.49313476  1
  Mg  Mg22  1  0.48163178  0.74989621  0.05917058  1
  Mg  Mg23  1  0.28488438  0.75053304  0.80196867  1
  Mg  Mg24  1  0.79217963  0.68142511  0.22710626  1
  Mg  Mg25  1  0.19031143  -0.00572138  0.01146385  1
  Mg  Mg26  1  0.81893968  0.55939051  0.03634483  1
  Mg  Mg27  1  0.04604891  0.54340330  0.50150194  1
  Mg  Mg28  1  0.23556593  0.25582358  0.43606553  1
  Mg  Mg29  1  0.49608075  0.23996275  0.47218666  1
  Mg  Mg30  1  0.04690348  0.28113947  0.01564985  1
  Mg  Mg31  1  0.77573257  0.76222482  0.43682371  1
  Ti  Ti32  1  0.62780580  0.61385153  0.62750243  1
  Ti  Ti33  1  0.37012780  0.11734994  0.61650613  1
  Ti  Ti34  1  0.62436557  0.11825838  0.13534955  1
  Ti  Ti35  1  0.63256980  0.62341110  0.88786834  1
  Ti  Ti36  1  0.36817348  0.10781434  0.87102968  1
  Ti  Ti37  1  0.13632470  0.87741611  0.87351146  1
  Ti  Ti38  1  0.86303163  0.12838754  0.61961133  1
  Ti  Ti39  1  0.38095172  0.62484627  0.64161425  1
  Ti  Ti40  1  0.60590084  0.13548095  0.61263612  1
  Ti  Ti41  1  0.12922686  0.62530727  0.87366253  1
  Ti  Ti42  1  0.38949776  0.62770151  0.87864247  1
  Ti  Ti43  1  0.87625599  0.36426851  0.88792237  1
  Ti  Ti44  1  0.37563299  0.36929450  0.39175235  1
  Ti  Ti45  1  0.85882572  0.88000795  0.12367744  1
  Ti  Ti46  1  0.62915762  0.37226281  0.63272777  1
  Ti  Ti47  1  0.12752902  0.12729472  0.12452420  1
  Ti  Ti48  1  0.12649895  0.12750731  0.36107612  1
  Ti  Ti49  1  0.88135124  0.12361331  0.86768221  1
  Ti  Ti50  1  0.61573200  0.36561498  0.36523373  1
  Ti  Ti51  1  0.37202040  0.61441537  0.13145413  1
  Ti  Ti52  1  0.38684871  0.61862855  0.38402189  1
  Ti  Ti53  1  0.12273174  0.38903168  0.38407536  1
  Ti  Ti54  1  0.87332713  0.12557478  0.36772314  1
  Ti  Ti55  1  0.38381348  0.87585859  0.87879457  1
  Ti  Ti56  1  0.13723645  0.87156057  0.12141762  1
  Ti  Ti57  1  0.87130197  0.85748798  0.60554181  1
  Ti  Ti58  1  0.62865561  0.37813200  0.12113985  1
  Ti  Ti59  1  0.11404417  0.12223834  0.87633656  1
  Ti  Ti60  1  0.37955290  0.86538361  0.37438682  1
  Ti  Ti61  1  0.12420198  0.87143117  0.37276257  1
  Ti  Ti62  1  0.85673742  0.62349732  0.59031286  1
  Ti  Ti63  1  0.88323425  0.61949413  0.88469493  1
  Ti  Ti64  1  0.38152913  0.11986272  0.38139624  1
  Ti  Ti65  1  0.36458227  0.85913453  0.63818582  1
  Ti  Ti66  1  0.62559766  0.62999209  0.11256065  1
  Ti  Ti67  1  0.63616947  0.38128701  0.87933130  1
  Ti  Ti68  1  0.88137509  0.61869218  0.36763048  1
  Ti  Ti69  1  0.13371774  0.62054668  0.12782242  1
  Ti  Ti70  1  0.89399170  0.36671264  0.38067452  1
  Ti  Ti71  1  0.62003981  0.86221969  0.88206128  1
  Ti  Ti72  1  0.86077601  0.36847605  0.11606208  1
  Ti  Ti73  1  0.87322443  0.12085667  0.11557640  1
  Bi  Bi74  1  0.49668726  -0.03339658  0.22482311  1
  Bi  Bi75  1  0.24939271  0.22740174  -0.02320536  1
  Bi  Bi76  1  0.27745046  0.47355635  0.75340816  1
  Bi  Bi77  1  0.71615548  0.21920201  0.75904873  1
  Bi  Bi78  1  0.47775397  0.25098551  0.74101051  1
  Bi  Bi79  1  -0.00851484  0.23924126  0.21811918  1
  Bi  Bi80  1  0.26668884  0.72474167  0.00648824  1
  Bi  Bi81  1  0.77028475  0.73482498  0.74564789  1
  Bi  Bi82  1  0.50285954  0.47687325  0.01037417  1
  Bi  Bi83  1  0.74116283  0.23031025  0.48060887  1
  Bi  Bi84  1  0.74594218  0.47923270  0.45569582  1
  Bi  Bi85  1  0.25148022  0.73826881  0.25494956  1
  Bi  Bi86  1  0.00253412  -0.02183635  0.22783356  1
  Bi  Bi87  1  0.76701862  0.75298834  -0.01384098  1
  Bi  Bi88  1  -0.00635774  0.27685153  0.72216652  1
  Bi  Bi89  1  0.72172623  0.00113737  -0.03607354  1
  Bi  Bi90  1  0.02772641  0.02143342  0.49370369  1
  Bi  Bi91  1  0.27061268  0.24309238  0.22879692  1
  Bi  Bi92  1  0.54119242  0.76059265  0.72886522  1
  Bi  Bi93  1  -0.01365890  0.00016532  0.71218246  1
  Bi  Bi94  1  0.25811110  0.71887422  0.49945057  1
  Bi  Bi95  1  0.52008673  0.49240941  0.76882840  1
  Bi  Bi96  1  0.02315593  0.73557074  0.51137894  1
  Bi  Bi97  1  0.26103498  0.47144774  0.25947391  1
  Bi  Bi98  1  0.48619362  0.25009840  0.22007152  1
  Bi  Bi99  1  0.25982091  -0.02127976  0.49493025  1
  Bi  Bi100  1  0.50745349  0.47602166  0.50602151  1
  Bi  Bi101  1  0.52766588  0.02435880  0.78455482  1
  Bi  Bi102  1  -0.02464154  0.74610084  0.23257469  1
  Bi  Bi103  1  0.00477577  0.73478309  -0.00026971  1
  Bi  Bi104  1  0.21894244  -0.00021211  0.73173899  1
  Bi  Bi105  1  0.25270034  0.46954643  -0.02392370  1
  Bi  Bi106  1  0.74062037  -0.04020161  0.71080045  1
  Bi  Bi107  1  0.73736339  0.24201026  0.23367477  1
  Bi  Bi108  1  0.50584907  -0.03212701  0.54286549  1
  Bi  Bi109  1  0.00621842  0.48964367  0.70904128  1
  Bi  Bi110  1  0.03438383  0.75149715  0.74950260  1
  Bi  Bi111  1  0.52492956  0.75341850  0.24487022  1
  Bi  Bi112  1  -0.01903986  -0.02577051  -0.02350019  1
  Bi  Bi113  1  0.26176989  -0.01945292  0.25264698  1
  Bi  Bi114  1  0.74434121  -0.02464496  0.27203034  1
  Bi  Bi115  1  0.72449227  -0.02587095  0.48352107  1
  Bi  Bi116  1  0.02081423  0.47753649  0.00045481  1
  Bi  Bi117  1  0.26122232  0.26050165  0.72236058  1
  Bi  Bi118  1  -0.03561584  0.49215923  0.23665030  1
  Bi  Bi119  1  0.55341070  0.74507336  0.50185487  1
  Bi  Bi120  1  0.73633369  0.22590858  -0.01618335  1
  Bi  Bi121  1  0.03508802  0.24814576  0.49478969  1
  Bi  Bi122  1  0.51564107  0.52600240  0.25859899  1
  Bi  Bi123  1  0.77723467  0.48960514  0.74004675  1
  Bi  Bi124  1  0.51388138  0.20290581  -0.02463598  1
  O  O125  1  0.16323265  0.12000683  0.00695962  1
  O  O126  1  0.09519509  0.12607925  0.24773079  1
  O  O127  1  0.11991850  0.12924996  0.49906712  1
  O  O128  1  0.11361542  0.11001028  0.76209236  1
  O  O129  1  0.13378861  0.38722647  0.00857814  1
  O  O130  1  0.11983965  0.41020349  0.26876521  1
  O  O131  1  0.14919273  0.33183867  0.49566218  1
  O  O132  1  0.08734101  0.38354031  0.75350324  1
  O  O133  1  0.11951317  0.64797359  -0.00164239  1
  O  O134  1  0.16017990  0.62637006  0.24526863  1
  O  O135  1  0.12611678  0.64938269  0.49995859  1
  O  O136  1  0.10765677  0.62970542  0.75268195  1
  O  O137  1  0.11747915  0.88165530  0.00196407  1
  O  O138  1  0.14658330  0.89874299  0.24380620  1
  O  O139  1  0.12454254  0.87005918  0.49021010  1
  O  O140  1  0.13111427  0.88545207  0.75370321  1
  O  O141  1  0.35520388  0.13423689  -0.00944077  1
  O  O142  1  0.38044157  0.15690696  0.26617596  1
  O  O143  1  0.34702276  0.10174731  0.50320175  1
  O  O144  1  0.40932717  0.12904901  0.75445911  1
  O  O145  1  0.35800571  0.38588057  0.00124043  1
  O  O146  1  0.38449265  0.35203240  0.27119923  1
  O  O147  1  0.35082572  0.42747113  0.49583575  1
  O  O148  1  0.36866971  0.36691732  0.75628782  1
  O  O149  1  0.38194726  0.62565455  -0.00328751  1
  O  O150  1  0.34853974  0.63518443  0.24583019  1
  O  O151  1  0.40681038  0.62110096  0.49535686  1
  O  O152  1  0.35472690  0.65269591  0.75039428  1
  O  O153  1  0.40260498  0.89117598  -0.01168044  1
  O  O154  1  0.35999120  0.88215550  0.24674339  1
  O  O155  1  0.37174459  0.89377241  0.49231387  1
  O  O156  1  0.35279254  0.84611914  0.74826757  1
  O  O157  1  0.64340013  0.12550541  0.01223042  1
  O  O158  1  0.61493888  0.15859984  0.24768413  1
  O  O159  1  0.65513749  0.11932585  0.50661339  1
  O  O160  1  0.59284546  0.15258814  0.74289658  1
  O  O161  1  0.62976851  0.40420303  0.00489557  1
  O  O162  1  0.60157394  0.34975522  0.25502625  1
  O  O163  1  0.63960611  0.41005251  0.51342040  1
  O  O164  1  0.60056368  0.36558585  0.75785202  1
  O  O165  1  0.59643483  0.59071822  0.00268299  1
  O  O166  1  0.61563533  0.64531713  0.23667103  1
  O  O167  1  0.61174956  0.60635683  0.51320525  1
  O  O168  1  0.63528728  0.65445783  0.76762576  1
  O  O169  1  0.60107146  0.91786866  -0.00822130  1
  O  O170  1  0.62357459  0.85488116  0.24421687  1
  O  O171  1  0.60896630  0.88760802  0.49460410  1
  O  O172  1  0.65017058  0.84303462  0.76363173  1
  O  O173  1  0.84730897  0.13237499  0.00567885  1
  O  O174  1  0.90225330  0.12841293  0.25497034  1
  O  O175  1  0.84133190  0.12620267  0.50755922  1
  O  O176  1  0.89881571  0.11772036  0.75706410  1
  O  O177  1  0.83878877  0.36047414  0.00689099  1
  O  O178  1  0.90033046  0.36913708  0.26016761  1
  O  O179  1  0.84045390  0.38617729  0.48875693  1
  O  O180  1  0.89120552  0.40791506  0.77600027  1
  O  O181  1  0.88596036  0.66119075  0.00704561  1
  O  O182  1  0.91006881  0.62115758  0.24727128  1
  O  O183  1  0.82561862  0.64163548  0.47998510  1
  O  O184  1  0.85461384  0.61142162  0.77208281  1
  O  O185  1  0.89492381  0.86301130  0.00960402  1
  O  O186  1  0.87520787  0.90804441  0.24378312  1
  O  O187  1  0.87410869  0.83991198  0.49139617  1
  O  O188  1  0.84018868  0.86649438  0.74252228  1
  O  O189  1  -0.00844131  0.15720008  0.10626903  1
  O  O190  1  -0.01027974  0.11641237  0.40268980  1
  O  O191  1  -0.01197352  0.10146595  0.61136881  1
  O  O192  1  0.00128458  0.10809187  0.90064149  1
  O  O193  1  -0.01232417  0.36722411  0.10396020  1
  O  O194  1  0.00533874  0.37928022  0.41094136  1
  O  O195  1  -0.01416131  0.37878536  0.62671501  1
  O  O196  1  -0.00688831  0.36819394  0.92160230  1
  O  O197  1  0.02428698  0.67365946  0.12724831  1
  O  O198  1  -0.00419296  0.62893788  0.40258000  1
  O  O199  1  -0.02415011  0.62227151  0.57811353  1
  O  O200  1  -0.00381852  0.64589793  0.87984922  1
  O  O201  1  0.01436844  0.86421739  0.14684993  1
  O  O202  1  0.00879663  0.87964856  0.35091917  1
  O  O203  1  -0.01161653  0.87913069  0.62937885  1
  O  O204  1  0.00036089  0.89144339  0.86764793  1
  O  O205  1  0.24314298  0.12458546  0.15353711  1
  O  O206  1  0.24145722  0.14609117  0.36646579  1
  O  O207  1  0.25473736  0.12343129  0.65119239  1
  O  O208  1  0.25609394  0.15116287  0.86066991  1
  O  O209  1  0.25151674  0.38255263  0.15945778  1
  O  O210  1  0.24902910  0.36960756  0.36396968  1
  O  O211  1  0.24596161  0.37602012  0.64910523  1
  O  O212  1  0.24451912  0.38067911  0.87007830  1
  O  O213  1  0.25179663  0.61266685  0.09543567  1
  O  O214  1  0.26335671  0.61017583  0.40482343  1
  O  O215  1  0.26325869  0.60816799  0.58667289  1
  O  O216  1  0.24337653  0.64825139  0.87423329  1
  O  O217  1  0.24538691  0.92644269  0.10654370  1
  O  O218  1  0.25115987  0.89981772  0.37280792  1
  O  O219  1  0.25244108  0.90313585  0.61765250  1
  O  O220  1  0.25092997  0.85415164  0.88131865  1
  O  O221  1  0.50864272  0.15117767  0.11665708  1
  O  O222  1  0.49148353  0.13794791  0.39832910  1
  O  O223  1  0.49618195  0.15865242  0.58246045  1
  O  O224  1  0.49109866  0.07763338  0.91668626  1
  O  O225  1  0.50760572  0.36615372  0.11446824  1
  O  O226  1  0.49522058  0.36451037  0.41729056  1
  O  O227  1  0.50290095  0.37863884  0.60660993  1
  O  O228  1  0.50585406  0.40736462  0.89066466  1
  O  O229  1  0.48894050  0.64078671  0.13252683  1
  O  O230  1  0.50014953  0.64125322  0.34925371  1
  O  O231  1  0.49925568  0.63374498  0.65051962  1
  O  O232  1  0.50017861  0.61281827  0.86151659  1
  O  O233  1  0.49675181  0.85762824  0.13273448  1
  O  O234  1  0.49306241  0.85245851  0.36239107  1
  O  O235  1  0.48549317  0.86080409  0.62444505  1
  O  O236  1  0.50146575  0.88282313  0.84639604  1
  O  O237  1  0.75301423  0.11876794  0.15736508  1
  O  O238  1  0.75183606  0.15855504  0.36237312  1
  O  O239  1  0.74706590  0.12537309  0.66291117  1
  O  O240  1  0.75662676  0.13986803  0.86622025  1
  O  O241  1  0.74666571  0.38858570  0.16070346  1
  O  O242  1  0.73379149  0.37770692  0.36381075  1
  O  O243  1  0.74567938  0.38014998  0.65534187  1
  O  O244  1  0.74921106  0.37462429  0.86225140  1
  O  O245  1  0.74346538  0.61461481  0.12486284  1
  O  O246  1  0.75702175  0.58989513  0.31148953  1
  O  O247  1  0.74472028  0.61930323  0.63755290  1
  O  O248  1  0.74507016  0.62160817  0.92427834  1
  O  O249  1  0.75008248  0.89655533  0.10453500  1
  O  O250  1  0.75148372  0.87845683  0.37839175  1
  O  O251  1  0.75255475  0.88208420  0.59887556  1
  O  O252  1  0.74312716  0.87340472  0.90844949  1
  O  O253  1  0.09908275  0.01320446  0.11339156  1
  O  O254  1  0.12274629  0.00802054  0.38115689  1
  O  O255  1  0.12010084  0.00201860  0.63131880  1
  O  O256  1  0.14939358  0.00192964  0.89051671  1
  O  O257  1  0.11940572  0.25202697  0.12403833  1
  O  O258  1  0.10830899  0.24711873  0.36950764  1
  O  O259  1  0.09649216  0.24982363  0.63611278  1
  O  O260  1  0.11554613  0.24067289  0.90743248  1
  O  O261  1  0.10436631  0.51256632  0.12351146  1
  O  O262  1  0.13734291  0.49711118  0.42416703  1
  O  O263  1  0.10388300  0.50359128  0.60747607  1
  O  O264  1  0.11857686  0.51072067  0.89110966  1
  O  O265  1  0.17233387  0.76284427  0.12752421  1
  O  O266  1  0.14845952  0.75642667  0.35833810  1
  O  O267  1  0.10858382  0.74799743  0.63098626  1
  O  O268  1  0.11365391  0.75853486  0.86295107  1
  O  O269  1  0.41729257  0.00415386  0.12085685  1
  O  O270  1  0.37608173  0.00750164  0.35869148  1
  O  O271  1  0.39121469  0.00468152  0.63720580  1
  O  O272  1  0.35649214  -0.00498136  0.85268848  1
  O  O273  1  0.36679848  0.24924126  0.13184134  1
  O  O274  1  0.36571127  0.25873788  0.42934636  1
  O  O275  1  0.36664079  0.24692820  0.63763356  1
  O  O276  1  0.42000510  0.24099326  0.87147932  1
  O  O277  1  0.38389126  0.50151991  0.14562762  1
  O  O278  1  0.39486361  0.50396410  0.35228882  1
  O  O279  1  0.37866187  0.50791438  0.65825875  1
  O  O280  1  0.35706073  0.51049601  0.86793705  1
  O  O281  1  0.36048613  0.75220495  0.10662339  1
  O  O282  1  0.35179810  0.75186526  0.37677263  1
  O  O283  1  0.35403780  0.74861817  0.60539841  1
  O  O284  1  0.38053055  0.75210387  0.88814139  1
  O  O285  1  0.60533213  0.00554130  0.14466577  1
  O  O286  1  0.64200117  0.00290594  0.36404950  1
  O  O287  1  0.59544498  0.01841315  0.63938529  1
  O  O288  1  0.64625335  -0.00979374  0.84686961  1
  O  O289  1  0.65412769  0.25958289  0.11266189  1
  O  O290  1  0.61453301  0.25628739  0.41339273  1
  O  O291  1  0.63741662  0.25694849  0.61565630  1
  O  O292  1  0.62274460  0.26240265  0.89596210  1
  O  O293  1  0.62108315  0.49888806  0.15625825  1
  O  O294  1  0.60029165  0.49355205  0.36552061  1
  O  O295  1  0.61783699  0.50130514  0.66124723  1
  O  O296  1  0.63348715  0.50646244  0.85033628  1
  O  O297  1  0.61365403  0.74217249  0.09016392  1
  O  O298  1  0.65372626  0.73990415  0.40947215  1
  O  O299  1  0.62292634  0.73974959  0.61952218  1
  O  O300  1  0.62722619  0.74816480  0.90971658  1
  O  O301  1  0.90157323  0.00585273  0.11653483  1
  O  O302  1  0.84309234  0.01229660  0.37400995  1
  O  O303  1  0.86528592  -0.00443077  0.63709842  1
  O  O304  1  0.86582573  0.00430277  0.89280506  1
  O  O305  1  0.85957755  0.25038125  0.14588633  1
  O  O306  1  0.88623484  0.25250283  0.38963701  1
  O  O307  1  0.88151701  0.24444281  0.63104418  1
  O  O308  1  0.88158031  0.25269319  0.86870848  1
  O  O309  1  0.86788058  0.49217764  0.13422262  1
  O  O310  1  0.88960308  0.49793849  0.36260283  1
  O  O311  1  0.86461996  0.50886238  0.62845097  1
  O  O312  1  0.87990923  0.51066711  0.92944700  1
  O  O313  1  0.85953128  0.76579814  0.15850128  1
  O  O314  1  0.85246517  0.73576434  0.34049846  1
  O  O315  1  0.86767177  0.73853530  0.63377645  1
  O  O316  1  0.84635276  0.74674579  0.87099034  1
