# generated using pymatgen
data_Mg32Ti42(Bi17O64)3
_symmetry_space_group_name_H-M   'P 1'
_cell_length_a   15.95405755
_cell_length_b   15.94379100
_cell_length_c   15.93942369
_cell_angle_alpha   90.18039906
_cell_angle_beta   89.79925731
_cell_angle_gamma   90.01963244
_symmetry_Int_Tables_number   1
_chemical_formula_structural   Mg32Ti42(Bi17O64)3
_chemical_formula_sum   'Mg32 Ti42 Bi51 O192'
_cell_volume   4054.43665755
_cell_formula_units_Z   1
loop_
 _symmetry_equiv_pos_site_id
 _symmetry_equiv_pos_as_xyz
  1  'x, y, z'
loop_
 _atom_site_type_symbol
 _atom_site_label
 _atom_site_symmetry_multiplicity
 _atom_site_fract_x
 _atom_site_fract_y
 _atom_site_fract_z
 _atom_site_occupancy
  Mg  Mg0  1  0.86501779  0.13597360  0.37848057  1
  Mg  Mg1  1  0.88240201  0.62567102  0.12708691  1
  Mg  Mg2  1  0.13482385  0.37427283  0.12580315  1
  Mg  Mg3  1  0.63499648  0.63622830  0.37139476  1
  Mg  Mg4  1  0.37155360  0.37173482  0.88426328  1
  Mg  Mg5  1  0.13130371  0.12593525  0.38031464  1
  Mg  Mg6  1  0.37894906  0.37688475  0.61951690  1
  Mg  Mg7  1  0.38410430  0.12276588  0.37048367  1
  Mg  Mg8  1  0.62891053  0.13245344  0.62916230  1
  Mg  Mg9  1  0.37039530  0.87846582  0.12390028  1
  Mg  Mg10  1  0.62045038  0.61345708  0.87115368  1
  Mg  Mg11  1  0.87286717  0.36817503  0.13420409  1
  Mg  Mg12  1  0.87336579  0.36560671  0.63051665  1
  Mg  Mg13  1  0.12715019  0.13139531  0.13008732  1
  Mg  Mg14  1  0.37639605  0.62650432  0.87577059  1
  Mg  Mg15  1  0.61649306  0.38278033  0.11999747  1
  Mg  Mg16  1  0.86923096  0.13144863  0.87696559  1
  Mg  Mg17  1  0.88071153  0.87362859  0.86902161  1
  Mg  Mg18  1  0.88686871  0.61207590  0.86832218  1
  Mg  Mg19  1  0.01017909  0.05189232  -0.04159240  1
  Mg  Mg20  1  0.47198377  -0.01300446  0.20684679  1
  Mg  Mg21  1  0.00677740  0.44935024  0.77040777  1
  Mg  Mg22  1  0.74451049  0.25154828  0.53488364  1
  Mg  Mg23  1  0.47800407  0.53684711  -0.00256670  1
  Mg  Mg24  1  0.46617263  -0.03846913  -0.00726255  1
  Mg  Mg25  1  0.27732414  0.24663397  0.03544269  1
  Mg  Mg26  1  0.54776362  0.75265561  0.78723185  1
  Mg  Mg27  1  0.02979198  0.50855460  0.26277600  1
  Mg  Mg28  1  0.44797067  0.28724845  0.74926922  1
  Mg  Mg29  1  0.74810598  0.27824321  0.79764158  1
  Mg  Mg30  1  -0.01559416  0.48981364  0.56266257  1
  Mg  Mg31  1  0.00340049  0.29145601  0.22456731  1
  Ti  Ti32  1  0.38278447  0.87072931  0.62893943  1
  Ti  Ti33  1  0.13568633  0.38877474  0.88092964  1
  Ti  Ti34  1  0.61986314  0.61537040  0.12864989  1
  Ti  Ti35  1  0.11812426  0.61249793  0.88520104  1
  Ti  Ti36  1  0.38160142  0.87726314  0.36850576  1
  Ti  Ti37  1  0.89358147  0.13956860  0.13045437  1
  Ti  Ti38  1  0.38076427  0.12011413  0.12637724  1
  Ti  Ti39  1  0.12495202  0.87208246  0.62548300  1
  Ti  Ti40  1  0.37790277  0.87084268  0.86659803  1
  Ti  Ti41  1  0.37112156  0.64109904  0.12544435  1
  Ti  Ti42  1  0.11906054  0.36970608  0.62868496  1
  Ti  Ti43  1  0.62722793  0.11170082  0.11894135  1
  Ti  Ti44  1  0.63497937  0.88214049  0.37456851  1
  Ti  Ti45  1  0.12695228  0.62589166  0.37785589  1
  Ti  Ti46  1  0.36977307  0.37835651  0.37823384  1
  Ti  Ti47  1  0.11877726  0.89280169  0.12755906  1
  Ti  Ti48  1  0.87523112  0.62254651  0.62468318  1
  Ti  Ti49  1  0.87858986  0.61196615  0.36364051  1
  Ti  Ti50  1  0.86994966  0.13328866  0.62309242  1
  Ti  Ti51  1  0.12031895  0.37744378  0.38220072  1
  Ti  Ti52  1  0.38839347  0.62013491  0.62658492  1
  Ti  Ti53  1  0.62268050  0.37028313  0.63703278  1
  Ti  Ti54  1  0.12392484  0.11566462  0.61551683  1
  Ti  Ti55  1  0.88281911  0.36515004  0.87574701  1
  Ti  Ti56  1  0.37010957  0.63734614  0.37594804  1
  Ti  Ti57  1  0.63494893  0.86958293  0.63232477  1
  Ti  Ti58  1  0.12286144  0.61910637  0.62049252  1
  Ti  Ti59  1  0.63252634  0.12315893  0.37790645  1
  Ti  Ti60  1  0.38309461  0.36635202  0.12217288  1
  Ti  Ti61  1  0.38591137  0.12116890  0.87283007  1
  Ti  Ti62  1  0.87972654  0.87722402  0.62645489  1
  Ti  Ti63  1  0.12241594  0.87944874  0.38046807  1
  Ti  Ti64  1  0.87720700  0.86777855  0.38058109  1
  Ti  Ti65  1  0.63430889  0.12536223  0.86844350  1
  Ti  Ti66  1  0.62609110  0.61875099  0.63420456  1
  Ti  Ti67  1  0.63222766  0.88611300  0.87740945  1
  Ti  Ti68  1  0.61701655  0.37594358  0.87550029  1
  Ti  Ti69  1  0.38121275  0.13291891  0.62846794  1
  Ti  Ti70  1  0.88638896  0.36899999  0.37086887  1
  Ti  Ti71  1  0.11933070  0.87405828  0.88024499  1
  Ti  Ti72  1  0.61123243  0.88576207  0.11258837  1
  Ti  Ti73  1  0.11960343  0.62677620  0.12091546  1
  Bi  Bi74  1  -0.01164708  0.24477970  0.49037095  1
  Bi  Bi75  1  0.52965445  0.75881434  0.23984617  1
  Bi  Bi76  1  0.25900088  0.24340525  0.48905508  1
  Bi  Bi77  1  0.71596644  0.48403241  0.28018329  1
  Bi  Bi78  1  0.23264898  0.21750766  0.77754328  1
  Bi  Bi79  1  0.50235255  0.27693179  0.25397582  1
  Bi  Bi80  1  0.77793108  -0.00901418  0.76358804  1
  Bi  Bi81  1  0.25388317  0.48346305  0.74942883  1
  Bi  Bi82  1  0.77808772  0.49746931  0.02502444  1
  Bi  Bi83  1  0.25224603  0.49343381  0.52354812  1
  Bi  Bi84  1  0.23473539  0.04188076  -0.01527154  1
  Bi  Bi85  1  0.76472684  0.73327661  0.50982828  1
  Bi  Bi86  1  0.25300814  0.79255580  0.00223640  1
  Bi  Bi87  1  -0.01448638  0.01311073  0.48634167  1
  Bi  Bi88  1  0.51521511  0.01574482  0.48961868  1
  Bi  Bi89  1  0.74477283  0.27664563  0.01159143  1
  Bi  Bi90  1  0.24917154  0.71732262  0.76792232  1
  Bi  Bi91  1  0.26895600  0.00713687  0.48599550  1
  Bi  Bi92  1  0.76967018  0.76955902  0.21021687  1
  Bi  Bi93  1  0.52559972  0.76879187  0.49752955  1
  Bi  Bi94  1  0.01794969  -0.00796734  0.75679686  1
  Bi  Bi95  1  0.75176091  0.01133587  0.50318113  1
  Bi  Bi96  1  0.24608804  0.02363451  0.24801435  1
  Bi  Bi97  1  -0.00689697  0.03835934  0.26511400  1
  Bi  Bi98  1  0.77208937  0.47869143  0.50572362  1
  Bi  Bi99  1  0.00847310  0.73919277  0.50610421  1
  Bi  Bi100  1  0.76877113  0.47698939  0.76629264  1
  Bi  Bi101  1  -0.02458079  0.78554495  0.02220375  1
  Bi  Bi102  1  0.00718586  0.22117529  0.76577853  1
  Bi  Bi103  1  0.53111422  0.50956279  0.48249716  1
  Bi  Bi104  1  0.23007601  0.26195129  0.26345925  1
  Bi  Bi105  1  0.72553121  0.25438277  0.23736505  1
  Bi  Bi106  1  0.48377824  0.48484474  0.77376804  1
  Bi  Bi107  1  0.51607621  0.73806850  -0.01889321  1
  Bi  Bi108  1  0.53806677  0.26734667  0.48523517  1
  Bi  Bi109  1  -0.00021814  0.47417166  0.03910347  1
  Bi  Bi110  1  0.27505416  0.75293985  0.51708951  1
  Bi  Bi111  1  0.27788549  0.49095573  0.02368090  1
  Bi  Bi112  1  0.48316388  0.52314675  0.26146388  1
  Bi  Bi113  1  0.51988248  0.23412129  0.00398294  1
  Bi  Bi114  1  0.76500282  0.71216784  -0.01170981  1
  Bi  Bi115  1  0.26859561  0.00384738  0.73616913  1
  Bi  Bi116  1  0.23972693  0.51438005  0.25367450  1
  Bi  Bi117  1  0.81264949  -0.01582492  0.02814645  1
  Bi  Bi118  1  0.77397546  -0.00602988  0.23493625  1
  Bi  Bi119  1  0.52321853  0.01396861  0.73731187  1
  Bi  Bi120  1  0.00578146  0.74297781  0.25686886  1
  Bi  Bi121  1  0.01540928  0.73629213  0.76447099  1
  Bi  Bi122  1  0.76208364  0.72504671  0.76713268  1
  Bi  Bi123  1  0.23682465  0.77190990  0.24852851  1
  Bi  Bi124  1  0.05857303  0.24217974  -0.00656189  1
  O  O125  1  0.11412533  0.11303982  0.00323854  1
  O  O126  1  0.15114489  0.13389036  0.25326329  1
  O  O127  1  0.16128351  0.12994821  0.50497437  1
  O  O128  1  0.09772390  0.11732812  0.74009621  1
  O  O129  1  0.12271470  0.39798172  -0.00415396  1
  O  O130  1  0.11452883  0.34900686  0.25057512  1
  O  O131  1  0.12699303  0.37037195  0.49914588  1
  O  O132  1  0.13128088  0.39544304  0.74858934  1
  O  O133  1  0.13082375  0.61001717  -0.00053477  1
  O  O134  1  0.12052250  0.61288351  0.24936560  1
  O  O135  1  0.12307386  0.64886220  0.49134492  1
  O  O136  1  0.11771392  0.62148842  0.73593913  1
  O  O137  1  0.10957596  0.85446506  -0.00043965  1
  O  O138  1  0.14279359  0.87589139  0.24602174  1
  O  O139  1  0.09931044  0.86281426  0.49420189  1
  O  O140  1  0.13010550  0.89114406  0.74437172  1
  O  O141  1  0.34043275  0.14309790  -0.01139669  1
  O  O142  1  0.38651883  0.08793400  0.24079731  1
  O  O143  1  0.34961900  0.13178889  0.51119312  1
  O  O144  1  0.38478469  0.09057043  0.75037577  1
  O  O145  1  0.35053079  0.34594911  0.00533983  1
  O  O146  1  0.39685082  0.37616368  0.24563645  1
  O  O147  1  0.35549219  0.36516897  0.49355973  1
  O  O148  1  0.36797767  0.40022849  0.75105010  1
  O  O149  1  0.38823729  0.63168833  0.00792715  1
  O  O150  1  0.35617561  0.60064965  0.24807315  1
  O  O151  1  0.37368915  0.64442137  0.49246681  1
  O  O152  1  0.36852103  0.60393139  0.74102057  1
  O  O153  1  0.38332503  0.85846663  -0.00593543  1
  O  O154  1  0.36737678  0.90522168  0.25547453  1
  O  O155  1  0.37566746  0.84880307  0.50353827  1
  O  O156  1  0.35404912  0.88271771  0.74948270  1
  O  O157  1  0.61974561  0.12651991  0.00150252  1
  O  O158  1  0.63280395  0.15193415  0.25955730  1
  O  O159  1  0.63132913  0.08970432  0.50537720  1
  O  O160  1  0.60341625  0.12737281  0.75406870  1
  O  O161  1  0.61432348  0.35845381  -0.00788047  1
  O  O162  1  0.62479644  0.34800563  0.24856019  1
  O  O163  1  0.59692032  0.39668200  0.51348273  1
  O  O164  1  0.66052416  0.35971145  0.75007352  1
  O  O165  1  0.58268364  0.61334288  0.00756123  1
  O  O166  1  0.63042158  0.65499793  0.24300678  1
  O  O167  1  0.63117937  0.60217084  0.50172994  1
  O  O168  1  0.62019011  0.65666087  0.74576494  1
  O  O169  1  0.58403667  0.90381579  -0.00014557  1
  O  O170  1  0.63643659  0.85494245  0.26041107  1
  O  O171  1  0.59760250  0.88957475  0.50563912  1
  O  O172  1  0.63026035  0.84966186  0.75521333  1
  O  O173  1  0.90036403  0.09700287  0.01090584  1
  O  O174  1  0.87568943  0.12999073  0.25205888  1
  O  O175  1  0.87137169  0.09164973  0.50077463  1
  O  O176  1  0.89232146  0.14964877  0.73862401  1
  O  O177  1  0.87695988  0.39183365  -0.00928993  1
  O  O178  1  0.88850010  0.34138652  0.25642983  1
  O  O179  1  0.90008693  0.42374908  0.48952697  1
  O  O180  1  0.84156232  0.35386626  0.75217953  1
  O  O181  1  0.86247697  0.60962997  -0.00624890  1
  O  O182  1  0.87768934  0.67156097  0.25118841  1
  O  O183  1  0.85749137  0.61506721  0.49036105  1
  O  O184  1  0.88406733  0.65366069  0.73975755  1
  O  O185  1  0.91498979  0.90493421  -0.01109032  1
  O  O186  1  0.84788711  0.86794371  0.26110415  1
  O  O187  1  0.88770315  0.90157093  0.49975510  1
  O  O188  1  0.84654786  0.86133469  0.74158920  1
  O  O189  1  0.00169999  0.17726463  0.14803944  1
  O  O190  1  0.00192586  0.13584289  0.39576013  1
  O  O191  1  0.00567551  0.12710593  0.59141383  1
  O  O192  1  -0.00566847  0.15616715  0.88284570  1
  O  O193  1  -0.00058631  0.35811649  0.11374823  1
  O  O194  1  0.00729706  0.34673425  0.37453549  1
  O  O195  1  -0.00048843  0.39548213  0.64884564  1
  O  O196  1  -0.00207263  0.35329536  0.85740361  1
  O  O197  1  0.00702649  0.65310459  0.11936432  1
  O  O198  1  -0.00018669  0.65115810  0.37468198  1
  O  O199  1  -0.00732267  0.61784313  0.59625791  1
  O  O200  1  0.00663414  0.65320465  0.87431783  1
  O  O201  1  0.01135200  0.84173345  0.13940292  1
  O  O202  1  -0.00537350  0.84547448  0.35867386  1
  O  O203  1  -0.00672520  0.87998795  0.64147897  1
  O  O204  1  0.00327491  0.84480664  0.85005345  1
  O  O205  1  0.25743142  0.09407021  0.12076744  1
  O  O206  1  0.25753414  0.08719298  0.37131237  1
  O  O207  1  0.24842169  0.12282563  0.65767638  1
  O  O208  1  0.25179022  0.10134010  0.85047744  1
  O  O209  1  0.25923002  0.40848992  0.13584942  1
  O  O210  1  0.24900200  0.39263234  0.35092275  1
  O  O211  1  0.24331073  0.39886283  0.62523757  1
  O  O212  1  0.24804674  0.41299233  0.87219395  1
  O  O213  1  0.25355085  0.58946538  0.12195050  1
  O  O214  1  0.24545597  0.60240333  0.37492441  1
  O  O215  1  0.24263745  0.61501593  0.60909590  1
  O  O216  1  0.24063172  0.60839481  0.85695123  1
  O  O217  1  0.24259984  0.89300859  0.10105818  1
  O  O218  1  0.24071752  0.88983072  0.38970312  1
  O  O219  1  0.23822251  0.86159929  0.60832792  1
  O  O220  1  0.23892702  0.89043416  0.89523586  1
  O  O221  1  0.49866834  0.15294519  0.11649746  1
  O  O222  1  0.50799032  0.13830014  0.39898991  1
  O  O223  1  0.49445677  0.10742002  0.61694411  1
  O  O224  1  0.49503207  0.14343057  0.89090840  1
  O  O225  1  0.49803665  0.33796483  0.12054424  1
  O  O226  1  0.48855935  0.34351451  0.37594188  1
  O  O227  1  0.50672213  0.36790271  0.66207092  1
  O  O228  1  0.50265736  0.35293012  0.84425138  1
  O  O229  1  0.48812733  0.63910219  0.15284274  1
  O  O230  1  0.48752564  0.63680350  0.35320437  1
  O  O231  1  0.50160522  0.61981450  0.61958069  1
  O  O232  1  0.49843272  0.66283959  0.86624609  1
  O  O233  1  0.49701219  0.87099498  0.15200873  1
  O  O234  1  0.49346593  0.85152178  0.36889600  1
  O  O235  1  0.49425415  0.87138355  0.63811011  1
  O  O236  1  0.48970325  0.84711208  0.85647686  1
  O  O237  1  0.74133345  0.08992243  0.12838585  1
  O  O238  1  0.74640821  0.08940794  0.38251800  1
  O  O239  1  0.75591854  0.14153688  0.61172349  1
  O  O240  1  0.74565414  0.10088433  0.86348705  1
  O  O241  1  0.74584493  0.38300016  0.11292675  1
  O  O242  1  0.76955214  0.40706137  0.37859197  1
  O  O243  1  0.75186529  0.36867815  0.58708561  1
  O  O244  1  0.74508486  0.39948194  0.88402178  1
  O  O245  1  0.73665109  0.61207131  0.11189954  1
  O  O246  1  0.75835449  0.59254635  0.35535691  1
  O  O247  1  0.75123153  0.64277878  0.63134737  1
  O  O248  1  0.74908888  0.61282445  0.85571072  1
  O  O249  1  0.73225713  0.90044204  0.12874800  1
  O  O250  1  0.74710332  0.90212784  0.39486326  1
  O  O251  1  0.74604243  0.86437088  0.60276454  1
  O  O252  1  0.74331942  0.90416475  0.88454130  1
  O  O253  1  0.09736594  0.00096583  0.13426822  1
  O  O254  1  0.09605307  -0.00654192  0.37055857  1
  O  O255  1  0.12329959  -0.00178030  0.61179358  1
  O  O256  1  0.08338089  -0.01378786  0.88124704  1
  O  O257  1  0.16430851  0.25248067  0.08957277  1
  O  O258  1  0.16056873  0.25304788  0.38305607  1
  O  O259  1  0.12400895  0.25601365  0.63297497  1
  O  O260  1  0.14691068  0.26783407  0.88339401  1
  O  O261  1  0.08924227  0.50036616  0.14372280  1
  O  O262  1  0.10606652  0.49700413  0.36422966  1
  O  O263  1  0.11416037  0.50509467  0.59247414  1
  O  O264  1  0.08636841  0.50226014  0.86328614  1
  O  O265  1  0.15953634  0.73728882  0.13466923  1
  O  O266  1  0.13892487  0.74651309  0.34988433  1
  O  O267  1  0.10252693  0.75021434  0.62242882  1
  O  O268  1  0.14111962  0.74689055  0.85150035  1
  O  O269  1  0.40915371  0.00654211  0.09513012  1
  O  O270  1  0.38680803  -0.00983598  0.40785558  1
  O  O271  1  0.35648606  -0.01116741  0.61667731  1
  O  O272  1  0.39318960  -0.00440462  0.89386045  1
  O  O273  1  0.35321996  0.24191720  0.13636991  1
  O  O274  1  0.33829973  0.24630168  0.36810191  1
  O  O275  1  0.38179848  0.24591081  0.64834979  1
  O  O276  1  0.35945356  0.24096240  0.83607031  1
  O  O277  1  0.40363900  0.48538937  0.09115026  1
  O  O278  1  0.39383331  0.49548486  0.37789284  1
  O  O279  1  0.37384773  0.50488796  0.59432570  1
  O  O280  1  0.41278470  0.49999363  0.89394842  1
  O  O281  1  0.34805321  0.75068823  0.13509594  1
  O  O282  1  0.34786745  0.75095639  0.36030858  1
  O  O283  1  0.35980057  0.74359047  0.63017954  1
  O  O284  1  0.33753520  0.75315543  0.86687360  1
  O  O285  1  0.58900115  0.00623500  0.15379744  1
  O  O286  1  0.59675251  -0.00405548  0.36951451  1
  O  O287  1  0.63150554  -0.01092817  0.65099616  1
  O  O288  1  0.59860626  -0.00157478  0.85827673  1
  O  O289  1  0.65445707  0.23915283  0.11870844  1
  O  O290  1  0.65620428  0.23447517  0.42320184  1
  O  O291  1  0.62977166  0.25671366  0.60201772  1
  O  O292  1  0.65081591  0.24382495  0.87488363  1
  O  O293  1  0.60180039  0.50445354  0.14853899  1
  O  O294  1  0.59999033  0.50931401  0.35333642  1
  O  O295  1  0.63253936  0.50385877  0.64976286  1
  O  O296  1  0.59666776  0.49042570  0.86584833  1
  O  O297  1  0.61680428  0.76394424  0.11160554  1
  O  O298  1  0.63203178  0.75839521  0.40603002  1
  O  O299  1  0.61718184  0.75043780  0.60163185  1
  O  O300  1  0.63085578  0.76188842  0.89988909  1
  O  O301  1  0.88300294  0.00753263  0.14840240  1
  O  O302  1  0.90734468  -0.00490696  0.36166733  1
  O  O303  1  0.86570741  0.00116004  0.64590331  1
  O  O304  1  0.89120388  0.00324381  0.84047742  1
  O  O305  1  0.84129698  0.24072607  0.11074553  1
  O  O306  1  0.86550165  0.26074850  0.41504780  1
  O  O307  1  0.88177470  0.24709318  0.58731550  1
  O  O308  1  0.84006731  0.25525645  0.88527550  1
  O  O309  1  0.88098454  0.49864088  0.12243066  1
  O  O310  1  0.91620682  0.51070330  0.32642164  1
  O  O311  1  0.86581691  0.50711463  0.63305676  1
  O  O312  1  0.89515966  0.48799227  0.83163931  1
  O  O313  1  0.85008432  0.75165447  0.09439587  1
  O  O314  1  0.85404302  0.75620297  0.40072796  1
  O  O315  1  0.87950397  0.75395542  0.59362164  1
  O  O316  1  0.84719013  0.75045780  0.88543363  1
