# generated using pymatgen
data_Mg32Ti42(Bi17O64)3
_symmetry_space_group_name_H-M   'P 1'
_cell_length_a   15.97199052
_cell_length_b   15.87221501
_cell_length_c   15.93996743
_cell_angle_alpha   89.98374397
_cell_angle_beta   90.04905210
_cell_angle_gamma   90.00534639
_symmetry_Int_Tables_number   1
_chemical_formula_structural   Mg32Ti42(Bi17O64)3
_chemical_formula_sum   'Mg32 Ti42 Bi51 O192'
_cell_volume   4040.95331293
_cell_formula_units_Z   1
loop_
 _symmetry_equiv_pos_site_id
 _symmetry_equiv_pos_as_xyz
  1  'x, y, z'
loop_
 _atom_site_type_symbol
 _atom_site_label
 _atom_site_symmetry_multiplicity
 _atom_site_fract_x
 _atom_site_fract_y
 _atom_site_fract_z
 _atom_site_occupancy
  Mg  Mg0  1  0.36950021  0.86875393  0.61377726  1
  Mg  Mg1  1  0.37150640  0.36789228  0.12516293  1
  Mg  Mg2  1  0.12095631  0.38378326  0.62064689  1
  Mg  Mg3  1  0.63269328  0.37872802  0.37136319  1
  Mg  Mg4  1  0.37034282  0.62510105  0.37303930  1
  Mg  Mg5  1  0.88580778  0.62577511  0.63526300  1
  Mg  Mg6  1  0.11449986  0.12561788  0.37978471  1
  Mg  Mg7  1  0.62828306  0.12721362  0.37079669  1
  Mg  Mg8  1  0.37139742  0.62376506  0.87397983  1
  Mg  Mg9  1  0.63032021  0.37476739  0.12187938  1
  Mg  Mg10  1  0.87720842  0.87686504  0.62570365  1
  Mg  Mg11  1  0.12394142  0.62771018  0.12643012  1
  Mg  Mg12  1  0.87430298  0.62802135  0.37129844  1
  Mg  Mg13  1  0.14112400  0.11597021  0.87424223  1
  Mg  Mg14  1  0.37955255  0.13443191  0.36094931  1
  Mg  Mg15  1  0.37911019  0.62003623  0.11913241  1
  Mg  Mg16  1  0.12556133  0.87613238  0.38377978  1
  Mg  Mg17  1  0.62142194  0.86575733  0.87208636  1
  Mg  Mg18  1  0.61390761  0.62823449  0.62793814  1
  Mg  Mg19  1  0.51933564  0.00155864  0.01610917  1
  Mg  Mg20  1  0.75142912  0.77842190  0.45344679  1
  Mg  Mg21  1  0.52025349  0.28296016  0.23967141  1
  Mg  Mg22  1  0.04384082  -0.01997731  0.75321511  1
  Mg  Mg23  1  0.18638088  0.79869136  0.23091573  1
  Mg  Mg24  1  0.50495020  0.25502571  0.03565694  1
  Mg  Mg25  1  0.24165338  0.74802182  0.51947448  1
  Mg  Mg26  1  0.79974933  0.46730027  -0.05860593  1
  Mg  Mg27  1  0.31956581  0.23739722  0.49239181  1
  Mg  Mg28  1  0.80333670  0.30502547  0.78202481  1
  Mg  Mg29  1  0.05599182  0.82303094  0.04545520  1
  Mg  Mg30  1  0.78082473  0.21155211  0.49599084  1
  Mg  Mg31  1  0.23169239  -0.05303571  0.06713394  1
  Ti  Ti32  1  0.12962356  0.87097346  0.61047513  1
  Ti  Ti33  1  0.36910858  0.38693551  0.61019510  1
  Ti  Ti34  1  0.86753466  0.37959134  0.37830938  1
  Ti  Ti35  1  0.86658071  0.36389789  0.61458958  1
  Ti  Ti36  1  0.38486652  0.36495065  0.86685509  1
  Ti  Ti37  1  0.11806093  0.87380657  0.88602183  1
  Ti  Ti38  1  0.86686341  0.37742871  0.12568682  1
  Ti  Ti39  1  0.13050255  0.36606337  0.10487630  1
  Ti  Ti40  1  0.36972429  0.88496873  0.88173514  1
  Ti  Ti41  1  0.60713656  0.61621131  0.86876885  1
  Ti  Ti42  1  0.88436598  0.62895759  0.87154550  1
  Ti  Ti43  1  0.87218760  0.12522811  0.36284495  1
  Ti  Ti44  1  0.88068344  0.87578238  0.87601307  1
  Ti  Ti45  1  0.62716721  0.36903802  0.61541239  1
  Ti  Ti46  1  0.38213761  0.13659144  0.12788430  1
  Ti  Ti47  1  0.12210732  0.62498205  0.63454067  1
  Ti  Ti48  1  0.13128724  0.37665001  0.38920118  1
  Ti  Ti49  1  0.12231456  0.63930130  0.37176381  1
  Ti  Ti50  1  0.13051524  0.36539103  0.86813163  1
  Ti  Ti51  1  0.86597688  0.88165001  0.11256323  1
  Ti  Ti52  1  0.11106003  0.11363390  0.62415743  1
  Ti  Ti53  1  0.14443030  0.13442845  0.11605491  1
  Ti  Ti54  1  0.62750467  0.61879196  0.11270168  1
  Ti  Ti55  1  0.37356322  0.62552001  0.63350537  1
  Ti  Ti56  1  0.60996705  0.87526524  0.37611860  1
  Ti  Ti57  1  0.86955287  0.62151244  0.11868822  1
  Ti  Ti58  1  0.62123169  0.36000974  0.87635624  1
  Ti  Ti59  1  0.87481446  0.12299810  0.12703143  1
  Ti  Ti60  1  0.63118147  0.13736101  0.61039163  1
  Ti  Ti61  1  0.61287527  0.12333864  0.86859240  1
  Ti  Ti62  1  0.38960126  0.10387229  0.89084177  1
  Ti  Ti63  1  0.86572838  0.11589974  0.86578909  1
  Ti  Ti64  1  0.61761499  0.86723507  0.62119943  1
  Ti  Ti65  1  0.87124001  0.12066853  0.62769382  1
  Ti  Ti66  1  0.38319448  0.88080100  0.13854632  1
  Ti  Ti67  1  0.88257714  0.87723585  0.36474075  1
  Ti  Ti68  1  0.37030653  0.38543943  0.37086617  1
  Ti  Ti69  1  0.62369712  0.12973495  0.12222500  1
  Ti  Ti70  1  0.35765113  0.86356340  0.37374210  1
  Ti  Ti71  1  0.13029271  0.63559088  0.87654042  1
  Ti  Ti72  1  0.62269950  0.86958133  0.11536799  1
  Ti  Ti73  1  0.63438009  0.63375523  0.38611484  1
  Bi  Bi74  1  0.48751339  0.71410612  0.24551764  1
  Bi  Bi75  1  0.49753125  0.01684380  0.24672468  1
  Bi  Bi76  1  0.01380516  -0.01186677  0.21718542  1
  Bi  Bi77  1  0.25659937  0.04639206  0.48752545  1
  Bi  Bi78  1  0.47127642  0.02051788  0.48695854  1
  Bi  Bi79  1  0.00598414  0.03635306  -0.01561291  1
  Bi  Bi80  1  0.26116298  0.49475499  -0.01196653  1
  Bi  Bi81  1  0.22449668  0.23999474  0.27790778  1
  Bi  Bi82  1  0.76925725  0.54690453  0.51334694  1
  Bi  Bi83  1  0.01804802  0.53077106  -0.00893581  1
  Bi  Bi84  1  0.25582008  0.74776067  0.02707980  1
  Bi  Bi85  1  0.73073255  -0.01736375  0.25883175  1
  Bi  Bi86  1  0.46630106  0.73569803  0.48972561  1
  Bi  Bi87  1  0.25431792  0.50806488  0.74878379  1
  Bi  Bi88  1  0.52595103  0.50874164  0.48517325  1
  Bi  Bi89  1  -0.02384827  0.47335084  0.77848647  1
  Bi  Bi90  1  -0.01939185  0.01603456  0.48440451  1
  Bi  Bi91  1  0.72959841  -0.01666338  -0.01482805  1
  Bi  Bi92  1  0.73963006  0.22398249  -0.01428449  1
  Bi  Bi93  1  0.27098941  0.23047502  -0.03077704  1
  Bi  Bi94  1  0.25655744  0.53841569  0.24250377  1
  Bi  Bi95  1  -0.03237824  0.75360351  0.49168732  1
  Bi  Bi96  1  0.24612737  0.53517236  0.49142849  1
  Bi  Bi97  1  -0.04091364  0.27302460  -0.03429489  1
  Bi  Bi98  1  0.51093234  0.26421395  0.45653017  1
  Bi  Bi99  1  0.74011832  0.48991606  0.74295994  1
  Bi  Bi100  1  0.22692475  -0.00364694  0.26046880  1
  Bi  Bi101  1  0.01929896  0.49333520  0.22881132  1
  Bi  Bi102  1  0.48016381  0.75119187  0.00197847  1
  Bi  Bi103  1  0.74674859  0.73556265  0.23090524  1
  Bi  Bi104  1  0.74284212  0.50210140  0.23808953  1
  Bi  Bi105  1  -0.00419468  0.50930217  0.49604064  1
  Bi  Bi106  1  0.51601548  0.47844662  0.74191156  1
  Bi  Bi107  1  0.00493025  0.26936103  0.50190618  1
  Bi  Bi108  1  0.47336535  0.76464274  0.76817115  1
  Bi  Bi109  1  -0.00756218  0.74222031  0.23080885  1
  Bi  Bi110  1  -0.00422867  0.76605567  0.73308262  1
  Bi  Bi111  1  0.02362465  0.22157403  0.75391157  1
  Bi  Bi112  1  0.74440164  0.72315978  -0.03201261  1
  Bi  Bi113  1  0.74803691  0.74357685  0.72272055  1
  Bi  Bi114  1  -0.00029970  0.27329739  0.24061444  1
  Bi  Bi115  1  0.27479996  0.01736547  0.72099111  1
  Bi  Bi116  1  0.48417925  0.47105502  0.00718982  1
  Bi  Bi117  1  0.50165303  0.48122211  0.24168754  1
  Bi  Bi118  1  0.76087790  0.25124151  0.25363663  1
  Bi  Bi119  1  0.74070695  -0.01593788  0.50156380  1
  Bi  Bi120  1  0.24651506  0.26685897  0.71472646  1
  Bi  Bi121  1  0.47704973  0.23563387  0.70805067  1
  Bi  Bi122  1  0.48498866  0.00571515  0.71195252  1
  Bi  Bi123  1  0.72544165  -0.01459528  0.73736558  1
  Bi  Bi124  1  0.24405641  0.77946007  0.74923075  1
  O  O125  1  0.11856421  0.13341227  0.00337747  1
  O  O126  1  0.15285561  0.11773331  0.25230657  1
  O  O127  1  0.10669883  0.11947168  0.50832774  1
  O  O128  1  0.09748104  0.10096033  0.75350657  1
  O  O129  1  0.10861087  0.34446393  -0.00354843  1
  O  O130  1  0.09861422  0.38671312  0.26226728  1
  O  O131  1  0.12788232  0.33912321  0.49957583  1
  O  O132  1  0.13827744  0.39013375  0.75409605  1
  O  O133  1  0.12750041  0.62492208  -0.00137230  1
  O  O134  1  0.12270070  0.58937604  0.25397396  1
  O  O135  1  0.15556299  0.65157170  0.49034929  1
  O  O136  1  0.12443328  0.61249442  0.75146044  1
  O  O137  1  0.16128868  0.87170873  -0.00114732  1
  O  O138  1  0.11768853  0.90452300  0.25619349  1
  O  O139  1  0.15654844  0.85246709  0.50336069  1
  O  O140  1  0.10827809  0.86918518  0.76263880  1
  O  O141  1  0.39471778  0.16303553  -0.00019565  1
  O  O142  1  0.37343280  0.10142201  0.24051856  1
  O  O143  1  0.38314395  0.12865360  0.49089192  1
  O  O144  1  0.38544833  0.09069261  0.76821008  1
  O  O145  1  0.41648046  0.34706016  -0.00795382  1
  O  O146  1  0.38396125  0.40013064  0.25283050  1
  O  O147  1  0.36359519  0.35513089  0.49867901  1
  O  O148  1  0.36110260  0.39832048  0.75303719  1
  O  O149  1  0.37002679  0.66118056  -0.00177519  1
  O  O150  1  0.38755229  0.60917088  0.24782825  1
  O  O151  1  0.34532278  0.65849203  0.50553240  1
  O  O152  1  0.37396826  0.59174430  0.74713192  1
  O  O153  1  0.36318330  0.83830799  -0.00210649  1
  O  O154  1  0.39919580  0.89661400  0.25165837  1
  O  O155  1  0.34607167  0.83239089  0.49236735  1
  O  O156  1  0.40224934  0.89470639  0.76155096  1
  O  O157  1  0.61031115  0.15732105  0.00153278  1
  O  O158  1  0.62941558  0.08917262  0.24101415  1
  O  O159  1  0.61895120  0.15271634  0.49917032  1
  O  O160  1  0.63224841  0.09875698  0.75695455  1
  O  O161  1  0.60611467  0.35162532  -0.00759951  1
  O  O162  1  0.60319548  0.38893201  0.25013943  1
  O  O163  1  0.61670223  0.35915525  0.49998807  1
  O  O164  1  0.62823431  0.39874365  0.74575161  1
  O  O165  1  0.62552897  0.64058983  -0.00228971  1
  O  O166  1  0.65116393  0.62029148  0.25469889  1
  O  O167  1  0.62007238  0.62846623  0.50260453  1
  O  O168  1  0.61527087  0.59853149  0.75268459  1
  O  O169  1  0.65412909  0.85329976  0.00265008  1
  O  O170  1  0.61252997  0.90271954  0.25572333  1
  O  O171  1  0.66070894  0.86210068  0.50002213  1
  O  O172  1  0.61639470  0.90108039  0.74574476  1
  O  O173  1  0.87297948  0.15172677  0.01144718  1
  O  O174  1  0.85114276  0.10270621  0.25107309  1
  O  O175  1  0.88689520  0.14004484  0.50340139  1
  O  O176  1  0.86384775  0.10508847  0.75415032  1
  O  O177  1  0.85055716  0.36881798  0.01136960  1
  O  O178  1  0.90089514  0.39001948  0.26485747  1
  O  O179  1  0.85108170  0.32238273  0.50080122  1
  O  O180  1  0.86227294  0.40862648  0.73947424  1
  O  O181  1  0.88485131  0.63245132  0.00649519  1
  O  O182  1  0.83687133  0.61923979  0.24848561  1
  O  O183  1  0.88143156  0.63841977  0.50479549  1
  O  O184  1  0.88873610  0.59498796  0.75992362  1
  O  O185  1  0.85067055  0.86111079  0.00253659  1
  O  O186  1  0.90449975  0.89654756  0.25278426  1
  O  O187  1  0.85583125  0.83710791  0.50142294  1
  O  O188  1  0.93081292  0.89398976  0.76946595  1
  O  O189  1  -0.00781024  0.12019030  0.13535344  1
  O  O190  1  -0.00775646  0.09392287  0.36752051  1
  O  O191  1  -0.01106512  0.14457835  0.63435109  1
  O  O192  1  -0.01301157  0.14184497  0.89042803  1
  O  O193  1  -0.01195816  0.37034429  0.12650062  1
  O  O194  1  -0.00877253  0.38105652  0.41475849  1
  O  O195  1  -0.01164853  0.36589784  0.60280656  1
  O  O196  1  0.00389387  0.35002922  0.85625064  1
  O  O197  1  -0.01328999  0.62389262  0.14892969  1
  O  O198  1  0.00614276  0.61425625  0.38316600  1
  O  O199  1  0.01080900  0.65629241  0.62384193  1
  O  O200  1  0.00708277  0.63269696  0.88359551  1
  O  O201  1  -0.01263661  0.90290934  0.10878652  1
  O  O202  1  -0.00146318  0.89239573  0.40947672  1
  O  O203  1  0.00912932  0.84306983  0.61654485  1
  O  O204  1  0.01140397  0.84792085  0.92451004  1
  O  O205  1  0.25957126  0.15404593  0.10606780  1
  O  O206  1  0.25194313  0.16271982  0.40079112  1
  O  O207  1  0.23101469  0.11766576  0.63643859  1
  O  O208  1  0.26804156  0.10995336  0.89565300  1
  O  O209  1  0.24470381  0.36898599  0.10350178  1
  O  O210  1  0.24590290  0.36071147  0.36454555  1
  O  O211  1  0.25016322  0.38455306  0.63090558  1
  O  O212  1  0.25030959  0.38278011  0.89846834  1
  O  O213  1  0.25073816  0.63036044  0.13929345  1
  O  O214  1  0.24521935  0.61506558  0.35787170  1
  O  O215  1  0.24878842  0.59891004  0.63403564  1
  O  O216  1  0.24488965  0.59375011  0.87174756  1
  O  O217  1  0.26485716  0.84222074  0.13945862  1
  O  O218  1  0.25357539  0.85332505  0.33413194  1
  O  O219  1  0.24505174  0.88889832  0.65248683  1
  O  O220  1  0.25921339  0.89633848  0.85791938  1
  O  O221  1  0.49479559  0.08721122  0.11511530  1
  O  O222  1  0.50131354  0.08831258  0.36929827  1
  O  O223  1  0.50937155  0.12385356  0.63004159  1
  O  O224  1  0.50204991  0.14278485  0.86463776  1
  O  O225  1  0.50161586  0.40029461  0.12872826  1
  O  O226  1  0.49411477  0.39519415  0.38806806  1
  O  O227  1  0.49015249  0.36322612  0.63987056  1
  O  O228  1  0.50143783  0.36026640  0.84104702  1
  O  O229  1  0.51316021  0.60740166  0.13226619  1
  O  O230  1  0.50097315  0.62476704  0.39352778  1
  O  O231  1  0.48520674  0.64513723  0.60870043  1
  O  O232  1  0.49795299  0.65408923  0.87237872  1
  O  O233  1  0.50420451  0.89400419  0.09293468  1
  O  O234  1  0.50244900  0.89234070  0.40299764  1
  O  O235  1  0.50418083  0.87860354  0.60516631  1
  O  O236  1  0.49873925  0.83821490  0.88726346  1
  O  O237  1  0.73956729  0.14750337  0.11489605  1
  O  O238  1  0.75613061  0.14948295  0.38886162  1
  O  O239  1  0.75312130  0.14040674  0.60194140  1
  O  O240  1  0.74753069  0.10864951  0.90173096  1
  O  O241  1  0.75182658  0.36293284  0.16230163  1
  O  O242  1  0.75477073  0.35619446  0.35142710  1
  O  O243  1  0.74159409  0.39370947  0.62681211  1
  O  O244  1  0.74046978  0.39457806  0.86025587  1
  O  O245  1  0.74931033  0.65974090  0.11275605  1
  O  O246  1  0.74924888  0.66073711  0.40344333  1
  O  O247  1  0.75094126  0.62255940  0.63729806  1
  O  O248  1  0.76621767  0.59336620  0.89337001  1
  O  O249  1  0.74606483  0.87503757  0.15292961  1
  O  O250  1  0.76162735  0.86280118  0.35440786  1
  O  O251  1  0.75111090  0.87307643  0.65312075  1
  O  O252  1  0.76475388  0.89653565  0.85565289  1
  O  O253  1  0.14576849  0.01463211  0.12747762  1
  O  O254  1  0.16671440  0.00418529  0.38599199  1
  O  O255  1  0.09634446  -0.00983252  0.62909465  1
  O  O256  1  0.09210656  -0.00712007  0.88067576  1
  O  O257  1  0.12109943  0.25185838  0.15373784  1
  O  O258  1  0.10743752  0.25160653  0.35147849  1
  O  O259  1  0.12121662  0.24379950  0.65251670  1
  O  O260  1  0.14228271  0.24456924  0.84979286  1
  O  O261  1  0.10954750  0.48840164  0.11627707  1
  O  O262  1  0.12980032  0.49258628  0.40976359  1
  O  O263  1  0.10674721  0.51137929  0.59615012  1
  O  O264  1  0.10470973  0.48829554  0.89398340  1
  O  O265  1  0.10257353  0.75455759  0.14120359  1
  O  O266  1  0.11723458  0.74791320  0.33450781  1
  O  O267  1  0.16120922  0.74821182  0.63220569  1
  O  O268  1  0.15200042  0.74778597  0.87487111  1
  O  O269  1  0.34494564  -0.01359286  0.10623023  1
  O  O270  1  0.35773361  -0.01221331  0.40439598  1
  O  O271  1  0.37385216  -0.00381059  0.62431711  1
  O  O272  1  0.41508240  -0.00501329  0.92398128  1
  O  O273  1  0.41757044  0.24495372  0.14877224  1
  O  O274  1  0.39464954  0.25966077  0.36686073  1
  O  O275  1  0.35935942  0.25449345  0.62975575  1
  O  O276  1  0.35403690  0.25267489  0.85394436  1
  O  O277  1  0.36812139  0.49603312  0.08413898  1
  O  O278  1  0.35772088  0.49875162  0.39888158  1
  O  O279  1  0.38423191  0.50228684  0.59641464  1
  O  O280  1  0.37937638  0.49123971  0.90736067  1
  O  O281  1  0.41166098  0.75400710  0.14002410  1
  O  O282  1  0.40030085  0.75235393  0.35566653  1
  O  O283  1  0.35800678  0.74753827  0.66086098  1
  O  O284  1  0.36038440  0.75535959  0.84372938  1
  O  O285  1  0.63486837  -0.00053965  0.09050137  1
  O  O286  1  0.65710878  -0.00488658  0.39034693  1
  O  O287  1  0.64375210  0.00471814  0.60892961  1
  O  O288  1  0.60946399  0.00374290  0.91403735  1
  O  O289  1  0.59135979  0.24221804  0.14281730  1
  O  O290  1  0.58722737  0.24864189  0.34597853  1
  O  O291  1  0.61568538  0.25148117  0.64781927  1
  O  O292  1  0.65265773  0.24735268  0.86036064  1
  O  O293  1  0.65968341  0.50734658  0.12111003  1
  O  O294  1  0.63558622  0.50968595  0.39108906  1
  O  O295  1  0.59747667  0.49255837  0.61445622  1
  O  O296  1  0.59409575  0.49938020  0.88256726  1
  O  O297  1  0.61399400  0.75592071  0.14582990  1
  O  O298  1  0.61560191  0.75775782  0.36719088  1
  O  O299  1  0.62599459  0.75535066  0.64720795  1
  O  O300  1  0.65669720  0.73638015  0.85987630  1
  O  O301  1  0.85414965  0.00519001  0.11147779  1
  O  O302  1  0.86179080  -0.00333406  0.40364330  1
  O  O303  1  0.87541540  0.00537338  0.61038988  1
  O  O304  1  0.89363755  0.00005995  0.90293099  1
  O  O305  1  0.87163885  0.25085531  0.15924587  1
  O  O306  1  0.88876107  0.24291626  0.34622056  1
  O  O307  1  0.85801278  0.26111716  0.66996606  1
  O  O308  1  0.85463383  0.24103152  0.87364585  1
  O  O309  1  0.85202121  0.50124318  0.12835595  1
  O  O310  1  0.85757441  0.49434968  0.40165659  1
  O  O311  1  0.87709703  0.49413679  0.58921146  1
  O  O312  1  0.90990073  0.50050579  0.89602381  1
  O  O313  1  0.87896911  0.75960974  0.14808125  1
  O  O314  1  0.90096097  0.75629408  0.36142244  1
  O  O315  1  0.87504141  0.75268637  0.66581653  1
  O  O316  1  0.86358560  0.74905922  0.86282134  1
