# generated using pymatgen
data_Mg32Ti42(Bi17O64)3
_symmetry_space_group_name_H-M   'P 1'
_cell_length_a   15.91658048
_cell_length_b   15.96747392
_cell_length_c   15.93545547
_cell_angle_alpha   89.86407891
_cell_angle_beta   90.07765114
_cell_angle_gamma   90.07633547
_symmetry_Int_Tables_number   1
_chemical_formula_structural   Mg32Ti42(Bi17O64)3
_chemical_formula_sum   'Mg32 Ti42 Bi51 O192'
_cell_volume   4049.93881092
_cell_formula_units_Z   1
loop_
 _symmetry_equiv_pos_site_id
 _symmetry_equiv_pos_as_xyz
  1  'x, y, z'
loop_
 _atom_site_type_symbol
 _atom_site_label
 _atom_site_symmetry_multiplicity
 _atom_site_fract_x
 _atom_site_fract_y
 _atom_site_fract_z
 _atom_site_occupancy
  Mg  Mg0  1  0.87466648  0.12462506  0.36703644  1
  Mg  Mg1  1  0.63029339  0.63258418  0.37466991  1
  Mg  Mg2  1  0.36873627  0.62191914  0.38234346  1
  Mg  Mg3  1  0.61808104  0.37155933  0.37783298  1
  Mg  Mg4  1  0.61656963  0.13239586  0.87326846  1
  Mg  Mg5  1  0.12593189  0.87534011  0.61109399  1
  Mg  Mg6  1  0.37235305  0.87362216  0.87228630  1
  Mg  Mg7  1  0.88001546  0.62744245  0.62430736  1
  Mg  Mg8  1  0.62862965  0.11187388  0.36288681  1
  Mg  Mg9  1  0.38903552  0.38365503  0.64041492  1
  Mg  Mg10  1  0.35356700  0.13351888  0.36144052  1
  Mg  Mg11  1  0.87501834  0.37072216  0.38225571  1
  Mg  Mg12  1  0.12545726  0.61940543  0.86797985  1
  Mg  Mg13  1  0.13158010  0.37316322  0.13638076  1
  Mg  Mg14  1  0.87513288  0.87885442  0.62651240  1
  Mg  Mg15  1  0.62976609  0.13097310  0.62857039  1
  Mg  Mg16  1  0.87974718  0.86959128  0.36687718  1
  Mg  Mg17  1  0.11723651  0.37151450  0.62960236  1
  Mg  Mg18  1  0.87701564  0.35561171  0.13119382  1
  Mg  Mg19  1  0.02154487  0.48393300  0.75253606  1
  Mg  Mg20  1  0.18708287  0.17852525  0.21608923  1
  Mg  Mg21  1  0.70261030  0.05024561  0.75693676  1
  Mg  Mg22  1  0.23102158  0.81507449  0.74082296  1
  Mg  Mg23  1  -0.00070887  0.70092324  0.27134660  1
  Mg  Mg24  1  0.01750606  0.22203709  0.24025180  1
  Mg  Mg25  1  0.49868337  -0.01537429  -0.04816512  1
  Mg  Mg26  1  0.78189908  -0.00434943  0.27697849  1
  Mg  Mg27  1  0.47910527  0.19032236  0.70219401  1
  Mg  Mg28  1  0.04496324  0.01531295  0.19483892  1
  Mg  Mg29  1  0.51338732  0.02167140  0.70420427  1
  Mg  Mg30  1  0.53774163  0.52476774  0.72045497  1
  Mg  Mg31  1  0.45997706  0.00763191  0.30193875  1
  Ti  Ti32  1  0.62953983  0.88421507  0.62806439  1
  Ti  Ti33  1  0.61608465  0.86732999  0.12056273  1
  Ti  Ti34  1  0.88254325  0.37700528  0.87092123  1
  Ti  Ti35  1  0.62792441  0.37304591  0.12000464  1
  Ti  Ti36  1  0.87836386  0.62274780  0.11508054  1
  Ti  Ti37  1  0.87204314  0.11937452  0.87422089  1
  Ti  Ti38  1  0.87957317  0.38326323  0.62741057  1
  Ti  Ti39  1  0.86970337  0.11750138  0.13548307  1
  Ti  Ti40  1  0.12908897  0.62714809  0.63754049  1
  Ti  Ti41  1  0.11507990  0.86666031  0.37012392  1
  Ti  Ti42  1  0.37241903  0.62698253  0.86059477  1
  Ti  Ti43  1  0.63766174  0.62231542  0.12688509  1
  Ti  Ti44  1  0.38214235  0.11094106  0.12292368  1
  Ti  Ti45  1  0.12255565  0.12621653  0.61889678  1
  Ti  Ti46  1  0.86782833  0.11252204  0.63079232  1
  Ti  Ti47  1  0.12621245  0.36144750  0.36761223  1
  Ti  Ti48  1  0.37467009  0.36904944  0.13412782  1
  Ti  Ti49  1  0.12562176  0.87546542  0.87700297  1
  Ti  Ti50  1  0.62865279  0.10704331  0.12257133  1
  Ti  Ti51  1  0.62594451  0.37072179  0.86965891  1
  Ti  Ti52  1  0.12832157  0.38476590  0.88100175  1
  Ti  Ti53  1  0.87683728  0.87013161  0.86897104  1
  Ti  Ti54  1  0.61840469  0.87922241  0.86764122  1
  Ti  Ti55  1  0.38293248  0.87282298  0.11926468  1
  Ti  Ti56  1  0.38558840  0.11109483  0.88259664  1
  Ti  Ti57  1  0.12316143  0.11986109  0.37449026  1
  Ti  Ti58  1  0.88229851  0.61892814  0.87590990  1
  Ti  Ti59  1  0.62749621  0.87035263  0.35060536  1
  Ti  Ti60  1  0.63129568  0.63454394  0.61676079  1
  Ti  Ti61  1  0.13083917  0.61670022  0.37429042  1
  Ti  Ti62  1  0.86412434  0.87335257  0.12367374  1
  Ti  Ti63  1  0.38348904  0.61971536  0.62399622  1
  Ti  Ti64  1  0.38900608  0.38001934  0.87955285  1
  Ti  Ti65  1  0.11701160  0.61444424  0.13007126  1
  Ti  Ti66  1  0.60575356  0.36541713  0.63743516  1
  Ti  Ti67  1  0.62505279  0.61499760  0.87005366  1
  Ti  Ti68  1  0.36063289  0.87514262  0.37216489  1
  Ti  Ti69  1  0.87318577  0.62316090  0.38166504  1
  Ti  Ti70  1  0.11337985  0.86923224  0.12219945  1
  Ti  Ti71  1  0.37575087  0.86814685  0.63365939  1
  Ti  Ti72  1  0.11632390  0.13445765  0.86961692  1
  Ti  Ti73  1  0.37199459  0.36536587  0.37024181  1
  Bi  Bi74  1  0.02370774  0.21867678  0.04345993  1
  Bi  Bi75  1  0.49387368  -0.02699015  0.49661971  1
  Bi  Bi76  1  0.51129112  0.50900337  0.00691035  1
  Bi  Bi77  1  0.50317831  0.49496970  0.46578906  1
  Bi  Bi78  1  0.47760578  0.72378732  0.24095984  1
  Bi  Bi79  1  -0.00653777  0.47343714  0.25260858  1
  Bi  Bi80  1  0.25852208  0.46520580  0.49889799  1
  Bi  Bi81  1  0.75384642  0.47751614  0.28286858  1
  Bi  Bi82  1  0.28401214  0.02753443  0.73510527  1
  Bi  Bi83  1  0.74518098  -0.00385918  0.46807642  1
  Bi  Bi84  1  -0.00629064  0.22559253  0.49924767  1
  Bi  Bi85  1  0.73337802  0.24632638  0.26101630  1
  Bi  Bi86  1  0.52182277  0.51142666  0.23387359  1
  Bi  Bi87  1  0.02207521  -0.01809749  0.73420735  1
  Bi  Bi88  1  0.22212497  0.03307708  0.00600262  1
  Bi  Bi89  1  0.24603390  -0.01689042  0.22524763  1
  Bi  Bi90  1  0.28679248  0.52615963  0.23248936  1
  Bi  Bi91  1  0.26955094  0.52643231  0.00309789  1
  Bi  Bi92  1  -0.02682261  -0.01228718  0.00284911  1
  Bi  Bi93  1  0.51323356  0.75933143  0.73825050  1
  Bi  Bi94  1  0.26158036  0.26335136  0.00535118  1
  Bi  Bi95  1  0.00446256  0.75027754  0.72844352  1
  Bi  Bi96  1  0.72703993  0.47058648  0.51764765  1
  Bi  Bi97  1  0.00395920  0.22651501  0.74148233  1
  Bi  Bi98  1  0.01223242  0.72814113  -0.01343096  1
  Bi  Bi99  1  0.28238641  0.25055320  0.54777898  1
  Bi  Bi100  1  0.27820578  0.26120472  0.77011448  1
  Bi  Bi101  1  -0.00523909  -0.00985821  0.47308253  1
  Bi  Bi102  1  0.49847553  0.23046891  0.00691809  1
  Bi  Bi103  1  0.74253360  0.23066093  0.00385304  1
  Bi  Bi104  1  0.24925451  0.74175226  0.51757059  1
  Bi  Bi105  1  0.50671263  0.19352399  0.49863500  1
  Bi  Bi106  1  0.76891051  0.51860811  0.73776958  1
  Bi  Bi107  1  0.73544678  0.74299029  -0.01210282  1
  Bi  Bi108  1  0.01350394  0.47002221  0.49618744  1
  Bi  Bi109  1  0.00281608  0.73389624  0.48878009  1
  Bi  Bi110  1  0.73023439  -0.01898270  -0.00774674  1
  Bi  Bi111  1  0.48662457  0.73265920  -0.01710480  1
  Bi  Bi112  1  0.24827356  0.74034104  -0.02356149  1
  Bi  Bi113  1  0.49315694  0.73694681  0.47830308  1
  Bi  Bi114  1  0.76167205  0.46941581  0.00419146  1
  Bi  Bi115  1  0.24256909  0.48540544  0.72183373  1
  Bi  Bi116  1  0.00161338  0.46403134  0.01484125  1
  Bi  Bi117  1  0.76700794  0.76569122  0.50135416  1
  Bi  Bi118  1  0.74686597  0.23242488  0.47353464  1
  Bi  Bi119  1  0.77065176  0.76549701  0.74292552  1
  Bi  Bi120  1  0.23900928  0.74885645  0.23157078  1
  Bi  Bi121  1  0.78861202  0.73934194  0.24898083  1
  Bi  Bi122  1  0.76830414  0.25604731  0.74895454  1
  Bi  Bi123  1  0.49310142  0.22576519  0.25526034  1
  Bi  Bi124  1  0.27356613  0.02993737  0.50955785  1
  O  O125  1  0.14602352  0.14734883  -0.01009315  1
  O  O126  1  0.08270103  0.11271091  0.26012455  1
  O  O127  1  0.13139282  0.15523119  0.50004093  1
  O  O128  1  0.10441190  0.10882105  0.74927978  1
  O  O129  1  0.09678466  0.35679512  -0.00308399  1
  O  O130  1  0.12304207  0.40553962  0.25967817  1
  O  O131  1  0.10444901  0.36863754  0.49914449  1
  O  O132  1  0.13179357  0.40588496  0.75681391  1
  O  O133  1  0.13696406  0.65529400  0.00784372  1
  O  O134  1  0.09338410  0.61111857  0.24976051  1
  O  O135  1  0.13491587  0.66026148  0.49097863  1
  O  O136  1  0.10157684  0.58971260  0.74569973  1
  O  O137  1  0.11774064  0.85672976  0.00639758  1
  O  O138  1  0.12597720  0.91526483  0.25133543  1
  O  O139  1  0.11570995  0.84750451  0.48900921  1
  O  O140  1  0.14060933  0.90775808  0.75862991  1
  O  O141  1  0.36614929  0.15236004  0.00344646  1
  O  O142  1  0.41253895  0.10906167  0.24340433  1
  O  O143  1  0.34897868  0.14439148  0.48849535  1
  O  O144  1  0.40727707  0.08993251  0.76111179  1
  O  O145  1  0.38103215  0.34717037  0.00182939  1
  O  O146  1  0.36578699  0.39402063  0.25011791  1
  O  O147  1  0.36748766  0.35484572  0.50218479  1
  O  O148  1  0.34663694  0.39063961  0.76523550  1
  O  O149  1  0.35229038  0.64133452  -0.00456137  1
  O  O150  1  0.40096091  0.60297469  0.25837445  1
  O  O151  1  0.36722438  0.65562530  0.50597602  1
  O  O152  1  0.39214264  0.60284770  0.74949358  1
  O  O153  1  0.38222239  0.84855185  0.00835851  1
  O  O154  1  0.37728785  0.91141041  0.26079426  1
  O  O155  1  0.39933995  0.86349416  0.49670887  1
  O  O156  1  0.34679538  0.88388365  0.74650070  1
  O  O157  1  0.65919608  0.11671319  -0.00049691  1
  O  O158  1  0.62587062  0.14286583  0.23704224  1
  O  O159  1  0.63476235  0.13664474  0.50324625  1
  O  O160  1  0.58691972  0.12137740  0.75049602  1
  O  O161  1  0.61910013  0.41035641  0.00108901  1
  O  O162  1  0.65264348  0.36636144  0.24333930  1
  O  O163  1  0.60793009  0.39062067  0.51544046  1
  O  O164  1  0.64632910  0.35807261  0.75488147  1
  O  O165  1  0.63133461  0.59786053  -0.00036439  1
  O  O166  1  0.60871941  0.63406389  0.24337037  1
  O  O167  1  0.64610303  0.62882979  0.50626749  1
  O  O168  1  0.59053515  0.64077000  0.75641458  1
  O  O169  1  0.60156393  0.91122784  -0.00033970  1
  O  O170  1  0.64041029  0.85137297  0.23893450  1
  O  O171  1  0.61351115  0.89889759  0.51079195  1
  O  O172  1  0.63283658  0.84767226  0.75471275  1
  O  O173  1  0.86149245  0.15451654  -0.01099835  1
  O  O174  1  0.85954383  0.08985151  0.24518508  1
  O  O175  1  0.86375770  0.16051669  0.51914211  1
  O  O176  1  0.90494811  0.11643384  0.75063551  1
  O  O177  1  0.89087863  0.37266676  -0.00494873  1
  O  O178  1  0.86239256  0.39732919  0.25127950  1
  O  O179  1  0.90324125  0.37272803  0.51093347  1
  O  O180  1  0.85126730  0.40349731  0.75400164  1
  O  O181  1  0.86402096  0.65859680  -0.00201900  1
  O  O182  1  0.89039982  0.62511253  0.23912563  1
  O  O183  1  0.87105016  0.65482998  0.49640963  1
  O  O184  1  0.89298539  0.59519179  0.75845222  1
  O  O185  1  0.89926915  0.86759334  -0.00364476  1
  O  O186  1  0.84116863  0.89463408  0.23804985  1
  O  O187  1  0.88151709  0.84085307  0.50064204  1
  O  O188  1  0.84835907  0.89081477  0.75828433  1
  O  O189  1  -0.00907205  0.09480611  0.10750258  1
  O  O190  1  -0.00684323  0.11757205  0.40842569  1
  O  O191  1  -0.00535980  0.13925867  0.61320915  1
  O  O192  1  0.00132297  0.12299480  0.89082723  1
  O  O193  1  -0.00062420  0.39525995  0.13640580  1
  O  O194  1  0.00054175  0.39857677  0.37195710  1
  O  O195  1  -0.00628461  0.41890550  0.64578994  1
  O  O196  1  -0.00354755  0.40724754  0.85540581  1
  O  O197  1  -0.00018094  0.62830988  0.09984152  1
  O  O198  1  0.00061469  0.62554089  0.38816900  1
  O  O199  1  0.01039385  0.65278960  0.61044544  1
  O  O200  1  -0.00271756  0.61855924  0.89967178  1
  O  O201  1  0.00113579  0.91087708  0.13100021  1
  O  O202  1  0.00203962  0.89954376  0.37093226  1
  O  O203  1  0.00283295  0.86935039  0.65045392  1
  O  O204  1  -0.00201852  0.89476167  0.85562433  1
  O  O205  1  0.26883619  0.13158077  0.13926217  1
  O  O206  1  0.23106992  0.13574914  0.33027336  1
  O  O207  1  0.24182525  0.12044304  0.63336669  1
  O  O208  1  0.25865360  0.12678587  0.84957481  1
  O  O209  1  0.25830688  0.34546229  0.11907361  1
  O  O210  1  0.24406700  0.36122740  0.38790858  1
  O  O211  1  0.24620306  0.38008979  0.62799479  1
  O  O212  1  0.24461892  0.35093150  0.89264600  1
  O  O213  1  0.23835032  0.63432210  0.15240237  1
  O  O214  1  0.24436031  0.63743230  0.34736224  1
  O  O215  1  0.25204455  0.65140233  0.62599220  1
  O  O216  1  0.25314005  0.64644488  0.86682680  1
  O  O217  1  0.24991581  0.86953723  0.14239393  1
  O  O218  1  0.24936582  0.85778749  0.37214949  1
  O  O219  1  0.25513782  0.85170446  0.61484666  1
  O  O220  1  0.24224934  0.84575022  0.87180958  1
  O  O221  1  0.51115645  0.11631654  0.09806403  1
  O  O222  1  0.50353909  0.10512948  0.38400306  1
  O  O223  1  0.49896241  0.10626280  0.60385928  1
  O  O224  1  0.50044679  0.10781244  0.91597100  1
  O  O225  1  0.50495425  0.40273047  0.13250929  1
  O  O226  1  0.49040130  0.38876232  0.37237244  1
  O  O227  1  0.50670290  0.41532615  0.66489139  1
  O  O228  1  0.50016122  0.38854639  0.87385870  1
  O  O229  1  0.51061922  0.59887646  0.11841956  1
  O  O230  1  0.49867504  0.62179652  0.39970598  1
  O  O231  1  0.50018993  0.60276492  0.61590555  1
  O  O232  1  0.49631970  0.61465263  0.90390846  1
  O  O233  1  0.50062001  0.87218461  0.13736709  1
  O  O234  1  0.51604075  0.91687912  0.36678792  1
  O  O235  1  0.49689476  0.90542741  0.64785375  1
  O  O236  1  0.50364139  0.89539284  0.86317047  1
  O  O237  1  0.75454460  0.15840661  0.12564624  1
  O  O238  1  0.75188886  0.12027900  0.39324610  1
  O  O239  1  0.75330460  0.13454830  0.66356086  1
  O  O240  1  0.75518385  0.13810730  0.84013774  1
  O  O241  1  0.75098277  0.35968219  0.09981714  1
  O  O242  1  0.74621966  0.39022207  0.39238271  1
  O  O243  1  0.74741115  0.36322117  0.60564388  1
  O  O244  1  0.74778606  0.37715330  0.89527334  1
  O  O245  1  0.75447994  0.64573999  0.13143754  1
  O  O246  1  0.75813356  0.64553986  0.35625681  1
  O  O247  1  0.74363726  0.64978899  0.65422239  1
  O  O248  1  0.74105276  0.64307043  0.86578527  1
  O  O249  1  0.74933363  0.86027769  0.08802243  1
  O  O250  1  0.74556667  0.85824160  0.39751055  1
  O  O251  1  0.74359391  0.84937559  0.61767977  1
  O  O252  1  0.74893336  0.85729541  0.90252259  1
  O  O253  1  0.14787493  -0.00171330  0.11578291  1
  O  O254  1  0.12543660  0.00854979  0.40610508  1
  O  O255  1  0.10753259  0.00585899  0.61110113  1
  O  O256  1  0.13279231  -0.00111660  0.90738151  1
  O  O257  1  0.10464358  0.24811254  0.15182028  1
  O  O258  1  0.08978341  0.25293700  0.34905161  1
  O  O259  1  0.11194353  0.24641010  0.64627999  1
  O  O260  1  0.11371018  0.24844067  0.85126060  1
  O  O261  1  0.13319569  0.50496061  0.10590262  1
  O  O262  1  0.13501535  0.50739140  0.40272917  1
  O  O263  1  0.14464028  0.51472853  0.60449566  1
  O  O264  1  0.14436268  0.49547790  0.90271537  1
  O  O265  1  0.11335452  0.75767134  0.15541483  1
  O  O266  1  0.09841880  0.75739563  0.34006488  1
  O  O267  1  0.13358723  0.75210361  0.67267117  1
  O  O268  1  0.10064063  0.75693235  0.87082215  1
  O  O269  1  0.36746845  -0.00298161  0.11168240  1
  O  O270  1  0.36175940  0.00008572  0.39886431  1
  O  O271  1  0.35555035  -0.00837032  0.61024672  1
  O  O272  1  0.37343031  -0.00042350  0.90850721  1
  O  O273  1  0.41399982  0.25096962  0.14211611  1
  O  O274  1  0.39025987  0.25212930  0.34872986  1
  O  O275  1  0.37448448  0.25373271  0.65540885  1
  O  O276  1  0.38482463  0.24905277  0.85447062  1
  O  O277  1  0.35237798  0.48935755  0.11216718  1
  O  O278  1  0.36191872  0.49407807  0.40177348  1
  O  O279  1  0.35264231  0.50746116  0.60873557  1
  O  O280  1  0.36200747  0.49863773  0.90200587  1
  O  O281  1  0.36959684  0.76057017  0.16407707  1
  O  O282  1  0.40499613  0.76045844  0.36033493  1
  O  O283  1  0.40295686  0.75218507  0.64129293  1
  O  O284  1  0.40236738  0.74361176  0.86756960  1
  O  O285  1  0.65022045  -0.00260443  0.13292213  1
  O  O286  1  0.67316995  -0.00956432  0.34736563  1
  O  O287  1  0.64243096  -0.00571560  0.65860924  1
  O  O288  1  0.65322554  -0.00689770  0.85985232  1
  O  O289  1  0.61066624  0.25925834  0.09982121  1
  O  O290  1  0.64026369  0.24723727  0.36826511  1
  O  O291  1  0.57381314  0.25570751  0.63038698  1
  O  O292  1  0.61583233  0.25930653  0.90061879  1
  O  O293  1  0.64765198  0.50327878  0.14709958  1
  O  O294  1  0.61576500  0.50287462  0.37603568  1
  O  O295  1  0.64597869  0.51300520  0.64428614  1
  O  O296  1  0.62064352  0.50410155  0.84297322  1
  O  O297  1  0.61716159  0.75009283  0.09581314  1
  O  O298  1  0.59966538  0.76095360  0.38394524  1
  O  O299  1  0.59312148  0.75346264  0.62192403  1
  O  O300  1  0.60675056  0.75308637  0.90470821  1
  O  O301  1  0.85772263  0.00349091  0.08861108  1
  O  O302  1  0.86168287  -0.00547318  0.39422365  1
  O  O303  1  0.86978579  0.00445787  0.60391401  1
  O  O304  1  0.86403347  0.00618354  0.89661042  1
  O  O305  1  0.91855873  0.23259952  0.15538473  1
  O  O306  1  0.84766245  0.24926146  0.36593865  1
  O  O307  1  0.88486954  0.26778191  0.65995366  1
  O  O308  1  0.87920609  0.26218062  0.84743961  1
  O  O309  1  0.87057344  0.51027058  0.10051014  1
  O  O310  1  0.86382530  0.50973312  0.38156071  1
  O  O311  1  0.83993946  0.50508037  0.61653805  1
  O  O312  1  0.85822987  0.50759736  0.89994569  1
  O  O313  1  0.88838688  0.76188856  0.14191922  1
  O  O314  1  0.89771488  0.74894624  0.33952276  1
  O  O315  1  0.87896104  0.75074534  0.65872934  1
  O  O316  1  0.88216832  0.75274093  0.85399020  1
