# generated using pymatgen
data_Mg32Ti42(Bi17O64)3
_symmetry_space_group_name_H-M   'P 1'
_cell_length_a   15.91663885
_cell_length_b   15.94674815
_cell_length_c   15.95709093
_cell_angle_alpha   89.86587388
_cell_angle_beta   90.21958747
_cell_angle_gamma   89.99519136
_symmetry_Int_Tables_number   1
_chemical_formula_structural   Mg32Ti42(Bi17O64)3
_chemical_formula_sum   'Mg32 Ti42 Bi51 O192'
_cell_volume   4050.16611765
_cell_formula_units_Z   1
loop_
 _symmetry_equiv_pos_site_id
 _symmetry_equiv_pos_as_xyz
  1  'x, y, z'
loop_
 _atom_site_type_symbol
 _atom_site_label
 _atom_site_symmetry_multiplicity
 _atom_site_fract_x
 _atom_site_fract_y
 _atom_site_fract_z
 _atom_site_occupancy
  Mg  Mg0  1  0.37351457  0.63936268  0.37762613  1
  Mg  Mg1  1  0.12721689  0.87849217  0.87857381  1
  Mg  Mg2  1  0.37536147  0.87444351  0.12653269  1
  Mg  Mg3  1  0.38137963  0.11467973  0.38035481  1
  Mg  Mg4  1  0.63144757  0.12529967  0.86437152  1
  Mg  Mg5  1  0.12444174  0.87756577  0.12811549  1
  Mg  Mg6  1  0.12527876  0.38042456  0.61882664  1
  Mg  Mg7  1  0.38204143  0.12988619  0.12697401  1
  Mg  Mg8  1  0.62759748  0.88118094  0.86458021  1
  Mg  Mg9  1  0.12776465  0.37104925  0.87873880  1
  Mg  Mg10  1  0.37518980  0.62360752  0.87976032  1
  Mg  Mg11  1  0.63097613  0.61975892  0.88905897  1
  Mg  Mg12  1  0.63425241  0.62315728  0.13056237  1
  Mg  Mg13  1  0.12281900  0.62801265  0.87780909  1
  Mg  Mg14  1  0.87135509  0.12126612  0.63056919  1
  Mg  Mg15  1  0.12455717  0.11684550  0.38268685  1
  Mg  Mg16  1  0.61839847  0.63527427  0.61311907  1
  Mg  Mg17  1  0.62606753  0.37794199  0.87957812  1
  Mg  Mg18  1  0.87648402  0.37884066  0.12856034  1
  Mg  Mg19  1  0.02291164  0.76211063  0.49868540  1
  Mg  Mg20  1  0.21157899  0.79791409  0.25426174  1
  Mg  Mg21  1  0.82736804  0.20025208  0.22484375  1
  Mg  Mg22  1  0.45690170  0.23004799  0.51329382  1
  Mg  Mg23  1  0.24295276  0.04563882  0.78821334  1
  Mg  Mg24  1  0.44866969  0.77038034  0.51546241  1
  Mg  Mg25  1  0.23557455  0.76040603  0.45766154  1
  Mg  Mg26  1  0.26916849  -0.00349687  0.44501852  1
  Mg  Mg27  1  0.73128215  0.81326720  0.06145404  1
  Mg  Mg28  1  -0.06029942  0.05198420  0.01294126  1
  Mg  Mg29  1  0.71183755  0.50469134  0.26994001  1
  Mg  Mg30  1  0.77581758  0.01664483  0.19151034  1
  Mg  Mg31  1  -0.01112510  0.00639786  0.52906489  1
  Ti  Ti32  1  0.60569888  0.37672316  0.61195218  1
  Ti  Ti33  1  0.37440465  0.86892990  0.37306329  1
  Ti  Ti34  1  0.37403147  0.37596902  0.38607679  1
  Ti  Ti35  1  0.62450805  0.13439701  0.14064401  1
  Ti  Ti36  1  0.86809645  0.10860654  0.38209994  1
  Ti  Ti37  1  0.60644233  0.87358487  0.62965164  1
  Ti  Ti38  1  0.12502044  0.63218575  0.13917971  1
  Ti  Ti39  1  0.11834432  0.11593420  0.61947149  1
  Ti  Ti40  1  0.13117809  0.12380847  0.12917861  1
  Ti  Ti41  1  0.37060436  0.64005743  0.62169712  1
  Ti  Ti42  1  0.13068289  0.38429049  0.37432849  1
  Ti  Ti43  1  0.38064783  0.62991410  0.12192643  1
  Ti  Ti44  1  0.10990457  0.63177065  0.61707882  1
  Ti  Ti45  1  0.60966569  0.12089465  0.62644102  1
  Ti  Ti46  1  0.13664515  0.36987080  0.12901596  1
  Ti  Ti47  1  0.37037560  0.38562970  0.87337673  1
  Ti  Ti48  1  0.12106381  0.88497850  0.38085359  1
  Ti  Ti49  1  0.88320524  0.87753516  0.62536417  1
  Ti  Ti50  1  0.87434159  0.37633751  0.88356036  1
  Ti  Ti51  1  0.87825497  0.88552326  0.38455834  1
  Ti  Ti52  1  0.60508890  0.87605213  0.39343925  1
  Ti  Ti53  1  0.87172158  0.63028232  0.12819513  1
  Ti  Ti54  1  0.37826840  0.38772217  0.61981867  1
  Ti  Ti55  1  0.87936764  0.63015025  0.62709728  1
  Ti  Ti56  1  0.11793061  0.12862185  0.89030813  1
  Ti  Ti57  1  0.87750900  0.62504543  0.89181673  1
  Ti  Ti58  1  0.87106213  0.14158839  0.86219548  1
  Ti  Ti59  1  0.87247261  0.37498568  0.63298120  1
  Ti  Ti60  1  0.12413153  0.63242741  0.37158785  1
  Ti  Ti61  1  0.62220656  0.36417430  0.14255814  1
  Ti  Ti62  1  0.35331855  0.87771770  0.63488068  1
  Ti  Ti63  1  0.62776137  0.63860038  0.37544145  1
  Ti  Ti64  1  0.63388813  0.12552101  0.38325228  1
  Ti  Ti65  1  0.61833781  0.37493088  0.37514513  1
  Ti  Ti66  1  0.37945203  0.86457357  0.87517602  1
  Ti  Ti67  1  0.85965070  0.62257195  0.37140385  1
  Ti  Ti68  1  0.87112113  0.86292745  0.89027724  1
  Ti  Ti69  1  0.38422571  0.36519837  0.13395210  1
  Ti  Ti70  1  0.12324494  0.87943374  0.61541451  1
  Ti  Ti71  1  0.34788413  0.11555480  0.62612628  1
  Ti  Ti72  1  0.85566268  0.36727084  0.35861583  1
  Ti  Ti73  1  0.88687263  0.86724826  0.13293727  1
  Bi  Bi74  1  0.75703473  0.51132922  0.52366369  1
  Bi  Bi75  1  0.74238693  0.79153557  0.25996897  1
  Bi  Bi76  1  0.73558729  0.48976778  0.04218438  1
  Bi  Bi77  1  0.23628401  0.25026685  0.48692997  1
  Bi  Bi78  1  0.27516943  0.22372665  -0.02915271  1
  Bi  Bi79  1  0.27892316  -0.00081339  -0.00819530  1
  Bi  Bi80  1  0.52290287  0.01755029  0.00373090  1
  Bi  Bi81  1  0.25715608  -0.00304065  0.22285008  1
  Bi  Bi82  1  0.74116273  0.00104917  0.53579666  1
  Bi  Bi83  1  0.51359579  0.52278809  0.76319400  1
  Bi  Bi84  1  0.26239002  0.27015146  0.73280214  1
  Bi  Bi85  1  0.01114605  0.77405765  0.74982677  1
  Bi  Bi86  1  0.50332222  0.53026391  0.26192654  1
  Bi  Bi87  1  0.01967618  0.25055050  0.28697034  1
  Bi  Bi88  1  0.54182023  -0.00893552  0.24040265  1
  Bi  Bi89  1  0.02153413  0.48224040  0.01545799  1
  Bi  Bi90  1  0.54100370  0.79289207  0.01051076  1
  Bi  Bi91  1  0.23800562  0.52888853  0.50180588  1
  Bi  Bi92  1  0.76526144  0.24359981  0.04148204  1
  Bi  Bi93  1  0.74512896  0.00719380  -0.01025465  1
  Bi  Bi94  1  0.50699261  0.73313325  0.78134323  1
  Bi  Bi95  1  0.00600878  0.00676009  0.78662227  1
  Bi  Bi96  1  0.73046053  0.25044790  0.50448869  1
  Bi  Bi97  1  0.27692265  0.51680079  0.25882215  1
  Bi  Bi98  1  -0.00307902  0.24891357  0.03630553  1
  Bi  Bi99  1  0.23701269  0.75428052  0.76567781  1
  Bi  Bi100  1  0.46599329  -0.00451659  0.51979445  1
  Bi  Bi101  1  0.74755577  0.76722413  0.52722544  1
  Bi  Bi102  1  0.51173005  0.76997357  0.21532241  1
  Bi  Bi103  1  0.23574856  0.51982698  0.76201006  1
  Bi  Bi104  1  0.26580135  0.49903170  0.03110763  1
  Bi  Bi105  1  0.24066332  0.75769535  0.01720217  1
  Bi  Bi106  1  0.49305460  0.24379595  -0.02268454  1
  Bi  Bi107  1  -0.03568698  0.24255918  0.50789150  1
  Bi  Bi108  1  0.49469401  0.23827726  0.29369001  1
  Bi  Bi109  1  0.50191853  0.26546753  0.76047651  1
  Bi  Bi110  1  -0.01257613  0.75244266  0.28088688  1
  Bi  Bi111  1  0.01975274  0.75187312  0.00434955  1
  Bi  Bi112  1  0.01387843  0.49548888  0.78005894  1
  Bi  Bi113  1  0.76170691  -0.00317105  0.76714860  1
  Bi  Bi114  1  0.75504385  0.50281625  0.77394718  1
  Bi  Bi115  1  0.49447312  0.53710537  0.50154973  1
  Bi  Bi116  1  0.46146182  0.02991246  0.78121307  1
  Bi  Bi117  1  0.51460672  0.49879396  0.01315321  1
  Bi  Bi118  1  0.74289423  0.74239541  0.77399883  1
  Bi  Bi119  1  0.26696391  0.22460379  0.26971585  1
  Bi  Bi120  1  0.72563812  0.26533385  0.75537849  1
  Bi  Bi121  1  -0.01135742  0.01806502  0.21330518  1
  Bi  Bi122  1  -0.01822805  0.49967339  0.24902986  1
  Bi  Bi123  1  -0.00711162  0.47541466  0.50080871  1
  Bi  Bi124  1  0.02642241  0.25493584  0.74296002  1
  O  O125  1  0.14849585  0.13259940  0.00101119  1
  O  O126  1  0.09496880  0.12055278  0.24508003  1
  O  O127  1  0.15206013  0.14295521  0.51057517  1
  O  O128  1  0.08494472  0.11548846  0.74374896  1
  O  O129  1  0.13100741  0.38568775  0.00448378  1
  O  O130  1  0.11492455  0.38111833  0.24692364  1
  O  O131  1  0.14958694  0.36133691  0.49273226  1
  O  O132  1  0.09543228  0.38030902  0.74604646  1
  O  O133  1  0.14027514  0.66024673  0.00148193  1
  O  O134  1  0.10738328  0.61442571  0.25423549  1
  O  O135  1  0.16203918  0.64973551  0.49793828  1
  O  O136  1  0.11027129  0.59878951  0.73067678  1
  O  O137  1  0.13529500  0.84416975  0.00325006  1
  O  O138  1  0.11071202  0.88408186  0.26350847  1
  O  O139  1  0.13972696  0.83396346  0.50005663  1
  O  O140  1  0.09049388  0.88609998  0.73617870  1
  O  O141  1  0.35009995  0.11407123  0.00081653  1
  O  O142  1  0.38983238  0.15211397  0.25392509  1
  O  O143  1  0.34764572  0.08445675  0.50743225  1
  O  O144  1  0.39347210  0.13944753  0.73699681  1
  O  O145  1  0.36444190  0.40233828  -0.01149341  1
  O  O146  1  0.38821597  0.34392030  0.24573073  1
  O  O147  1  0.36017944  0.39141751  0.49926043  1
  O  O148  1  0.38899395  0.34877255  0.73924303  1
  O  O149  1  0.35797702  0.60303009  0.00485426  1
  O  O150  1  0.38173784  0.61853096  0.24766963  1
  O  O151  1  0.36191326  0.59564463  0.50007109  1
  O  O152  1  0.40481188  0.63713430  0.73297403  1
  O  O153  1  0.36082558  0.88941975  -0.00285521  1
  O  O154  1  0.40632591  0.85008804  0.26331265  1
  O  O155  1  0.35128287  0.90490759  0.51163355  1
  O  O156  1  0.37997015  0.85608452  0.74965645  1
  O  O157  1  0.64242057  0.10156727  0.00925456  1
  O  O158  1  0.59522748  0.13302320  0.25743808  1
  O  O159  1  0.65591960  0.12327876  0.49863487  1
  O  O160  1  0.58767578  0.11844893  0.73948973  1
  O  O161  1  0.62777930  0.40446261  0.00538806  1
  O  O162  1  0.60672673  0.34803438  0.25315407  1
  O  O163  1  0.64561782  0.37298904  0.49476697  1
  O  O164  1  0.60950327  0.35775120  0.73100445  1
  O  O165  1  0.63464199  0.58099291  0.00926680  1
  O  O166  1  0.60811238  0.63093296  0.25457569  1
  O  O167  1  0.64006940  0.60283855  0.48913586  1
  O  O168  1  0.59331771  0.63019229  0.73418326  1
  O  O169  1  0.64563202  0.87896958  -0.00638040  1
  O  O170  1  0.60449359  0.86245939  0.26811575  1
  O  O171  1  0.65571231  0.87799723  0.49690910  1
  O  O172  1  0.60395387  0.88530918  0.74002825  1
  O  O173  1  0.83966657  0.12295628  -0.01892450  1
  O  O174  1  0.87824462  0.08695214  0.25583583  1
  O  O175  1  0.85420739  0.14876550  0.49278499  1
  O  O176  1  0.90217901  0.10453423  0.75349039  1
  O  O177  1  0.85636557  0.35917070  -0.00537338  1
  O  O178  1  0.90250994  0.38599324  0.24974013  1
  O  O179  1  0.86266971  0.36369449  0.47863181  1
  O  O180  1  0.89159618  0.39167778  0.74317745  1
  O  O181  1  0.86763312  0.63649418  0.00325713  1
  O  O182  1  0.90950608  0.62490203  0.24830665  1
  O  O183  1  0.84462403  0.62776992  0.48518098  1
  O  O184  1  0.89518489  0.61287248  0.73543469  1
  O  O185  1  0.84162707  0.85278355  0.00137073  1
  O  O186  1  0.91425855  0.88432970  0.24930388  1
  O  O187  1  0.85615112  0.85674292  0.49200599  1
  O  O188  1  0.89960801  0.88216990  0.73833502  1
  O  O189  1  0.00950455  0.11192454  0.09831278  1
  O  O190  1  -0.00786479  0.15200446  0.38582352  1
  O  O191  1  0.00082646  0.12608536  0.58674233  1
  O  O192  1  -0.00825983  0.09760787  0.90406327  1
  O  O193  1  0.00251167  0.37334224  0.09961903  1
  O  O194  1  0.01123891  0.35562650  0.38526604  1
  O  O195  1  -0.00541067  0.36919804  0.59303063  1
  O  O196  1  -0.00805604  0.39852571  0.88990021  1
  O  O197  1  0.01022776  0.65638051  0.11128652  1
  O  O198  1  0.01166441  0.66491017  0.39758493  1
  O  O199  1  -0.00150109  0.65526833  0.58590406  1
  O  O200  1  -0.00587209  0.61233483  0.88562579  1
  O  O201  1  0.00034265  0.85118941  0.10389211  1
  O  O202  1  0.00427104  0.84453109  0.39556193  1
  O  O203  1  -0.00218466  0.85409179  0.58992890  1
  O  O204  1  -0.00963207  0.86504763  0.88535331  1
  O  O205  1  0.24758792  0.14137565  0.15691282  1
  O  O206  1  0.25264556  0.11892146  0.35910234  1
  O  O207  1  0.24068529  0.09385757  0.66685338  1
  O  O208  1  0.23041144  0.15211349  0.85445994  1
  O  O209  1  0.25261590  0.36779818  0.12881258  1
  O  O210  1  0.25608451  0.38353983  0.35892402  1
  O  O211  1  0.25746639  0.38166903  0.64355609  1
  O  O212  1  0.25389311  0.35455120  0.84859826  1
  O  O213  1  0.25209908  0.60688476  0.13683320  1
  O  O214  1  0.24962489  0.59936798  0.36772645  1
  O  O215  1  0.25531238  0.60267794  0.63351426  1
  O  O216  1  0.25101425  0.63444644  0.83966252  1
  O  O217  1  0.25492075  0.87295975  0.16425425  1
  O  O218  1  0.25198491  0.87607540  0.36490496  1
  O  O219  1  0.23954264  0.88678174  0.64609956  1
  O  O220  1  0.25237322  0.83742920  0.87601226  1
  O  O221  1  0.50688604  0.10616656  0.10919160  1
  O  O222  1  0.50769101  0.14890963  0.40474243  1
  O  O223  1  0.49930991  0.13356883  0.58698585  1
  O  O224  1  0.50701428  0.11002218  0.90188311  1
  O  O225  1  0.50193081  0.39451754  0.11532533  1
  O  O226  1  0.50330287  0.35944213  0.38995894  1
  O  O227  1  0.49380554  0.33323108  0.59822207  1
  O  O228  1  0.49646281  0.36320502  0.87466434  1
  O  O229  1  0.49790240  0.59825575  0.11763890  1
  O  O230  1  0.50439579  0.62203322  0.38115067  1
  O  O231  1  0.49154682  0.65477895  0.57294193  1
  O  O232  1  0.50279794  0.61405187  0.87163182  1
  O  O233  1  0.50401629  0.87355497  0.12035392  1
  O  O234  1  0.49654959  0.85291277  0.41903683  1
  O  O235  1  0.49420640  0.86019665  0.59736755  1
  O  O236  1  0.49649704  0.89622264  0.89045912  1
  O  O237  1  0.74560729  0.14463741  0.15061705  1
  O  O238  1  0.75112073  0.10073972  0.35972406  1
  O  O239  1  0.74417265  0.09269409  0.64143943  1
  O  O240  1  0.75702750  0.13542342  0.82696176  1
  O  O241  1  0.74658169  0.35591356  0.12799024  1
  O  O242  1  0.74875632  0.40061330  0.34075574  1
  O  O243  1  0.75251833  0.39392471  0.62800388  1
  O  O244  1  0.75298993  0.37193668  0.84504449  1
  O  O245  1  0.76305810  0.60097507  0.14300188  1
  O  O246  1  0.74822455  0.60424511  0.34290196  1
  O  O247  1  0.75385590  0.60164643  0.62664051  1
  O  O248  1  0.75325026  0.62399759  0.85024707  1
  O  O249  1  0.76469033  0.88905955  0.15890480  1
  O  O250  1  0.76735307  0.89396939  0.34690669  1
  O  O251  1  0.75543464  0.88789216  0.62526839  1
  O  O252  1  0.75606680  0.86344892  0.83770157  1
  O  O253  1  0.14979370  0.00497364  0.12617827  1
  O  O254  1  0.13621400  -0.00727688  0.40957372  1
  O  O255  1  0.10022314  -0.00586961  0.59650740  1
  O  O256  1  0.14050066  0.00705927  0.86286412  1
  O  O257  1  0.10990449  0.25100744  0.12369400  1
  O  O258  1  0.14160738  0.25050828  0.36083148  1
  O  O259  1  0.13138479  0.24213603  0.64922865  1
  O  O260  1  0.08866102  0.24385426  0.86772593  1
  O  O261  1  0.11704919  0.50524695  0.11820739  1
  O  O262  1  0.11339661  0.50070433  0.39091030  1
  O  O263  1  0.10564460  0.51001832  0.58649174  1
  O  O264  1  0.13364513  0.50139319  0.86391343  1
  O  O265  1  0.15839640  0.74581703  0.14785130  1
  O  O266  1  0.15849233  0.74335409  0.35370127  1
  O  O267  1  0.12522027  0.74808887  0.65227620  1
  O  O268  1  0.11633096  0.74963292  0.83831721  1
  O  O269  1  0.35333873  0.00305616  0.12785107  1
  O  O270  1  0.38035543  -0.01206263  0.36908146  1
  O  O271  1  0.39654432  -0.00353337  0.64638415  1
  O  O272  1  0.33970789  -0.00723417  0.85395959  1
  O  O273  1  0.39306219  0.25623517  0.08369515  1
  O  O274  1  0.37442793  0.25136177  0.40062217  1
  O  O275  1  0.34718127  0.23113646  0.59640742  1
  O  O276  1  0.38425966  0.25328589  0.89276760  1
  O  O277  1  0.36276582  0.48769466  0.13497270  1
  O  O278  1  0.39073943  0.48887923  0.35030698  1
  O  O279  1  0.40512513  0.49514476  0.63066619  1
  O  O280  1  0.36317628  0.49733049  0.84268725  1
  O  O281  1  0.39157334  0.74256508  0.11672995  1
  O  O282  1  0.35826330  0.75557793  0.42056062  1
  O  O283  1  0.35384711  0.75414058  0.60491986  1
  O  O284  1  0.40202536  0.75026302  0.88652336  1
  O  O285  1  0.64833932  0.01342848  0.15993219  1
  O  O286  1  0.60028256  -0.00471912  0.37104104  1
  O  O287  1  0.61104069  -0.00219744  0.60115411  1
  O  O288  1  0.66659295  0.00402869  0.87229224  1
  O  O289  1  0.61422905  0.24874302  0.10452032  1
  O  O290  1  0.65044776  0.24551548  0.38467359  1
  O  O291  1  0.64616233  0.24065585  0.61855393  1
  O  O292  1  0.62647592  0.24997399  0.85713268  1
  O  O293  1  0.64983325  0.48549495  0.15802816  1
  O  O294  1  0.61313223  0.49087586  0.35336972  1
  O  O295  1  0.58962411  0.48951132  0.61740134  1
  O  O296  1  0.63223437  0.49849665  0.84190670  1
  O  O297  1  0.63278239  0.74702175  0.10830496  1
  O  O298  1  0.64605005  0.75147414  0.38484534  1
  O  O299  1  0.64330008  0.75882978  0.62188430  1
  O  O300  1  0.62581881  0.74786565  0.86512775  1
  O  O301  1  0.88512100  -0.01024888  0.10993523  1
  O  O302  1  0.91023407  -0.00004126  0.41334639  1
  O  O303  1  0.88771033  -0.00694987  0.60001429  1
  O  O304  1  0.85521023  -0.01267198  0.88265486  1
  O  O305  1  0.88384475  0.24700113  0.12162329  1
  O  O306  1  0.85724166  0.24865037  0.33598961  1
  O  O307  1  0.87206628  0.25516259  0.62699339  1
  O  O308  1  0.88606960  0.25393413  0.85862498  1
  O  O309  1  0.90798792  0.50924162  0.12096100  1
  O  O310  1  0.89819119  0.50802522  0.36807976  1
  O  O311  1  0.88777429  0.50223756  0.59401802  1
  O  O312  1  0.85492617  0.50049638  0.87837908  1
  O  O313  1  0.85019697  0.75179110  0.13989313  1
  O  O314  1  0.86354409  0.75045405  0.34690613  1
  O  O315  1  0.85268550  0.74763251  0.62723584  1
  O  O316  1  0.86779265  0.74281211  0.85571458  1
