# generated using pymatgen
data_Mg32Ti42(Bi17O64)3
_symmetry_space_group_name_H-M   'P 1'
_cell_length_a   15.96624542
_cell_length_b   15.94018653
_cell_length_c   15.92116317
_cell_angle_alpha   89.96900356
_cell_angle_beta   90.06949217
_cell_angle_gamma   89.83809907
_symmetry_Int_Tables_number   1
_chemical_formula_structural   Mg32Ti42(Bi17O64)3
_chemical_formula_sum   'Mg32 Ti42 Bi51 O192'
_cell_volume   4051.99476627
_cell_formula_units_Z   1
loop_
 _symmetry_equiv_pos_site_id
 _symmetry_equiv_pos_as_xyz
  1  'x, y, z'
loop_
 _atom_site_type_symbol
 _atom_site_label
 _atom_site_symmetry_multiplicity
 _atom_site_fract_x
 _atom_site_fract_y
 _atom_site_fract_z
 _atom_site_occupancy
  Mg  Mg0  1  0.36672171  0.12629555  0.61521655  1
  Mg  Mg1  1  0.87985722  0.86308380  0.62375951  1
  Mg  Mg2  1  0.62155742  0.88436104  0.88157983  1
  Mg  Mg3  1  0.61470218  0.62277883  0.12145058  1
  Mg  Mg4  1  0.88109362  0.85872676  0.36656745  1
  Mg  Mg5  1  0.86303778  0.37739669  0.61905648  1
  Mg  Mg6  1  0.13118356  0.36501842  0.63319340  1
  Mg  Mg7  1  0.61401799  0.38116054  0.37642193  1
  Mg  Mg8  1  0.62628162  0.86612504  0.61558010  1
  Mg  Mg9  1  0.87412335  0.36107057  0.88193943  1
  Mg  Mg10  1  0.62075573  0.37674938  0.13020077  1
  Mg  Mg11  1  0.87609607  0.61442163  0.13316930  1
  Mg  Mg12  1  0.62217123  0.61723566  0.87100733  1
  Mg  Mg13  1  0.36528284  0.61759554  0.38201510  1
  Mg  Mg14  1  0.36913968  0.87235583  0.87251026  1
  Mg  Mg15  1  0.37345385  0.62158133  0.12190264  1
  Mg  Mg16  1  0.12327867  0.60995782  0.86760714  1
  Mg  Mg17  1  0.87368400  0.13066057  0.12190267  1
  Mg  Mg18  1  0.38290546  0.61288348  0.62352280  1
  Mg  Mg19  1  0.26090264  0.25622455  0.75291371  1
  Mg  Mg20  1  0.68045773  0.52524325  0.26348430  1
  Mg  Mg21  1  0.00371808  0.51480679  0.31032754  1
  Mg  Mg22  1  0.19706407  0.26368099  0.50009228  1
  Mg  Mg23  1  0.03039987  0.26818765  0.01661056  1
  Mg  Mg24  1  0.72009417  0.51369148  0.43706965  1
  Mg  Mg25  1  0.67128690  0.23205916  0.72608572  1
  Mg  Mg26  1  0.49621653  0.50927041  0.32410867  1
  Mg  Mg27  1  0.50839551  0.69351862  0.30450909  1
  Mg  Mg28  1  0.54386118  0.45235317  0.76577373  1
  Mg  Mg29  1  0.59659921  0.03835383  0.52115981  1
  Mg  Mg30  1  0.55504415  0.54378280  0.48115223  1
  Mg  Mg31  1  0.77312157  -0.05211558  0.47332639  1
  Ti  Ti32  1  0.36880290  0.37104853  0.12720156  1
  Ti  Ti33  1  0.37530818  0.61516544  0.87769853  1
  Ti  Ti34  1  0.11570108  0.12842159  0.85793114  1
  Ti  Ti35  1  0.86803655  0.12147444  0.62574356  1
  Ti  Ti36  1  0.63619859  0.12392847  0.87745259  1
  Ti  Ti37  1  0.60929495  0.88107856  0.13202240  1
  Ti  Ti38  1  0.12139490  0.37706883  0.37005228  1
  Ti  Ti39  1  0.12731354  0.61143578  0.62973021  1
  Ti  Ti40  1  0.12537456  0.12969114  0.11412047  1
  Ti  Ti41  1  0.12341280  0.12247705  0.38127842  1
  Ti  Ti42  1  0.12011127  0.87001018  0.86992914  1
  Ti  Ti43  1  0.11972686  0.87036092  0.62887059  1
  Ti  Ti44  1  0.37818956  0.37079881  0.38850683  1
  Ti  Ti45  1  0.87100113  0.87873658  0.87815713  1
  Ti  Ti46  1  0.88547993  0.37768513  0.14120038  1
  Ti  Ti47  1  0.62523801  0.12767994  0.36618687  1
  Ti  Ti48  1  0.37184763  0.87281152  0.11724087  1
  Ti  Ti49  1  0.86931723  0.38245328  0.38062650  1
  Ti  Ti50  1  0.37224629  0.12596533  0.38039862  1
  Ti  Ti51  1  0.61991764  0.88848223  0.37838619  1
  Ti  Ti52  1  0.13180890  0.62316951  0.37724525  1
  Ti  Ti53  1  0.86178557  0.62058167  0.87884089  1
  Ti  Ti54  1  0.63982612  0.36429475  0.88364450  1
  Ti  Ti55  1  0.13957744  0.13477165  0.62998474  1
  Ti  Ti56  1  0.12411249  0.37368458  0.13492595  1
  Ti  Ti57  1  0.61435999  0.38970116  0.61303361  1
  Ti  Ti58  1  0.38000464  0.88221109  0.62365691  1
  Ti  Ti59  1  0.38281381  0.37387862  0.87873902  1
  Ti  Ti60  1  0.85870400  0.62388351  0.62436233  1
  Ti  Ti61  1  0.12621671  0.36045968  0.86429934  1
  Ti  Ti62  1  0.12873156  0.61642673  0.13303174  1
  Ti  Ti63  1  0.12447889  0.86676360  0.11873498  1
  Ti  Ti64  1  0.86010513  0.12657760  0.37401510  1
  Ti  Ti65  1  0.87452241  0.61960803  0.37210690  1
  Ti  Ti66  1  0.37405800  0.12591788  0.13246218  1
  Ti  Ti67  1  0.12274387  0.86759959  0.37116739  1
  Ti  Ti68  1  0.38954356  0.36536167  0.62552301  1
  Ti  Ti69  1  0.62861968  0.12081840  0.13564264  1
  Ti  Ti70  1  0.61491176  0.62257837  0.63217618  1
  Ti  Ti71  1  0.88102257  0.86745648  0.12258723  1
  Ti  Ti72  1  0.36987381  0.87697904  0.38182199  1
  Ti  Ti73  1  0.86727626  0.12745349  0.87177495  1
  Bi  Bi74  1  0.52732035  0.01562826  0.70722399  1
  Bi  Bi75  1  0.23102635  -0.01328983  0.24061475  1
  Bi  Bi76  1  0.50245362  0.22619456  0.00434209  1
  Bi  Bi77  1  0.75171856  0.50621709  0.03505882  1
  Bi  Bi78  1  0.49814238  0.48837633  0.02910697  1
  Bi  Bi79  1  -0.00449684  0.71920129  -0.00789378  1
  Bi  Bi80  1  -0.01501398  -0.02752059  0.49148070  1
  Bi  Bi81  1  0.75753368  -0.02451380  0.25794961  1
  Bi  Bi82  1  -0.01044596  0.72377711  0.76065279  1
  Bi  Bi83  1  -0.02348707  0.27081075  0.74434347  1
  Bi  Bi84  1  0.47387743  0.21338247  0.77816160  1
  Bi  Bi85  1  0.46888787  -0.00756653  0.25802933  1
  Bi  Bi86  1  0.27294560  0.49240426  0.74497532  1
  Bi  Bi87  1  0.46560425  0.73384757  0.49714522  1
  Bi  Bi88  1  -0.02688613  0.48538149  0.74894683  1
  Bi  Bi89  1  0.50111137  0.72298621  -0.01185416  1
  Bi  Bi90  1  -0.02174733  0.02554467  -0.00521041  1
  Bi  Bi91  1  -0.00675388  0.47702288  0.51979616  1
  Bi  Bi92  1  0.73504837  0.76488462  0.75769944  1
  Bi  Bi93  1  -0.01716783  0.22885816  0.51094131  1
  Bi  Bi94  1  0.73580502  0.24090966  0.53022440  1
  Bi  Bi95  1  -0.01931644  0.24371119  0.25313434  1
  Bi  Bi96  1  0.27379880  0.49033302  0.24891668  1
  Bi  Bi97  1  0.24734742  0.46319384  0.51401632  1
  Bi  Bi98  1  0.72953970  0.75488406  0.01950262  1
  Bi  Bi99  1  0.75617904  -0.01391691  0.71209022  1
  Bi  Bi100  1  0.26479505  0.22051545  -0.03559080  1
  Bi  Bi101  1  0.28885970  0.02165727  0.75935740  1
  Bi  Bi102  1  -0.01273953  0.72156934  0.50893490  1
  Bi  Bi103  1  0.50129980  0.21123058  0.51754780  1
  Bi  Bi104  1  0.70740629  0.73214780  0.48708798  1
  Bi  Bi105  1  0.23856898  -0.01997452  -0.01966209  1
  Bi  Bi106  1  0.28896924  0.73194696  0.24659534  1
  Bi  Bi107  1  0.46938781  0.00489061  -0.04270582  1
  Bi  Bi108  1  0.23151031  0.23528198  0.25526125  1
  Bi  Bi109  1  0.73248418  0.28345345  0.26103616  1
  Bi  Bi110  1  0.22638804  0.46919831  -0.00628383  1
  Bi  Bi111  1  0.28421122  0.73774145  0.74690037  1
  Bi  Bi112  1  0.48579655  0.26228379  0.25694697  1
  Bi  Bi113  1  0.23601951  0.72139012  -0.01922077  1
  Bi  Bi114  1  0.23284218  -0.01120828  0.51698660  1
  Bi  Bi115  1  -0.01225437  0.72239824  0.23903506  1
  Bi  Bi116  1  -0.00955539  -0.00802177  0.23501795  1
  Bi  Bi117  1  0.73909817  0.47351149  0.74031851  1
  Bi  Bi118  1  0.23831234  0.73747942  0.51659620  1
  Bi  Bi119  1  0.73842743  0.26226821  0.02157132  1
  Bi  Bi120  1  -0.01456012  0.47434306  -0.01172116  1
  Bi  Bi121  1  0.73282577  -0.00483270  0.01910568  1
  Bi  Bi122  1  0.71168119  0.71953753  0.26225350  1
  Bi  Bi123  1  -0.00630431  -0.00994592  0.75224334  1
  Bi  Bi124  1  0.51140045  0.77247161  0.76742234  1
  O  O125  1  0.16398731  0.11576398  0.00454021  1
  O  O126  1  0.11516630  0.15393532  0.25468613  1
  O  O127  1  0.16497052  0.12730472  0.49738965  1
  O  O128  1  0.09552706  0.13692190  0.74233057  1
  O  O129  1  0.10500009  0.38685432  0.00880293  1
  O  O130  1  0.15932509  0.37371939  0.25060602  1
  O  O131  1  0.11629017  0.39244106  0.49258772  1
  O  O132  1  0.15464881  0.33214139  0.75617955  1
  O  O133  1  0.13831768  0.62487558  0.00449622  1
  O  O134  1  0.09504644  0.62829463  0.25156666  1
  O  O135  1  0.15664229  0.62250846  0.49626978  1
  O  O136  1  0.09882777  0.62222011  0.74105767  1
  O  O137  1  0.11667810  0.89806586  0.00335154  1
  O  O138  1  0.14244421  0.87657563  0.25064501  1
  O  O139  1  0.11249758  0.89888161  0.49556263  1
  O  O140  1  0.12201177  0.86999747  0.74799592  1
  O  O141  1  0.37164465  0.13646479  0.01321692  1
  O  O142  1  0.41163929  0.12743847  0.25427206  1
  O  O143  1  0.36841515  0.14772998  0.49234798  1
  O  O144  1  0.40222360  0.10243723  0.73757799  1
  O  O145  1  0.38966924  0.37218512  -0.00530653  1
  O  O146  1  0.34478119  0.37066556  0.24478641  1
  O  O147  1  0.40031009  0.37580331  0.50202481  1
  O  O148  1  0.33735056  0.36616177  0.74342822  1
  O  O149  1  0.33769256  0.61962824  -0.00836040  1
  O  O150  1  0.39655619  0.64475412  0.25114303  1
  O  O151  1  0.35355246  0.65325154  0.50410436  1
  O  O152  1  0.36471101  0.61981778  0.75063349  1
  O  O153  1  0.37824678  0.89164662  0.00332638  1
  O  O154  1  0.37117363  0.88756652  0.25118404  1
  O  O155  1  0.37806067  0.86120767  0.50015978  1
  O  O156  1  0.35365477  0.89460888  0.74406294  1
  O  O157  1  0.63323361  0.15894403  0.00016209  1
  O  O158  1  0.61447884  0.09991418  0.24864731  1
  O  O159  1  0.64389942  0.15120786  0.48919510  1
  O  O160  1  0.60447409  0.12464562  0.75635120  1
  O  O161  1  0.61742455  0.33870328  0.00137866  1
  O  O162  1  0.65859973  0.39813850  0.24752657  1
  O  O163  1  0.59447428  0.41798869  0.50723451  1
  O  O164  1  0.65329075  0.36570093  0.75499689  1
  O  O165  1  0.63387900  0.65899432  -0.00061329  1
  O  O166  1  0.60605480  0.63162669  0.24565512  1
  O  O167  1  0.66325874  0.59650818  0.51560780  1
  O  O168  1  0.60286826  0.66351729  0.74426209  1
  O  O169  1  0.64610243  0.86614973  0.00971813  1
  O  O170  1  0.62878545  0.90289494  0.24926433  1
  O  O171  1  0.66240876  0.87306499  0.49303917  1
  O  O172  1  0.62395418  0.85216419  0.74888305  1
  O  O173  1  0.87277614  0.13068296  -0.01093014  1
  O  O174  1  0.90924087  0.11824076  0.25656929  1
  O  O175  1  0.85087359  0.15897037  0.49493882  1
  O  O176  1  0.88340610  0.08985368  0.73968376  1
  O  O177  1  0.92873928  0.35049245  0.00162170  1
  O  O178  1  0.86052206  0.39459867  0.25149940  1
  O  O179  1  0.90420825  0.36727848  0.49684241  1
  O  O180  1  0.87430611  0.38545965  0.74928319  1
  O  O181  1  0.86911060  0.64663395  -0.00370325  1
  O  O182  1  0.91915692  0.60137025  0.25715278  1
  O  O183  1  0.86190305  0.64238619  0.50055009  1
  O  O184  1  0.89657324  0.61955027  0.74951724  1
  O  O185  1  0.88043235  0.85875551  0.00236871  1
  O  O186  1  0.88059113  0.90503524  0.24637824  1
  O  O187  1  0.88144840  0.87346773  0.49564121  1
  O  O188  1  0.88099941  0.90648404  0.75160843  1
  O  O189  1  0.01307614  0.14389133  0.08262789  1
  O  O190  1  0.00945398  0.12321916  0.40232529  1
  O  O191  1  -0.01505037  0.11162928  0.59347014  1
  O  O192  1  -0.00274327  0.10417973  0.87393584  1
  O  O193  1  0.00714054  0.37114762  0.15447250  1
  O  O194  1  0.00989315  0.38517434  0.34506998  1
  O  O195  1  0.00867482  0.39710295  0.64270098  1
  O  O196  1  0.00734332  0.38197254  0.84784519  1
  O  O197  1  0.00478756  0.64516706  0.11282594  1
  O  O198  1  0.00771527  0.61981307  0.40293958  1
  O  O199  1  0.01353079  0.61149712  0.59058014  1
  O  O200  1  -0.00169660  0.62922824  0.88568453  1
  O  O201  1  0.00584034  0.87005821  0.14235326  1
  O  O202  1  0.00601035  0.89547395  0.36582933  1
  O  O203  1  0.00117079  0.91123313  0.62457661  1
  O  O204  1  0.00127979  0.89651559  0.86732577  1
  O  O205  1  0.25641146  0.13054600  0.15509027  1
  O  O206  1  0.25942333  0.13496077  0.34965347  1
  O  O207  1  0.24650184  0.16324489  0.65945149  1
  O  O208  1  0.23243275  0.16380058  0.84293587  1
  O  O209  1  0.24883636  0.37099336  0.09698251  1
  O  O210  1  0.25769035  0.36725632  0.40202734  1
  O  O211  1  0.25283481  0.34731400  0.58591475  1
  O  O212  1  0.24549718  0.36034039  0.90369508  1
  O  O213  1  0.24472349  0.63116498  0.15950487  1
  O  O214  1  0.24595734  0.63962426  0.34816112  1
  O  O215  1  0.24079757  0.65928491  0.63655217  1
  O  O216  1  0.24512914  0.64894105  0.85938033  1
  O  O217  1  0.24934260  0.89994019  0.12164445  1
  O  O218  1  0.25354512  0.86805472  0.38409446  1
  O  O219  1  0.23750180  0.86459842  0.60471888  1
  O  O220  1  0.24045572  0.86698163  0.89091964  1
  O  O221  1  0.51045424  0.14134789  0.11324787  1
  O  O222  1  0.51161271  0.12377238  0.39537652  1
  O  O223  1  0.50403917  0.09335761  0.58981665  1
  O  O224  1  0.50456648  0.13370329  0.89370466  1
  O  O225  1  0.49269363  0.38819397  0.13080598  1
  O  O226  1  0.49153037  0.38207706  0.33972854  1
  O  O227  1  0.49625144  0.39729688  0.66098754  1
  O  O228  1  0.49556367  0.37718328  0.85425594  1
  O  O229  1  0.49338498  0.61493220  0.08759703  1
  O  O230  1  0.48982226  0.61636996  0.40232381  1
  O  O231  1  0.50736130  0.60703849  0.58802007  1
  O  O232  1  0.49107503  0.61013828  0.90278801  1
  O  O233  1  0.49932807  0.86851923  0.12882682  1
  O  O234  1  0.50853334  0.89872092  0.37874837  1
  O  O235  1  0.49413544  0.89218710  0.62602329  1
  O  O236  1  0.49483263  0.90806661  0.86369791  1
  O  O237  1  0.74769068  0.10181233  0.12055012  1
  O  O238  1  0.75213607  0.14090653  0.34354780  1
  O  O239  1  0.75617406  0.17322687  0.64645077  1
  O  O240  1  0.75156644  0.12665031  0.85623810  1
  O  O241  1  0.76415040  0.38189625  0.09758050  1
  O  O242  1  0.75661717  0.39254461  0.40171479  1
  O  O243  1  0.73786641  0.39968823  0.61722279  1
  O  O244  1  0.75237475  0.36169376  0.91049441  1
  O  O245  1  0.74835970  0.59192459  0.14702031  1
  O  O246  1  0.76183282  0.59578482  0.34671826  1
  O  O247  1  0.75113358  0.63179510  0.65356379  1
  O  O248  1  0.75044894  0.62958463  0.86255707  1
  O  O249  1  0.76272857  0.90356281  0.12975830  1
  O  O250  1  0.75370759  0.87756911  0.35651523  1
  O  O251  1  0.75637593  0.85706075  0.65155178  1
  O  O252  1  0.75351742  0.86028316  0.86586813  1
  O  O253  1  0.12126427  0.01401738  0.14888976  1
  O  O254  1  0.14026032  0.00861186  0.35938264  1
  O  O255  1  0.14956260  0.01273703  0.62502607  1
  O  O256  1  0.14625764  0.01199978  0.86765886  1
  O  O257  1  0.12651760  0.25513582  0.11775324  1
  O  O258  1  0.13390313  0.25676099  0.38572087  1
  O  O259  1  0.10448402  0.24510048  0.59478027  1
  O  O260  1  0.09850153  0.24662273  0.90793335  1
  O  O261  1  0.13372260  0.50162853  0.12904925  1
  O  O262  1  0.12721214  0.50491551  0.36104830  1
  O  O263  1  0.15770602  0.49921257  0.63033110  1
  O  O264  1  0.14061896  0.48389711  0.87266741  1
  O  O265  1  0.13712382  0.75600940  0.11249768  1
  O  O266  1  0.11421852  0.75458047  0.38386966  1
  O  O267  1  0.10169583  0.75751946  0.60602535  1
  O  O268  1  0.10995006  0.75757739  0.88894596  1
  O  O269  1  0.38843500  0.00837451  0.13679451  1
  O  O270  1  0.37492663  0.00426817  0.36948530  1
  O  O271  1  0.33885730  0.00053180  0.61239266  1
  O  O272  1  0.34830368  0.00593086  0.88467700  1
  O  O273  1  0.38520577  0.25242733  0.13853271  1
  O  O274  1  0.39354349  0.25228527  0.36102082  1
  O  O275  1  0.40917145  0.24992389  0.63264017  1
  O  O276  1  0.36975579  0.25483902  0.86372192  1
  O  O277  1  0.35943561  0.49524662  0.13323802  1
  O  O278  1  0.37087093  0.49438004  0.35766620  1
  O  O279  1  0.34480933  0.49095864  0.62645302  1
  O  O280  1  0.35749318  0.49487256  0.86345077  1
  O  O281  1  0.35854184  0.75842481  0.11695262  1
  O  O282  1  0.40678730  0.76192788  0.36852072  1
  O  O283  1  0.38300098  0.75885816  0.64023917  1
  O  O284  1  0.39112898  0.74419095  0.86895909  1
  O  O285  1  0.61772730  0.00156832  0.09968536  1
  O  O286  1  0.64769738  0.00910936  0.40537442  1
  O  O287  1  0.64138164  -0.00802829  0.62725002  1
  O  O288  1  0.63110927  0.00987274  0.90573587  1
  O  O289  1  0.65396642  0.24655091  0.14802107  1
  O  O290  1  0.62098120  0.25255150  0.34373101  1
  O  O291  1  0.61448339  0.27145944  0.61414318  1
  O  O292  1  0.62591359  0.24863140  0.85390709  1
  O  O293  1  0.62262202  0.49737485  0.08995245  1
  O  O294  1  0.61340268  0.50491789  0.36993537  1
  O  O295  1  0.61870784  0.50734034  0.67485791  1
  O  O296  1  0.62734665  0.48679155  0.86051203  1
  O  O297  1  0.65055371  0.76136961  0.13867371  1
  O  O298  1  0.62099364  0.75822127  0.36771449  1
  O  O299  1  0.61974562  0.74078384  0.59020029  1
  O  O300  1  0.58505983  0.75661527  0.88056431  1
  O  O301  1  0.90753263  0.00443770  0.11646728  1
  O  O302  1  0.85629537  0.01297687  0.39467067  1
  O  O303  1  0.82448494  0.01239607  0.59403515  1
  O  O304  1  0.86701791  -0.00463277  0.89919042  1
  O  O305  1  0.87631557  0.25585160  0.15037430  1
  O  O306  1  0.88775883  0.25892785  0.35867734  1
  O  O307  1  0.89943824  0.25136024  0.63059607  1
  O  O308  1  0.88619049  0.23921314  0.84380875  1
  O  O309  1  0.88892322  0.49291652  0.09274396  1
  O  O310  1  0.89896905  0.49881429  0.39241815  1
  O  O311  1  0.88429064  0.50741304  0.62062301  1
  O  O312  1  0.87929539  0.50170460  0.88668133  1
  O  O313  1  0.86845953  0.75427631  0.14994970  1
  O  O314  1  0.88329284  0.73508041  0.35129628  1
  O  O315  1  0.90766424  0.73905864  0.63551022  1
  O  O316  1  0.88679125  0.75423557  0.85362639  1
