# generated using pymatgen
data_Mg32Ti42(Bi17O64)3
_symmetry_space_group_name_H-M   'P 1'
_cell_length_a   15.95824433
_cell_length_b   15.96428526
_cell_length_c   15.95708207
_cell_angle_alpha   89.99216657
_cell_angle_beta   89.91019056
_cell_angle_gamma   89.98241376
_symmetry_Int_Tables_number   1
_chemical_formula_structural   Mg32Ti42(Bi17O64)3
_chemical_formula_sum   'Mg32 Ti42 Bi51 O192'
_cell_volume   4065.25235601
_cell_formula_units_Z   1
loop_
 _symmetry_equiv_pos_site_id
 _symmetry_equiv_pos_as_xyz
  1  'x, y, z'
loop_
 _atom_site_type_symbol
 _atom_site_label
 _atom_site_symmetry_multiplicity
 _atom_site_fract_x
 _atom_site_fract_y
 _atom_site_fract_z
 _atom_site_occupancy
  Mg  Mg0  1  0.12601227  0.37108233  0.11991461  1
  Mg  Mg1  1  0.87229638  0.62025553  0.37707500  1
  Mg  Mg2  1  0.13077299  0.87580470  0.12597679  1
  Mg  Mg3  1  0.86933448  0.36693370  0.87466841  1
  Mg  Mg4  1  0.37768493  0.37609429  0.36877660  1
  Mg  Mg5  1  0.87232632  0.88266281  0.12485475  1
  Mg  Mg6  1  0.37883751  0.62584020  0.86950028  1
  Mg  Mg7  1  0.36588402  0.61628792  0.12930947  1
  Mg  Mg8  1  0.87895640  0.12792347  0.11758495  1
  Mg  Mg9  1  0.61652572  0.62234237  0.12142314  1
  Mg  Mg10  1  0.63655192  0.86055007  0.62259682  1
  Mg  Mg11  1  0.12963932  0.87241049  0.38311143  1
  Mg  Mg12  1  0.86714854  0.87457027  0.38022929  1
  Mg  Mg13  1  0.62244993  0.63159715  0.39142286  1
  Mg  Mg14  1  0.37219856  0.11900910  0.87823653  1
  Mg  Mg15  1  0.38153869  0.38134781  0.86589665  1
  Mg  Mg16  1  0.63599494  0.35996753  0.12965939  1
  Mg  Mg17  1  0.12081744  0.37197665  0.38538362  1
  Mg  Mg18  1  0.12171854  0.62090400  0.87094010  1
  Mg  Mg19  1  0.26009892  0.50188599  0.75403470  1
  Mg  Mg20  1  0.50083373  0.49033985  -0.01878930  1
  Mg  Mg21  1  0.20652833  -0.01573849  0.73471916  1
  Mg  Mg22  1  -0.07275206  0.00787943  0.26239296  1
  Mg  Mg23  1  0.75407549  0.72362969  0.54824130  1
  Mg  Mg24  1  0.45864492  0.25726155  0.19773654  1
  Mg  Mg25  1  0.30378214  0.02166372  0.56034897  1
  Mg  Mg26  1  0.81358248  0.06213739  0.45754904  1
  Mg  Mg27  1  0.43098315  0.01077201  0.74210244  1
  Mg  Mg28  1  0.46210128  0.72711779  0.50390731  1
  Mg  Mg29  1  -0.02075687  -0.02168633  0.75833405  1
  Mg  Mg30  1  0.24665687  0.47507598  0.46266155  1
  Mg  Mg31  1  0.49303844  0.51022980  0.72487445  1
  Ti  Ti32  1  0.13234616  0.37557797  0.86768777  1
  Ti  Ti33  1  0.61880897  0.38387399  0.63452401  1
  Ti  Ti34  1  0.12314993  0.87650089  0.86616639  1
  Ti  Ti35  1  0.37055344  0.87536761  0.87141217  1
  Ti  Ti36  1  0.37052894  0.87609316  0.38127130  1
  Ti  Ti37  1  0.61943593  0.13053391  0.13632253  1
  Ti  Ti38  1  0.86749464  0.36775740  0.11947313  1
  Ti  Ti39  1  0.12737502  0.62257854  0.11142908  1
  Ti  Ti40  1  0.87478114  0.38264693  0.36945213  1
  Ti  Ti41  1  0.11643827  0.62707072  0.37647122  1
  Ti  Ti42  1  0.88047908  0.61939048  0.87841185  1
  Ti  Ti43  1  0.87321154  0.11350949  0.62657507  1
  Ti  Ti44  1  0.87519428  0.88185342  0.88086991  1
  Ti  Ti45  1  0.11935600  0.61734733  0.62759391  1
  Ti  Ti46  1  0.87149529  0.36483147  0.62620386  1
  Ti  Ti47  1  0.37151923  0.87270935  0.12941160  1
  Ti  Ti48  1  0.61372013  0.37074169  0.37282080  1
  Ti  Ti49  1  0.36209555  0.62196399  0.63109407  1
  Ti  Ti50  1  0.87674703  0.62033679  0.13805645  1
  Ti  Ti51  1  0.61228229  0.62251995  0.88216716  1
  Ti  Ti52  1  0.38210640  0.12365732  0.37034669  1
  Ti  Ti53  1  0.12960531  0.11159784  0.86411535  1
  Ti  Ti54  1  0.87975563  0.61894651  0.62494686  1
  Ti  Ti55  1  0.11994687  0.11548847  0.62854495  1
  Ti  Ti56  1  0.61897469  0.62561226  0.61501863  1
  Ti  Ti57  1  0.14970571  0.37172448  0.63221884  1
  Ti  Ti58  1  0.61793403  0.11474320  0.37915475  1
  Ti  Ti59  1  0.88282535  0.11348511  0.88191266  1
  Ti  Ti60  1  0.63145997  0.09828936  0.62375200  1
  Ti  Ti61  1  0.61343858  0.86880135  0.11706714  1
  Ti  Ti62  1  0.62165019  0.86906294  0.38499629  1
  Ti  Ti63  1  0.37445273  0.38307882  0.63492612  1
  Ti  Ti64  1  0.86856449  0.86716901  0.62568562  1
  Ti  Ti65  1  0.35205187  0.37671525  0.11679606  1
  Ti  Ti66  1  0.11532392  0.87415880  0.62445231  1
  Ti  Ti67  1  0.12991374  0.12616072  0.12860426  1
  Ti  Ti68  1  0.62132175  0.37867554  0.87325256  1
  Ti  Ti69  1  0.61009740  0.86013356  0.87815600  1
  Ti  Ti70  1  0.37054577  0.62764079  0.37641932  1
  Ti  Ti71  1  0.36324483  0.86959843  0.63587326  1
  Ti  Ti72  1  0.13954752  0.11882374  0.39422937  1
  Ti  Ti73  1  0.36997767  0.11836190  0.12845986  1
  Bi  Bi74  1  0.00072102  0.47448958  0.76651851  1
  Bi  Bi75  1  0.51442818  0.20593527  0.75706496  1
  Bi  Bi76  1  -0.01237025  0.23592807  0.76224822  1
  Bi  Bi77  1  0.48813076  -0.02005179  0.25504107  1
  Bi  Bi78  1  0.00842697  -0.00061224  0.03741000  1
  Bi  Bi79  1  0.22964256  0.73622676  0.75224299  1
  Bi  Bi80  1  0.23498906  0.73144302  0.49662967  1
  Bi  Bi81  1  0.73281835  0.25742710  0.48290942  1
  Bi  Bi82  1  0.50641595  0.72647001  0.73231924  1
  Bi  Bi83  1  0.72493599  0.23913685  -0.00480522  1
  Bi  Bi84  1  -0.00939341  -0.02621014  0.47778979  1
  Bi  Bi85  1  0.46365589  0.73630341  0.01562058  1
  Bi  Bi86  1  0.73128033  0.00965417  0.02711232  1
  Bi  Bi87  1  -0.02349805  0.23083710  0.49084688  1
  Bi  Bi88  1  0.26978970  0.50694377  -0.03858583  1
  Bi  Bi89  1  0.25208222  -0.01805643  -0.00127133  1
  Bi  Bi90  1  0.74069827  0.21381171  0.76456227  1
  Bi  Bi91  1  0.23548235  -0.00970929  0.26943134  1
  Bi  Bi92  1  0.51285073  0.23296632  0.53385637  1
  Bi  Bi93  1  0.72821485  -0.01902357  0.76930001  1
  Bi  Bi94  1  0.51634466  0.02781936  -0.03890251  1
  Bi  Bi95  1  0.49927319  0.46356295  0.20378649  1
  Bi  Bi96  1  -0.00451871  0.47259351  0.00291659  1
  Bi  Bi97  1  0.24318141  0.74183490  -0.00486001  1
  Bi  Bi98  1  0.22186226  0.48112032  0.26200622  1
  Bi  Bi99  1  0.74630673  0.48486022  0.50215738  1
  Bi  Bi100  1  -0.02145609  0.73833928  0.48315849  1
  Bi  Bi101  1  0.49879270  -0.04199327  0.52045867  1
  Bi  Bi102  1  0.00000926  0.47836434  0.22494315  1
  Bi  Bi103  1  0.75748835  0.48819109  0.75471956  1
  Bi  Bi104  1  0.75660738  0.75138332  0.27934716  1
  Bi  Bi105  1  -0.00266490  0.22260814  0.27009327  1
  Bi  Bi106  1  -0.02360590  0.75278814  0.02409383  1
  Bi  Bi107  1  0.22499530  0.73799243  0.23677193  1
  Bi  Bi108  1  -0.00755803  0.79639195  0.25614548  1
  Bi  Bi109  1  0.74532622  0.73535597  0.03240329  1
  Bi  Bi110  1  -0.01343109  0.73921512  0.76129136  1
  Bi  Bi111  1  0.74479171  0.73652860  0.76102568  1
  Bi  Bi112  1  0.46918379  0.48417834  0.49809307  1
  Bi  Bi113  1  0.71667621  0.49440774  0.01770947  1
  Bi  Bi114  1  0.27018812  0.23396114  0.50467839  1
  Bi  Bi115  1  0.78128067  0.22007569  0.27304013  1
  Bi  Bi116  1  0.26198083  0.23953214  -0.01036549  1
  Bi  Bi117  1  0.25307352  0.25009797  0.28111386  1
  Bi  Bi118  1  0.72418176  0.51893975  0.27220393  1
  Bi  Bi119  1  0.47903095  0.24951873  -0.01362188  1
  Bi  Bi120  1  0.02962539  0.24955066  -0.00582502  1
  Bi  Bi121  1  0.72603410  -0.01771992  0.25022189  1
  Bi  Bi122  1  0.27567633  0.19904934  0.73133002  1
  Bi  Bi123  1  0.01750779  0.47798695  0.51953710  1
  Bi  Bi124  1  0.50958706  0.70878207  0.25881552  1
  O  O125  1  0.14377221  0.09610772  -0.02123187  1
  O  O126  1  0.11243981  0.14429724  0.23991037  1
  O  O127  1  0.16408673  0.11722801  0.50655962  1
  O  O128  1  0.11397118  0.15669227  0.74113907  1
  O  O129  1  0.11208429  0.38425932  -0.01063497  1
  O  O130  1  0.11088162  0.39248517  0.25578001  1
  O  O131  1  0.14446024  0.40380637  0.51216919  1
  O  O132  1  0.10754548  0.36713363  0.74442494  1
  O  O133  1  0.15154954  0.62835821  -0.00272276  1
  O  O134  1  0.11490974  0.64881653  0.26161141  1
  O  O135  1  0.16708504  0.61203749  0.51526566  1
  O  O136  1  0.11259677  0.64961822  0.74436877  1
  O  O137  1  0.14013055  0.89823258  -0.01411331  1
  O  O138  1  0.12737407  0.84887801  0.25236571  1
  O  O139  1  0.10999773  0.89030951  0.51111037  1
  O  O140  1  0.15599102  0.86413536  0.74837393  1
  O  O141  1  0.37142171  0.12042885  0.00662284  1
  O  O142  1  0.38497350  0.16291626  0.24490140  1
  O  O143  1  0.34662254  0.11632202  0.48514112  1
  O  O144  1  0.39738000  0.13156498  0.75495658  1
  O  O145  1  0.31754977  0.37100790  0.00171072  1
  O  O146  1  0.39533864  0.36598074  0.24034551  1
  O  O147  1  0.35168425  0.40589264  0.50828421  1
  O  O148  1  0.40765366  0.40590097  0.74451268  1
  O  O149  1  0.34819241  0.64479530  -0.00032057  1
  O  O150  1  0.39115295  0.63201439  0.25978988  1
  O  O151  1  0.36024319  0.64049452  0.51303909  1
  O  O152  1  0.41308709  0.61962658  0.74666397  1
  O  O153  1  0.36350644  0.88320806  -0.00472841  1
  O  O154  1  0.39692428  0.87158023  0.24582380  1
  O  O155  1  0.36102542  0.92223562  0.48689031  1
  O  O156  1  0.38733760  0.88506444  0.74740430  1
  O  O157  1  0.64307639  0.12888440  0.00884340  1
  O  O158  1  0.62433261  0.11031379  0.25662922  1
  O  O159  1  0.62703652  0.13540795  0.50860900  1
  O  O160  1  0.62470173  0.12562455  0.74504205  1
  O  O161  1  0.65547492  0.35955752  -0.00231534  1
  O  O162  1  0.62056423  0.39320433  0.25705276  1
  O  O163  1  0.65085243  0.37911779  0.50217229  1
  O  O164  1  0.60044436  0.40255228  0.75318654  1
  O  O165  1  0.65503021  0.63581399  -0.00406285  1
  O  O166  1  0.60218690  0.60289256  0.24885135  1
  O  O167  1  0.65690218  0.64844531  0.51056409  1
  O  O168  1  0.58422524  0.60847070  0.75990471  1
  O  O169  1  0.63570964  0.85393176  -0.00227999  1
  O  O170  1  0.61357877  0.89912355  0.24039096  1
  O  O171  1  0.61821047  0.85710521  0.49478140  1
  O  O172  1  0.64454776  0.86802065  0.75800653  1
  O  O173  1  0.85669836  0.12097121  -0.00888045  1
  O  O174  1  0.90158075  0.13105098  0.24542278  1
  O  O175  1  0.86187097  0.16299806  0.51013971  1
  O  O176  1  0.92246512  0.10003483  0.73351267  1
  O  O177  1  0.88685800  0.36998190  0.00146262  1
  O  O178  1  0.88656134  0.39386605  0.25335475  1
  O  O179  1  0.83797549  0.36632208  0.50630245  1
  O  O180  1  0.87112601  0.40324979  0.74266758  1
  O  O181  1  0.86373633  0.64607882  -0.00999093  1
  O  O182  1  0.88493691  0.60629412  0.24795944  1
  O  O183  1  0.85823957  0.66129598  0.50844160  1
  O  O184  1  0.90552387  0.61555409  0.74277157  1
  O  O185  1  0.88000365  0.86378700  -0.00672771  1
  O  O186  1  0.88818493  0.88830273  0.25006868  1
  O  O187  1  0.90541787  0.86680277  0.50738425  1
  O  O188  1  0.85991035  0.91739773  0.73514063  1
  O  O189  1  0.01105207  0.13808918  0.08550129  1
  O  O190  1  0.01988108  0.14591414  0.38836901  1
  O  O191  1  0.00761377  0.14018084  0.59081033  1
  O  O192  1  0.00781211  0.15508164  0.88048684  1
  O  O193  1  -0.00339204  0.37661419  0.12585867  1
  O  O194  1  -0.00962213  0.38996428  0.40367884  1
  O  O195  1  -0.01041531  0.37030517  0.60388615  1
  O  O196  1  -0.00201069  0.35721474  0.85797305  1
  O  O197  1  0.00466230  0.64894814  0.11353043  1
  O  O198  1  0.00310515  0.61624751  0.40310855  1
  O  O199  1  0.00690711  0.63782118  0.59639400  1
  O  O200  1  -0.00386656  0.65621636  0.87874706  1
  O  O201  1  0.00572046  0.85811546  0.11203683  1
  O  O202  1  0.00358759  0.87357645  0.37402434  1
  O  O203  1  0.00438240  0.87948103  0.65765402  1
  O  O204  1  0.00849488  0.86472454  0.85152299  1
  O  O205  1  0.25183353  0.11348424  0.13337937  1
  O  O206  1  0.24929679  0.12033724  0.33956128  1
  O  O207  1  0.24694261  0.09159202  0.65488916  1
  O  O208  1  0.24795028  0.11313023  0.84168115  1
  O  O209  1  0.24564701  0.38700593  0.15517438  1
  O  O210  1  0.25143359  0.38566278  0.35583126  1
  O  O211  1  0.25640781  0.40867836  0.66042395  1
  O  O212  1  0.24513227  0.41264413  0.84946898  1
  O  O213  1  0.24038184  0.61332878  0.15211997  1
  O  O214  1  0.25390613  0.65565858  0.36977425  1
  O  O215  1  0.25485596  0.59693103  0.66487100  1
  O  O216  1  0.25276001  0.59184892  0.84650240  1
  O  O217  1  0.25696807  0.90490905  0.12671968  1
  O  O218  1  0.25560777  0.87868690  0.35401019  1
  O  O219  1  0.25474028  0.91603804  0.62639573  1
  O  O220  1  0.25857467  0.92256711  0.86552835  1
  O  O221  1  0.50609700  0.15474545  0.12878722  1
  O  O222  1  0.49635732  0.12021046  0.38729379  1
  O  O223  1  0.51280960  0.13592352  0.63000809  1
  O  O224  1  0.50414897  0.14764392  0.89108226  1
  O  O225  1  0.51043997  0.34978480  0.12685509  1
  O  O226  1  0.50106598  0.38905363  0.39348630  1
  O  O227  1  0.49787473  0.37403323  0.58966646  1
  O  O228  1  0.50625406  0.36926623  0.91312391  1
  O  O229  1  0.49317364  0.65331910  0.11842074  1
  O  O230  1  0.49452767  0.64521152  0.39858164  1
  O  O231  1  0.50257775  0.65751383  0.60563829  1
  O  O232  1  0.50326711  0.63828391  0.91425585  1
  O  O233  1  0.49819197  0.85724238  0.11040748  1
  O  O234  1  0.49962109  0.89709906  0.37430943  1
  O  O235  1  0.47500514  0.83677446  0.58215615  1
  O  O236  1  0.49891412  0.84267290  0.87687521  1
  O  O237  1  0.75216062  0.08833878  0.13812775  1
  O  O238  1  0.74291965  0.13829377  0.38279929  1
  O  O239  1  0.75419217  0.11659911  0.64460520  1
  O  O240  1  0.77125260  0.10410891  0.84246111  1
  O  O241  1  0.75691202  0.40892646  0.12855024  1
  O  O242  1  0.75194554  0.33766449  0.36278033  1
  O  O243  1  0.73881019  0.39669829  0.64306427  1
  O  O244  1  0.74484987  0.40552305  0.86088653  1
  O  O245  1  0.75595019  0.61456034  0.12467873  1
  O  O246  1  0.74542861  0.63417802  0.34894959  1
  O  O247  1  0.75729645  0.63007852  0.64300683  1
  O  O248  1  0.75988723  0.61648045  0.84281705  1
  O  O249  1  0.74548805  0.90394281  0.12918928  1
  O  O250  1  0.74288952  0.87192061  0.35683582  1
  O  O251  1  0.75950687  0.84066499  0.60132576  1
  O  O252  1  0.76214378  0.90471859  0.87808519  1
  O  O253  1  0.10988939  0.00630457  0.13082938  1
  O  O254  1  0.13073650  0.00596284  0.36521913  1
  O  O255  1  0.10676158  0.00602258  0.65005373  1
  O  O256  1  0.10661855  0.00383115  0.82702795  1
  O  O257  1  0.13815869  0.24479938  0.08971313  1
  O  O258  1  0.15620964  0.24768866  0.38609556  1
  O  O259  1  0.16256591  0.25975533  0.61430801  1
  O  O260  1  0.14582613  0.25615952  0.89341970  1
  O  O261  1  0.10128349  0.50765211  0.12169993  1
  O  O262  1  0.14805658  0.51156324  0.38026904  1
  O  O263  1  0.10011988  0.50328958  0.64171615  1
  O  O264  1  0.09509338  0.49616880  0.86604539  1
  O  O265  1  0.15263321  0.74873542  0.11391823  1
  O  O266  1  0.12051159  0.74372015  0.41378650  1
  O  O267  1  0.14777523  0.75534115  0.61714276  1
  O  O268  1  0.15345265  0.76063183  0.87755416  1
  O  O269  1  0.39548271  0.00678106  0.13964556  1
  O  O270  1  0.36969357  0.00959058  0.33383965  1
  O  O271  1  0.40900044  -0.01228335  0.62470110  1
  O  O272  1  0.41751434  -0.00223197  0.86689196  1
  O  O273  1  0.36633390  0.25605761  0.10487697  1
  O  O274  1  0.35297681  0.24954864  0.38324372  1
  O  O275  1  0.36528104  0.26604235  0.61703671  1
  O  O276  1  0.36909862  0.25391506  0.89257365  1
  O  O277  1  0.39939327  0.48778049  0.10226146  1
  O  O278  1  0.35873787  0.51478266  0.38969202  1
  O  O279  1  0.40657740  0.51195861  0.62389576  1
  O  O280  1  0.39443717  0.50108347  0.90856975  1
  O  O281  1  0.35210272  0.75911655  0.11943397  1
  O  O282  1  0.38360460  0.76656771  0.40708016  1
  O  O283  1  0.34242410  0.75038777  0.64188894  1
  O  O284  1  0.34256903  0.76109644  0.86596631  1
  O  O285  1  0.61042809  0.00051702  0.10213977  1
  O  O286  1  0.63408140  0.00245445  0.38559848  1
  O  O287  1  0.61657521  -0.01229439  0.62129441  1
  O  O288  1  0.61237969  -0.01881605  0.87954225  1
  O  O289  1  0.66561090  0.23816194  0.13026209  1
  O  O290  1  0.61280455  0.25363368  0.39236288  1
  O  O291  1  0.61639548  0.26582841  0.62835574  1
  O  O292  1  0.65101161  0.26149944  0.86571405  1
  O  O293  1  0.59457068  0.49870570  0.08547053  1
  O  O294  1  0.65235302  0.49681276  0.38908381  1
  O  O295  1  0.59816367  0.50847289  0.61836573  1
  O  O296  1  0.61029407  0.50176072  0.90594363  1
  O  O297  1  0.64781142  0.75489336  0.13724735  1
  O  O298  1  0.62542153  0.75606922  0.34663345  1
  O  O299  1  0.63110188  0.73805021  0.65804030  1
  O  O300  1  0.64466558  0.73977165  0.86114921  1
  O  O301  1  0.91103538  0.00450473  0.13106835  1
  O  O302  1  0.88583328  0.00099209  0.38300187  1
  O  O303  1  0.87047265  0.01106154  0.57460471  1
  O  O304  1  0.91599424  -0.00072495  0.87547422  1
  O  O305  1  0.85619841  0.25639722  0.13554108  1
  O  O306  1  0.88998996  0.25802113  0.35918652  1
  O  O307  1  0.87023019  0.25377984  0.65126108  1
  O  O308  1  0.86521426  0.23837969  0.84533795  1
  O  O309  1  0.90250593  0.50737706  0.11022300  1
  O  O310  1  0.83575322  0.49434102  0.38930221  1
  O  O311  1  0.88361590  0.50635159  0.60072339  1
  O  O312  1  0.90160480  0.50549993  0.88205660  1
  O  O313  1  0.86884855  0.74832150  0.12312942  1
  O  O314  1  0.88115204  0.74895739  0.35885408  1
  O  O315  1  0.88663646  0.75458061  0.65012042  1
  O  O316  1  0.86804676  0.76497520  0.84292611  1
