# generated using pymatgen
data_Mg32Ti42(Bi17O64)3
_symmetry_space_group_name_H-M   'P 1'
_cell_length_a   15.94845441
_cell_length_b   15.93855786
_cell_length_c   15.93540752
_cell_angle_alpha   89.99426159
_cell_angle_beta   90.10745338
_cell_angle_gamma   90.04080453
_symmetry_Int_Tables_number   1
_chemical_formula_structural   Mg32Ti42(Bi17O64)3
_chemical_formula_sum   'Mg32 Ti42 Bi51 O192'
_cell_volume   4050.69853670
_cell_formula_units_Z   1
loop_
 _symmetry_equiv_pos_site_id
 _symmetry_equiv_pos_as_xyz
  1  'x, y, z'
loop_
 _atom_site_type_symbol
 _atom_site_label
 _atom_site_symmetry_multiplicity
 _atom_site_fract_x
 _atom_site_fract_y
 _atom_site_fract_z
 _atom_site_occupancy
  Mg  Mg0  1  0.61389079  0.38246822  0.86618672  1
  Mg  Mg1  1  0.37100216  0.87241309  0.13880832  1
  Mg  Mg2  1  0.88370439  0.12226484  0.37617557  1
  Mg  Mg3  1  0.60495868  0.11446996  0.12462106  1
  Mg  Mg4  1  0.36977049  0.36363263  0.13087857  1
  Mg  Mg5  1  0.61787525  0.12938815  0.88049177  1
  Mg  Mg6  1  0.86922823  0.87277558  0.36861129  1
  Mg  Mg7  1  0.39229626  0.62178640  0.61948388  1
  Mg  Mg8  1  0.61703981  0.12635038  0.36168859  1
  Mg  Mg9  1  0.63613294  0.13036668  0.62784616  1
  Mg  Mg10  1  0.13252084  0.11714688  0.12942435  1
  Mg  Mg11  1  0.13122397  0.37996488  0.37708853  1
  Mg  Mg12  1  0.62453351  0.62648766  0.11762845  1
  Mg  Mg13  1  0.87758279  0.13690697  0.11160054  1
  Mg  Mg14  1  0.86720473  0.87239623  0.12850246  1
  Mg  Mg15  1  0.36928893  0.88436339  0.86880684  1
  Mg  Mg16  1  0.87124921  0.37452143  0.36746933  1
  Mg  Mg17  1  0.11781041  0.13649799  0.87764516  1
  Mg  Mg18  1  0.11643805  0.87057494  0.86483972  1
  Mg  Mg19  1  0.02403886  0.23037826  0.02359189  1
  Mg  Mg20  1  -0.03419497  0.48378408  0.76307282  1
  Mg  Mg21  1  0.71335762  0.04632272  0.75644458  1
  Mg  Mg22  1  0.53188838  0.29272829  0.19097573  1
  Mg  Mg23  1  0.51580459  -0.03049273  0.23033605  1
  Mg  Mg24  1  0.71750734  0.25307514  0.79858466  1
  Mg  Mg25  1  0.30686795  -0.00820623  0.28499350  1
  Mg  Mg26  1  0.70493982  0.24852375  0.18350529  1
  Mg  Mg27  1  0.53991793  0.52093052  0.44422244  1
  Mg  Mg28  1  -0.03388756  -0.01511120  0.75262585  1
  Mg  Mg29  1  0.00547463  0.72569139  0.49637787  1
  Mg  Mg30  1  0.47222379  0.53824141  0.82193111  1
  Mg  Mg31  1  0.67452731  0.28856781  0.01294717  1
  Ti  Ti32  1  0.12656190  0.88449037  0.13830343  1
  Ti  Ti33  1  0.87020838  0.61838772  0.88881937  1
  Ti  Ti34  1  0.61927986  0.35951029  0.36063641  1
  Ti  Ti35  1  0.12641762  0.62582324  0.37967078  1
  Ti  Ti36  1  0.12965769  0.86510195  0.36824986  1
  Ti  Ti37  1  0.38395686  0.87514169  0.62621148  1
  Ti  Ti38  1  0.87441847  0.36362553  0.12228532  1
  Ti  Ti39  1  0.38339015  0.37045101  0.86477515  1
  Ti  Ti40  1  0.87403919  0.87486412  0.87602624  1
  Ti  Ti41  1  0.87655385  0.87150713  0.62952561  1
  Ti  Ti42  1  0.37874924  0.11680310  0.14315662  1
  Ti  Ti43  1  0.86551183  0.37531663  0.87466165  1
  Ti  Ti44  1  0.37564535  0.61802414  0.38710261  1
  Ti  Ti45  1  0.13005216  0.37918893  0.85614225  1
  Ti  Ti46  1  0.62366011  0.37098692  0.62280394  1
  Ti  Ti47  1  0.11178574  0.86918660  0.63440227  1
  Ti  Ti48  1  0.12314540  0.11314557  0.37521500  1
  Ti  Ti49  1  0.87340732  0.14217457  0.86876742  1
  Ti  Ti50  1  0.38764282  0.86545258  0.37820577  1
  Ti  Ti51  1  0.11989891  0.36897920  0.12479205  1
  Ti  Ti52  1  0.63541011  0.62207244  0.88039970  1
  Ti  Ti53  1  0.87660585  0.11225378  0.63194315  1
  Ti  Ti54  1  0.63177108  0.61295357  0.62406430  1
  Ti  Ti55  1  0.12448948  0.38428469  0.62522596  1
  Ti  Ti56  1  0.11656203  0.62572875  0.87617383  1
  Ti  Ti57  1  0.88550660  0.62152185  0.37456425  1
  Ti  Ti58  1  0.37968397  0.12598575  0.37969149  1
  Ti  Ti59  1  0.11695667  0.11488170  0.61767392  1
  Ti  Ti60  1  0.87261798  0.37224150  0.62833862  1
  Ti  Ti61  1  0.11206617  0.61458019  0.12000481  1
  Ti  Ti62  1  0.62786776  0.88111088  0.87375363  1
  Ti  Ti63  1  0.62760670  0.87585190  0.11936329  1
  Ti  Ti64  1  0.37302909  0.62211927  0.12257711  1
  Ti  Ti65  1  0.88364892  0.61908395  0.62911743  1
  Ti  Ti66  1  0.39309556  0.36681725  0.62688377  1
  Ti  Ti67  1  0.62705849  0.88626447  0.36481305  1
  Ti  Ti68  1  0.37480989  0.36505664  0.37488088  1
  Ti  Ti69  1  0.36898901  0.12163069  0.62034620  1
  Ti  Ti70  1  0.36851414  0.12016651  0.86862327  1
  Ti  Ti71  1  0.64181025  0.88532984  0.62499556  1
  Ti  Ti72  1  0.11021434  0.61822308  0.64344898  1
  Ti  Ti73  1  0.87503118  0.61284968  0.13018439  1
  Bi  Bi74  1  0.24761982  0.48864859  0.21582287  1
  Bi  Bi75  1  0.22886813  0.23402315  0.24944017  1
  Bi  Bi76  1  0.24809483  -0.01936303  0.74396810  1
  Bi  Bi77  1  0.22153038  -0.01930541  -0.01813143  1
  Bi  Bi78  1  -0.00339129  0.76668944  0.02496050  1
  Bi  Bi79  1  0.73298125  0.48480678  0.75954143  1
  Bi  Bi80  1  -0.00906292  0.74289015  0.78218781  1
  Bi  Bi81  1  0.77268395  0.00028586  0.47618798  1
  Bi  Bi82  1  0.23125221  0.75295396  0.03188008  1
  Bi  Bi83  1  0.50976660  0.00316474  0.74750401  1
  Bi  Bi84  1  0.74697717  0.76227276  0.01576045  1
  Bi  Bi85  1  0.01387791  0.48913616  0.25989268  1
  Bi  Bi86  1  0.71609493  0.52002643  0.25494252  1
  Bi  Bi87  1  0.74125529  0.03856761  0.00130440  1
  Bi  Bi88  1  0.24882744  -0.03286547  0.49510529  1
  Bi  Bi89  1  0.74836195  0.04871389  0.23226668  1
  Bi  Bi90  1  0.77115176  0.74083717  0.51740098  1
  Bi  Bi91  1  0.28606527  0.71027080  0.77336478  1
  Bi  Bi92  1  0.00370461  0.46367665  -0.01532780  1
  Bi  Bi93  1  0.51816308  0.23036827  0.49220084  1
  Bi  Bi94  1  0.24018073  0.73742210  0.54174403  1
  Bi  Bi95  1  0.46197551  -0.01504723  0.01800806  1
  Bi  Bi96  1  0.74327705  0.75655899  0.76838306  1
  Bi  Bi97  1  0.24952731  0.22947711  0.00093777  1
  Bi  Bi98  1  0.26307074  0.73049829  0.25721534  1
  Bi  Bi99  1  0.73085282  0.72744422  0.27378251  1
  Bi  Bi100  1  0.72707765  0.47719817  0.02965431  1
  Bi  Bi101  1  0.48467363  0.23833622  0.00414000  1
  Bi  Bi102  1  0.26100894  0.51233577  -0.03594248  1
  Bi  Bi103  1  -0.00450702  -0.03915672  0.48605025  1
  Bi  Bi104  1  -0.03013732  0.00810728  0.22137500  1
  Bi  Bi105  1  -0.00170570  0.25146836  0.72713757  1
  Bi  Bi106  1  0.73388397  0.47933090  0.49076714  1
  Bi  Bi107  1  0.27758283  0.50297751  0.72797443  1
  Bi  Bi108  1  0.46257701  0.74860143  -0.03139470  1
  Bi  Bi109  1  0.49530333  0.46952324  0.02592073  1
  Bi  Bi110  1  0.51110917  0.73095896  0.22893390  1
  Bi  Bi111  1  0.50698569  0.22881639  0.74909835  1
  Bi  Bi112  1  0.51543779  0.73625819  0.74167737  1
  Bi  Bi113  1  -0.00395421  0.26060505  0.47196085  1
  Bi  Bi114  1  0.23181107  0.22443397  0.74134152  1
  Bi  Bi115  1  0.51562010  -0.00489563  0.48712339  1
  Bi  Bi116  1  -0.00282299  0.48643874  0.50206218  1
  Bi  Bi117  1  0.24047475  0.23118813  0.48458554  1
  Bi  Bi118  1  0.76076046  0.23524807  0.47338993  1
  Bi  Bi119  1  -0.02461037  0.24705846  0.24921405  1
  Bi  Bi120  1  0.48062392  0.49970207  0.25154311  1
  Bi  Bi121  1  0.28282839  0.47901310  0.50357008  1
  Bi  Bi122  1  0.54290987  0.72649184  0.48397241  1
  Bi  Bi123  1  -0.02340498  0.75600317  0.25712221  1
  Bi  Bi124  1  -0.00928260  0.02762918  -0.01331838  1
  O  O125  1  0.13155171  0.16565170  0.00792953  1
  O  O126  1  0.15251439  0.11528532  0.26043856  1
  O  O127  1  0.12065237  0.15486716  0.50285357  1
  O  O128  1  0.14113488  0.11976772  0.74229563  1
  O  O129  1  0.08956052  0.34657417  0.01041951  1
  O  O130  1  0.12987184  0.40894750  0.24932853  1
  O  O131  1  0.09181338  0.36997381  0.50781568  1
  O  O132  1  0.14885170  0.40893587  0.74903485  1
  O  O133  1  0.14337497  0.64311528  -0.00676240  1
  O  O134  1  0.10654848  0.60041030  0.23919308  1
  O  O135  1  0.12986386  0.66172778  0.49271113  1
  O  O136  1  0.08419176  0.59312593  0.75094327  1
  O  O137  1  0.14862814  0.86098748  -0.00283684  1
  O  O138  1  0.10228035  0.89279347  0.25113831  1
  O  O139  1  0.15535515  0.85896324  0.49253839  1
  O  O140  1  0.08553856  0.90933060  0.74019432  1
  O  O141  1  0.38560329  0.14132418  0.00304120  1
  O  O142  1  0.34477601  0.10933826  0.25916547  1
  O  O143  1  0.38787676  0.15071226  0.50593309  1
  O  O144  1  0.34320510  0.11013074  0.75085749  1
  O  O145  1  0.40903219  0.35822366  0.00181861  1
  O  O146  1  0.36654699  0.40414485  0.26018879  1
  O  O147  1  0.37852116  0.36590328  0.50688564  1
  O  O148  1  0.35238438  0.38566354  0.74882398  1
  O  O149  1  0.36960922  0.64962489  0.01038010  1
  O  O150  1  0.37448628  0.59876610  0.25855634  1
  O  O151  1  0.35237040  0.64103864  0.49988642  1
  O  O152  1  0.38066522  0.60497892  0.74843215  1
  O  O153  1  0.37875865  0.86432571  0.00310530  1
  O  O154  1  0.39909690  0.90830323  0.26311491  1
  O  O155  1  0.35186525  0.86817803  0.50013718  1
  O  O156  1  0.37291464  0.91099951  0.74096423  1
  O  O157  1  0.61384551  0.09172898  -0.00119937  1
  O  O158  1  0.65155617  0.14678588  0.24390310  1
  O  O159  1  0.59297352  0.11321483  0.50691482  1
  O  O160  1  0.63737538  0.16263545  0.75347146  1
  O  O161  1  0.61205839  0.39997979  -0.00611879  1
  O  O162  1  0.63588947  0.33053830  0.25337971  1
  O  O163  1  0.60955878  0.41913618  0.50473982  1
  O  O164  1  0.66163974  0.35873694  0.74129646  1
  O  O165  1  0.64297126  0.60486513  -0.00652080  1
  O  O166  1  0.62970739  0.63116089  0.24909630  1
  O  O167  1  0.61658156  0.60697634  0.50346663  1
  O  O168  1  0.63349591  0.66090293  0.74015741  1
  O  O169  1  0.65149132  0.87843346  -0.00111748  1
  O  O170  1  0.59881596  0.86159964  0.25441665  1
  O  O171  1  0.63435181  0.92068463  0.50741126  1
  O  O172  1  0.61947103  0.84355774  0.74915598  1
  O  O173  1  0.86325518  0.10917018  -0.01194018  1
  O  O174  1  0.88289055  0.12706911  0.24654318  1
  O  O175  1  0.86959283  0.12179349  0.51608281  1
  O  O176  1  0.91202451  0.11249080  0.76190970  1
  O  O177  1  0.89122545  0.37367552  -0.01185567  1
  O  O178  1  0.86863528  0.34941464  0.23854609  1
  O  O179  1  0.91061754  0.37013925  0.50981564  1
  O  O180  1  0.86078593  0.40458865  0.74728906  1
  O  O181  1  0.85240088  0.63242257  0.00029518  1
  O  O182  1  0.90882354  0.61345257  0.24480373  1
  O  O183  1  0.88258354  0.65611594  0.48894691  1
  O  O184  1  0.89788436  0.60264235  0.74041322  1
  O  O185  1  0.85809955  0.84881571  -0.00559963  1
  O  O186  1  0.90802418  0.87988618  0.24891253  1
  O  O187  1  0.85534605  0.87347108  0.50333063  1
  O  O188  1  0.90415602  0.87067845  0.74631893  1
  O  O189  1  0.00569166  0.10595129  0.11492023  1
  O  O190  1  0.01074056  0.14625288  0.36713095  1
  O  O191  1  0.00540973  0.14758607  0.62929979  1
  O  O192  1  -0.00683627  0.15204867  0.91430912  1
  O  O193  1  0.00121763  0.40888992  0.13838334  1
  O  O194  1  0.00197809  0.34930503  0.35906210  1
  O  O195  1  -0.00127565  0.38475570  0.66335127  1
  O  O196  1  0.00383305  0.38798747  0.85447830  1
  O  O197  1  0.00039212  0.60435532  0.09598151  1
  O  O198  1  0.00596978  0.65703102  0.38199929  1
  O  O199  1  -0.00035631  0.64815033  0.60320746  1
  O  O200  1  -0.00453181  0.64345538  0.88848908  1
  O  O201  1  0.00862304  0.88410669  0.09956886  1
  O  O202  1  0.01073315  0.84771532  0.40486937  1
  O  O203  1  0.00090564  0.85026697  0.58856180  1
  O  O204  1  -0.00410991  0.83657374  0.88673745  1
  O  O205  1  0.25997425  0.15993151  0.12111728  1
  O  O206  1  0.24998466  0.11565200  0.40839814  1
  O  O207  1  0.24742610  0.14384074  0.61299898  1
  O  O208  1  0.25168402  0.13929686  0.89062859  1
  O  O209  1  0.24287051  0.36140480  0.13349836  1
  O  O210  1  0.25795438  0.39658071  0.39341382  1
  O  O211  1  0.24042658  0.38512110  0.60514360  1
  O  O212  1  0.24865738  0.38604831  0.90018313  1
  O  O213  1  0.24902287  0.64193756  0.14018180  1
  O  O214  1  0.24569702  0.61902439  0.35810929  1
  O  O215  1  0.23476262  0.62624020  0.64123074  1
  O  O216  1  0.23692462  0.60157067  0.85108051  1
  O  O217  1  0.24337287  0.84486463  0.14644934  1
  O  O218  1  0.24999740  0.90428408  0.35755359  1
  O  O219  1  0.23860330  0.89100854  0.63486548  1
  O  O220  1  0.24094973  0.89863383  0.85548569  1
  O  O221  1  0.48888913  0.07728835  0.15727044  1
  O  O222  1  0.49047211  0.15398483  0.37174349  1
  O  O223  1  0.49112791  0.12023173  0.66051764  1
  O  O224  1  0.49346375  0.12330985  0.84150663  1
  O  O225  1  0.49260992  0.40421587  0.14739338  1
  O  O226  1  0.49952609  0.36046834  0.36385840  1
  O  O227  1  0.50607445  0.37394440  0.64113136  1
  O  O228  1  0.49283013  0.38751778  0.84249796  1
  O  O229  1  0.49414509  0.60568748  0.14122297  1
  O  O230  1  0.49359435  0.63324952  0.38593825  1
  O  O231  1  0.51393633  0.64942472  0.62600092  1
  O  O232  1  0.51753408  0.65082059  0.86479086  1
  O  O233  1  0.50469665  0.89828477  0.12031989  1
  O  O234  1  0.49920028  0.86215452  0.40724152  1
  O  O235  1  0.49870505  0.88568385  0.62121783  1
  O  O236  1  0.51368113  0.86970149  0.88684856  1
  O  O237  1  0.75014773  0.13209716  0.11591787  1
  O  O238  1  0.74695634  0.11521380  0.39443315  1
  O  O239  1  0.76487271  0.10479348  0.65377757  1
  O  O240  1  0.75814271  0.10163283  0.86425624  1
  O  O241  1  0.75930364  0.33765518  0.09572219  1
  O  O242  1  0.74660897  0.37316741  0.40231498  1
  O  O243  1  0.75572413  0.38778218  0.59549800  1
  O  O244  1  0.75212291  0.40294196  0.88108138  1
  O  O245  1  0.76199845  0.64491567  0.14938630  1
  O  O246  1  0.76521894  0.61819546  0.35530690  1
  O  O247  1  0.75552896  0.62492298  0.60717238  1
  O  O248  1  0.75521943  0.60970005  0.85034487  1
  O  O249  1  0.74218142  0.84044323  0.13559802  1
  O  O250  1  0.74041075  0.91484734  0.36257671  1
  O  O251  1  0.75639279  0.89117028  0.64164457  1
  O  O252  1  0.75947406  0.88180429  0.84990835  1
  O  O253  1  0.14964442  -0.00677504  0.10704395  1
  O  O254  1  0.10761277  -0.00130123  0.39719931  1
  O  O255  1  0.11420900  0.00322500  0.59716885  1
  O  O256  1  0.11023541  0.00936319  0.90588967  1
  O  O257  1  0.10716633  0.25790161  0.16493131  1
  O  O258  1  0.15350324  0.25148778  0.36960008  1
  O  O259  1  0.12311030  0.26587104  0.65351189  1
  O  O260  1  0.13179844  0.26238533  0.84192897  1
  O  O261  1  0.14951103  0.50065275  0.10267850  1
  O  O262  1  0.10063913  0.51145731  0.38908738  1
  O  O263  1  0.11093494  0.50844920  0.60231560  1
  O  O264  1  0.12017812  0.49847295  0.90485786  1
  O  O265  1  0.11207693  0.74446104  0.11884794  1
  O  O266  1  0.14369260  0.75356187  0.34061735  1
  O  O267  1  0.13395085  0.75463963  0.64493154  1
  O  O268  1  0.13081561  0.73790722  0.84113887  1
  O  O269  1  0.35209285  0.00435546  0.10764883  1
  O  O270  1  0.38123562  0.00922894  0.39534953  1
  O  O271  1  0.36671332  0.00766880  0.60157022  1
  O  O272  1  0.37746353  0.00796429  0.89405224  1
  O  O273  1  0.42469960  0.24129877  0.13651368  1
  O  O274  1  0.34747065  0.25328639  0.36711493  1
  O  O275  1  0.38448036  0.25155100  0.64863487  1
  O  O276  1  0.38571554  0.25047702  0.86579982  1
  O  O277  1  0.35181909  0.50335790  0.10779943  1
  O  O278  1  0.40116452  0.50224586  0.40826375  1
  O  O279  1  0.36974155  0.49429245  0.61905950  1
  O  O280  1  0.38444142  0.49244558  0.89956555  1
  O  O281  1  0.38904716  0.74427893  0.15868140  1
  O  O282  1  0.36901290  0.75325289  0.35761127  1
  O  O283  1  0.36755991  0.75982794  0.64582807  1
  O  O284  1  0.38066624  0.76024437  0.86022045  1
  O  O285  1  0.64475054  -0.01070130  0.15046412  1
  O  O286  1  0.57875902  -0.00001892  0.35572911  1
  O  O287  1  0.62491161  0.00220579  0.66709249  1
  O  O288  1  0.62480252  -0.00505145  0.84080200  1
  O  O289  1  0.60283455  0.24155787  0.10306724  1
  O  O290  1  0.63157297  0.24949196  0.40969936  1
  O  O291  1  0.62549320  0.25852004  0.59659638  1
  O  O292  1  0.63959713  0.25600530  0.89898758  1
  O  O293  1  0.64670755  0.50182024  0.13566833  1
  O  O294  1  0.62065970  0.48333002  0.35065915  1
  O  O295  1  0.63260043  0.50336800  0.64972298  1
  O  O296  1  0.60915168  0.51329787  0.83919741  1
  O  O297  1  0.59333939  0.75166991  0.11880402  1
  O  O298  1  0.64454166  0.76926071  0.39562696  1
  O  O299  1  0.64261788  0.76728745  0.59260853  1
  O  O300  1  0.66275813  0.75017487  0.88507521  1
  O  O301  1  0.86428304  -0.00058676  0.13434114  1
  O  O302  1  0.88995189  -0.00252540  0.39213612  1
  O  O303  1  0.90871704  -0.00473071  0.63500836  1
  O  O304  1  0.91189700  -0.01472353  0.87109945  1
  O  O305  1  0.92459314  0.25607739  0.10592556  1
  O  O306  1  0.87018668  0.24755145  0.39168165  1
  O  O307  1  0.87872179  0.25654239  0.64454010  1
  O  O308  1  0.84310621  0.25606587  0.84891802  1
  O  O309  1  0.85067915  0.49453294  0.12228962  1
  O  O310  1  0.89519903  0.50363954  0.38684386  1
  O  O311  1  0.88723650  0.50611262  0.60088718  1
  O  O312  1  0.89678897  0.50363131  0.87890396  1
  O  O313  1  0.90412420  0.74308683  0.13171762  1
  O  O314  1  0.86369348  0.74813021  0.34120786  1
  O  O315  1  0.85648385  0.75187865  0.62953473  1
  O  O316  1  0.86328505  0.74035947  0.85225318  1
