# generated using pymatgen
data_Mg32Ti42(Bi17O64)3
_symmetry_space_group_name_H-M   'P 1'
_cell_length_a   15.94421911
_cell_length_b   15.92334946
_cell_length_c   15.96244051
_cell_angle_alpha   89.89076773
_cell_angle_beta   90.02274970
_cell_angle_gamma   90.00457038
_symmetry_Int_Tables_number   1
_chemical_formula_structural   Mg32Ti42(Bi17O64)3
_chemical_formula_sum   'Mg32 Ti42 Bi51 O192'
_cell_volume   4052.62246019
_cell_formula_units_Z   1
loop_
 _symmetry_equiv_pos_site_id
 _symmetry_equiv_pos_as_xyz
  1  'x, y, z'
loop_
 _atom_site_type_symbol
 _atom_site_label
 _atom_site_symmetry_multiplicity
 _atom_site_fract_x
 _atom_site_fract_y
 _atom_site_fract_z
 _atom_site_occupancy
  Mg  Mg0  1  0.13414041  0.61903049  0.12353675  1
  Mg  Mg1  1  0.12413171  0.37365772  0.87040280  1
  Mg  Mg2  1  0.62735443  0.62327245  0.12668743  1
  Mg  Mg3  1  0.87808463  0.37892267  0.63340293  1
  Mg  Mg4  1  0.88475330  0.12550273  0.62998535  1
  Mg  Mg5  1  0.87248046  0.63005618  0.36997429  1
  Mg  Mg6  1  0.61057000  0.12187054  0.13340719  1
  Mg  Mg7  1  0.87519992  0.87733893  0.62939016  1
  Mg  Mg8  1  0.62655974  0.61850039  0.86994657  1
  Mg  Mg9  1  0.38001439  0.12898499  0.88081971  1
  Mg  Mg10  1  0.12822271  0.62835375  0.85502511  1
  Mg  Mg11  1  0.87880005  0.62851918  0.63209639  1
  Mg  Mg12  1  0.12120887  0.88001747  0.87420429  1
  Mg  Mg13  1  0.87682962  0.13279954  0.13399175  1
  Mg  Mg14  1  0.63120305  0.62363531  0.61888876  1
  Mg  Mg15  1  0.37831809  0.12675268  0.62350673  1
  Mg  Mg16  1  0.11337215  0.87882642  0.11799541  1
  Mg  Mg17  1  0.62664199  0.13061526  0.37556917  1
  Mg  Mg18  1  0.38241879  0.87571518  0.88277964  1
  Mg  Mg19  1  0.73331345  0.72639178  0.45975462  1
  Mg  Mg20  1  0.50346631  -0.05837271  0.01216219  1
  Mg  Mg21  1  0.68230421  0.28043186  0.22534204  1
  Mg  Mg22  1  0.00720789  0.50241402  0.76805077  1
  Mg  Mg23  1  -0.05705501  0.72799494  0.49588339  1
  Mg  Mg24  1  -0.04432906  0.01593576  0.02820520  1
  Mg  Mg25  1  0.72051857  0.44898238  0.07847202  1
  Mg  Mg26  1  0.25393411  0.79828223  0.79058462  1
  Mg  Mg27  1  0.50450516  0.00685510  0.81925151  1
  Mg  Mg28  1  -0.00446451  0.48816934  0.40861266  1
  Mg  Mg29  1  0.02028072  0.48968529  0.19025872  1
  Mg  Mg30  1  0.43610230  0.49080300  0.49234733  1
  Mg  Mg31  1  0.45167162  -0.01561545  0.23041944  1
  Ti  Ti32  1  0.87169430  0.88895077  0.87868738  1
  Ti  Ti33  1  0.88058957  0.38844474  0.88047377  1
  Ti  Ti34  1  0.12118735  0.87151863  0.38161617  1
  Ti  Ti35  1  0.37208229  0.63170389  0.85899833  1
  Ti  Ti36  1  0.36830826  0.86592202  0.12212143  1
  Ti  Ti37  1  0.62088781  0.13057550  0.88506718  1
  Ti  Ti38  1  0.62243706  0.12049696  0.62425217  1
  Ti  Ti39  1  0.38220592  0.87044434  0.62978484  1
  Ti  Ti40  1  0.37850566  0.37715847  0.36506869  1
  Ti  Ti41  1  0.62473254  0.87905900  0.13260473  1
  Ti  Ti42  1  0.36972945  0.86566359  0.36728310  1
  Ti  Ti43  1  0.12882733  0.87329041  0.63659605  1
  Ti  Ti44  1  0.37672811  0.37277382  0.86346839  1
  Ti  Ti45  1  0.11251848  0.63365028  0.37782719  1
  Ti  Ti46  1  0.87467587  0.62735930  0.86537247  1
  Ti  Ti47  1  0.36446331  0.61482908  0.12380453  1
  Ti  Ti48  1  0.62874093  0.37155752  0.60821291  1
  Ti  Ti49  1  0.88528641  0.36571242  0.12596521  1
  Ti  Ti50  1  0.86434638  0.87312813  0.11881838  1
  Ti  Ti51  1  0.12711631  0.12267073  0.87041943  1
  Ti  Ti52  1  0.88555397  0.12273168  0.37089381  1
  Ti  Ti53  1  0.36708476  0.11310120  0.37578233  1
  Ti  Ti54  1  0.86392432  0.60683395  0.11460724  1
  Ti  Ti55  1  0.37482176  0.61843558  0.62011388  1
  Ti  Ti56  1  0.12964443  0.37539557  0.11048174  1
  Ti  Ti57  1  0.86776180  0.12838702  0.88034078  1
  Ti  Ti58  1  0.36295725  0.61949839  0.36553564  1
  Ti  Ti59  1  0.36031677  0.37879952  0.12092589  1
  Ti  Ti60  1  0.87048868  0.86219279  0.37649529  1
  Ti  Ti61  1  0.37430984  0.11715446  0.11912802  1
  Ti  Ti62  1  0.64719059  0.37397432  0.87587137  1
  Ti  Ti63  1  0.37670245  0.37115929  0.62062954  1
  Ti  Ti64  1  0.62662390  0.61261099  0.37532575  1
  Ti  Ti65  1  0.60580593  0.38107860  0.38228601  1
  Ti  Ti66  1  0.11237177  0.36871414  0.62452607  1
  Ti  Ti67  1  0.11445258  0.12349563  0.11389928  1
  Ti  Ti68  1  0.62677549  0.87042341  0.36739819  1
  Ti  Ti69  1  0.10235587  0.63148809  0.61937593  1
  Ti  Ti70  1  0.12473164  0.11928145  0.61594056  1
  Ti  Ti71  1  0.62103269  0.87996301  0.61823491  1
  Ti  Ti72  1  0.12010373  0.11166702  0.38212640  1
  Ti  Ti73  1  0.62606082  0.87645027  0.88181929  1
  Bi  Bi74  1  -0.00568816  0.76384325  -0.00854831  1
  Bi  Bi75  1  0.22966875  0.26878478  0.46027151  1
  Bi  Bi76  1  0.49796271  0.72844796  0.22676966  1
  Bi  Bi77  1  0.73370174  0.03478166  0.26128280  1
  Bi  Bi78  1  0.24410450  0.24299807  -0.02352070  1
  Bi  Bi79  1  0.50431653  0.26960778  0.02550889  1
  Bi  Bi80  1  0.72904364  0.25762863  0.02762758  1
  Bi  Bi81  1  0.49334963  0.72162733  0.48479461  1
  Bi  Bi82  1  -0.01070581  0.25861625  0.00911489  1
  Bi  Bi83  1  0.75784497  0.24334588  0.72840034  1
  Bi  Bi84  1  0.76539546  0.26991433  0.44892813  1
  Bi  Bi85  1  0.02319400  0.53475892  -0.01886362  1
  Bi  Bi86  1  0.22460936  -0.00392046  0.24218099  1
  Bi  Bi87  1  -0.01012974  0.71018128  0.23079203  1
  Bi  Bi88  1  0.52408406  0.47991426  0.73150363  1
  Bi  Bi89  1  0.22425366  0.48876967  0.73671490  1
  Bi  Bi90  1  0.28452503  0.00743656  0.75614021  1
  Bi  Bi91  1  0.01243810  0.29630109  0.28762673  1
  Bi  Bi92  1  0.51609007  0.23212799  0.73890900  1
  Bi  Bi93  1  0.22908043  0.23180797  0.23398000  1
  Bi  Bi94  1  0.75961185  0.50330017  0.72566736  1
  Bi  Bi95  1  0.24316650  -0.00486245  -0.01385561  1
  Bi  Bi96  1  0.51372586  0.72876122  0.72297508  1
  Bi  Bi97  1  0.74953143  0.75493763  0.72647936  1
  Bi  Bi98  1  -0.01526862  0.26496834  0.76403635  1
  Bi  Bi99  1  0.50334884  -0.01412799  0.46982312  1
  Bi  Bi100  1  0.22169257  0.75797932  0.23254280  1
  Bi  Bi101  1  0.26363456  -0.00519454  0.52201591  1
  Bi  Bi102  1  0.51575463  0.72135197  0.00051584  1
  Bi  Bi103  1  0.74385698  0.71965028  -0.01189627  1
  Bi  Bi104  1  0.50942443  0.49439786  -0.02954428  1
  Bi  Bi105  1  0.77319017  0.03551600  0.50604567  1
  Bi  Bi106  1  0.78872982  0.46506883  0.28233058  1
  Bi  Bi107  1  0.47744769  0.22355661  0.25455454  1
  Bi  Bi108  1  0.73175510  0.02152800  0.02307042  1
  Bi  Bi109  1  -0.01465375  0.01645236  0.76103752  1
  Bi  Bi110  1  0.73008231  -0.01776883  0.75065283  1
  Bi  Bi111  1  0.49768766  0.21948134  0.48668394  1
  Bi  Bi112  1  -0.01509711  -0.03073685  0.49832208  1
  Bi  Bi113  1  0.21874099  0.50322626  0.50290702  1
  Bi  Bi114  1  0.26174627  0.50592428  -0.03180237  1
  Bi  Bi115  1  0.22600295  0.75403307  -0.02219976  1
  Bi  Bi116  1  0.77409716  0.52387528  0.50158884  1
  Bi  Bi117  1  0.74723078  0.72765507  0.24414899  1
  Bi  Bi118  1  -0.01379494  0.76138076  0.75269806  1
  Bi  Bi119  1  0.24351427  0.74459791  0.52617212  1
  Bi  Bi120  1  0.20249038  0.48220029  0.27666230  1
  Bi  Bi121  1  0.52511502  0.47091256  0.20785493  1
  Bi  Bi122  1  -0.02603580  0.27699957  0.49727345  1
  Bi  Bi123  1  0.24674361  0.22893535  0.72897289  1
  Bi  Bi124  1  -0.01380743  -0.01940643  0.24168829  1
  O  O125  1  0.11589237  0.15416505  0.00113193  1
  O  O126  1  0.14074152  0.10890353  0.25026581  1
  O  O127  1  0.11072852  0.13400926  0.50145333  1
  O  O128  1  0.15879715  0.11367179  0.75576211  1
  O  O129  1  0.14689611  0.35795246  -0.00172135  1
  O  O130  1  0.09746722  0.39934883  0.24216482  1
  O  O131  1  0.15896283  0.37315266  0.51349639  1
  O  O132  1  0.10729747  0.40587055  0.74078793  1
  O  O133  1  0.13692062  0.62616148  -0.00471648  1
  O  O134  1  0.10655227  0.58872993  0.25692493  1
  O  O135  1  0.14612607  0.63591064  0.49304759  1
  O  O136  1  0.08964935  0.60816131  0.73276035  1
  O  O137  1  0.11655994  0.83982634  -0.00092150  1
  O  O138  1  0.12975370  0.89461551  0.24599225  1
  O  O139  1  0.11324906  0.86209356  0.49470821  1
  O  O140  1  0.16020027  0.87808404  0.74589400  1
  O  O141  1  0.39787786  0.11702117  0.01082228  1
  O  O142  1  0.35708914  0.15442994  0.25906226  1
  O  O143  1  0.39264661  0.10955260  0.49507585  1
  O  O144  1  0.34667640  0.13142067  0.75092127  1
  O  O145  1  0.33797360  0.37792688  0.00834679  1
  O  O146  1  0.40055502  0.36929555  0.25304509  1
  O  O147  1  0.35842234  0.38563630  0.50617050  1
  O  O148  1  0.40821800  0.38143016  0.75387297  1
  O  O149  1  0.34884467  0.61730543  0.00758623  1
  O  O150  1  0.39557338  0.63108160  0.25379764  1
  O  O151  1  0.38493659  0.61642091  0.49457502  1
  O  O152  1  0.39518770  0.63384314  0.74440899  1
  O  O153  1  0.38972149  0.89176702  0.01132287  1
  O  O154  1  0.38136878  0.86774459  0.24863083  1
  O  O155  1  0.38810778  0.90533823  0.48784144  1
  O  O156  1  0.35327048  0.86031551  0.74138741  1
  O  O157  1  0.60933917  0.10913769  -0.00038029  1
  O  O158  1  0.65477584  0.15203083  0.25175215  1
  O  O159  1  0.60959085  0.11880005  0.50640719  1
  O  O160  1  0.63347928  0.15501014  0.75323582  1
  O  O161  1  0.65401206  0.39303029  -0.00783226  1
  O  O162  1  0.58987792  0.36382739  0.26350163  1
  O  O163  1  0.66240953  0.38152803  0.49765932  1
  O  O164  1  0.59900992  0.36420593  0.75972389  1
  O  O165  1  0.62771489  0.63368155  -0.00064847  1
  O  O166  1  0.62146505  0.65307556  0.25419090  1
  O  O167  1  0.65651442  0.62422787  0.49478840  1
  O  O168  1  0.60011329  0.63234851  0.75034835  1
  O  O169  1  0.62259652  0.90159872  0.00958080  1
  O  O170  1  0.64094669  0.85466020  0.25311899  1
  O  O171  1  0.61274386  0.89462367  0.50488469  1
  O  O172  1  0.63189701  0.87735731  0.76222006  1
  O  O173  1  0.90474243  0.14228465  -0.00661827  1
  O  O174  1  0.87843655  0.09510444  0.25637656  1
  O  O175  1  0.87088686  0.13785880  0.50029731  1
  O  O176  1  0.87161750  0.09013421  0.76100707  1
  O  O177  1  0.86806956  0.34495454  -0.00074538  1
  O  O178  1  0.91435888  0.41408479  0.23435218  1
  O  O179  1  0.85928453  0.34860547  0.50898159  1
  O  O180  1  0.91752080  0.39821042  0.76212854  1
  O  O181  1  0.86833151  0.64576358  0.00093663  1
  O  O182  1  0.86306927  0.62762266  0.23902060  1
  O  O183  1  0.83796141  0.65298443  0.50243832  1
  O  O184  1  0.90474550  0.59032638  0.75961530  1
  O  O185  1  0.87793803  0.84857205  -0.00291538  1
  O  O186  1  0.87487980  0.89206501  0.25353854  1
  O  O187  1  0.90997403  0.85149733  0.50327279  1
  O  O188  1  0.87476364  0.90922061  0.76116121  1
  O  O189  1  0.00447018  0.09414829  0.12158963  1
  O  O190  1  0.00516771  0.09598397  0.37355307  1
  O  O191  1  0.01162805  0.10885476  0.65437921  1
  O  O192  1  0.01113317  0.13375888  0.84950474  1
  O  O193  1  0.00402112  0.39293494  0.09600955  1
  O  O194  1  0.00676874  0.36720037  0.40129148  1
  O  O195  1  0.00249014  0.37395573  0.59820574  1
  O  O196  1  -0.00202989  0.34052656  0.89123326  1
  O  O197  1  -0.01279706  0.59972812  0.13201755  1
  O  O198  1  -0.00023937  0.61468791  0.39649393  1
  O  O199  1  -0.00349114  0.65447674  0.58776934  1
  O  O200  1  -0.00245748  0.64627884  0.89677264  1
  O  O201  1  -0.00955669  0.91435187  0.11444837  1
  O  O202  1  0.00606551  0.89960021  0.36706740  1
  O  O203  1  0.01308429  0.87281223  0.65782150  1
  O  O204  1  -0.00339647  0.84716606  0.86993144  1
  O  O205  1  0.25459789  0.15236564  0.11991053  1
  O  O206  1  0.25228312  0.12917079  0.39284226  1
  O  O207  1  0.24510185  0.14153598  0.61109623  1
  O  O208  1  0.25281116  0.11321469  0.90951871  1
  O  O209  1  0.24564949  0.35551170  0.15291874  1
  O  O210  1  0.26038973  0.35883192  0.35851488  1
  O  O211  1  0.26069903  0.37977807  0.65701300  1
  O  O212  1  0.25396715  0.40893145  0.85172709  1
  O  O213  1  0.25466864  0.64872881  0.15015580  1
  O  O214  1  0.25085140  0.63490601  0.35628937  1
  O  O215  1  0.25846409  0.62854241  0.61680397  1
  O  O216  1  0.25618279  0.59305540  0.85555267  1
  O  O217  1  0.25236180  0.84887425  0.12246692  1
  O  O218  1  0.25541910  0.85942214  0.37643245  1
  O  O219  1  0.25356638  0.87308179  0.59216568  1
  O  O220  1  0.25287620  0.88135214  0.89780431  1
  O  O221  1  0.48844044  0.10396252  0.17262265  1
  O  O222  1  0.49732199  0.12829577  0.36995142  1
  O  O223  1  0.50447754  0.12544172  0.64733347  1
  O  O224  1  0.50507332  0.13170830  0.85409055  1
  O  O225  1  0.48617003  0.39446561  0.09651085  1
  O  O226  1  0.49905357  0.41095606  0.40957162  1
  O  O227  1  0.50940970  0.39881116  0.60847272  1
  O  O228  1  0.49090786  0.36836250  0.91265413  1
  O  O229  1  0.49495216  0.62252797  0.11990338  1
  O  O230  1  0.51088789  0.61564354  0.39215252  1
  O  O231  1  0.50217688  0.64262195  0.61299014  1
  O  O232  1  0.48972062  0.62917422  0.89610625  1
  O  O233  1  0.50754683  0.91142763  0.13745474  1
  O  O234  1  0.50850314  0.89385386  0.36439622  1
  O  O235  1  0.49832859  0.87983924  0.63427746  1
  O  O236  1  0.50837491  0.89922537  0.88893966  1
  O  O237  1  0.75330050  0.13833552  0.10068305  1
  O  O238  1  0.76031550  0.12169659  0.38212050  1
  O  O239  1  0.74626841  0.13891417  0.62716950  1
  O  O240  1  0.75533232  0.11915832  0.89569190  1
  O  O241  1  0.76193432  0.34576226  0.14238965  1
  O  O242  1  0.74143614  0.34437198  0.33283028  1
  O  O243  1  0.74552581  0.36651562  0.65797711  1
  O  O244  1  0.76079425  0.38319000  0.85268115  1
  O  O245  1  0.75075591  0.65704694  0.11990983  1
  O  O246  1  0.74697401  0.64956450  0.35921374  1
  O  O247  1  0.75228504  0.63094601  0.66418458  1
  O  O248  1  0.75505668  0.62667955  0.87527653  1
  O  O249  1  0.75082839  0.85090355  0.11967733  1
  O  O250  1  0.75810984  0.84186416  0.39694088  1
  O  O251  1  0.74509509  0.87805726  0.64114318  1
  O  O252  1  0.75303493  0.89543481  0.88155155  1
  O  O253  1  0.15642035  0.00771611  0.11184995  1
  O  O254  1  0.15174486  -0.00452164  0.38140355  1
  O  O255  1  0.14240544  -0.00159904  0.60784074  1
  O  O256  1  0.12593613  0.00590358  0.90435451  1
  O  O257  1  0.11152287  0.24764097  0.14763416  1
  O  O258  1  0.12615090  0.23626819  0.36441453  1
  O  O259  1  0.12082866  0.25235245  0.64294575  1
  O  O260  1  0.16022341  0.24687721  0.86154483  1
  O  O261  1  0.13803064  0.49188240  0.11430917  1
  O  O262  1  0.12980106  0.50409769  0.39465279  1
  O  O263  1  0.12893188  0.50808301  0.60526941  1
  O  O264  1  0.08993763  0.50072684  0.87038537  1
  O  O265  1  0.10788692  0.74405505  0.15364543  1
  O  O266  1  0.11571262  0.75046587  0.34951959  1
  O  O267  1  0.14207935  0.74985711  0.62547407  1
  O  O268  1  0.16038224  0.74792830  0.85761694  1
  O  O269  1  0.35435013  0.00216566  0.14511800  1
  O  O270  1  0.37802660  0.00246971  0.34399604  1
  O  O271  1  0.35492327  -0.00271301  0.63112523  1
  O  O272  1  0.38421625  0.00097070  0.84940993  1
  O  O273  1  0.40173336  0.25411679  0.12396972  1
  O  O274  1  0.39755779  0.25911100  0.38932268  1
  O  O275  1  0.38836527  0.25796081  0.62666992  1
  O  O276  1  0.35331557  0.25925413  0.87926403  1
  O  O277  1  0.35398617  0.49840692  0.13748333  1
  O  O278  1  0.36082802  0.50090229  0.37863020  1
  O  O279  1  0.38551116  0.50510745  0.62054812  1
  O  O280  1  0.38821891  0.49892429  0.89433139  1
  O  O281  1  0.39947045  0.75302038  0.12101245  1
  O  O282  1  0.39377182  0.75021609  0.38471971  1
  O  O283  1  0.37490243  0.75534582  0.59665284  1
  O  O284  1  0.34978754  0.74460199  0.87327292  1
  O  O285  1  0.65511690  0.00033445  0.14308891  1
  O  O286  1  0.64639459  -0.00611689  0.36395676  1
  O  O287  1  0.63302813  0.00406753  0.64353423  1
  O  O288  1  0.62594153  0.01309385  0.85438391  1
  O  O289  1  0.61490408  0.25135272  0.11254452  1
  O  O290  1  0.60234268  0.26122230  0.39789861  1
  O  O291  1  0.60901984  0.25639978  0.62049296  1
  O  O292  1  0.63603944  0.25452460  0.89761537  1
  O  O293  1  0.64058291  0.50277514  0.15015315  1
  O  O294  1  0.65318775  0.49836573  0.36338420  1
  O  O295  1  0.64189697  0.49567409  0.64537119  1
  O  O296  1  0.60323357  0.49238346  0.86347789  1
  O  O297  1  0.59576601  0.76038738  0.11716320  1
  O  O298  1  0.61586738  0.75574600  0.40037793  1
  O  O299  1  0.62565225  0.75971775  0.63284240  1
  O  O300  1  0.62221775  0.76134741  0.89611058  1
  O  O301  1  0.85141637  -0.00424745  0.09861419  1
  O  O302  1  0.87055473  -0.00972476  0.41153706  1
  O  O303  1  0.87821628  -0.00110652  0.59329410  1
  O  O304  1  0.90750419  -0.00224786  0.90794760  1
  O  O305  1  0.90999962  0.25570941  0.14246598  1
  O  O306  1  0.89396077  0.23863256  0.37045865  1
  O  O307  1  0.88418201  0.24947054  0.66378944  1
  O  O308  1  0.87014178  0.24189522  0.84314753  1
  O  O309  1  0.83545743  0.49720961  0.10222391  1
  O  O310  1  0.86600347  0.50358747  0.39132997  1
  O  O311  1  0.85041353  0.50279677  0.61690232  1
  O  O312  1  0.89830349  0.49896642  0.90212534  1
  O  O313  1  0.90745958  0.75932685  0.13381841  1
  O  O314  1  0.90423002  0.75272984  0.37029847  1
  O  O315  1  0.87522354  0.75487758  0.66382189  1
  O  O316  1  0.86860992  0.74646488  0.84080504  1
