# generated using pymatgen
data_Mg32Ti42(Bi17O64)3
_symmetry_space_group_name_H-M   'P 1'
_cell_length_a   15.94380780
_cell_length_b   15.94254805
_cell_length_c   15.98168858
_cell_angle_alpha   90.01473134
_cell_angle_beta   90.05809601
_cell_angle_gamma   89.90967151
_symmetry_Int_Tables_number   1
_chemical_formula_structural   Mg32Ti42(Bi17O64)3
_chemical_formula_sum   'Mg32 Ti42 Bi51 O192'
_cell_volume   4062.29699647
_cell_formula_units_Z   1
loop_
 _symmetry_equiv_pos_site_id
 _symmetry_equiv_pos_as_xyz
  1  'x, y, z'
loop_
 _atom_site_type_symbol
 _atom_site_label
 _atom_site_symmetry_multiplicity
 _atom_site_fract_x
 _atom_site_fract_y
 _atom_site_fract_z
 _atom_site_occupancy
  Mg  Mg0  1  0.37933711  0.37725640  0.62759725  1
  Mg  Mg1  1  0.87075834  0.13662640  0.64247070  1
  Mg  Mg2  1  0.36985013  0.88299705  0.37054963  1
  Mg  Mg3  1  0.62176143  0.13003607  0.37909939  1
  Mg  Mg4  1  0.12633408  0.87989673  0.12437992  1
  Mg  Mg5  1  0.88020769  0.12352295  0.39062319  1
  Mg  Mg6  1  0.87660817  0.88614377  0.38595476  1
  Mg  Mg7  1  0.37506925  0.36864740  0.87943724  1
  Mg  Mg8  1  0.11001977  0.37131541  0.87538161  1
  Mg  Mg9  1  0.62572784  0.63202063  0.12189445  1
  Mg  Mg10  1  0.88337085  0.63322459  0.62009860  1
  Mg  Mg11  1  0.12314874  0.62367060  0.86902356  1
  Mg  Mg12  1  0.36791515  0.87472973  0.88005406  1
  Mg  Mg13  1  0.87634622  0.38371494  0.38529963  1
  Mg  Mg14  1  0.62216058  0.11313861  0.12807100  1
  Mg  Mg15  1  0.88603984  0.13015531  0.10963589  1
  Mg  Mg16  1  0.37068200  0.86858264  0.62211280  1
  Mg  Mg17  1  0.11634479  0.37491717  0.12001356  1
  Mg  Mg18  1  0.62532000  0.37543023  0.36986212  1
  Mg  Mg19  1  0.76118359  0.26048003  0.42387323  1
  Mg  Mg20  1  -0.04749804  0.02327236  0.54427619  1
  Mg  Mg21  1  -0.05566851  0.26426719  0.76041236  1
  Mg  Mg22  1  0.75048637  0.74767674  0.03419151  1
  Mg  Mg23  1  0.26856141  0.06187021  -0.01446293  1
  Mg  Mg24  1  0.73192795  0.23800134  0.78161065  1
  Mg  Mg25  1  0.49255036  0.02002914  0.28615049  1
  Mg  Mg26  1  0.74783257  0.01546359  0.32043053  1
  Mg  Mg27  1  0.27386286  0.25934369  0.74642537  1
  Mg  Mg28  1  0.74346363  0.54884390  0.55274651  1
  Mg  Mg29  1  -0.00829977  0.50446213  0.00022763  1
  Mg  Mg30  1  -0.01753409  0.21362668  -0.02343639  1
  Mg  Mg31  1  0.75200785  0.08560772  0.50990542  1
  Ti  Ti32  1  0.88648496  0.87523589  0.87544206  1
  Ti  Ti33  1  0.11955850  0.36816214  0.63741660  1
  Ti  Ti34  1  0.87176170  0.62297763  0.38452169  1
  Ti  Ti35  1  0.86946097  0.10647488  0.86523425  1
  Ti  Ti36  1  0.61943598  0.11355462  0.87570920  1
  Ti  Ti37  1  0.13031526  0.88007488  0.87884392  1
  Ti  Ti38  1  0.36971000  0.62027138  0.11827670  1
  Ti  Ti39  1  0.87418301  0.38256362  0.88144500  1
  Ti  Ti40  1  0.13018185  0.13856704  0.63552156  1
  Ti  Ti41  1  0.64026012  0.37819959  0.87413927  1
  Ti  Ti42  1  0.85318866  0.37375223  0.62445005  1
  Ti  Ti43  1  0.87230304  0.63266971  0.12435897  1
  Ti  Ti44  1  0.62267626  0.13365512  0.64027258  1
  Ti  Ti45  1  0.63745764  0.37433232  0.63451986  1
  Ti  Ti46  1  0.11057486  0.61824314  0.36533234  1
  Ti  Ti47  1  0.88885169  0.62700850  0.87803322  1
  Ti  Ti48  1  0.88140212  0.87069160  0.61776699  1
  Ti  Ti49  1  0.12050799  0.13110042  0.86910017  1
  Ti  Ti50  1  0.13298221  0.12622548  0.11951217  1
  Ti  Ti51  1  0.88091749  0.37176409  0.10577809  1
  Ti  Ti52  1  0.62876431  0.87256950  0.87975476  1
  Ti  Ti53  1  0.38213858  0.12972736  0.13050582  1
  Ti  Ti54  1  0.38581005  0.62418998  0.36805150  1
  Ti  Ti55  1  0.12776902  0.61815497  0.62763335  1
  Ti  Ti56  1  0.12132796  0.36828173  0.37673082  1
  Ti  Ti57  1  0.62218283  0.86762710  0.13222028  1
  Ti  Ti58  1  0.12662617  0.12392163  0.39706630  1
  Ti  Ti59  1  0.37107144  0.62987413  0.87381136  1
  Ti  Ti60  1  0.62524058  0.89128990  0.36356001  1
  Ti  Ti61  1  0.62936767  0.37580320  0.12414693  1
  Ti  Ti62  1  0.37361335  0.13404237  0.86023354  1
  Ti  Ti63  1  0.38282653  0.37010718  0.36620830  1
  Ti  Ti64  1  0.36846338  0.62302690  0.61513561  1
  Ti  Ti65  1  0.62614874  0.62712836  0.36708001  1
  Ti  Ti66  1  0.87552933  0.88071955  0.11597655  1
  Ti  Ti67  1  0.38127377  0.37286281  0.12333712  1
  Ti  Ti68  1  0.37494526  0.13019367  0.38789682  1
  Ti  Ti69  1  0.11470871  0.61655197  0.12720545  1
  Ti  Ti70  1  0.12335994  0.88640860  0.36249685  1
  Ti  Ti71  1  0.37836198  0.12948254  0.62192079  1
  Ti  Ti72  1  0.61906624  0.64089018  0.88730421  1
  Ti  Ti73  1  0.36899526  0.88517158  0.13189837  1
  Bi  Bi74  1  0.76257676  0.22905856  -0.00419214  1
  Bi  Bi75  1  0.21972086  0.50529287  -0.00825849  1
  Bi  Bi76  1  0.25089317  0.48408928  0.23694931  1
  Bi  Bi77  1  -0.00552925  0.77238403  0.25104555  1
  Bi  Bi78  1  0.48137813  0.77408268  0.00747082  1
  Bi  Bi79  1  0.52877579  0.27173739  0.49327412  1
  Bi  Bi80  1  0.51891078  0.23236206  0.23529082  1
  Bi  Bi81  1  0.02076077  0.78616490  0.50390235  1
  Bi  Bi82  1  0.26660760  0.26687531  0.51759127  1
  Bi  Bi83  1  -0.02537809  0.48574295  0.22927909  1
  Bi  Bi84  1  0.71985500  0.75192090  0.53592995  1
  Bi  Bi85  1  0.53356968  0.52326025  0.51243300  1
  Bi  Bi86  1  -0.02193329  0.26777898  0.52141872  1
  Bi  Bi87  1  0.26163299  0.03410704  0.25967110  1
  Bi  Bi88  1  0.47794086  0.50783045  0.74265672  1
  Bi  Bi89  1  0.74532551  0.24368430  0.22821813  1
  Bi  Bi90  1  0.02367994  0.01121301  0.01435049  1
  Bi  Bi91  1  0.02611475  0.76483808  0.72781751  1
  Bi  Bi92  1  0.52822101  -0.00011722  0.53022421  1
  Bi  Bi93  1  0.23811036  -0.03309428  0.52937539  1
  Bi  Bi94  1  0.01269427  0.76746051  0.00734659  1
  Bi  Bi95  1  0.51559217  0.51851315  0.23478821  1
  Bi  Bi96  1  0.52000893  -0.04410611  0.74357513  1
  Bi  Bi97  1  0.75096985  0.53553122  0.74490943  1
  Bi  Bi98  1  0.74903579  0.48765672  0.27270902  1
  Bi  Bi99  1  0.03108395  0.50195474  0.51351271  1
  Bi  Bi100  1  0.75305346  0.53160653  -0.00731511  1
  Bi  Bi101  1  0.50152952  0.78662452  0.50437106  1
  Bi  Bi102  1  -0.00815134  0.48548147  0.76405258  1
  Bi  Bi103  1  0.49444419  0.77134355  0.26672033  1
  Bi  Bi104  1  0.77046208  0.75967663  0.27972496  1
  Bi  Bi105  1  0.25594649  0.76114441  0.72925872  1
  Bi  Bi106  1  0.72450684  -0.01008392  0.02182187  1
  Bi  Bi107  1  0.23969316  0.74716691  -0.01215459  1
  Bi  Bi108  1  0.49956961  0.28081502  0.75838892  1
  Bi  Bi109  1  0.22250443  0.25917696  0.24061305  1
  Bi  Bi110  1  0.25424591  0.46375400  0.76752827  1
  Bi  Bi111  1  0.47567123  0.00153581  -0.02544948  1
  Bi  Bi112  1  0.25712227  -0.02172671  0.73968442  1
  Bi  Bi113  1  0.24626965  0.76363351  0.23846525  1
  Bi  Bi114  1  0.23602161  0.74297031  0.46679131  1
  Bi  Bi115  1  0.49773978  0.51299600  -0.00188735  1
  Bi  Bi116  1  0.51454769  0.27212365  -0.00533133  1
  Bi  Bi117  1  0.23096750  0.27016300  -0.01787272  1
  Bi  Bi118  1  0.53143539  0.72612469  0.71274888  1
  Bi  Bi119  1  -0.01964163  0.24962270  0.28012291  1
  Bi  Bi120  1  0.02113942  -0.00288225  0.72960225  1
  Bi  Bi121  1  0.77004384  0.75308159  0.77844620  1
  Bi  Bi122  1  -0.02426144  0.02545389  0.25841806  1
  Bi  Bi123  1  0.26007092  0.49020371  0.46638185  1
  Bi  Bi124  1  0.74624477  -0.02142776  0.70733069  1
  O  O125  1  0.14034924  0.08039639  -0.01746641  1
  O  O126  1  0.13581855  0.13850601  0.23614090  1
  O  O127  1  0.11951891  0.10743614  0.50606374  1
  O  O128  1  0.13677527  0.15993666  0.75535135  1
  O  O129  1  0.15168801  0.38525316  -0.00219781  1
  O  O130  1  0.11378065  0.35368836  0.25197900  1
  O  O131  1  0.14383049  0.39307706  0.49612857  1
  O  O132  1  0.07934306  0.36673871  0.74749324  1
  O  O133  1  0.10316240  0.57824051  0.00502794  1
  O  O134  1  0.12360971  0.64116719  0.24950128  1
  O  O135  1  0.13353352  0.60837650  0.49612876  1
  O  O136  1  0.12784828  0.64592402  0.74125154  1
  O  O137  1  0.09780243  0.88496885  -0.00277298  1
  O  O138  1  0.12699171  0.84141367  0.24634037  1
  O  O139  1  0.13021403  0.87879616  0.48406502  1
  O  O140  1  0.14002870  0.83339306  0.76540215  1
  O  O141  1  0.38788951  0.11021299  0.01384325  1
  O  O142  1  0.34036827  0.14583161  0.24639812  1
  O  O143  1  0.38112190  0.10618206  0.50002901  1
  O  O144  1  0.35697973  0.15413392  0.74735714  1
  O  O145  1  0.36353362  0.37988527  0.00817605  1
  O  O146  1  0.39465068  0.35707744  0.25564022  1
  O  O147  1  0.34572350  0.38857602  0.50563843  1
  O  O148  1  0.37522190  0.34558166  0.75093547  1
  O  O149  1  0.37939271  0.59161617  0.00195479  1
  O  O150  1  0.39655446  0.62911094  0.25158017  1
  O  O151  1  0.37586476  0.59700767  0.50476110  1
  O  O152  1  0.38042154  0.64452074  0.75964704  1
  O  O153  1  0.39038149  0.88483548  0.01232753  1
  O  O154  1  0.36936832  0.83861483  0.24475198  1
  O  O155  1  0.34606068  0.88785416  0.49616250  1
  O  O156  1  0.35498809  0.86369205  0.75404830  1
  O  O157  1  0.62225163  0.08819114  -0.00542739  1
  O  O158  1  0.63770753  0.15844456  0.25023573  1
  O  O159  1  0.62521069  0.09976709  0.51160744  1
  O  O160  1  0.63437826  0.15260479  0.75623075  1
  O  O161  1  0.62483400  0.37624654  -0.00116785  1
  O  O162  1  0.62659138  0.33612398  0.23978276  1
  O  O163  1  0.61129912  0.38302492  0.51757049  1
  O  O164  1  0.63451083  0.33738645  0.76066167  1
  O  O165  1  0.61673502  0.58839447  -0.00121865  1
  O  O166  1  0.59828996  0.63518797  0.24808755  1
  O  O167  1  0.64643954  0.59549202  0.48681780  1
  O  O168  1  0.63040764  0.63946859  0.76873389  1
  O  O169  1  0.62020909  0.90362731  -0.00346037  1
  O  O170  1  0.63259646  0.84379214  0.24536023  1
  O  O171  1  0.60539940  0.89135728  0.48119490  1
  O  O172  1  0.61057432  0.85011458  0.75696303  1
  O  O173  1  0.87182664  0.13378354  -0.01917902  1
  O  O174  1  0.90322989  0.14290866  0.23243601  1
  O  O175  1  0.87445576  0.11366919  0.51449659  1
  O  O176  1  0.85891288  0.16834740  0.76616778  1
  O  O177  1  0.85799735  0.41085735  -0.00506605  1
  O  O178  1  0.90161272  0.35907126  0.23065633  1
  O  O179  1  0.85223597  0.35110126  0.50843727  1
  O  O180  1  0.89601800  0.38170342  0.75212894  1
  O  O181  1  0.89274133  0.59024056  -0.00557265  1
  O  O182  1  0.87033642  0.66251749  0.23664267  1
  O  O183  1  0.85184213  0.60175881  0.49148987  1
  O  O184  1  0.85608664  0.63854780  0.75345427  1
  O  O185  1  0.89807874  0.88697761  -0.00945193  1
  O  O186  1  0.87091565  0.84743268  0.23518252  1
  O  O187  1  0.91293026  0.90725901  0.50796351  1
  O  O188  1  0.85729759  0.85418229  0.74843094  1
  O  O189  1  0.01563790  0.13915278  0.07802740  1
  O  O190  1  0.00865798  0.11875989  0.36532564  1
  O  O191  1  0.00603793  0.09806009  0.63498866  1
  O  O192  1  -0.00087396  0.11398540  0.87298781  1
  O  O193  1  -0.00509833  0.41608924  0.09871324  1
  O  O194  1  0.00441839  0.37549648  0.38975646  1
  O  O195  1  -0.00214801  0.39087431  0.59330766  1
  O  O196  1  -0.00542661  0.43250770  0.89131712  1
  O  O197  1  -0.00239997  0.60557657  0.13523299  1
  O  O198  1  -0.00555225  0.61849773  0.37486468  1
  O  O199  1  0.00493182  0.59413790  0.61701408  1
  O  O200  1  -0.00266204  0.61076915  0.85687323  1
  O  O201  1  -0.00304879  0.84773306  0.13117853  1
  O  O202  1  0.00341799  0.87308907  0.35247241  1
  O  O203  1  0.00509168  0.88479126  0.65191659  1
  O  O204  1  -0.00082320  0.87363994  0.85116407  1
  O  O205  1  0.25208498  0.10749063  0.10494751  1
  O  O206  1  0.24760394  0.11641935  0.37934718  1
  O  O207  1  0.24466306  0.15783231  0.61767749  1
  O  O208  1  0.25472705  0.14613659  0.88873324  1
  O  O209  1  0.25934556  0.36811760  0.15526885  1
  O  O210  1  0.24881591  0.37927640  0.35967358  1
  O  O211  1  0.23501362  0.34077698  0.64879673  1
  O  O212  1  0.24144775  0.33945802  0.84783551  1
  O  O213  1  0.25230778  0.62988379  0.11842702  1
  O  O214  1  0.26000110  0.64104198  0.37500016  1
  O  O215  1  0.25133951  0.64471475  0.62188800  1
  O  O216  1  0.25297105  0.63941289  0.89424905  1
  O  O217  1  0.25271090  0.85800675  0.12765843  1
  O  O218  1  0.24499886  0.84180850  0.36081337  1
  O  O219  1  0.24413237  0.87310517  0.63547095  1
  O  O220  1  0.24309459  0.85965328  0.89915137  1
  O  O221  1  0.49388374  0.10326349  0.17154140  1
  O  O222  1  0.49139622  0.12992436  0.35564020  1
  O  O223  1  0.49235109  0.11153266  0.63755209  1
  O  O224  1  0.49851023  0.09895282  0.86532252  1
  O  O225  1  0.50157449  0.39171230  0.11982990  1
  O  O226  1  0.49634864  0.37283775  0.39459402  1
  O  O227  1  0.51051161  0.38883441  0.65967479  1
  O  O228  1  0.51162387  0.37623075  0.86751731  1
  O  O229  1  0.49839843  0.59412849  0.11489534  1
  O  O230  1  0.50417146  0.59887782  0.39255804  1
  O  O231  1  0.49838665  0.59936970  0.63620054  1
  O  O232  1  0.49944785  0.60291276  0.88352202  1
  O  O233  1  0.50396814  0.86533686  0.13547601  1
  O  O234  1  0.49958657  0.88942654  0.34289982  1
  O  O235  1  0.49110653  0.88917067  0.61606755  1
  O  O236  1  0.49756654  0.89095584  0.88058382  1
  O  O237  1  0.75424683  0.15254361  0.11429506  1
  O  O238  1  0.75128363  0.12345248  0.39045598  1
  O  O239  1  0.74208004  0.10803171  0.63368969  1
  O  O240  1  0.74668745  0.14170415  0.88082554  1
  O  O241  1  0.75067970  0.34982565  0.12452705  1
  O  O242  1  0.75341562  0.37080616  0.35518729  1
  O  O243  1  0.75020602  0.33302946  0.65057025  1
  O  O244  1  0.75884825  0.33590182  0.86877258  1
  O  O245  1  0.75357199  0.62920032  0.09656295  1
  O  O246  1  0.74760984  0.62224710  0.34693070  1
  O  O247  1  0.75527646  0.65663481  0.62195640  1
  O  O248  1  0.74309996  0.64877440  0.91106079  1
  O  O249  1  0.75928929  0.86614917  0.09413969  1
  O  O250  1  0.74523077  0.88992266  0.36544260  1
  O  O251  1  0.76068901  0.86657709  0.61057031  1
  O  O252  1  0.74501680  0.85267373  0.88535803  1
  O  O253  1  0.10183205  0.00417202  0.12952833  1
  O  O254  1  0.13334335  -0.00165737  0.35493579  1
  O  O255  1  0.14605423  0.01576642  0.65924995  1
  O  O256  1  0.13362979  -0.00788946  0.84369280  1
  O  O257  1  0.15080393  0.24715649  0.10968224  1
  O  O258  1  0.12966314  0.24692000  0.38885314  1
  O  O259  1  0.09495286  0.25330624  0.60569747  1
  O  O260  1  0.10509364  0.23930901  0.91891409  1
  O  O261  1  0.14816536  0.49974602  0.14310079  1
  O  O262  1  0.13193367  0.50150512  0.35946183  1
  O  O263  1  0.13391171  0.49363845  0.62981424  1
  O  O264  1  0.15955808  0.49697208  0.86315773  1
  O  O265  1  0.11916004  0.73299925  0.09296216  1
  O  O266  1  0.11565559  0.74083626  0.39586790  1
  O  O267  1  0.09942680  0.73972498  0.60829171  1
  O  O268  1  0.11900323  0.74521675  0.91286176  1
  O  O269  1  0.36918319  -0.00546362  0.15591135  1
  O  O270  1  0.37365244  0.00902200  0.34137199  1
  O  O271  1  0.34196730  0.01162482  0.63586690  1
  O  O272  1  0.35576511  0.00975031  0.89132203  1
  O  O273  1  0.39580809  0.24687317  0.12062672  1
  O  O274  1  0.36603162  0.25028880  0.40068594  1
  O  O275  1  0.38133998  0.24906757  0.59648236  1
  O  O276  1  0.40152775  0.24152331  0.89019002  1
  O  O277  1  0.36370623  0.49415971  0.14981733  1
  O  O278  1  0.36351500  0.49578192  0.36546679  1
  O  O279  1  0.36622604  0.50248635  0.65940006  1
  O  O280  1  0.35869837  0.49665334  0.85141428  1
  O  O281  1  0.38780871  0.73645115  0.10444158  1
  O  O282  1  0.40298031  0.74059070  0.38494545  1
  O  O283  1  0.40031310  0.73998659  0.61227539  1
  O  O284  1  0.38314400  0.74412604  0.90910642  1
  O  O285  1  0.65356847  -0.01139870  0.13734797  1
  O  O286  1  0.62139803  0.00441896  0.33642160  1
  O  O287  1  0.61438774  0.00257824  0.64761223  1
  O  O288  1  0.63558375  -0.00623328  0.84259566  1
  O  O289  1  0.59328966  0.24301065  0.10704922  1
  O  O290  1  0.63426977  0.25300288  0.41059660  1
  O  O291  1  0.60338883  0.24576726  0.61364753  1
  O  O292  1  0.61179337  0.23500178  0.90410101  1
  O  O293  1  0.63628713  0.48864619  0.15190462  1
  O  O294  1  0.62572599  0.49836232  0.34236477  1
  O  O295  1  0.65741606  0.48772853  0.63384940  1
  O  O296  1  0.65782349  0.48884561  0.86203460  1
  O  O297  1  0.63442878  0.75583305  0.09110331  1
  O  O298  1  0.60784631  0.74456850  0.38803476  1
  O  O299  1  0.59765284  0.74448875  0.59517638  1
  O  O300  1  0.60130060  0.75169522  0.90027292  1
  O  O301  1  0.89112624  -0.00460358  0.12976508  1
  O  O302  1  0.87134564  0.00478578  0.34120769  1
  O  O303  1  0.87350255  -0.00450136  0.64911592  1
  O  O304  1  0.85870442  -0.00546718  0.85057068  1
  O  O305  1  0.89577015  0.26387212  0.07437732  1
  O  O306  1  0.87902008  0.24967280  0.37319821  1
  O  O307  1  0.90933553  0.25846331  0.63829936  1
  O  O308  1  0.92482557  0.27952061  0.88517489  1
  O  O309  1  0.86095686  0.50491276  0.15400712  1
  O  O310  1  0.87374743  0.50556141  0.34163189  1
  O  O311  1  0.83462777  0.49351044  0.62981743  1
  O  O312  1  0.84677956  0.50896952  0.85150819  1
  O  O313  1  0.87197134  0.74210432  0.08227350  1
  O  O314  1  0.86462308  0.74920486  0.38266963  1
  O  O315  1  0.90944525  0.75726826  0.60566005  1
  O  O316  1  0.87947458  0.74858017  0.87852833  1
