# generated using pymatgen
data_Mg32Ti42(Bi17O64)3
_symmetry_space_group_name_H-M   'P 1'
_cell_length_a   15.93157029
_cell_length_b   15.94537853
_cell_length_c   15.96071328
_cell_angle_alpha   90.06060139
_cell_angle_beta   89.99716821
_cell_angle_gamma   89.93865565
_symmetry_Int_Tables_number   1
_chemical_formula_structural   Mg32Ti42(Bi17O64)3
_chemical_formula_sum   'Mg32 Ti42 Bi51 O192'
_cell_volume   4054.57390399
_cell_formula_units_Z   1
loop_
 _symmetry_equiv_pos_site_id
 _symmetry_equiv_pos_as_xyz
  1  'x, y, z'
loop_
 _atom_site_type_symbol
 _atom_site_label
 _atom_site_symmetry_multiplicity
 _atom_site_fract_x
 _atom_site_fract_y
 _atom_site_fract_z
 _atom_site_occupancy
  Mg  Mg0  1  0.12697403  0.88840523  0.88812395  1
  Mg  Mg1  1  0.87016262  0.62732987  0.87769334  1
  Mg  Mg2  1  0.87022014  0.62458569  0.62093235  1
  Mg  Mg3  1  0.87790917  0.38136052  0.11670802  1
  Mg  Mg4  1  0.37557269  0.13033912  0.38211179  1
  Mg  Mg5  1  0.12197269  0.87746019  0.37354597  1
  Mg  Mg6  1  0.62244787  0.12002929  0.12422742  1
  Mg  Mg7  1  0.88357886  0.12350151  0.13621874  1
  Mg  Mg8  1  0.87201530  0.86578050  0.36552615  1
  Mg  Mg9  1  0.87582154  0.88023740  0.61859750  1
  Mg  Mg10  1  0.62993391  0.63132423  0.86284416  1
  Mg  Mg11  1  0.11647842  0.88233058  0.61741051  1
  Mg  Mg12  1  0.88237746  0.36878420  0.62776710  1
  Mg  Mg13  1  0.38591290  0.36394763  0.87267233  1
  Mg  Mg14  1  0.63070089  0.12429122  0.62406839  1
  Mg  Mg15  1  0.11440057  0.38082994  0.37596267  1
  Mg  Mg16  1  0.60620832  0.62138522  0.12838389  1
  Mg  Mg17  1  0.12372238  0.61548676  0.86806429  1
  Mg  Mg18  1  0.88529368  0.86582721  0.12169031  1
  Mg  Mg19  1  0.19161640  0.26713487  0.50157307  1
  Mg  Mg20  1  0.51566670  0.45245122  0.56596924  1
  Mg  Mg21  1  0.26740246  0.26972233  0.00411016  1
  Mg  Mg22  1  0.00340130  0.27529749  -0.02737483  1
  Mg  Mg23  1  0.70243452  0.70371830  -0.00168745  1
  Mg  Mg24  1  0.47941144  0.55379957  -0.05387946  1
  Mg  Mg25  1  0.01639780  0.74540202  0.20836854  1
  Mg  Mg26  1  0.26390563  0.01032516  0.05948890  1
  Mg  Mg27  1  0.56675263  0.27939877  0.72067989  1
  Mg  Mg28  1  -0.03320342  0.52079807  0.22935684  1
  Mg  Mg29  1  0.48698534  0.75762354  0.27961866  1
  Mg  Mg30  1  -0.04021197  -0.00275037  0.46349422  1
  Mg  Mg31  1  0.70645941  0.32204399  0.53429690  1
  Ti  Ti32  1  0.61721038  0.87169280  0.88405561  1
  Ti  Ti33  1  0.61992367  0.87521507  0.36694288  1
  Ti  Ti34  1  0.13225811  0.62404678  0.12540033  1
  Ti  Ti35  1  0.12559376  0.37992836  0.12907926  1
  Ti  Ti36  1  0.86959205  0.86493004  0.89068599  1
  Ti  Ti37  1  0.37309662  0.13237169  0.13581192  1
  Ti  Ti38  1  0.13043709  0.88945586  0.11650098  1
  Ti  Ti39  1  0.12226113  0.37667300  0.88275794  1
  Ti  Ti40  1  0.62448084  0.36098097  0.87385278  1
  Ti  Ti41  1  0.86177444  0.37617739  0.39117224  1
  Ti  Ti42  1  0.38448559  0.37523678  0.39275141  1
  Ti  Ti43  1  0.62311404  0.63220240  0.37612377  1
  Ti  Ti44  1  0.37168764  0.62831229  0.38176196  1
  Ti  Ti45  1  0.61629029  0.88310450  0.11639741  1
  Ti  Ti46  1  0.37112267  0.88899537  0.88091391  1
  Ti  Ti47  1  0.12868727  0.62300184  0.63907355  1
  Ti  Ti48  1  0.11377816  0.12325520  0.62020666  1
  Ti  Ti49  1  0.61840405  0.37755206  0.11418955  1
  Ti  Ti50  1  0.37554468  0.62591851  0.60694822  1
  Ti  Ti51  1  0.36949775  0.13763769  0.63044647  1
  Ti  Ti52  1  0.88333731  0.63384917  0.11606237  1
  Ti  Ti53  1  0.37917288  0.37193731  0.12647826  1
  Ti  Ti54  1  0.87097827  0.63151010  0.37363677  1
  Ti  Ti55  1  0.62408447  0.38126713  0.37578919  1
  Ti  Ti56  1  0.37140715  0.87454046  0.37388825  1
  Ti  Ti57  1  0.85126345  0.12607416  0.36913168  1
  Ti  Ti58  1  0.36818022  0.12212770  0.88112151  1
  Ti  Ti59  1  0.11381211  0.37501308  0.63368526  1
  Ti  Ti60  1  0.87364258  0.38747602  0.87324633  1
  Ti  Ti61  1  0.12501909  0.14198610  0.13593376  1
  Ti  Ti62  1  0.61838088  0.87851220  0.63196760  1
  Ti  Ti63  1  0.37705952  0.88006920  0.62963829  1
  Ti  Ti64  1  0.37111363  0.37249755  0.63831354  1
  Ti  Ti65  1  0.37017681  0.86878940  0.13457844  1
  Ti  Ti66  1  0.61531315  0.62917773  0.62527821  1
  Ti  Ti67  1  0.10442327  0.61979921  0.36883266  1
  Ti  Ti68  1  0.37111109  0.61798468  0.13650264  1
  Ti  Ti69  1  0.62850334  0.12538834  0.88608117  1
  Ti  Ti70  1  0.12340393  0.12350683  0.38111906  1
  Ti  Ti71  1  0.13996471  0.14173659  0.90372187  1
  Ti  Ti72  1  0.62036183  0.13067556  0.38114652  1
  Ti  Ti73  1  0.87754585  0.12184828  0.62269945  1
  Bi  Bi74  1  0.52336025  0.25794786  0.24980749  1
  Bi  Bi75  1  0.76491996  -0.00615448  0.24517050  1
  Bi  Bi76  1  0.49146467  0.77299294  0.50071065  1
  Bi  Bi77  1  0.79641411  0.24420548  -0.00453262  1
  Bi  Bi78  1  0.21490929  0.01361785  0.76703043  1
  Bi  Bi79  1  0.74367701  0.74750981  0.74074745  1
  Bi  Bi80  1  0.25381396  0.26312702  0.29184191  1
  Bi  Bi81  1  0.72446104  0.75521680  0.21726395  1
  Bi  Bi82  1  0.22795149  0.73566299  0.26699592  1
  Bi  Bi83  1  0.23460444  0.26096598  0.74453898  1
  Bi  Bi84  1  0.00088534  -0.02901845  0.24889209  1
  Bi  Bi85  1  -0.03228101  0.51528260  0.74334504  1
  Bi  Bi86  1  0.51631099  0.26200782  0.52863179  1
  Bi  Bi87  1  0.50497646  0.50074360  0.76365017  1
  Bi  Bi88  1  0.76813527  0.01427559  0.02038145  1
  Bi  Bi89  1  0.74880812  0.27049885  0.22103537  1
  Bi  Bi90  1  0.00735666  0.51492037  -0.00007882  1
  Bi  Bi91  1  0.24146592  0.01844469  0.51648460  1
  Bi  Bi92  1  0.27333586  0.47620449  0.00425705  1
  Bi  Bi93  1  0.23382405  0.76587246  0.51303403  1
  Bi  Bi94  1  -0.00732246  0.77014635  0.50109138  1
  Bi  Bi95  1  -0.01606506  0.22619984  0.77937031  1
  Bi  Bi96  1  0.28473045  0.53231928  0.77624997  1
  Bi  Bi97  1  0.75975163  0.22688650  0.75634143  1
  Bi  Bi98  1  0.73349521  0.48029400  0.71566375  1
  Bi  Bi99  1  0.22431733  0.48619081  0.51035194  1
  Bi  Bi100  1  -0.02880394  0.75523642  0.74328383  1
  Bi  Bi101  1  -0.01310532  0.51494585  0.49714097  1
  Bi  Bi102  1  0.47591370  0.00670497  0.01834416  1
  Bi  Bi103  1  0.75787210  0.00874948  0.51731429  1
  Bi  Bi104  1  0.49319067  0.02444283  0.51421087  1
  Bi  Bi105  1  0.75310453  0.51938164  0.21239060  1
  Bi  Bi106  1  0.70754580  0.50735808  -0.01776927  1
  Bi  Bi107  1  0.48792657  0.73878018  0.02862092  1
  Bi  Bi108  1  0.24619607  0.48982426  0.27371200  1
  Bi  Bi109  1  0.02415377  0.74581223  -0.03777578  1
  Bi  Bi110  1  0.27688589  0.70556638  -0.02526158  1
  Bi  Bi111  1  -0.01563674  0.03908919  -0.00101397  1
  Bi  Bi112  1  -0.02489394  0.23466656  0.48325203  1
  Bi  Bi113  1  0.50199423  0.04344866  0.74984864  1
  Bi  Bi114  1  0.50299830  0.01804882  0.26583861  1
  Bi  Bi115  1  0.48732841  0.24184057  -0.00395844  1
  Bi  Bi116  1  0.72820564  0.51875286  0.49772524  1
  Bi  Bi117  1  0.22371271  0.78173422  0.76286088  1
  Bi  Bi118  1  -0.02215371  -0.01294280  0.77590614  1
  Bi  Bi119  1  0.23620984  0.01308111  0.26930703  1
  Bi  Bi120  1  0.49854673  0.50254393  0.26963674  1
  Bi  Bi121  1  0.74078782  0.78331984  0.49611411  1
  Bi  Bi122  1  -0.02290474  0.29042171  0.25415127  1
  Bi  Bi123  1  0.74045025  -0.00986896  0.77298866  1
  Bi  Bi124  1  0.45762978  0.73158320  0.77336213  1
  O  O125  1  0.17465284  0.16971001  0.00707653  1
  O  O126  1  0.11915252  0.10700050  0.25266466  1
  O  O127  1  0.16216559  0.14156746  0.49933323  1
  O  O128  1  0.11141595  0.11137998  0.73735582  1
  O  O129  1  0.09495705  0.35453468  0.00048070  1
  O  O130  1  0.15538368  0.38749411  0.24648565  1
  O  O131  1  0.12212793  0.37341946  0.50533345  1
  O  O132  1  0.15625346  0.37929789  0.74863667  1
  O  O133  1  0.10085280  0.62743521  0.00390428  1
  O  O134  1  0.16192895  0.60637945  0.24588481  1
  O  O135  1  0.09820828  0.63038396  0.48505596  1
  O  O136  1  0.16013159  0.60733462  0.74677232  1
  O  O137  1  0.12078718  0.85502796  0.00836332  1
  O  O138  1  0.13472849  0.90789035  0.24981329  1
  O  O139  1  0.11874269  0.84221778  0.49389030  1
  O  O140  1  0.13529921  0.88886928  0.74487719  1
  O  O141  1  0.35226604  0.08437096  -0.00534973  1
  O  O142  1  0.40569121  0.13917079  0.24345919  1
  O  O143  1  0.36911000  0.09932364  0.50747874  1
  O  O144  1  0.39334606  0.13960274  0.75082314  1
  O  O145  1  0.39054347  0.39735811  0.00317623  1
  O  O146  1  0.35374350  0.36437960  0.23899480  1
  O  O147  1  0.41408647  0.38997028  0.50102178  1
  O  O148  1  0.34568531  0.35924210  0.74951359  1
  O  O149  1  0.39548409  0.62283789  0.00749719  1
  O  O150  1  0.35085043  0.63949994  0.24849524  1
  O  O151  1  0.39907492  0.60553545  0.49287503  1
  O  O152  1  0.35398138  0.64441853  0.73396903  1
  O  O153  1  0.36911364  0.90665753  -0.00632954  1
  O  O154  1  0.38135411  0.83975965  0.24503834  1
  O  O155  1  0.39880744  0.88085958  0.49231321  1
  O  O156  1  0.36602734  0.85323381  0.74059059  1
  O  O157  1  0.64970752  0.10325210  -0.00242805  1
  O  O158  1  0.59208458  0.12885241  0.25415712  1
  O  O159  1  0.62950790  0.09825352  0.49321391  1
  O  O160  1  0.59587722  0.15545201  0.75320025  1
  O  O161  1  0.60780780  0.38064842  0.00134684  1
  O  O162  1  0.63442459  0.35287001  0.25808509  1
  O  O163  1  0.59725141  0.38238751  0.49428705  1
  O  O164  1  0.66614787  0.35117804  0.76207974  1
  O  O165  1  0.59492769  0.60978089  -0.00166572  1
  O  O166  1  0.65977352  0.63375275  0.24963800  1
  O  O167  1  0.61187721  0.60722550  0.49407576  1
  O  O168  1  0.65282358  0.63333554  0.73957710  1
  O  O169  1  0.62328690  0.89969053  -0.00073144  1
  O  O170  1  0.61056891  0.83187594  0.24355567  1
  O  O171  1  0.61576588  0.87135963  0.49228999  1
  O  O172  1  0.64566313  0.86541139  0.74661643  1
  O  O173  1  0.86215457  0.12447659  0.00342349  1
  O  O174  1  0.87866231  0.09748763  0.25923465  1
  O  O175  1  0.86577767  0.15320223  0.49897353  1
  O  O176  1  0.90427051  0.09778504  0.73793042  1
  O  O177  1  0.89864987  0.33958073  -0.00427028  1
  O  O178  1  0.85446620  0.36795437  0.26019127  1
  O  O179  1  0.88602275  0.34171355  0.50085899  1
  O  O180  1  0.86450065  0.40797206  0.75648936  1
  O  O181  1  0.91578918  0.63396675  0.00575124  1
  O  O182  1  0.85973634  0.59486761  0.25913063  1
  O  O183  1  0.90880812  0.62945124  0.49538583  1
  O  O184  1  0.85844006  0.59316153  0.75038642  1
  O  O185  1  0.87368120  0.84002419  -0.00195455  1
  O  O186  1  0.87409197  0.90643984  0.24579418  1
  O  O187  1  0.87515505  0.84837893  0.49285572  1
  O  O188  1  0.87504135  0.90581600  0.74355624  1
  O  O189  1  0.01246720  0.13430454  0.10747213  1
  O  O190  1  0.01059895  0.10479002  0.40755623  1
  O  O191  1  0.00248783  0.14718549  0.60271008  1
  O  O192  1  0.01873379  0.16506140  0.91093482  1
  O  O193  1  0.00429527  0.39471693  0.16223430  1
  O  O194  1  -0.01038914  0.37817335  0.35760103  1
  O  O195  1  0.00775331  0.35339940  0.65284485  1
  O  O196  1  0.00103951  0.34314108  0.86040512  1
  O  O197  1  0.00998414  0.61847182  0.15816132  1
  O  O198  1  -0.00235761  0.58263190  0.34588742  1
  O  O199  1  0.01258694  0.63622091  0.65720762  1
  O  O200  1  0.00045729  0.65310446  0.85345495  1
  O  O201  1  0.01386679  0.86552739  0.15301922  1
  O  O202  1  -0.00315453  0.91119228  0.37457130  1
  O  O203  1  -0.00216752  0.84215371  0.61944835  1
  O  O204  1  -0.00150901  0.85447987  0.86474221  1
  O  O205  1  0.25757457  0.10993220  0.14437342  1
  O  O206  1  0.25427374  0.13211919  0.35052440  1
  O  O207  1  0.25536556  0.10302707  0.63952243  1
  O  O208  1  0.25336989  0.12553915  0.85142770  1
  O  O209  1  0.24869997  0.36565473  0.09140327  1
  O  O210  1  0.26091236  0.37763735  0.38708383  1
  O  O211  1  0.26115870  0.38516371  0.59809500  1
  O  O212  1  0.24182479  0.37577290  0.91078991  1
  O  O213  1  0.25337157  0.62385514  0.09910701  1
  O  O214  1  0.25620482  0.64725682  0.38614604  1
  O  O215  1  0.25866596  0.60106774  0.59808244  1
  O  O216  1  0.24964288  0.59122623  0.89286763  1
  O  O217  1  0.25567126  0.89751883  0.12519903  1
  O  O218  1  0.25658761  0.84404792  0.38121288  1
  O  O219  1  0.25874882  0.88031303  0.59715227  1
  O  O220  1  0.25445549  0.89100606  0.86157382  1
  O  O221  1  0.49154719  0.13447439  0.08788009  1
  O  O222  1  0.49850854  0.09884985  0.39008775  1
  O  O223  1  0.49742759  0.12989739  0.60775913  1
  O  O224  1  0.49855928  0.13231317  0.90479092  1
  O  O225  1  0.49680171  0.36020091  0.14077956  1
  O  O226  1  0.49847075  0.37960451  0.34465285  1
  O  O227  1  0.49558551  0.34654668  0.64138172  1
  O  O228  1  0.51551193  0.34711772  0.83631028  1
  O  O229  1  0.48857658  0.66369611  0.14868253  1
  O  O230  1  0.50698812  0.62597445  0.33563824  1
  O  O231  1  0.50090977  0.64442282  0.64077216  1
  O  O232  1  0.50674850  0.62155455  0.84227786  1
  O  O233  1  0.49407735  0.85766749  0.10790163  1
  O  O234  1  0.49953875  0.86690845  0.35940590  1
  O  O235  1  0.50238473  0.84975092  0.62615375  1
  O  O236  1  0.50364778  0.86646525  0.86976749  1
  O  O237  1  0.74983789  0.08692286  0.13742349  1
  O  O238  1  0.73884243  0.14070606  0.35483887  1
  O  O239  1  0.75843090  0.10058042  0.63253013  1
  O  O240  1  0.74257974  0.11243835  0.84763651  1
  O  O241  1  0.74272206  0.37498446  0.12455163  1
  O  O242  1  0.73965697  0.35660733  0.40852300  1
  O  O243  1  0.76097852  0.40536588  0.60583900  1
  O  O244  1  0.75996161  0.39220006  0.90419316  1
  O  O245  1  0.75994699  0.62446080  0.10754167  1
  O  O246  1  0.75256063  0.62629125  0.40055745  1
  O  O247  1  0.74786792  0.59802784  0.60328615  1
  O  O248  1  0.74820973  0.61893931  0.91464554  1
  O  O249  1  0.73749718  0.89704828  0.13873117  1
  O  O250  1  0.74094560  0.85691326  0.36962450  1
  O  O251  1  0.74433417  0.88888184  0.59757808  1
  O  O252  1  0.75287768  0.90169949  0.87689187  1
  O  O253  1  0.13266271  0.00468194  0.09281831  1
  O  O254  1  0.15842572  0.00627745  0.39054665  1
  O  O255  1  0.11944867  0.00807925  0.59448197  1
  O  O256  1  0.12626900  0.02033074  0.88256516  1
  O  O257  1  0.12714929  0.25345322  0.15458168  1
  O  O258  1  0.13521832  0.25033844  0.37914555  1
  O  O259  1  0.15056084  0.25286888  0.62570807  1
  O  O260  1  0.14053815  0.25006461  0.84891377  1
  O  O261  1  0.13516111  0.49472738  0.10566814  1
  O  O262  1  0.14867851  0.50470780  0.37641296  1
  O  O263  1  0.11811634  0.49981778  0.60747307  1
  O  O264  1  0.09485802  0.48982770  0.88670193  1
  O  O265  1  0.13263452  0.74114790  0.14803949  1
  O  O266  1  0.09770423  0.73768775  0.32769083  1
  O  O267  1  0.15444945  0.73967214  0.63181509  1
  O  O268  1  0.14625874  0.74671966  0.87473056  1
  O  O269  1  0.39235596  0.00028376  0.13441450  1
  O  O270  1  0.36241737  -0.01273435  0.35220000  1
  O  O271  1  0.39836253  -0.00762332  0.63758718  1
  O  O272  1  0.39355471  0.00419449  0.84994531  1
  O  O273  1  0.36706985  0.24714591  0.09369413  1
  O  O274  1  0.37387683  0.25858714  0.37945651  1
  O  O275  1  0.36061312  0.24860324  0.61054190  1
  O  O276  1  0.36630145  0.24098842  0.91627163  1
  O  O277  1  0.37549202  0.50114744  0.13982014  1
  O  O278  1  0.38245031  0.50244389  0.35374971  1
  O  O279  1  0.40782893  0.49280885  0.64205367  1
  O  O280  1  0.40278096  0.49085737  0.85760935  1
  O  O281  1  0.36009225  0.75837988  0.09079953  1
  O  O282  1  0.40259218  0.74263338  0.38347495  1
  O  O283  1  0.37091203  0.74354662  0.59075431  1
  O  O284  1  0.37520346  0.76151033  0.88624121  1
  O  O285  1  0.58815158  -0.00661894  0.14303615  1
  O  O286  1  0.62439972  -0.00987734  0.34727505  1
  O  O287  1  0.60539953  -0.00592761  0.63641912  1
  O  O288  1  0.61547458  0.00457455  0.84697227  1
  O  O289  1  0.62760120  0.24985481  0.13413143  1
  O  O290  1  0.59681210  0.24452791  0.38637114  1
  O  O291  1  0.63324619  0.24849565  0.60331136  1
  O  O292  1  0.64317875  0.24572442  0.89998247  1
  O  O293  1  0.61623068  0.49373194  0.14188008  1
  O  O294  1  0.62191200  0.49619356  0.35395971  1
  O  O295  1  0.60791280  0.50653130  0.63372042  1
  O  O296  1  0.61970247  0.48940491  0.86997675  1
  O  O297  1  0.64507183  0.75200242  0.10002247  1
  O  O298  1  0.61613118  0.74333059  0.38836922  1
  O  O299  1  0.65018282  0.74868074  0.61411060  1
  O  O300  1  0.64397026  0.75857733  0.89511614  1
  O  O301  1  0.89331421  -0.00558296  0.09426789  1
  O  O302  1  0.84986592  0.00956473  0.40143852  1
  O  O303  1  0.89118467  0.00574849  0.57573002  1
  O  O304  1  0.90167281  -0.01046214  0.89154989  1
  O  O305  1  0.85520088  0.24795603  0.12959199  1
  O  O306  1  0.89337778  0.24049798  0.36256108  1
  O  O307  1  0.86406814  0.24011988  0.66142755  1
  O  O308  1  0.85985946  0.25577274  0.84927422  1
  O  O309  1  0.87932776  0.50581448  0.12842199  1
  O  O310  1  0.86325674  0.48799343  0.41271978  1
  O  O311  1  0.91466679  0.49885485  0.61364871  1
  O  O312  1  0.90859527  0.49705547  0.89673125  1
  O  O313  1  0.89306394  0.74133027  0.15555038  1
  O  O314  1  0.89114109  0.73847603  0.35772990  1
  O  O315  1  0.85432450  0.74808779  0.65186465  1
  O  O316  1  0.85753935  0.75487966  0.84095867  1
