# generated using pymatgen
data_Mg32Ti42(Bi17O64)3
_symmetry_space_group_name_H-M   'P 1'
_cell_length_a   15.95502277
_cell_length_b   15.95207791
_cell_length_c   15.95342882
_cell_angle_alpha   89.93437644
_cell_angle_beta   89.95968694
_cell_angle_gamma   89.93309447
_symmetry_Int_Tables_number   1
_chemical_formula_structural   Mg32Ti42(Bi17O64)3
_chemical_formula_sum   'Mg32 Ti42 Bi51 O192'
_cell_volume   4060.39272777
_cell_formula_units_Z   1
loop_
 _symmetry_equiv_pos_site_id
 _symmetry_equiv_pos_as_xyz
  1  'x, y, z'
loop_
 _atom_site_type_symbol
 _atom_site_label
 _atom_site_symmetry_multiplicity
 _atom_site_fract_x
 _atom_site_fract_y
 _atom_site_fract_z
 _atom_site_occupancy
  Mg  Mg0  1  0.62467149  0.11820036  0.38198824  1
  Mg  Mg1  1  0.87070056  0.38628127  0.85971674  1
  Mg  Mg2  1  0.62303955  0.62674290  0.11264810  1
  Mg  Mg3  1  0.63133988  0.87289999  0.86806438  1
  Mg  Mg4  1  0.13335056  0.62428214  0.37618957  1
  Mg  Mg5  1  0.12788043  0.37734626  0.87543513  1
  Mg  Mg6  1  0.12625377  0.12356181  0.37381589  1
  Mg  Mg7  1  0.12120766  0.63441019  0.62191342  1
  Mg  Mg8  1  0.86983734  0.62144678  0.36869491  1
  Mg  Mg9  1  0.38706448  0.62246888  0.88247983  1
  Mg  Mg10  1  0.38052291  0.12508566  0.63253325  1
  Mg  Mg11  1  0.38235684  0.62720083  0.62819910  1
  Mg  Mg12  1  0.36371680  0.87633303  0.87027803  1
  Mg  Mg13  1  0.12232653  0.13278735  0.63698294  1
  Mg  Mg14  1  0.88108370  0.12297955  0.37738015  1
  Mg  Mg15  1  0.37007323  0.37589398  0.37563305  1
  Mg  Mg16  1  0.12158596  0.87751989  0.87936861  1
  Mg  Mg17  1  0.63553543  0.37341376  0.36416026  1
  Mg  Mg18  1  0.11907369  0.62145863  0.88618244  1
  Mg  Mg19  1  0.24835958  0.74121717  0.81623091  1
  Mg  Mg20  1  0.74213312  0.50579561  0.72934532  1
  Mg  Mg21  1  -0.06494301  0.22487991  0.80909463  1
  Mg  Mg22  1  0.48886846  0.82563415  -0.00377269  1
  Mg  Mg23  1  0.25171394  0.50236403  0.19623593  1
  Mg  Mg24  1  0.50242814  0.46060893  -0.02378375  1
  Mg  Mg25  1  0.81274951  0.28170659  0.21990767  1
  Mg  Mg26  1  0.75038179  0.79677759  0.54182805  1
  Mg  Mg27  1  0.49621729  -0.04278808  0.79608130  1
  Mg  Mg28  1  0.56164416  -0.00078231  0.00075059  1
  Mg  Mg29  1  0.29350762  0.70433922  0.50564599  1
  Mg  Mg30  1  0.76039617  0.49535145  0.19123789  1
  Mg  Mg31  1  -0.03715718  -0.06345659  0.71306752  1
  Ti  Ti32  1  0.12200537  0.61935743  0.12239573  1
  Ti  Ti33  1  0.38183799  0.11586901  0.87198091  1
  Ti  Ti34  1  0.36757746  0.38011642  0.62027368  1
  Ti  Ti35  1  0.62157173  0.87210766  0.38436946  1
  Ti  Ti36  1  0.12856778  0.11040334  0.12548088  1
  Ti  Ti37  1  0.87877297  0.37722574  0.62528116  1
  Ti  Ti38  1  0.37532490  0.38052880  0.87037143  1
  Ti  Ti39  1  0.62644441  0.12910673  0.12655491  1
  Ti  Ti40  1  0.87533615  0.87988146  0.13304118  1
  Ti  Ti41  1  0.12417831  0.86769185  0.61952418  1
  Ti  Ti42  1  0.61968286  0.11672677  0.86437462  1
  Ti  Ti43  1  0.63419675  0.36982526  0.12597398  1
  Ti  Ti44  1  0.13994664  0.12795337  0.87668015  1
  Ti  Ti45  1  0.63242583  0.63035108  0.62160936  1
  Ti  Ti46  1  0.85174612  0.86912047  0.36451148  1
  Ti  Ti47  1  0.38387326  0.38430579  0.12029427  1
  Ti  Ti48  1  0.36625925  0.87295150  0.62777829  1
  Ti  Ti49  1  0.87963708  0.14440999  0.62361755  1
  Ti  Ti50  1  0.62368156  0.62867141  0.38153669  1
  Ti  Ti51  1  0.12013047  0.87824576  0.13609664  1
  Ti  Ti52  1  0.11774101  0.37826308  0.63321970  1
  Ti  Ti53  1  0.62875127  0.87834225  0.12860668  1
  Ti  Ti54  1  0.37815798  0.87328152  0.14344608  1
  Ti  Ti55  1  0.61935225  0.88248422  0.63111105  1
  Ti  Ti56  1  0.62524448  0.12905827  0.62555429  1
  Ti  Ti57  1  0.37723095  0.12456016  0.38125783  1
  Ti  Ti58  1  0.86951952  0.87259513  0.87538391  1
  Ti  Ti59  1  0.37810919  0.62682878  0.11948230  1
  Ti  Ti60  1  0.13381320  0.37921363  0.11641807  1
  Ti  Ti61  1  0.13371259  0.37831523  0.37192788  1
  Ti  Ti62  1  0.62593736  0.38315199  0.86964849  1
  Ti  Ti63  1  0.13240248  0.86789996  0.38872256  1
  Ti  Ti64  1  0.88611559  0.12533722  0.12777913  1
  Ti  Ti65  1  0.37832771  0.61800916  0.36983956  1
  Ti  Ti66  1  0.38796819  0.12865002  0.12988811  1
  Ti  Ti67  1  0.63155086  0.63409363  0.86529496  1
  Ti  Ti68  1  0.87252281  0.61053042  0.62583468  1
  Ti  Ti69  1  0.87389543  0.37740578  0.36960818  1
  Ti  Ti70  1  0.87433424  0.62141939  0.86973998  1
  Ti  Ti71  1  0.88116204  0.62893302  0.12450847  1
  Ti  Ti72  1  0.62744926  0.38061736  0.62060941  1
  Ti  Ti73  1  0.37074329  0.87188191  0.38459770  1
  Bi  Bi74  1  0.74941906  0.75787323  0.00038461  1
  Bi  Bi75  1  0.02203728  0.50584345  0.75466078  1
  Bi  Bi76  1  0.00822638  0.73025142  0.28537176  1
  Bi  Bi77  1  0.50502012  0.26228403  0.27756152  1
  Bi  Bi78  1  0.25106106  0.52992526  0.75034116  1
  Bi  Bi79  1  0.02388781  0.24295291  -0.00526206  1
  Bi  Bi80  1  0.47315623  0.49474096  0.49458781  1
  Bi  Bi81  1  0.53714187  0.50931489  0.24702679  1
  Bi  Bi82  1  0.52142424  0.00948078  0.26296889  1
  Bi  Bi83  1  0.48104868  0.75887299  0.77498384  1
  Bi  Bi84  1  0.75599418  0.24162421  0.45759112  1
  Bi  Bi85  1  0.02464150  0.74688820  0.77657375  1
  Bi  Bi86  1  0.22804091  0.23857876  0.51514916  1
  Bi  Bi87  1  -0.01083843  0.02620449  -0.05482039  1
  Bi  Bi88  1  0.49765880  0.27099847  0.72762196  1
  Bi  Bi89  1  0.52474723  0.74452957  0.23892417  1
  Bi  Bi90  1  0.52897432  0.24391639  -0.01805755  1
  Bi  Bi91  1  0.76579181  0.01477595  0.00445263  1
  Bi  Bi92  1  0.25706165  0.00461338  0.27854793  1
  Bi  Bi93  1  0.74410725  0.71526763  0.24569791  1
  Bi  Bi94  1  0.22718515  0.52079137  0.50701568  1
  Bi  Bi95  1  -0.01114549  0.46894495  0.22136725  1
  Bi  Bi96  1  0.26647719  0.24992583  -0.00197684  1
  Bi  Bi97  1  0.74426580  0.51733155  -0.01480342  1
  Bi  Bi98  1  0.21352254  -0.02503459  0.75075080  1
  Bi  Bi99  1  0.00691133  0.26845135  0.48450000  1
  Bi  Bi100  1  0.24944847  0.00981029  0.52092352  1
  Bi  Bi101  1  0.00763749  0.52857866  0.48502195  1
  Bi  Bi102  1  0.26248572  0.50740751  -0.02385160  1
  Bi  Bi103  1  0.00470448  -0.01372509  0.29100922  1
  Bi  Bi104  1  0.78143092  0.03246294  0.76782418  1
  Bi  Bi105  1  0.03219374  0.24218650  0.24408271  1
  Bi  Bi106  1  0.77564663  -0.00349279  0.54166205  1
  Bi  Bi107  1  0.78338671  0.76578317  0.72872224  1
  Bi  Bi108  1  0.01306495  0.76868747  0.00931409  1
  Bi  Bi109  1  0.75657286  0.27426351  0.75843415  1
  Bi  Bi110  1  -0.00016890  0.02289058  0.52962629  1
  Bi  Bi111  1  0.27907544  0.26364278  0.24887193  1
  Bi  Bi112  1  0.25856796  0.23487382  0.73109422  1
  Bi  Bi113  1  0.78118891  0.28328799  0.00397919  1
  Bi  Bi114  1  0.24359304  0.72794526  0.23732179  1
  Bi  Bi115  1  -0.04459069  0.78260882  0.51333902  1
  Bi  Bi116  1  -0.01516162  0.47036059  -0.01660409  1
  Bi  Bi117  1  0.76011190  0.50595922  0.47997292  1
  Bi  Bi118  1  0.24994220  0.77752292  0.02043985  1
  Bi  Bi119  1  0.48921367  0.00674379  0.52974829  1
  Bi  Bi120  1  0.52856326  0.26083218  0.48809474  1
  Bi  Bi121  1  0.50388212  0.52645670  0.73530291  1
  Bi  Bi122  1  0.48727092  0.75292192  0.49815199  1
  Bi  Bi123  1  0.76134556  0.04011745  0.25866072  1
  Bi  Bi124  1  0.28698918  0.00792090  0.01749942  1
  O  O125  1  0.09955898  0.11511482  0.00701126  1
  O  O126  1  0.13654845  0.14716188  0.24106153  1
  O  O127  1  0.13209662  0.14325909  0.50127259  1
  O  O128  1  0.15097103  0.14191681  0.76321758  1
  O  O129  1  0.14991028  0.40218364  0.00582632  1
  O  O130  1  0.09614012  0.36770606  0.25324279  1
  O  O131  1  0.13671204  0.35165271  0.49585450  1
  O  O132  1  0.10421547  0.38536444  0.74765168  1
  O  O133  1  0.13913167  0.61168685  0.00979309  1
  O  O134  1  0.12586475  0.64688203  0.25294598  1
  O  O135  1  0.11994353  0.60951386  0.49923737  1
  O  O136  1  0.11679628  0.61262220  0.74852787  1
  O  O137  1  0.12701778  0.86149728  0.00480911  1
  O  O138  1  0.10657339  0.85562419  0.24773811  1
  O  O139  1  0.15714589  0.88713177  0.50130545  1
  O  O140  1  0.09362443  0.89497425  0.74071193  1
  O  O141  1  0.38722971  0.10663989  0.00486818  1
  O  O142  1  0.35321296  0.12850636  0.24224411  1
  O  O143  1  0.38458129  0.11695063  0.49581307  1
  O  O144  1  0.35806841  0.13651456  0.76044804  1
  O  O145  1  0.33725597  0.37714307  0.00889539  1
  O  O146  1  0.39053148  0.35220466  0.24108278  1
  O  O147  1  0.36665124  0.39023673  0.50410995  1
  O  O148  1  0.40007631  0.38102224  0.75744880  1
  O  O149  1  0.35943946  0.62807625  0.00816425  1
  O  O150  1  0.35899359  0.64134996  0.25794134  1
  O  O151  1  0.40394138  0.61605090  0.50078597  1
  O  O152  1  0.37446146  0.59760085  0.75234358  1
  O  O153  1  0.36454266  0.86883263  -0.00152240  1
  O  O154  1  0.38599992  0.85804453  0.25532335  1
  O  O155  1  0.34606079  0.89792715  0.49637462  1
  O  O156  1  0.40526600  0.87896718  0.73764998  1
  O  O157  1  0.60625835  0.11738778  0.00422597  1
  O  O158  1  0.63086818  0.10455910  0.24759523  1
  O  O159  1  0.62287134  0.14477214  0.50856288  1
  O  O160  1  0.64086189  0.11016097  0.75330335  1
  O  O161  1  0.64338857  0.36775631  0.00485389  1
  O  O162  1  0.58723530  0.37257400  0.24140043  1
  O  O163  1  0.63729863  0.35588305  0.50418163  1
  O  O164  1  0.59007452  0.37717742  0.75688220  1
  O  O165  1  0.65820757  0.63789613  -0.01055345  1
  O  O166  1  0.61823504  0.63102464  0.24806654  1
  O  O167  1  0.61888707  0.62427769  0.49958531  1
  O  O168  1  0.63963490  0.59152629  0.74804771  1
  O  O169  1  0.60889682  0.87821906  0.00207373  1
  O  O170  1  0.59720974  0.88017654  0.24733885  1
  O  O171  1  0.65043600  0.85688678  0.49451687  1
  O  O172  1  0.59153834  0.88793777  0.74088934  1
  O  O173  1  0.87706239  0.09496840  0.00766806  1
  O  O174  1  0.84859795  0.15133764  0.24464366  1
  O  O175  1  0.87771498  0.09793685  0.50462719  1
  O  O176  1  0.85986966  0.15005605  0.74297652  1
  O  O177  1  0.84448551  0.40443103  -0.01591821  1
  O  O178  1  0.90701242  0.35658281  0.25875718  1
  O  O179  1  0.84066544  0.39747136  0.50717646  1
  O  O180  1  0.88595284  0.33204681  0.74228843  1
  O  O181  1  0.85663893  0.60429751  -0.00503376  1
  O  O182  1  0.87737231  0.65642272  0.24133286  1
  O  O183  1  0.86640216  0.58834728  0.49919028  1
  O  O184  1  0.87075317  0.64904557  0.74708363  1
  O  O185  1  0.86695764  0.90489342  -0.00824209  1
  O  O186  1  0.88138315  0.84697220  0.24323471  1
  O  O187  1  0.84778534  0.86775558  0.48917963  1
  O  O188  1  0.89590163  0.83776710  0.75431889  1
  O  O189  1  -0.00176016  0.12831231  0.13910190  1
  O  O190  1  0.00195118  0.09877589  0.36660668  1
  O  O191  1  -0.00234197  0.13392917  0.62181527  1
  O  O192  1  0.00697585  0.15034530  0.87908550  1
  O  O193  1  0.00954389  0.39375840  0.10787904  1
  O  O194  1  -0.01117183  0.38687974  0.40879471  1
  O  O195  1  -0.00417401  0.37294286  0.60558406  1
  O  O196  1  -0.00399745  0.35524582  0.90595865  1
  O  O197  1  0.00050067  0.63517949  0.11789615  1
  O  O198  1  -0.00364304  0.60838912  0.36947501  1
  O  O199  1  -0.01415400  0.61782062  0.61009121  1
  O  O200  1  -0.01228151  0.65834016  0.88222830  1
  O  O201  1  -0.00408654  0.86638621  0.10996551  1
  O  O202  1  0.00808089  0.89341014  0.39869637  1
  O  O203  1  0.00577035  0.89313652  0.59766140  1
  O  O204  1  -0.00606753  0.84294290  0.88983966  1
  O  O205  1  0.24421122  0.11343729  0.10277121  1
  O  O206  1  0.25421545  0.10299299  0.37957099  1
  O  O207  1  0.25528793  0.14282379  0.62211053  1
  O  O208  1  0.25531542  0.11739020  0.90757880  1
  O  O209  1  0.24746209  0.38173824  0.15906884  1
  O  O210  1  0.24519298  0.36213329  0.35136892  1
  O  O211  1  0.25510547  0.38850630  0.64200985  1
  O  O212  1  0.25670324  0.42298338  0.85773388  1
  O  O213  1  0.24715215  0.61798268  0.14767564  1
  O  O214  1  0.26001714  0.62570563  0.40854736  1
  O  O215  1  0.25475397  0.62281895  0.59996218  1
  O  O216  1  0.24867475  0.60803491  0.86467513  1
  O  O217  1  0.24522952  0.87910086  0.12265836  1
  O  O218  1  0.25036321  0.87450039  0.35110575  1
  O  O219  1  0.24903287  0.87513202  0.65305352  1
  O  O220  1  0.24311522  0.87326122  0.84111890  1
  O  O221  1  0.49898180  0.13038874  0.14716519  1
  O  O222  1  0.49462684  0.12212735  0.35573612  1
  O  O223  1  0.50595764  0.11154216  0.62929103  1
  O  O224  1  0.49544556  0.15680879  0.87308339  1
  O  O225  1  0.49364024  0.39318344  0.08634415  1
  O  O226  1  0.49792265  0.35585676  0.38679888  1
  O  O227  1  0.50360272  0.35045475  0.61406021  1
  O  O228  1  0.49624936  0.35752008  0.90200025  1
  O  O229  1  0.49298580  0.63355341  0.13236902  1
  O  O230  1  0.49932758  0.63427431  0.36179648  1
  O  O231  1  0.51255586  0.63570879  0.64792556  1
  O  O232  1  0.51359438  0.63913309  0.85824117  1
  O  O233  1  0.48915994  0.85108786  0.11680084  1
  O  O234  1  0.49418511  0.86444681  0.40343543  1
  O  O235  1  0.49914615  0.87164475  0.58959389  1
  O  O236  1  0.49850253  0.85060645  0.87598522  1
  O  O237  1  0.74377220  0.10529040  0.11674993  1
  O  O238  1  0.75192283  0.11977672  0.38236429  1
  O  O239  1  0.75077436  0.10712239  0.62387359  1
  O  O240  1  0.73677746  0.09269345  0.88793865  1
  O  O241  1  0.74503011  0.37091767  0.15776427  1
  O  O242  1  0.75911319  0.33231438  0.34716961  1
  O  O243  1  0.74053775  0.38531563  0.65856468  1
  O  O244  1  0.73809950  0.39945380  0.83244210  1
  O  O245  1  0.75338374  0.62006375  0.14302328  1
  O  O246  1  0.74215139  0.63666143  0.36641683  1
  O  O247  1  0.74558238  0.58649931  0.62254790  1
  O  O248  1  0.75513175  0.58073195  0.86096500  1
  O  O249  1  0.74590279  0.88241411  0.12201837  1
  O  O250  1  0.74106577  0.86685808  0.34836658  1
  O  O251  1  0.74144705  0.88341984  0.63906772  1
  O  O252  1  0.75602709  0.90354752  0.85657379  1
  O  O253  1  0.11855874  -0.00335286  0.14342524  1
  O  O254  1  0.13351936  -0.00749810  0.35181990  1
  O  O255  1  0.13961559  0.00621814  0.61931297  1
  O  O256  1  0.11726895  0.00972159  0.87165380  1
  O  O257  1  0.12004100  0.25860143  0.11284330  1
  O  O258  1  0.09277750  0.25220258  0.37115993  1
  O  O259  1  0.14816768  0.26032677  0.63029065  1
  O  O260  1  0.14034329  0.25230419  0.91158670  1
  O  O261  1  0.12933257  0.50304008  0.15535349  1
  O  O262  1  0.13159113  0.49174788  0.38570105  1
  O  O263  1  0.12490183  0.49341609  0.61319476  1
  O  O264  1  0.08439178  0.49974562  0.87639789  1
  O  O265  1  0.14325397  0.74743168  0.11954450  1
  O  O266  1  0.10927286  0.75425489  0.38677565  1
  O  O267  1  0.10790946  0.75809825  0.62688919  1
  O  O268  1  0.13443930  0.74690183  0.86162876  1
  O  O269  1  0.37250006  -0.00540443  0.13131038  1
  O  O270  1  0.37859370  -0.00538428  0.35500814  1
  O  O271  1  0.37012985  -0.00262295  0.61559611  1
  O  O272  1  0.39604108  0.00334294  0.86198402  1
  O  O273  1  0.36558684  0.24670451  0.11444078  1
  O  O274  1  0.36751245  0.24213526  0.36673099  1
  O  O275  1  0.37469063  0.25850065  0.64113364  1
  O  O276  1  0.34735266  0.26244817  0.88672587  1
  O  O277  1  0.36657761  0.50107091  0.14014883  1
  O  O278  1  0.39109896  0.50187891  0.37213960  1
  O  O279  1  0.40952225  0.49470216  0.62379328  1
  O  O280  1  0.39989131  0.49422701  0.91010076  1
  O  O281  1  0.34547242  0.74943729  0.12664180  1
  O  O282  1  0.37048014  0.75165709  0.41135123  1
  O  O283  1  0.37355253  0.75604580  0.59426665  1
  O  O284  1  0.36603279  0.74615142  0.85058114  1
  O  O285  1  0.60069445  -0.00367531  0.12029402  1
  O  O286  1  0.60608417  -0.00959344  0.37694181  1
  O  O287  1  0.62011334  -0.00462610  0.60042372  1
  O  O288  1  0.58273439  0.00452570  0.87770232  1
  O  O289  1  0.62430715  0.24613788  0.12506679  1
  O  O290  1  0.61354840  0.24560185  0.37510112  1
  O  O291  1  0.62403171  0.24489476  0.64989607  1
  O  O292  1  0.63295809  0.24935032  0.88462666  1
  O  O293  1  0.63596288  0.49597787  0.14162235  1
  O  O294  1  0.62000551  0.50317842  0.36096713  1
  O  O295  1  0.60213719  0.49140641  0.61747141  1
  O  O296  1  0.60302648  0.49262836  0.90299922  1
  O  O297  1  0.62972190  0.75501550  0.13884522  1
  O  O298  1  0.61348727  0.75086950  0.35833456  1
  O  O299  1  0.65286464  0.74426411  0.62458588  1
  O  O300  1  0.65391243  0.74478399  0.85571070  1
  O  O301  1  0.87452878  -0.00390881  0.15188649  1
  O  O302  1  0.86963178  -0.01330930  0.35014697  1
  O  O303  1  0.88738676  0.00551695  0.63426052  1
  O  O304  1  0.90928978  -0.01581697  0.82949072  1
  O  O305  1  0.86972969  0.24201022  0.10571467  1
  O  O306  1  0.88869621  0.25054631  0.40426705  1
  O  O307  1  0.86038868  0.25403693  0.59425887  1
  O  O308  1  0.83958370  0.26070408  0.88201169  1
  O  O309  1  0.87655262  0.51180404  0.14592375  1
  O  O310  1  0.83680519  0.48908864  0.35529601  1
  O  O311  1  0.87154267  0.49115066  0.66171764  1
  O  O312  1  0.90851249  0.50820035  0.85394493  1
  O  O313  1  0.86477667  0.75362408  0.08528315  1
  O  O314  1  0.89603965  0.75265182  0.38627296  1
  O  O315  1  0.84355062  0.73241257  0.60061421  1
  O  O316  1  0.83599983  0.74975834  0.89163549  1
