# generated using pymatgen
data_Mg32Ti42(Bi17O64)3
_symmetry_space_group_name_H-M   'P 1'
_cell_length_a   15.95351290
_cell_length_b   15.94238961
_cell_length_c   15.97418359
_cell_angle_alpha   90.09660372
_cell_angle_beta   89.95861605
_cell_angle_gamma   89.90263017
_symmetry_Int_Tables_number   1
_chemical_formula_structural   Mg32Ti42(Bi17O64)3
_chemical_formula_sum   'Mg32 Ti42 Bi51 O192'
_cell_volume   4062.81511105
_cell_formula_units_Z   1
loop_
 _symmetry_equiv_pos_site_id
 _symmetry_equiv_pos_as_xyz
  1  'x, y, z'
loop_
 _atom_site_type_symbol
 _atom_site_label
 _atom_site_symmetry_multiplicity
 _atom_site_fract_x
 _atom_site_fract_y
 _atom_site_fract_z
 _atom_site_occupancy
  Mg  Mg0  1  0.87644492  0.63047078  0.86346407  1
  Mg  Mg1  1  0.62437851  0.12390532  0.11691775  1
  Mg  Mg2  1  0.37531045  0.12438691  0.87656477  1
  Mg  Mg3  1  0.87996936  0.12528743  0.11026471  1
  Mg  Mg4  1  0.38604955  0.61584029  0.12822792  1
  Mg  Mg5  1  0.12450463  0.37208581  0.62180876  1
  Mg  Mg6  1  0.86958042  0.37366327  0.87695017  1
  Mg  Mg7  1  0.87941015  0.12014895  0.62959444  1
  Mg  Mg8  1  0.62429624  0.87180017  0.86866133  1
  Mg  Mg9  1  0.12947226  0.88044264  0.62963612  1
  Mg  Mg10  1  0.88775804  0.38135787  0.63273762  1
  Mg  Mg11  1  0.13291377  0.37312546  0.88502667  1
  Mg  Mg12  1  0.62663147  0.37939961  0.62721190  1
  Mg  Mg13  1  0.35961897  0.87752178  0.86182364  1
  Mg  Mg14  1  0.87417833  0.36999535  0.38065615  1
  Mg  Mg15  1  0.87320988  0.87635998  0.63058557  1
  Mg  Mg16  1  0.87349459  0.87799703  0.37671376  1
  Mg  Mg17  1  0.36981793  0.37734320  0.62561779  1
  Mg  Mg18  1  0.37314761  0.36649054  0.37311392  1
  Mg  Mg19  1  0.25586356  0.71724624  0.73092428  1
  Mg  Mg20  1  0.48552583  0.55617307  -0.04883215  1
  Mg  Mg21  1  0.54370332  0.78479447  0.49822799  1
  Mg  Mg22  1  0.49026034  0.44048549  0.53058361  1
  Mg  Mg23  1  0.04688419  0.01208296  0.00948182  1
  Mg  Mg24  1  0.27909056  0.03914245  0.68134783  1
  Mg  Mg25  1  -0.00939763  -0.01583666  0.49838611  1
  Mg  Mg26  1  -0.00336472  0.28230953  -0.04159941  1
  Mg  Mg27  1  0.04219495  0.44917296  0.76199913  1
  Mg  Mg28  1  0.75682634  0.03596770  0.73777570  1
  Mg  Mg29  1  0.73416576  0.21491020  -0.03026838  1
  Mg  Mg30  1  0.55804559  0.25096880  0.52195763  1
  Mg  Mg31  1  -0.01958611  0.23236415  0.52107125  1
  Ti  Ti32  1  0.38857592  0.86739576  0.37667262  1
  Ti  Ti33  1  0.62618480  0.61046267  0.12541834  1
  Ti  Ti34  1  0.62648936  0.37359828  0.38652484  1
  Ti  Ti35  1  0.87123139  0.37041414  0.11181021  1
  Ti  Ti36  1  0.38289212  0.12283281  0.36340043  1
  Ti  Ti37  1  0.63824418  0.12630330  0.62556259  1
  Ti  Ti38  1  0.38182660  0.87002612  0.13278848  1
  Ti  Ti39  1  0.62666735  0.62321734  0.86296421  1
  Ti  Ti40  1  0.61386971  0.62159193  0.61073960  1
  Ti  Ti41  1  0.63208631  0.87194140  0.12613715  1
  Ti  Ti42  1  0.11034459  0.12654449  0.60297806  1
  Ti  Ti43  1  0.38575512  0.12619238  0.12156950  1
  Ti  Ti44  1  0.88493600  0.62574846  0.37895027  1
  Ti  Ti45  1  0.62412660  0.88746733  0.62921825  1
  Ti  Ti46  1  0.37575230  0.62560969  0.60574778  1
  Ti  Ti47  1  0.14656410  0.11318046  0.87676193  1
  Ti  Ti48  1  0.38186636  0.87456177  0.61818024  1
  Ti  Ti49  1  0.63517932  0.88423103  0.37403645  1
  Ti  Ti50  1  0.39335858  0.37128908  0.12813232  1
  Ti  Ti51  1  0.11547402  0.61677536  0.11779698  1
  Ti  Ti52  1  0.12954884  0.87861106  0.87651940  1
  Ti  Ti53  1  0.36156791  0.63301475  0.37222952  1
  Ti  Ti54  1  0.88579743  0.62358709  0.63392025  1
  Ti  Ti55  1  0.12245697  0.35877112  0.11529520  1
  Ti  Ti56  1  0.62269410  0.38481207  0.87657498  1
  Ti  Ti57  1  0.87880531  0.88335594  0.87544351  1
  Ti  Ti58  1  0.38239924  0.37374226  0.86865023  1
  Ti  Ti59  1  0.61848516  0.63446257  0.38331310  1
  Ti  Ti60  1  0.87495374  0.12979475  0.87391017  1
  Ti  Ti61  1  0.12060218  0.88414142  0.38298690  1
  Ti  Ti62  1  0.13256641  0.13280304  0.11361929  1
  Ti  Ti63  1  0.87837433  0.12526860  0.38113883  1
  Ti  Ti64  1  0.87178968  0.87642586  0.12978930  1
  Ti  Ti65  1  0.87574819  0.62808601  0.12733180  1
  Ti  Ti66  1  0.11936755  0.13121825  0.37401209  1
  Ti  Ti67  1  0.63587916  0.12313212  0.37835178  1
  Ti  Ti68  1  0.61858310  0.10510461  0.86748601  1
  Ti  Ti69  1  0.12215254  0.63398177  0.86986654  1
  Ti  Ti70  1  0.62742357  0.37727523  0.11287138  1
  Ti  Ti71  1  0.13002436  0.36393462  0.36698079  1
  Ti  Ti72  1  0.13166939  0.63109770  0.36697400  1
  Ti  Ti73  1  0.11645318  0.62557524  0.62828034  1
  Bi  Bi74  1  0.01377572  0.78622033  0.23215807  1
  Bi  Bi75  1  0.51835084  0.24912674  -0.02783993  1
  Bi  Bi76  1  0.24806393  0.76722385  0.52694209  1
  Bi  Bi77  1  0.27163910  0.24747404  0.23887065  1
  Bi  Bi78  1  0.01577004  0.76526560  0.50002024  1
  Bi  Bi79  1  0.26461262  0.47222444  0.48988774  1
  Bi  Bi80  1  0.76542583  0.74353499  0.50867651  1
  Bi  Bi81  1  0.28337160  0.21858310  0.51655134  1
  Bi  Bi82  1  0.23747365  0.50039351  0.72760548  1
  Bi  Bi83  1  0.77569811  0.50186228  0.51315292  1
  Bi  Bi84  1  0.24876953  -0.03613705  0.02299896  1
  Bi  Bi85  1  0.75331775  0.49161288  0.76642374  1
  Bi  Bi86  1  0.50801785  0.73819018  0.23964772  1
  Bi  Bi87  1  0.01537089  0.25277875  0.74990365  1
  Bi  Bi88  1  -0.02734349  0.26756762  0.25020261  1
  Bi  Bi89  1  0.76500965  0.76189981  -0.02515430  1
  Bi  Bi90  1  0.24876805  0.72929874  0.21265319  1
  Bi  Bi91  1  0.25310605  -0.00504688  0.47391613  1
  Bi  Bi92  1  0.78046090  -0.01171921  0.51559398  1
  Bi  Bi93  1  -0.00373392  0.78062362  0.75025527  1
  Bi  Bi94  1  -0.02689158  0.48573750  0.23931728  1
  Bi  Bi95  1  0.48773634  0.04155553  0.51960646  1
  Bi  Bi96  1  0.46564442  0.00550243  0.75066394  1
  Bi  Bi97  1  0.52268929  0.74157777  -0.01071395  1
  Bi  Bi98  1  0.78181819  0.26933099  0.52145110  1
  Bi  Bi99  1  0.25158676  -0.01072248  0.23343687  1
  Bi  Bi100  1  0.00510516  0.02396255  0.24152896  1
  Bi  Bi101  1  0.47907137  0.51572583  0.72872022  1
  Bi  Bi102  1  0.76000046  0.00948526  -0.01802804  1
  Bi  Bi103  1  0.77632499  0.51753262  -0.00397387  1
  Bi  Bi104  1  0.73787019  0.24753118  0.21886719  1
  Bi  Bi105  1  0.72768444  0.75773029  0.73302418  1
  Bi  Bi106  1  0.75195011  0.26624801  0.74919264  1
  Bi  Bi107  1  0.75599144  0.74812098  0.26183432  1
  Bi  Bi108  1  0.02237347  0.48835179  0.47004881  1
  Bi  Bi109  1  0.76464396  0.01939440  0.22925014  1
  Bi  Bi110  1  0.51959820  -0.00870899  0.23738647  1
  Bi  Bi111  1  0.27356965  0.49522263  -0.00847734  1
  Bi  Bi112  1  0.73922259  0.51547344  0.27741695  1
  Bi  Bi113  1  0.03106935  0.01062179  0.74370762  1
  Bi  Bi114  1  -0.00156197  0.52331777  -0.03420060  1
  Bi  Bi115  1  0.46095418  0.23137848  0.70961517  1
  Bi  Bi116  1  0.27632250  0.25377175  -0.00462611  1
  Bi  Bi117  1  0.02213794  0.78754822  0.01290591  1
  Bi  Bi118  1  0.23597939  0.25904291  0.75183924  1
  Bi  Bi119  1  0.28974817  0.71637560  -0.03417196  1
  Bi  Bi120  1  0.49076874  0.49957987  0.28211139  1
  Bi  Bi121  1  0.45236317  0.73231385  0.76282010  1
  Bi  Bi122  1  0.24677241  0.48711784  0.22957901  1
  Bi  Bi123  1  0.49161495  -0.03784629  -0.02130876  1
  Bi  Bi124  1  0.52255338  0.25687569  0.27191772  1
  O  O125  1  0.11946650  0.12063372  -0.00229806  1
  O  O126  1  0.13214728  0.10151854  0.25826361  1
  O  O127  1  0.09040430  0.16483051  0.49703765  1
  O  O128  1  0.14928969  0.08325588  0.74537898  1
  O  O129  1  0.09712030  0.34586012  0.00336341  1
  O  O130  1  0.15108107  0.38308018  0.25138047  1
  O  O131  1  0.11234422  0.38828282  0.49751418  1
  O  O132  1  0.16035596  0.37812222  0.75891811  1
  O  O133  1  0.10029992  0.62254811  0.00540147  1
  O  O134  1  0.15063189  0.62466194  0.25321905  1
  O  O135  1  0.10599755  0.61468666  0.51534014  1
  O  O136  1  0.16012403  0.63816626  0.76171156  1
  O  O137  1  0.10950495  0.89725727  -0.00355650  1
  O  O138  1  0.09671594  0.89111526  0.26971085  1
  O  O139  1  0.13333287  0.84685909  0.50741105  1
  O  O140  1  0.09787397  0.88518848  0.75399146  1
  O  O141  1  0.38811092  0.15288904  0.00750527  1
  O  O142  1  0.33849502  0.10901763  0.24943455  1
  O  O143  1  0.39195562  0.14527921  0.48598140  1
  O  O144  1  0.36747741  0.10243485  0.74694399  1
  O  O145  1  0.39220864  0.33381999  0.01293543  1
  O  O146  1  0.34433566  0.37959355  0.24319410  1
  O  O147  1  0.37820971  0.38706274  0.49816789  1
  O  O148  1  0.37469322  0.40674843  0.75694533  1
  O  O149  1  0.40338469  0.64501679  0.00496020  1
  O  O150  1  0.34101484  0.62389876  0.25076051  1
  O  O151  1  0.38515033  0.64533195  0.49502204  1
  O  O152  1  0.37735084  0.61159786  0.74325284  1
  O  O153  1  0.37146177  0.87626057  0.00892393  1
  O  O154  1  0.38691678  0.90289367  0.25531434  1
  O  O155  1  0.35645462  0.86041853  0.49608237  1
  O  O156  1  0.39376953  0.88808158  0.73876059  1
  O  O157  1  0.64086907  0.12279770  -0.01299259  1
  O  O158  1  0.63157535  0.15771899  0.25789089  1
  O  O159  1  0.61599725  0.12057669  0.49694718  1
  O  O160  1  0.63487583  0.12039403  0.74362957  1
  O  O161  1  0.60533335  0.38946192  0.00382989  1
  O  O162  1  0.63693284  0.34590579  0.25726881  1
  O  O163  1  0.59189239  0.37605717  0.49818198  1
  O  O164  1  0.64659688  0.38667041  0.75581457  1
  O  O165  1  0.59178186  0.61133980  0.01146656  1
  O  O166  1  0.65808808  0.62792118  0.25241910  1
  O  O167  1  0.58999514  0.65493661  0.49815042  1
  O  O168  1  0.64315154  0.63557573  0.74832420  1
  O  O169  1  0.62427209  0.88253281  0.01145959  1
  O  O170  1  0.59763952  0.87028486  0.25536224  1
  O  O171  1  0.64102578  0.86900896  0.49535938  1
  O  O172  1  0.61676369  0.85634446  0.74221579  1
  O  O173  1  0.82957285  0.13303261  -0.00763212  1
  O  O174  1  0.88132496  0.09474471  0.25100179  1
  O  O175  1  0.88356133  0.15681783  0.49605831  1
  O  O176  1  0.87062699  0.09736747  0.75830728  1
  O  O177  1  0.90038092  0.35470034  0.00089317  1
  O  O178  1  0.87847428  0.38044660  0.24927330  1
  O  O179  1  0.90415904  0.33665773  0.50705705  1
  O  O180  1  0.83480774  0.38280079  0.75285958  1
  O  O181  1  0.88582184  0.62185535  0.00874739  1
  O  O182  1  0.84306121  0.61328833  0.25488010  1
  O  O183  1  0.87661423  0.64486823  0.49931546  1
  O  O184  1  0.85581039  0.60768608  0.74128950  1
  O  O185  1  0.87835226  0.84820215  0.00793484  1
  O  O186  1  0.89699442  0.88628199  0.24852487  1
  O  O187  1  0.83885896  0.85950223  0.50483628  1
  O  O188  1  0.89501130  0.88243343  0.75739008  1
  O  O189  1  0.00654026  0.08322987  0.11299414  1
  O  O190  1  -0.00000895  0.12209445  0.35796376  1
  O  O191  1  -0.00181858  0.16136372  0.63202110  1
  O  O192  1  -0.02271133  0.17149501  0.89566613  1
  O  O193  1  0.00659648  0.38554715  0.15006293  1
  O  O194  1  0.00806922  0.38827295  0.36079871  1
  O  O195  1  0.00577317  0.36635218  0.67183578  1
  O  O196  1  0.00024438  0.35684363  0.85158391  1
  O  O197  1  -0.00160487  0.60757665  0.14726998  1
  O  O198  1  -0.00241348  0.62328953  0.36527774  1
  O  O199  1  -0.00020436  0.65235762  0.64662891  1
  O  O200  1  0.00281092  0.63523197  0.87171988  1
  O  O201  1  -0.00549498  0.87209397  0.12158061  1
  O  O202  1  -0.00440534  0.87623005  0.42404264  1
  O  O203  1  -0.00097412  0.83891938  0.62198631  1
  O  O204  1  -0.00555472  0.84928747  0.88361600  1
  O  O205  1  0.24753058  0.16072119  0.11300552  1
  O  O206  1  0.23932517  0.11721601  0.40446449  1
  O  O207  1  0.23333354  0.10953467  0.58811416  1
  O  O208  1  0.25259436  0.10005040  0.89687997  1
  O  O209  1  0.24397095  0.34699742  0.10403773  1
  O  O210  1  0.24542794  0.37450464  0.39485060  1
  O  O211  1  0.24803250  0.41185190  0.61633820  1
  O  O212  1  0.25808019  0.38423899  0.90846654  1
  O  O213  1  0.24708473  0.64429895  0.10547377  1
  O  O214  1  0.24613961  0.63375572  0.39909571  1
  O  O215  1  0.25851275  0.59957769  0.61837986  1
  O  O216  1  0.23988499  0.60543308  0.90763772  1
  O  O217  1  0.26002354  0.87318976  0.13601756  1
  O  O218  1  0.23824016  0.89384573  0.37166168  1
  O  O219  1  0.25700774  0.89340134  0.62303013  1
  O  O220  1  0.23735684  0.90256879  0.87502775  1
  O  O221  1  0.49750213  0.10635841  0.13743828  1
  O  O222  1  0.49499848  0.11990217  0.34860763  1
  O  O223  1  0.51056454  0.15406510  0.60900620  1
  O  O224  1  0.50746819  0.15369982  0.86914030  1
  O  O225  1  0.50603023  0.37587988  0.14782007  1
  O  O226  1  0.49709395  0.37547191  0.35138214  1
  O  O227  1  0.49757904  0.33893735  0.62639032  1
  O  O228  1  0.50034767  0.34996488  0.87130588  1
  O  O229  1  0.50931802  0.61809656  0.16485691  1
  O  O230  1  0.50026395  0.63056432  0.34632185  1
  O  O231  1  0.50018657  0.64631722  0.64848649  1
  O  O232  1  0.50705790  0.65497548  0.87069094  1
  O  O233  1  0.49855280  0.89916417  0.12532691  1
  O  O234  1  0.50032163  0.85541521  0.39756559  1
  O  O235  1  0.49980948  0.84857606  0.59901387  1
  O  O236  1  0.49501365  0.85073498  0.89460119  1
  O  O237  1  0.75170445  0.12552703  0.14493260  1
  O  O238  1  0.75057504  0.11677910  0.37657657  1
  O  O239  1  0.75056632  0.09389222  0.62383271  1
  O  O240  1  0.73909924  0.07956188  0.85952524  1
  O  O241  1  0.75556727  0.37078849  0.11075714  1
  O  O242  1  0.74212786  0.37844235  0.39950429  1
  O  O243  1  0.75255455  0.39080424  0.59566084  1
  O  O244  1  0.73808413  0.41959291  0.89088238  1
  O  O245  1  0.74846427  0.62839581  0.10298840  1
  O  O246  1  0.73496653  0.60351070  0.39502803  1
  O  O247  1  0.73408844  0.60195811  0.60249587  1
  O  O248  1  0.74234725  0.60699654  0.89501640  1
  O  O249  1  0.74794601  0.85334478  0.14081760  1
  O  O250  1  0.74527020  0.87962465  0.34650711  1
  O  O251  1  0.74157091  0.91791370  0.64841097  1
  O  O252  1  0.75391092  0.88262968  0.89158558  1
  O  O253  1  0.16180773  0.01340535  0.12351204  1
  O  O254  1  0.11115489  0.00125114  0.41699816  1
  O  O255  1  0.08169891  0.00826834  0.60329395  1
  O  O256  1  0.08260271  0.00628620  0.87930087  1
  O  O257  1  0.10280783  0.24481350  0.14560392  1
  O  O258  1  0.12582515  0.24867459  0.35524001  1
  O  O259  1  0.13821051  0.24312297  0.65339884  1
  O  O260  1  0.13782107  0.23183560  0.85178897  1
  O  O261  1  0.14691736  0.49577025  0.12397601  1
  O  O262  1  0.12424492  0.50948819  0.37977795  1
  O  O263  1  0.10904377  0.51105893  0.66623372  1
  O  O264  1  0.09896669  0.50259659  0.86694852  1
  O  O265  1  0.11014799  0.74018907  0.13715445  1
  O  O266  1  0.11053324  0.75035716  0.37725803  1
  O  O267  1  0.16243008  0.74160845  0.63866151  1
  O  O268  1  0.13665650  0.75582753  0.88975505  1
  O  O269  1  0.34838922  0.00938794  0.11877241  1
  O  O270  1  0.37359807  0.00000378  0.39720644  1
  O  O271  1  0.39205476  -0.00428544  0.61434541  1
  O  O272  1  0.40431388  -0.00194910  0.87696235  1
  O  O273  1  0.38644134  0.24524823  0.16003483  1
  O  O274  1  0.36376652  0.24084867  0.35011175  1
  O  O275  1  0.34374790  0.25431970  0.64021974  1
  O  O276  1  0.35427391  0.25558721  0.86015132  1
  O  O277  1  0.36219054  0.48751362  0.11800786  1
  O  O278  1  0.37839624  0.51291212  0.37112990  1
  O  O279  1  0.41080198  0.50538127  0.61063524  1
  O  O280  1  0.39107067  0.48349678  0.91937933  1
  O  O281  1  0.39075969  0.75610125  0.14998901  1
  O  O282  1  0.36665936  0.75596182  0.35236927  1
  O  O283  1  0.34947082  0.74604344  0.64178317  1
  O  O284  1  0.33045840  0.75326245  0.83410780  1
  O  O285  1  0.63640519  -0.00392076  0.15152336  1
  O  O286  1  0.61660735  0.00221759  0.36367198  1
  O  O287  1  0.59084623  0.00075608  0.61946650  1
  O  O288  1  0.58834680  -0.00425176  0.87011714  1
  O  O289  1  0.64177907  0.25435504  0.11011063  1
  O  O290  1  0.60210409  0.24817467  0.39573144  1
  O  O291  1  0.65259917  0.24379637  0.61181103  1
  O  O292  1  0.64597678  0.26648631  0.89277383  1
  O  O293  1  0.64063762  0.49569534  0.14567233  1
  O  O294  1  0.61116756  0.49777462  0.36040474  1
  O  O295  1  0.58669739  0.50728846  0.61541443  1
  O  O296  1  0.58717802  0.50957417  0.87298265  1
  O  O297  1  0.60588928  0.75053654  0.13194242  1
  O  O298  1  0.63750599  0.74833695  0.36725280  1
  O  O299  1  0.65535794  0.75363524  0.61771961  1
  O  O300  1  0.64153509  0.74377695  0.89765061  1
  O  O301  1  0.84704996  -0.01029076  0.11444993  1
  O  O302  1  0.88367677  0.00544998  0.41199494  1
  O  O303  1  0.89635473  -0.00306332  0.58819255  1
  O  O304  1  0.88450544  -0.00283731  0.90766242  1
  O  O305  1  0.88847170  0.25057960  0.14178558  1
  O  O306  1  0.87263640  0.24293629  0.34737755  1
  O  O307  1  0.84429178  0.24896985  0.64489505  1
  O  O308  1  0.82423357  0.24309177  0.86737257  1
  O  O309  1  0.87638985  0.49525262  0.12649645  1
  O  O310  1  0.87371477  0.50362661  0.38577725  1
  O  O311  1  0.88869717  0.50878375  0.59952073  1
  O  O312  1  0.88034131  0.50235668  0.89131170  1
  O  O313  1  0.88164456  0.74249469  0.14932885  1
  O  O314  1  0.85335143  0.74390705  0.36371587  1
  O  O315  1  0.83615070  0.74355921  0.63412131  1
  O  O316  1  0.84954681  0.75257076  0.86882598  1
