# generated using pymatgen
data_Mg32Ti42(Bi17O64)3
_symmetry_space_group_name_H-M   'P 1'
_cell_length_a   15.92780372
_cell_length_b   15.91760510
_cell_length_c   15.96877633
_cell_angle_alpha   89.99736445
_cell_angle_beta   90.13680020
_cell_angle_gamma   89.98732063
_symmetry_Int_Tables_number   1
_chemical_formula_structural   Mg32Ti42(Bi17O64)3
_chemical_formula_sum   'Mg32 Ti42 Bi51 O192'
_cell_volume   4048.59197942
_cell_formula_units_Z   1
loop_
 _symmetry_equiv_pos_site_id
 _symmetry_equiv_pos_as_xyz
  1  'x, y, z'
loop_
 _atom_site_type_symbol
 _atom_site_label
 _atom_site_symmetry_multiplicity
 _atom_site_fract_x
 _atom_site_fract_y
 _atom_site_fract_z
 _atom_site_occupancy
  Mg  Mg0  1  0.88205453  0.62372991  0.88275971  1
  Mg  Mg1  1  0.37856140  0.87700751  0.37682253  1
  Mg  Mg2  1  0.62130498  0.86324251  0.63377906  1
  Mg  Mg3  1  0.87665513  0.37343999  0.36932418  1
  Mg  Mg4  1  0.37883676  0.13236414  0.12783803  1
  Mg  Mg5  1  0.12164325  0.37250817  0.12611562  1
  Mg  Mg6  1  0.62193760  0.87142631  0.38306165  1
  Mg  Mg7  1  0.37469451  0.86297910  0.63222917  1
  Mg  Mg8  1  0.62163189  0.12260438  0.87065355  1
  Mg  Mg9  1  0.87485036  0.87999223  0.38091215  1
  Mg  Mg10  1  0.87144035  0.12762081  0.37680204  1
  Mg  Mg11  1  0.12038974  0.62346761  0.13297469  1
  Mg  Mg12  1  0.62791653  0.37539010  0.37608818  1
  Mg  Mg13  1  0.86905014  0.61054996  0.62415380  1
  Mg  Mg14  1  0.62023022  0.63706644  0.88140863  1
  Mg  Mg15  1  0.12326265  0.11979375  0.62101888  1
  Mg  Mg16  1  0.36975162  0.38003101  0.86731368  1
  Mg  Mg17  1  0.62758190  0.63351859  0.38377289  1
  Mg  Mg18  1  0.89020450  0.61827649  0.36908025  1
  Mg  Mg19  1  0.81658174  0.25915431  0.49885245  1
  Mg  Mg20  1  0.75236896  0.49715420  0.49676425  1
  Mg  Mg21  1  0.52412842  0.23852026  0.30098653  1
  Mg  Mg22  1  -0.04083260  0.04169358  0.00040249  1
  Mg  Mg23  1  0.49931909  0.71013403  0.55566714  1
  Mg  Mg24  1  0.02399427  0.67279643  0.54070765  1
  Mg  Mg25  1  -0.06573859  0.01233571  0.50474499  1
  Mg  Mg26  1  0.50042257  -0.03808931  0.53787218  1
  Mg  Mg27  1  -0.03345263  0.49211648  0.24910242  1
  Mg  Mg28  1  0.04940736  0.43466386  0.71798573  1
  Mg  Mg29  1  0.45253293  0.75761472  0.76975796  1
  Mg  Mg30  1  0.25777453  0.02954807  0.04582177  1
  Mg  Mg31  1  -0.04339354  0.76660309  0.26964307  1
  Ti  Ti32  1  0.10744083  0.63237997  0.35858034  1
  Ti  Ti33  1  0.37885759  0.61753843  0.12652787  1
  Ti  Ti34  1  0.36541114  0.88490933  0.11833076  1
  Ti  Ti35  1  0.86571553  0.12920854  0.12565983  1
  Ti  Ti36  1  0.88440096  0.87377901  0.62251944  1
  Ti  Ti37  1  0.36290922  0.88234122  0.87346395  1
  Ti  Ti38  1  0.36702936  0.13268760  0.86445373  1
  Ti  Ti39  1  0.37104575  0.12269151  0.61741098  1
  Ti  Ti40  1  0.63207061  0.62762969  0.12187874  1
  Ti  Ti41  1  0.87129149  0.89007697  0.12474623  1
  Ti  Ti42  1  0.62443703  0.37853617  0.13255587  1
  Ti  Ti43  1  0.12552835  0.37181318  0.88550426  1
  Ti  Ti44  1  0.38052973  0.12304652  0.37782393  1
  Ti  Ti45  1  0.61048510  0.12735702  0.12615506  1
  Ti  Ti46  1  0.37216577  0.61951523  0.87989389  1
  Ti  Ti47  1  0.62145214  0.86865014  0.12193015  1
  Ti  Ti48  1  0.11165888  0.37741257  0.35886701  1
  Ti  Ti49  1  0.62360913  0.11885720  0.39048579  1
  Ti  Ti50  1  0.11528995  0.87424311  0.89234338  1
  Ti  Ti51  1  0.12054043  0.88738726  0.13067272  1
  Ti  Ti52  1  0.11377114  0.62362369  0.88927141  1
  Ti  Ti53  1  0.13006986  0.10645294  0.88525607  1
  Ti  Ti54  1  0.12150416  0.86168764  0.61605346  1
  Ti  Ti55  1  0.11840411  0.87859004  0.38744879  1
  Ti  Ti56  1  0.64411577  0.36953432  0.60490165  1
  Ti  Ti57  1  0.12506535  0.12659966  0.12465335  1
  Ti  Ti58  1  0.87109595  0.13290913  0.87209395  1
  Ti  Ti59  1  0.88651764  0.88213885  0.87709939  1
  Ti  Ti60  1  0.37881833  0.62699638  0.37651678  1
  Ti  Ti61  1  0.63180286  0.12827944  0.63717138  1
  Ti  Ti62  1  0.37369897  0.62369204  0.63943858  1
  Ti  Ti63  1  0.12155972  0.12513704  0.38775772  1
  Ti  Ti64  1  0.89404753  0.37765633  0.88046479  1
  Ti  Ti65  1  0.87187326  0.62014582  0.13473692  1
  Ti  Ti66  1  0.38990346  0.37613453  0.12849836  1
  Ti  Ti67  1  0.87098041  0.37255576  0.12727254  1
  Ti  Ti68  1  0.63718450  0.62855841  0.61717793  1
  Ti  Ti69  1  0.86311567  0.37345237  0.63031206  1
  Ti  Ti70  1  0.37340466  0.38718772  0.61894114  1
  Ti  Ti71  1  0.86996891  0.13035812  0.62678764  1
  Ti  Ti72  1  0.38537874  0.38717816  0.36650156  1
  Ti  Ti73  1  0.61926617  0.86952824  0.87035398  1
  Bi  Bi74  1  0.51742969  0.27891136  -0.03523286  1
  Bi  Bi75  1  0.49298941  0.00402501  0.72589940  1
  Bi  Bi76  1  0.73076340  -0.02070884  0.50963497  1
  Bi  Bi77  1  0.23230525  0.76021811  0.25501403  1
  Bi  Bi78  1  0.75094994  0.48480021  -0.00945431  1
  Bi  Bi79  1  0.73098139  0.24084011  0.00587210  1
  Bi  Bi80  1  0.52061986  0.53120973  0.25924906  1
  Bi  Bi81  1  0.48335297  0.27009432  0.74006094  1
  Bi  Bi82  1  0.46828622  0.75980043  0.25417865  1
  Bi  Bi83  1  0.23488327  0.75789799  0.78043930  1
  Bi  Bi84  1  0.73762044  0.74671124  0.26103490  1
  Bi  Bi85  1  -0.00933444  0.75160581  0.04071027  1
  Bi  Bi86  1  0.23344278  0.27347456  0.71427031  1
  Bi  Bi87  1  0.72521676  -0.00580337  -0.01196482  1
  Bi  Bi88  1  0.03100045  0.27639232  0.52524070  1
  Bi  Bi89  1  0.51456246  0.50146070  -0.01358136  1
  Bi  Bi90  1  0.21851207  0.51783163  0.75275095  1
  Bi  Bi91  1  0.52541544  0.50462024  0.50156560  1
  Bi  Bi92  1  0.75059594  0.51925786  0.78487130  1
  Bi  Bi93  1  0.49950886  0.26685410  0.51537299  1
  Bi  Bi94  1  0.51754808  0.52182087  0.76550224  1
  Bi  Bi95  1  0.24518944  0.74788450  0.02056361  1
  Bi  Bi96  1  0.78071744  0.74936733  0.74786134  1
  Bi  Bi97  1  0.27542534  -0.02850712  0.50353755  1
  Bi  Bi98  1  0.50524315  -0.01383537  0.24827233  1
  Bi  Bi99  1  -0.00402893  0.22636080  0.25690536  1
  Bi  Bi100  1  0.00838387  -0.00551183  0.73580605  1
  Bi  Bi101  1  0.73338517  0.23411590  0.27397617  1
  Bi  Bi102  1  0.26475856  0.72601505  0.48699199  1
  Bi  Bi103  1  0.78548086  0.72020430  0.48012650  1
  Bi  Bi104  1  0.74686693  0.49200088  0.27888951  1
  Bi  Bi105  1  0.02224723  0.70808675  0.72813859  1
  Bi  Bi106  1  0.27566454  0.27185777  0.00188844  1
  Bi  Bi107  1  0.01015163  0.23570837  -0.00001568  1
  Bi  Bi108  1  0.25888929  0.27539655  0.47327458  1
  Bi  Bi109  1  0.72879573  0.28603694  0.78877114  1
  Bi  Bi110  1  0.26799597  0.25680391  0.24569765  1
  Bi  Bi111  1  0.73512358  -0.01289586  0.26554795  1
  Bi  Bi112  1  0.22731743  0.49856088  0.25539026  1
  Bi  Bi113  1  0.00762988  0.22627266  0.73759037  1
  Bi  Bi114  1  0.26635357  0.02214988  0.25910707  1
  Bi  Bi115  1  0.24193578  0.00974501  0.73580166  1
  Bi  Bi116  1  0.23687298  0.49588385  0.02430940  1
  Bi  Bi117  1  -0.02660456  0.48616258  0.50350737  1
  Bi  Bi118  1  0.47080094  0.02715467  -0.00991147  1
  Bi  Bi119  1  -0.00819676  0.49916007  0.02972753  1
  Bi  Bi120  1  -0.00776349  -0.01175397  0.27444151  1
  Bi  Bi121  1  0.47762722  0.75527148  -0.00839698  1
  Bi  Bi122  1  0.20272840  0.51152736  0.52902490  1
  Bi  Bi123  1  0.76442929  0.75599447  -0.01993263  1
  Bi  Bi124  1  0.73844928  -0.01684984  0.74516167  1
  O  O125  1  0.16149711  0.09959657  -0.00326209  1
  O  O126  1  0.10638106  0.14205584  0.24099957  1
  O  O127  1  0.13205261  0.12054899  0.49701531  1
  O  O128  1  0.09373477  0.12392605  0.76031101  1
  O  O129  1  0.10220866  0.40311441  -0.00231177  1
  O  O130  1  0.16320033  0.36341207  0.24886235  1
  O  O131  1  0.09522636  0.39886019  0.47978934  1
  O  O132  1  0.15677411  0.37880402  0.76341288  1
  O  O133  1  0.10496863  0.61238933  0.00462230  1
  O  O134  1  0.16425172  0.63347050  0.25176239  1
  O  O135  1  0.10109650  0.59899958  0.47558432  1
  O  O136  1  0.14677164  0.64397589  0.76055788  1
  O  O137  1  0.10226117  0.87831591  0.00269467  1
  O  O138  1  0.15382814  0.87479755  0.24634871  1
  O  O139  1  0.09771509  0.88788696  0.49756927  1
  O  O140  1  0.14414596  0.85078868  0.74265052  1
  O  O141  1  0.35290844  0.10371956  -0.00878384  1
  O  O142  1  0.37684353  0.11742728  0.25508955  1
  O  O143  1  0.35545939  0.11963241  0.49915202  1
  O  O144  1  0.39655168  0.13742353  0.74867392  1
  O  O145  1  0.39543068  0.35914631  0.00634284  1
  O  O146  1  0.34636662  0.37879322  0.24927307  1
  O  O147  1  0.39494859  0.36585199  0.49312450  1
  O  O148  1  0.36444437  0.35978046  0.73740951  1
  O  O149  1  0.41148627  0.62686247  -0.00539430  1
  O  O150  1  0.35725913  0.62401780  0.24060532  1
  O  O151  1  0.39958037  0.65724807  0.48872125  1
  O  O152  1  0.35011825  0.62467133  0.75064682  1
  O  O153  1  0.40290594  0.87679845  -0.00598976  1
  O  O154  1  0.35668811  0.87361323  0.23520010  1
  O  O155  1  0.39288311  0.89855626  0.50380995  1
  O  O156  1  0.36090029  0.85177006  0.75913036  1
  O  O157  1  0.64792444  0.11568232  0.00503663  1
  O  O158  1  0.59835965  0.15970850  0.23856066  1
  O  O159  1  0.63457738  0.10022177  0.50020363  1
  O  O160  1  0.60543087  0.15181744  0.74509472  1
  O  O161  1  0.59809193  0.38876853  0.01006276  1
  O  O162  1  0.65716602  0.36578294  0.24824631  1
  O  O163  1  0.58798788  0.37085959  0.49414391  1
  O  O164  1  0.65053432  0.37839646  0.72298646  1
  O  O165  1  0.59999326  0.61308041  0.00879980  1
  O  O166  1  0.63912912  0.62770714  0.24858578  1
  O  O167  1  0.58645758  0.63180201  0.50233214  1
  O  O168  1  0.64083730  0.59636936  0.73475850  1
  O  O169  1  0.61462542  0.90624569  0.00633860  1
  O  O170  1  0.65875563  0.86518855  0.24235568  1
  O  O171  1  0.61217782  0.90863132  0.50630550  1
  O  O172  1  0.66042595  0.86375291  0.76081637  1
  O  O173  1  0.86506259  0.13827068  0.00033143  1
  O  O174  1  0.89917943  0.11815313  0.24103240  1
  O  O175  1  0.86025092  0.12360377  0.50733720  1
  O  O176  1  0.90430061  0.12025755  0.75587169  1
  O  O177  1  0.91182755  0.36745055  -0.00521766  1
  O  O178  1  0.85335004  0.40368408  0.23966031  1
  O  O179  1  0.91072120  0.35148013  0.49223833  1
  O  O180  1  0.84215501  0.38387171  0.74190738  1
  O  O181  1  0.89732271  0.65031297  0.01132173  1
  O  O182  1  0.85858957  0.58572145  0.24684162  1
  O  O183  1  0.90795579  0.64753111  0.49598835  1
  O  O184  1  0.83912378  0.61688597  0.74924015  1
  O  O185  1  0.89624273  0.84420756  0.00606865  1
  O  O186  1  0.86534912  0.89911731  0.24236570  1
  O  O187  1  0.88658511  0.88841997  0.50838135  1
  O  O188  1  0.85592698  0.88373164  0.76115564  1
  O  O189  1  0.00548156  0.12189800  0.09173916  1
  O  O190  1  0.00326938  0.16310396  0.37810824  1
  O  O191  1  -0.00654870  0.15024642  0.61870099  1
  O  O192  1  0.00973153  0.12078799  0.91302196  1
  O  O193  1  -0.00996898  0.40746740  0.14327841  1
  O  O194  1  0.00457944  0.35297692  0.33119943  1
  O  O195  1  -0.01583230  0.36934339  0.63522142  1
  O  O196  1  0.00399988  0.38679062  0.83280478  1
  O  O197  1  -0.00746842  0.58590899  0.14722022  1
  O  O198  1  0.00522027  0.66258737  0.32742374  1
  O  O199  1  -0.00795097  0.60858208  0.64469610  1
  O  O200  1  0.00479506  0.63353038  0.85615384  1
  O  O201  1  0.00439893  0.86599786  0.14295334  1
  O  O202  1  0.00539216  0.86101504  0.34052198  1
  O  O203  1  -0.00028374  0.87742914  0.65279295  1
  O  O204  1  0.00163135  0.86222634  0.85970370  1
  O  O205  1  0.24740832  0.11521253  0.14330065  1
  O  O206  1  0.23970724  0.11939220  0.35372426  1
  O  O207  1  0.25119474  0.12349144  0.64897913  1
  O  O208  1  0.24596862  0.11554539  0.84139692  1
  O  O209  1  0.25402472  0.37471137  0.09411529  1
  O  O210  1  0.25626441  0.39141995  0.40036806  1
  O  O211  1  0.25936580  0.35167990  0.60247899  1
  O  O212  1  0.24646359  0.37643915  0.90919095  1
  O  O213  1  0.26114721  0.62816112  0.09052226  1
  O  O214  1  0.26048654  0.61463709  0.40078892  1
  O  O215  1  0.25989810  0.63312838  0.58927594  1
  O  O216  1  0.25794980  0.62164513  0.89726479  1
  O  O217  1  0.25194331  0.89181413  0.08725455  1
  O  O218  1  0.24267729  0.88765866  0.39875860  1
  O  O219  1  0.24210131  0.86597192  0.59572963  1
  O  O220  1  0.24803150  0.87343069  0.88601018  1
  O  O221  1  0.50014953  0.12428345  0.09540056  1
  O  O222  1  0.49647824  0.14220248  0.38168749  1
  O  O223  1  0.49358840  0.08276652  0.60796610  1
  O  O224  1  0.49252422  0.12688153  0.89437992  1
  O  O225  1  0.50252787  0.37892361  0.15317466  1
  O  O226  1  0.49289409  0.34994644  0.34587635  1
  O  O227  1  0.49763181  0.36781635  0.62980210  1
  O  O228  1  0.49498392  0.35252575  0.85341975  1
  O  O229  1  0.49955168  0.62555447  0.14698224  1
  O  O230  1  0.49760869  0.64587961  0.34005933  1
  O  O231  1  0.49187178  0.59435860  0.63110683  1
  O  O232  1  0.49852536  0.64663926  0.82774127  1
  O  O233  1  0.50478639  0.87801928  0.14719606  1
  O  O234  1  0.50175350  0.86747440  0.33689145  1
  O  O235  1  0.49866599  0.89449402  0.64478493  1
  O  O236  1  0.50801121  0.85231397  0.85183761  1
  O  O237  1  0.75381735  0.12506424  0.14195364  1
  O  O238  1  0.73875357  0.10885300  0.35126395  1
  O  O239  1  0.74872308  0.11336836  0.64626933  1
  O  O240  1  0.75991723  0.12201827  0.85990707  1
  O  O241  1  0.75082959  0.37062217  0.09087018  1
  O  O242  1  0.75425504  0.41891277  0.39451312  1
  O  O243  1  0.75069835  0.35252176  0.56685518  1
  O  O244  1  0.76444916  0.36868645  0.89421134  1
  O  O245  1  0.74922952  0.63641156  0.11259613  1
  O  O246  1  0.75780852  0.60206914  0.41350588  1
  O  O247  1  0.74796668  0.63483271  0.59238442  1
  O  O248  1  0.74564353  0.60871363  0.89399107  1
  O  O249  1  0.75670442  0.87658735  0.10172173  1
  O  O250  1  0.74958472  0.91503680  0.38613783  1
  O  O251  1  0.75687958  0.89610829  0.62483160  1
  O  O252  1  0.76057929  0.87958321  0.90955825  1
  O  O253  1  0.12627616  0.00159911  0.13381242  1
  O  O254  1  0.10483566  0.00299338  0.36299338  1
  O  O255  1  0.12229164  -0.00584190  0.64972338  1
  O  O256  1  0.11969293  -0.00833861  0.86006452  1
  O  O257  1  0.12063520  0.24507856  0.09676917  1
  O  O258  1  0.14307107  0.25846362  0.38947393  1
  O  O259  1  0.11866480  0.25048028  0.64167994  1
  O  O260  1  0.11584487  0.25480596  0.89627645  1
  O  O261  1  0.15475889  0.50011009  0.13742950  1
  O  O262  1  0.10690885  0.50045686  0.32980977  1
  O  O263  1  0.13411807  0.49881968  0.64638982  1
  O  O264  1  0.13134497  0.50737508  0.86034857  1
  O  O265  1  0.14978944  0.75551754  0.12311140  1
  O  O266  1  0.14988683  0.74985310  0.37682539  1
  O  O267  1  0.09787206  0.74929697  0.60412475  1
  O  O268  1  0.13982628  0.74985297  0.89090074  1
  O  O269  1  0.37577268  0.00066676  0.11545238  1
  O  O270  1  0.36733880  0.00520395  0.36916418  1
  O  O271  1  0.35691262  -0.00161134  0.64935072  1
  O  O272  1  0.38378384  -0.00443734  0.86432248  1
  O  O273  1  0.36267487  0.25684121  0.13480913  1
  O  O274  1  0.35350980  0.24908882  0.36628053  1
  O  O275  1  0.39432703  0.23905966  0.61572016  1
  O  O276  1  0.36044257  0.24557921  0.88233607  1
  O  O277  1  0.36956704  0.49905142  0.11103978  1
  O  O278  1  0.40253215  0.50398136  0.36802753  1
  O  O279  1  0.35253222  0.49817483  0.61616970  1
  O  O280  1  0.40161335  0.50488983  0.87126917  1
  O  O281  1  0.37508760  0.75304032  0.10269652  1
  O  O282  1  0.36231008  0.75007321  0.35399026  1
  O  O283  1  0.40850752  0.73855020  0.63954747  1
  O  O284  1  0.38117358  0.74819497  0.88617796  1
  O  O285  1  0.61854187  0.00589053  0.15654019  1
  O  O286  1  0.60871565  0.00621914  0.34127377  1
  O  O287  1  0.62600727  0.00431677  0.66340541  1
  O  O288  1  0.64107490  -0.00536971  0.86748249  1
  O  O289  1  0.63016263  0.25287643  0.10233338  1
  O  O290  1  0.63516788  0.24242519  0.37544528  1
  O  O291  1  0.61212038  0.24421334  0.60413197  1
  O  O292  1  0.64070710  0.24861385  0.89516372  1
  O  O293  1  0.63143469  0.49975454  0.13793999  1
  O  O294  1  0.59849499  0.50467604  0.37567664  1
  O  O295  1  0.64499363  0.49315107  0.57943956  1
  O  O296  1  0.59806330  0.50907871  0.87728458  1
  O  O297  1  0.61997627  0.75332114  0.11186546  1
  O  O298  1  0.66923677  0.75266406  0.37821557  1
  O  O299  1  0.60555723  0.73894289  0.62456115  1
  O  O300  1  0.64345591  0.75785167  0.90384814  1
  O  O301  1  0.88396806  0.00145214  0.09777754  1
  O  O302  1  0.91231202  0.00604300  0.38312839  1
  O  O303  1  0.90139425  0.00703706  0.62709297  1
  O  O304  1  0.89247349  -0.00258660  0.89936713  1
  O  O305  1  0.87913756  0.25434259  0.13225752  1
  O  O306  1  0.83267817  0.25192374  0.37291099  1
  O  O307  1  0.85763825  0.24884987  0.62469877  1
  O  O308  1  0.88584435  0.25087467  0.86568168  1
  O  O309  1  0.85498931  0.50024766  0.08693895  1
  O  O310  1  0.92365467  0.49619449  0.37651085  1
  O  O311  1  0.84965539  0.48683885  0.58451383  1
  O  O312  1  0.86787113  0.49488317  0.89343514  1
  O  O313  1  0.89861885  0.73915857  0.15609739  1
  O  O314  1  0.85300442  0.75277528  0.35022260  1
  O  O315  1  0.87429639  0.75668680  0.64381733  1
  O  O316  1  0.85302558  0.75071924  0.86708919  1
