# generated using pymatgen
data_Mg32Ti42(Bi17O64)3
_symmetry_space_group_name_H-M   'P 1'
_cell_length_a   15.89645940
_cell_length_b   15.98089126
_cell_length_c   15.95666956
_cell_angle_alpha   89.99518673
_cell_angle_beta   90.15469205
_cell_angle_gamma   90.08434992
_symmetry_Int_Tables_number   1
_chemical_formula_structural   Mg32Ti42(Bi17O64)3
_chemical_formula_sum   'Mg32 Ti42 Bi51 O192'
_cell_volume   4053.60659923
_cell_formula_units_Z   1
loop_
 _symmetry_equiv_pos_site_id
 _symmetry_equiv_pos_as_xyz
  1  'x, y, z'
loop_
 _atom_site_type_symbol
 _atom_site_label
 _atom_site_symmetry_multiplicity
 _atom_site_fract_x
 _atom_site_fract_y
 _atom_site_fract_z
 _atom_site_occupancy
  Mg  Mg0  1  0.38072866  0.86978541  0.13420980  1
  Mg  Mg1  1  0.37240595  0.13403994  0.12653907  1
  Mg  Mg2  1  0.61918711  0.62536855  0.37165319  1
  Mg  Mg3  1  0.12659852  0.87719104  0.36721040  1
  Mg  Mg4  1  0.87419524  0.62806840  0.37623244  1
  Mg  Mg5  1  0.88131411  0.12825331  0.12709686  1
  Mg  Mg6  1  0.12187492  0.38433916  0.87965024  1
  Mg  Mg7  1  0.88182043  0.88699052  0.88280907  1
  Mg  Mg8  1  0.62384672  0.38080247  0.11777345  1
  Mg  Mg9  1  0.61849752  0.13022860  0.87129474  1
  Mg  Mg10  1  0.12573123  0.37935611  0.37791117  1
  Mg  Mg11  1  0.37307663  0.39278641  0.88097106  1
  Mg  Mg12  1  0.12591766  0.62572405  0.13041166  1
  Mg  Mg13  1  0.12324360  0.12946402  0.37306300  1
  Mg  Mg14  1  0.62019624  0.12815301  0.12744736  1
  Mg  Mg15  1  0.62612124  0.62078228  0.11582940  1
  Mg  Mg16  1  0.63284526  0.37358575  0.63134344  1
  Mg  Mg17  1  0.37158476  0.61331148  0.10503539  1
  Mg  Mg18  1  0.37124290  0.12296605  0.62155568  1
  Mg  Mg19  1  0.72391389  0.71583348  0.49797195  1
  Mg  Mg20  1  0.49191309  0.79216864  0.76644598  1
  Mg  Mg21  1  0.49117531  0.69371375  0.21172991  1
  Mg  Mg22  1  0.31521259  0.47664097  0.53203131  1
  Mg  Mg23  1  0.02084261  0.28083747  -0.02178332  1
  Mg  Mg24  1  0.24391614  0.29473160  0.80520333  1
  Mg  Mg25  1  0.47579826  0.32144543  0.54780470  1
  Mg  Mg26  1  0.21149095  0.18379497  -0.05763727  1
  Mg  Mg27  1  0.49640439  0.50276383  0.17310935  1
  Mg  Mg28  1  0.76475447  0.26573693  0.74835353  1
  Mg  Mg29  1  0.01397203  0.00750274  0.43675004  1
  Mg  Mg30  1  0.03782363  0.06166083  -0.06641725  1
  Mg  Mg31  1  0.53000670  0.51046963  -0.04768483  1
  Ti  Ti32  1  0.11904262  0.88437014  0.62414770  1
  Ti  Ti33  1  0.11582174  0.13807511  0.11715943  1
  Ti  Ti34  1  0.62346754  0.88496715  0.87373475  1
  Ti  Ti35  1  0.87620561  0.13284653  0.37447268  1
  Ti  Ti36  1  0.11067051  0.37699208  0.62393669  1
  Ti  Ti37  1  0.87915831  0.13202302  0.62672157  1
  Ti  Ti38  1  0.62851530  0.63367333  0.87029409  1
  Ti  Ti39  1  0.87712492  0.36754425  0.87090590  1
  Ti  Ti40  1  0.37827096  0.62918794  0.63304132  1
  Ti  Ti41  1  0.12913134  0.86725470  0.13305857  1
  Ti  Ti42  1  0.38122392  0.62270241  0.38734206  1
  Ti  Ti43  1  0.38182064  0.88347165  0.37113388  1
  Ti  Ti44  1  0.87187997  0.88128702  0.62460125  1
  Ti  Ti45  1  0.12618268  0.87543673  0.88924542  1
  Ti  Ti46  1  0.62985913  0.63358900  0.63558034  1
  Ti  Ti47  1  0.87121933  0.88121128  0.12329436  1
  Ti  Ti48  1  0.62893285  0.14063470  0.63015428  1
  Ti  Ti49  1  0.12758912  0.38199268  0.11962764  1
  Ti  Ti50  1  0.86916417  0.13528020  0.88609247  1
  Ti  Ti51  1  0.86772615  0.63712593  0.87554568  1
  Ti  Ti52  1  0.38716213  0.37762770  0.37010144  1
  Ti  Ti53  1  0.62806486  0.13521202  0.38396452  1
  Ti  Ti54  1  0.63430618  0.37330878  0.86232068  1
  Ti  Ti55  1  0.62270889  0.87567994  0.39481255  1
  Ti  Ti56  1  0.87938932  0.37638245  0.62819787  1
  Ti  Ti57  1  0.37975485  0.13339078  0.37892731  1
  Ti  Ti58  1  0.86620242  0.88165266  0.37338460  1
  Ti  Ti59  1  0.62240447  0.87383423  0.13505877  1
  Ti  Ti60  1  0.61660027  0.37243970  0.38563440  1
  Ti  Ti61  1  0.39394034  0.62769562  0.86869614  1
  Ti  Ti62  1  0.37113385  0.12727249  0.87788984  1
  Ti  Ti63  1  0.36848459  0.87331769  0.87713524  1
  Ti  Ti64  1  0.13733673  0.63572289  0.61375367  1
  Ti  Ti65  1  0.12258986  0.12921589  0.61447807  1
  Ti  Ti66  1  0.36768839  0.87877154  0.63367627  1
  Ti  Ti67  1  0.87860448  0.37191728  0.10895263  1
  Ti  Ti68  1  0.36523154  0.37266370  0.11282500  1
  Ti  Ti69  1  0.12811721  0.63305349  0.37381077  1
  Ti  Ti70  1  0.62409519  0.87290282  0.62998273  1
  Ti  Ti71  1  0.87222529  0.37784616  0.37958519  1
  Ti  Ti72  1  0.86800682  0.61415988  0.13334100  1
  Ti  Ti73  1  0.87808318  0.63998444  0.62614022  1
  Bi  Bi74  1  0.00774817  0.26586677  0.23692494  1
  Bi  Bi75  1  0.76268054  0.26893087  0.24032955  1
  Bi  Bi76  1  0.21889270  0.02106269  0.76812699  1
  Bi  Bi77  1  0.48751578  0.75683808  0.01548598  1
  Bi  Bi78  1  -0.02108205  0.00477896  0.75298317  1
  Bi  Bi79  1  0.24475604  0.27072349  0.27173819  1
  Bi  Bi80  1  0.77458819  0.50603385  0.74078631  1
  Bi  Bi81  1  -0.02553811  0.75042734  0.25794482  1
  Bi  Bi82  1  0.75976854  0.51035113  -0.01517204  1
  Bi  Bi83  1  0.04450609  0.23940586  0.77895406  1
  Bi  Bi84  1  0.74844125  0.77872913  0.76098209  1
  Bi  Bi85  1  0.71589835  0.49208603  0.25650141  1
  Bi  Bi86  1  0.73972205  0.77220565  0.01292864  1
  Bi  Bi87  1  0.47610826  0.01912497  0.75664043  1
  Bi  Bi88  1  0.52362200  0.52600628  0.50625575  1
  Bi  Bi89  1  0.48909661  0.26878556  0.22462584  1
  Bi  Bi90  1  0.01497128  0.52302017  0.48788630  1
  Bi  Bi91  1  0.01576398  -0.01037956  0.22831233  1
  Bi  Bi92  1  0.50523801  0.28500390  -0.01554964  1
  Bi  Bi93  1  0.24453868  0.74705268  0.02168924  1
  Bi  Bi94  1  0.48067670  0.01388147  0.02645893  1
  Bi  Bi95  1  0.73602332  0.02379983  0.75253915  1
  Bi  Bi96  1  0.45252556  0.26969652  0.73950855  1
  Bi  Bi97  1  0.75943456  0.27189046  0.51251174  1
  Bi  Bi98  1  0.76134094  0.51974830  0.48674144  1
  Bi  Bi99  1  0.02195492  0.26049514  0.48161616  1
  Bi  Bi100  1  0.24322310  0.78437313  0.48787640  1
  Bi  Bi101  1  0.72467452  0.24261749  0.00957419  1
  Bi  Bi102  1  0.27243611  0.26952494  0.52564236  1
  Bi  Bi103  1  0.77132125  0.01843211  0.50147469  1
  Bi  Bi104  1  0.23955984  0.01622761  0.49627883  1
  Bi  Bi105  1  0.74567245  0.02428233  0.01287212  1
  Bi  Bi106  1  0.24319913  0.04118350  0.24916762  1
  Bi  Bi107  1  0.29388315  0.73845416  0.24311731  1
  Bi  Bi108  1  0.01874609  0.53188083  -0.01613930  1
  Bi  Bi109  1  0.71484255  0.74843453  0.26437687  1
  Bi  Bi110  1  0.26441021  0.46883787  0.71743741  1
  Bi  Bi111  1  0.47538476  0.76413518  0.50937763  1
  Bi  Bi112  1  0.25512489  0.01218693  0.02134927  1
  Bi  Bi113  1  0.50405022  0.01888913  0.52691852  1
  Bi  Bi114  1  0.01639209  0.51117606  0.24835118  1
  Bi  Bi115  1  0.01562932  0.76066396  0.77992760  1
  Bi  Bi116  1  0.23227227  0.53147899  -0.05934064  1
  Bi  Bi117  1  0.51395684  0.02307821  0.26630216  1
  Bi  Bi118  1  0.74901831  0.03026206  0.24039222  1
  Bi  Bi119  1  -0.01118712  0.75251030  0.02703053  1
  Bi  Bi120  1  0.02427161  0.53484327  0.75562483  1
  Bi  Bi121  1  0.27114316  0.50066463  0.26249302  1
  Bi  Bi122  1  -0.01883041  0.77636003  0.49507349  1
  Bi  Bi123  1  0.50423048  0.49408491  0.73417565  1
  Bi  Bi124  1  0.24106844  0.73758477  0.77510971  1
  O  O125  1  0.13002258  0.10652685  0.00285300  1
  O  O126  1  0.14484612  0.14336697  0.24289738  1
  O  O127  1  0.11130275  0.07742104  0.49788542  1
  O  O128  1  0.14357006  0.13725617  0.73383793  1
  O  O129  1  0.09599148  0.38982453  0.00711922  1
  O  O130  1  0.12716455  0.34558593  0.24574878  1
  O  O131  1  0.08808648  0.38518564  0.50330740  1
  O  O132  1  0.14614394  0.34363775  0.73719862  1
  O  O133  1  0.13219947  0.60516236  0.00277722  1
  O  O134  1  0.09472529  0.63308475  0.25671521  1
  O  O135  1  0.13609950  0.59794253  0.49997812  1
  O  O136  1  0.09986477  0.64571412  0.73323975  1
  O  O137  1  0.14864383  0.88666360  -0.00045388  1
  O  O138  1  0.09688025  0.85555262  0.24371856  1
  O  O139  1  0.15029185  0.89219120  0.50473199  1
  O  O140  1  0.11173367  0.85114146  0.74148342  1
  O  O141  1  0.37447176  0.10879058  -0.00244760  1
  O  O142  1  0.35426757  0.13052343  0.25516628  1
  O  O143  1  0.39449104  0.10152246  0.49245808  1
  O  O144  1  0.35798310  0.10349355  0.75363932  1
  O  O145  1  0.38931403  0.38070222  0.00341637  1
  O  O146  1  0.36896675  0.34179013  0.25110619  1
  O  O147  1  0.38432351  0.38349201  0.48850731  1
  O  O148  1  0.34588338  0.35411060  0.75586556  1
  O  O149  1  0.35337879  0.64592497  -0.01796511  1
  O  O150  1  0.38940710  0.63535195  0.26292431  1
  O  O151  1  0.36031334  0.58842267  0.50115227  1
  O  O152  1  0.41361902  0.62715420  0.74312952  1
  O  O153  1  0.36171707  0.84399604  -0.00818399  1
  O  O154  1  0.38841879  0.85245504  0.26121135  1
  O  O155  1  0.37700400  0.87076304  0.50696250  1
  O  O156  1  0.40534935  0.88311698  0.74962001  1
  O  O157  1  0.64070219  0.11203173  -0.00127420  1
  O  O158  1  0.63141064  0.11685151  0.25783293  1
  O  O159  1  0.61550214  0.10546043  0.50102465  1
  O  O160  1  0.65995652  0.14743375  0.74753652  1
  O  O161  1  0.58160479  0.40010600  -0.00792119  1
  O  O162  1  0.65621564  0.36250238  0.26027377  1
  O  O163  1  0.58156674  0.37781236  0.49899708  1
  O  O164  1  0.66837662  0.35005215  0.75619362  1
  O  O165  1  0.63664698  0.58594741  -0.01506407  1
  O  O166  1  0.60716070  0.66303688  0.25000098  1
  O  O167  1  0.64292437  0.60566999  0.50453676  1
  O  O168  1  0.60720231  0.63827043  0.75043227  1
  O  O169  1  0.65914169  0.88584189  -0.01107909  1
  O  O170  1  0.61572104  0.84963923  0.24822716  1
  O  O171  1  0.63854311  0.89019222  0.50793583  1
  O  O172  1  0.61391835  0.83738643  0.75167637  1
  O  O173  1  0.85375729  0.12928535  0.00044605  1
  O  O174  1  0.86885492  0.10787180  0.26087561  1
  O  O175  1  0.85913040  0.13301561  0.50476651  1
  O  O176  1  0.86918673  0.09966746  0.74762317  1
  O  O177  1  0.90421507  0.34302230  0.00167678  1
  O  O178  1  0.83767167  0.38588193  0.26574036  1
  O  O179  1  0.88862553  0.34525137  0.50727710  1
  O  O180  1  0.85160458  0.37144433  0.75319993  1
  O  O181  1  0.84783649  0.62695627  -0.00533526  1
  O  O182  1  0.90164047  0.61552046  0.24786272  1
  O  O183  1  0.83532833  0.64697741  0.51161544  1
  O  O184  1  0.87808034  0.60522496  0.75199116  1
  O  O185  1  0.85396535  0.86739961  0.00614347  1
  O  O186  1  0.89811058  0.87825452  0.25575612  1
  O  O187  1  0.86088343  0.85226072  0.50666317  1
  O  O188  1  0.90743060  0.88870604  0.74885173  1
  O  O189  1  0.00603967  0.10425629  0.13452703  1
  O  O190  1  -0.00755925  0.13643262  0.38494900  1
  O  O191  1  -0.00428980  0.13911255  0.62888881  1
  O  O192  1  -0.01080523  0.17283373  0.89921656  1
  O  O193  1  -0.00613938  0.38047155  0.15970700  1
  O  O194  1  -0.01350871  0.34572250  0.35973554  1
  O  O195  1  -0.00453752  0.35487470  0.64775499  1
  O  O196  1  -0.00624146  0.34865776  0.86244873  1
  O  O197  1  -0.00671471  0.61917105  0.09568324  1
  O  O198  1  0.00202114  0.63424960  0.40268169  1
  O  O199  1  -0.00799568  0.62488117  0.60265197  1
  O  O200  1  -0.01481346  0.63178355  0.88476774  1
  O  O201  1  -0.00527257  0.87617736  0.10703586  1
  O  O202  1  0.00180276  0.87776149  0.40706684  1
  O  O203  1  0.00358223  0.86730704  0.60364460  1
  O  O204  1  0.00944861  0.84759134  0.89298252  1
  O  O205  1  0.24484003  0.11484215  0.11694462  1
  O  O206  1  0.25322045  0.09918042  0.38353254  1
  O  O207  1  0.24513393  0.12523199  0.58910358  1
  O  O208  1  0.25367813  0.07895780  0.88896584  1
  O  O209  1  0.24398973  0.35921603  0.12485892  1
  O  O210  1  0.25379121  0.38631363  0.35741327  1
  O  O211  1  0.23781019  0.39635257  0.59455525  1
  O  O212  1  0.24676806  0.40600586  0.87324704  1
  O  O213  1  0.25223044  0.65413839  0.13302188  1
  O  O214  1  0.24549720  0.60875589  0.35230825  1
  O  O215  1  0.25032923  0.61478308  0.64210659  1
  O  O216  1  0.27009402  0.61019915  0.83391661  1
  O  O217  1  0.24739607  0.84184316  0.13586689  1
  O  O218  1  0.26093714  0.88135579  0.37977454  1
  O  O219  1  0.25533967  0.88124105  0.64433065  1
  O  O220  1  0.25327107  0.88261763  0.85268637  1
  O  O221  1  0.49806380  0.10282201  0.13336558  1
  O  O222  1  0.50035108  0.13347947  0.35247624  1
  O  O223  1  0.50882025  0.11739562  0.63545985  1
  O  O224  1  0.48907206  0.13612908  0.85775545  1
  O  O225  1  0.49651103  0.38132357  0.15033137  1
  O  O226  1  0.50111510  0.35120209  0.34940971  1
  O  O227  1  0.50803480  0.36501815  0.66216826  1
  O  O228  1  0.49482767  0.34633136  0.85228186  1
  O  O229  1  0.49775521  0.61097653  0.11354914  1
  O  O230  1  0.49704748  0.62677511  0.40460999  1
  O  O231  1  0.50137979  0.63217966  0.59810840  1
  O  O232  1  0.51148109  0.64484325  0.89757835  1
  O  O233  1  0.50783626  0.88138425  0.09623850  1
  O  O234  1  0.50557983  0.85386585  0.39853433  1
  O  O235  1  0.50830755  0.84282313  0.62262769  1
  O  O236  1  0.51154913  0.84337691  0.88667611  1
  O  O237  1  0.74975372  0.12433551  0.13332306  1
  O  O238  1  0.74515321  0.10068490  0.38354297  1
  O  O239  1  0.74422413  0.09795395  0.61640838  1
  O  O240  1  0.75768644  0.08265459  0.87810648  1
  O  O241  1  0.75653046  0.35504575  0.10959319  1
  O  O242  1  0.74448783  0.38364619  0.41532475  1
  O  O243  1  0.75507961  0.38033950  0.60141399  1
  O  O244  1  0.74367254  0.38567196  0.90765223  1
  O  O245  1  0.75463678  0.63000635  0.14469823  1
  O  O246  1  0.74989179  0.59928622  0.37113939  1
  O  O247  1  0.74743015  0.60757817  0.64786804  1
  O  O248  1  0.74807220  0.58977428  0.85989619  1
  O  O249  1  0.74996620  0.84571743  0.13806757  1
  O  O250  1  0.75270786  0.89159494  0.36154901  1
  O  O251  1  0.75486339  0.87935248  0.65283055  1
  O  O252  1  0.75113732  0.88862498  0.84227215  1
  O  O253  1  0.13314331  -0.01214846  0.14527168  1
  O  O254  1  0.10257376  0.00243928  0.34055731  1
  O  O255  1  0.12228504  -0.00231102  0.64570087  1
  O  O256  1  0.10488032  -0.01042470  0.85177675  1
  O  O257  1  0.08889268  0.24953569  0.09839595  1
  O  O258  1  0.13677060  0.25177276  0.40062320  1
  O  O259  1  0.12668343  0.24553263  0.59077305  1
  O  O260  1  0.13906699  0.25883655  0.88064758  1
  O  O261  1  0.12576581  0.49472488  0.15335281  1
  O  O262  1  0.09534587  0.50007400  0.36401008  1
  O  O263  1  0.11074768  0.49395720  0.65100540  1
  O  O264  1  0.10839671  0.50619462  0.86508733  1
  O  O265  1  0.10872685  0.75132190  0.09712383  1
  O  O266  1  0.14226962  0.74717169  0.39226247  1
  O  O267  1  0.13765815  0.74750696  0.59638510  1
  O  O268  1  0.14315149  0.75366777  0.87077001  1
  O  O269  1  0.37011213  -0.00944518  0.10962772  1
  O  O270  1  0.39960556  -0.00439399  0.35935317  1
  O  O271  1  0.39654267  -0.00681619  0.62466767  1
  O  O272  1  0.40266776  -0.01438656  0.88452311  1
  O  O273  1  0.39624035  0.25477366  0.11747066  1
  O  O274  1  0.35512820  0.24562491  0.39351086  1
  O  O275  1  0.38486517  0.24851973  0.60186821  1
  O  O276  1  0.31982807  0.23078976  0.88433660  1
  O  O277  1  0.36852828  0.49146490  0.14856472  1
  O  O278  1  0.38211220  0.49293242  0.35021501  1
  O  O279  1  0.37767020  0.50091931  0.64063121  1
  O  O280  1  0.41585772  0.51221270  0.88189405  1
  O  O281  1  0.40006635  0.74479103  0.13585265  1
  O  O282  1  0.36209892  0.73772030  0.40137310  1
  O  O283  1  0.36844473  0.74560945  0.61695419  1
  O  O284  1  0.37259832  0.75223276  0.83937023  1
  O  O285  1  0.64361542  -0.01180744  0.13552229  1
  O  O286  1  0.60478368  -0.00953076  0.36853525  1
  O  O287  1  0.60869515  -0.01530212  0.64909924  1
  O  O288  1  0.60791912  -0.00549387  0.84728518  1
  O  O289  1  0.61423602  0.25404348  0.09604788  1
  O  O290  1  0.64163911  0.24627213  0.39048321  1
  O  O291  1  0.63715250  0.24777079  0.60406407  1
  O  O292  1  0.62856565  0.25557880  0.90650096  1
  O  O293  1  0.62335882  0.49993880  0.15596372  1
  O  O294  1  0.61556775  0.48984213  0.36269966  1
  O  O295  1  0.60530043  0.50376420  0.63564019  1
  O  O296  1  0.60189114  0.48927621  0.84554459  1
  O  O297  1  0.61660827  0.75141996  0.08862347  1
  O  O298  1  0.65883329  0.75375449  0.39595730  1
  O  O299  1  0.65571617  0.74296450  0.60309914  1
  O  O300  1  0.66298262  0.74193325  0.88469502  1
  O  O301  1  0.85545801  -0.00732027  0.13233793  1
  O  O302  1  0.88768121  -0.00061287  0.40315855  1
  O  O303  1  0.87958446  -0.00339705  0.60943892  1
  O  O304  1  0.92928663  0.01460267  0.88279826  1
  O  O305  1  0.88452432  0.25620827  0.15632437  1
  O  O306  1  0.84492674  0.24703683  0.36566385  1
  O  O307  1  0.84038873  0.24145776  0.64458055  1
  O  O308  1  0.83125813  0.24360878  0.85768641  1
  O  O309  1  0.86814807  0.49389170  0.11173254  1
  O  O310  1  0.88654276  0.49224393  0.40287962  1
  O  O311  1  0.87843517  0.49166809  0.62816871  1
  O  O312  1  0.87773026  0.48331309  0.88539824  1
  O  O313  1  0.89361870  0.74458990  0.13621043  1
  O  O314  1  0.88051907  0.75665889  0.36605252  1
  O  O315  1  0.87743268  0.75003245  0.65081762  1
  O  O316  1  0.85563910  0.74889063  0.86382956  1
