# generated using pymatgen
data_Mg32Ti42(Bi17O64)3
_symmetry_space_group_name_H-M   'P 1'
_cell_length_a   15.94582049
_cell_length_b   15.94685981
_cell_length_c   15.91032604
_cell_angle_alpha   90.06429642
_cell_angle_beta   90.35530979
_cell_angle_gamma   90.13581772
_symmetry_Int_Tables_number   1
_chemical_formula_structural   Mg32Ti42(Bi17O64)3
_chemical_formula_sum   'Mg32 Ti42 Bi51 O192'
_cell_volume   4045.67763458
_cell_formula_units_Z   1
loop_
 _symmetry_equiv_pos_site_id
 _symmetry_equiv_pos_as_xyz
  1  'x, y, z'
loop_
 _atom_site_type_symbol
 _atom_site_label
 _atom_site_symmetry_multiplicity
 _atom_site_fract_x
 _atom_site_fract_y
 _atom_site_fract_z
 _atom_site_occupancy
  Mg  Mg0  1  0.88457285  0.12011434  0.37935568  1
  Mg  Mg1  1  0.11538724  0.62904691  0.63350089  1
  Mg  Mg2  1  0.87616092  0.38815122  0.37619795  1
  Mg  Mg3  1  0.11316808  0.12921038  0.12982810  1
  Mg  Mg4  1  0.37847431  0.62786192  0.12785618  1
  Mg  Mg5  1  0.87808590  0.12921502  0.63307644  1
  Mg  Mg6  1  0.37799624  0.11917084  0.12680181  1
  Mg  Mg7  1  0.87201291  0.88113264  0.86782520  1
  Mg  Mg8  1  0.12528219  0.37289087  0.13437558  1
  Mg  Mg9  1  0.37630224  0.37460178  0.12469100  1
  Mg  Mg10  1  0.37539611  0.37934338  0.62139970  1
  Mg  Mg11  1  0.37642696  0.62658961  0.87116656  1
  Mg  Mg12  1  0.37969051  0.37517673  0.87214771  1
  Mg  Mg13  1  0.13132262  0.12525778  0.86806658  1
  Mg  Mg14  1  0.61848072  0.86492316  0.37174997  1
  Mg  Mg15  1  0.12352913  0.87317859  0.12490162  1
  Mg  Mg16  1  0.88032643  0.87605940  0.38371017  1
  Mg  Mg17  1  0.12073008  0.62566771  0.12161037  1
  Mg  Mg18  1  0.11701818  0.87902288  0.38307204  1
  Mg  Mg19  1  0.77978183  0.49308900  0.69001002  1
  Mg  Mg20  1  0.54822117  0.49491791  0.27778132  1
  Mg  Mg21  1  0.73458715  -0.00712248  0.78623175  1
  Mg  Mg22  1  -0.00031595  0.06617953  0.52667846  1
  Mg  Mg23  1  -0.03452008  0.25607488  0.76877050  1
  Mg  Mg24  1  0.73816447  0.54179159  0.48213816  1
  Mg  Mg25  1  0.47774808  -0.00102278  0.03340558  1
  Mg  Mg26  1  0.20603498  -0.01893528  0.69910760  1
  Mg  Mg27  1  -0.03902487  0.74903746  0.74547415  1
  Mg  Mg28  1  0.86629521  0.86687042  0.11471354  1
  Mg  Mg29  1  0.01136257  0.73235242  0.45807692  1
  Mg  Mg30  1  -0.01146837  0.26341178  0.46265644  1
  Mg  Mg31  1  0.78556110  0.26609350  -0.04706430  1
  Ti  Ti32  1  0.12512716  0.62545206  0.87656434  1
  Ti  Ti33  1  0.62684521  0.62946074  0.86252453  1
  Ti  Ti34  1  0.11539682  0.37289436  0.38535263  1
  Ti  Ti35  1  0.08890231  0.86124178  0.61316681  1
  Ti  Ti36  1  0.87428902  0.63234823  0.61713474  1
  Ti  Ti37  1  0.63100372  0.62868571  0.63233455  1
  Ti  Ti38  1  0.36927999  0.88340002  0.12615702  1
  Ti  Ti39  1  0.61505499  0.13130181  0.11820198  1
  Ti  Ti40  1  0.36039795  0.13037391  0.37644355  1
  Ti  Ti41  1  0.87470274  0.89675394  0.61589886  1
  Ti  Ti42  1  0.62646088  0.87041201  0.88593287  1
  Ti  Ti43  1  0.64010468  0.13155142  0.63352590  1
  Ti  Ti44  1  0.62145993  0.86151593  0.12652549  1
  Ti  Ti45  1  0.37957243  0.62763183  0.37465810  1
  Ti  Ti46  1  0.11606621  0.37104646  0.87304632  1
  Ti  Ti47  1  0.37289778  0.87921861  0.63011880  1
  Ti  Ti48  1  0.62815960  0.37526069  0.86652478  1
  Ti  Ti49  1  0.87896481  0.62411328  0.10482404  1
  Ti  Ti50  1  0.36962111  0.12867179  0.63445993  1
  Ti  Ti51  1  0.37007298  0.11793016  0.88029739  1
  Ti  Ti52  1  0.87983524  0.39330249  0.87658022  1
  Ti  Ti53  1  0.12224305  0.38498009  0.62497129  1
  Ti  Ti54  1  0.86203977  0.12723160  0.11646268  1
  Ti  Ti55  1  0.61437544  0.62502718  0.11228713  1
  Ti  Ti56  1  0.90084893  0.37311488  0.62432264  1
  Ti  Ti57  1  0.36623202  0.88509307  0.37620370  1
  Ti  Ti58  1  0.86229464  0.11888406  0.86434072  1
  Ti  Ti59  1  0.64298909  0.37508544  0.37947688  1
  Ti  Ti60  1  0.62506757  0.37792748  0.61898528  1
  Ti  Ti61  1  0.87044948  0.37752885  0.13038522  1
  Ti  Ti62  1  0.85564209  0.62552346  0.87159869  1
  Ti  Ti63  1  0.62343734  0.63428627  0.37392122  1
  Ti  Ti64  1  0.86813524  0.61854590  0.38027280  1
  Ti  Ti65  1  0.38289101  0.37695755  0.38082627  1
  Ti  Ti66  1  0.12886079  0.13019184  0.63825364  1
  Ti  Ti67  1  0.12106889  0.87734744  0.86474819  1
  Ti  Ti68  1  0.36962064  0.88534801  0.88152783  1
  Ti  Ti69  1  0.37144996  0.62792504  0.62613658  1
  Ti  Ti70  1  0.63277910  0.13661537  0.87974235  1
  Ti  Ti71  1  0.62145521  0.36328850  0.12744599  1
  Ti  Ti72  1  0.10948861  0.12067500  0.37780174  1
  Ti  Ti73  1  0.62603466  0.88647006  0.62296381  1
  Bi  Bi74  1  0.48138657  0.50052252  0.01520138  1
  Bi  Bi75  1  0.24916652  0.50365715  0.78412621  1
  Bi  Bi76  1  0.26744158  0.50561173  0.49132834  1
  Bi  Bi77  1  0.75907296  0.28153941  0.73704824  1
  Bi  Bi78  1  0.23030802  0.74996171  0.75101633  1
  Bi  Bi79  1  0.75255790  0.49753924  0.23206743  1
  Bi  Bi80  1  0.47958194  0.75861593  0.76329499  1
  Bi  Bi81  1  0.52960986  0.22791539  0.47241159  1
  Bi  Bi82  1  0.23458361  0.26524169  0.27092404  1
  Bi  Bi83  1  0.47060326  0.25400304  0.24781439  1
  Bi  Bi84  1  0.49049731  0.02357391  0.52073844  1
  Bi  Bi85  1  0.75251172  0.78286647  0.75127615  1
  Bi  Bi86  1  -0.03333671  0.24108317  0.24407344  1
  Bi  Bi87  1  0.22103083  0.75679193  0.27328757  1
  Bi  Bi88  1  0.00066579  0.22287519  -0.00982967  1
  Bi  Bi89  1  -0.00071917  0.02938826  0.76377345  1
  Bi  Bi90  1  0.75717560  0.72173804  0.22970218  1
  Bi  Bi91  1  0.71724675  0.48576984  -0.00250129  1
  Bi  Bi92  1  -0.01606729  0.53034541  0.75245297  1
  Bi  Bi93  1  0.49195571  0.51211651  0.74596538  1
  Bi  Bi94  1  0.51698154  0.51275518  0.49221248  1
  Bi  Bi95  1  0.24079748  0.24727649  0.03384716  1
  Bi  Bi96  1  0.02200681  0.51902353  0.25285850  1
  Bi  Bi97  1  0.48253036  0.77190284  0.25599344  1
  Bi  Bi98  1  0.72706749  0.03128506  0.47442734  1
  Bi  Bi99  1  0.75040618  0.78574186  0.49649738  1
  Bi  Bi100  1  0.26051195  0.51270185  0.24118422  1
  Bi  Bi101  1  0.48995483  0.76839917  0.51152931  1
  Bi  Bi102  1  0.79097892  0.24648625  0.50248657  1
  Bi  Bi103  1  0.02551343  0.52937466  0.48657579  1
  Bi  Bi104  1  0.48405561  0.26336264  0.74121731  1
  Bi  Bi105  1  0.24601374  0.27213064  0.76793352  1
  Bi  Bi106  1  0.00555645  0.47482465  0.02087257  1
  Bi  Bi107  1  0.53101927  0.01945770  0.28525280  1
  Bi  Bi108  1  -0.01009329  -0.02261254  0.00412757  1
  Bi  Bi109  1  0.46934165  0.25096062  -0.00196220  1
  Bi  Bi110  1  0.24778167  0.49919991  0.02071796  1
  Bi  Bi111  1  0.22031664  0.72993774  0.50614846  1
  Bi  Bi112  1  0.71602274  -0.00178816  0.01732696  1
  Bi  Bi113  1  -0.00149101  0.75813952  -0.03740489  1
  Bi  Bi114  1  0.23554844  0.74741895  0.02753330  1
  Bi  Bi115  1  0.23602140  0.26308185  0.51662339  1
  Bi  Bi116  1  0.75002031  -0.03264061  0.27026628  1
  Bi  Bi117  1  -0.00475308  0.76519616  0.26150047  1
  Bi  Bi118  1  -0.02305765  -0.01860888  0.23579448  1
  Bi  Bi119  1  0.51825647  0.00747796  0.77727277  1
  Bi  Bi120  1  0.23508412  0.01080897  0.50835305  1
  Bi  Bi121  1  0.71809839  0.21397152  0.27936406  1
  Bi  Bi122  1  0.21905713  0.00618484  0.25286292  1
  Bi  Bi123  1  0.47364715  0.74543995  0.00620477  1
  Bi  Bi124  1  0.21551666  0.01618383  0.01228659  1
  O  O125  1  0.11289604  0.13278920  -0.00506354  1
  O  O126  1  0.11667226  0.10869294  0.25812845  1
  O  O127  1  0.12627787  0.11733540  0.51188434  1
  O  O128  1  0.13874955  0.08127020  0.74727152  1
  O  O129  1  0.09910669  0.36374420  -0.01315602  1
  O  O130  1  0.14615027  0.38119329  0.26563442  1
  O  O131  1  0.10098848  0.33356085  0.50821711  1
  O  O132  1  0.16011430  0.38055163  0.73931345  1
  O  O133  1  0.10690137  0.64247477  -0.00928584  1
  O  O134  1  0.14296719  0.58733862  0.24744219  1
  O  O135  1  0.09508740  0.64877969  0.50829618  1
  O  O136  1  0.16132750  0.62411679  0.75082293  1
  O  O137  1  0.10112416  0.85491864  -0.00775519  1
  O  O138  1  0.16087777  0.88108970  0.25086939  1
  O  O139  1  0.08134687  0.83492599  0.50088611  1
  O  O140  1  0.14878686  0.88266950  0.74964484  1
  O  O141  1  0.41580572  0.10418826  -0.00837166  1
  O  O142  1  0.36886943  0.14507109  0.25648199  1
  O  O143  1  0.36184490  0.09714795  0.50038784  1
  O  O144  1  0.37300168  0.14077273  0.75045192  1
  O  O145  1  0.40799597  0.38240855  -0.00511468  1
  O  O146  1  0.35425060  0.34444542  0.25280116  1
  O  O147  1  0.38847463  0.39719046  0.49422679  1
  O  O148  1  0.37067714  0.34693298  0.74654306  1
  O  O149  1  0.40874322  0.61991820  -0.00597386  1
  O  O150  1  0.34883469  0.62493184  0.25619904  1
  O  O151  1  0.40498086  0.60115980  0.50038330  1
  O  O152  1  0.36094423  0.65742927  0.73998803  1
  O  O153  1  0.40913064  0.89527398  -0.00618155  1
  O  O154  1  0.35606953  0.84877905  0.24311544  1
  O  O155  1  0.40708728  0.88248148  0.49103374  1
  O  O156  1  0.36929970  0.85475864  0.74499349  1
  O  O157  1  0.62101280  0.14007865  -0.00405214  1
  O  O158  1  0.64023013  0.10638772  0.23937615  1
  O  O159  1  0.61547100  0.12677594  0.50766522  1
  O  O160  1  0.65197077  0.09386279  0.74553379  1
  O  O161  1  0.62434542  0.37045535  0.01024739  1
  O  O162  1  0.63746721  0.40326236  0.25786236  1
  O  O163  1  0.61320505  0.34754160  0.50034716  1
  O  O164  1  0.64841431  0.38612994  0.75359264  1
  O  O165  1  0.60901083  0.63218824  -0.00217444  1
  O  O166  1  0.63529440  0.59568417  0.26242198  1
  O  O167  1  0.60689221  0.62431001  0.50213794  1
  O  O168  1  0.65403077  0.60415257  0.74827826  1
  O  O169  1  0.61317548  0.86312153  -0.00180138  1
  O  O170  1  0.62504241  0.88987313  0.24039522  1
  O  O171  1  0.61449247  0.84972977  0.49921102  1
  O  O172  1  0.65164512  0.89404619  0.73832916  1
  O  O173  1  0.86653724  0.16483243  -0.00568678  1
  O  O174  1  0.88139889  0.12707388  0.24248285  1
  O  O175  1  0.90841265  0.16677101  0.50846368  1
  O  O176  1  0.85991889  0.08659585  0.75246376  1
  O  O177  1  0.88676553  0.35059226  -0.00726747  1
  O  O178  1  0.87010436  0.40932275  0.24472462  1
  O  O179  1  0.90271710  0.34789768  0.51148684  1
  O  O180  1  0.84498513  0.39687839  0.75915277  1
  O  O181  1  0.89037302  0.64411124  -0.00645603  1
  O  O182  1  0.85055202  0.61337163  0.26444940  1
  O  O183  1  0.90660014  0.64633357  0.50771850  1
  O  O184  1  0.85335280  0.58575285  0.75559417  1
  O  O185  1  0.90674664  0.86499679  -0.00771541  1
  O  O186  1  0.86364829  0.89710552  0.24315831  1
  O  O187  1  0.87925407  0.84687815  0.50784288  1
  O  O188  1  0.83725009  0.89765239  0.73881848  1
  O  O189  1  -0.01047391  0.15822243  0.11233254  1
  O  O190  1  0.00371351  0.08303540  0.39753241  1
  O  O191  1  0.01156637  0.12295973  0.64685942  1
  O  O192  1  -0.00445655  0.14777431  0.83943680  1
  O  O193  1  -0.00444640  0.38369425  0.12823936  1
  O  O194  1  0.00508466  0.40419968  0.37279895  1
  O  O195  1  0.00908495  0.35669100  0.66044921  1
  O  O196  1  -0.00605705  0.35656156  0.84620805  1
  O  O197  1  -0.00893310  0.61997502  0.14846617  1
  O  O198  1  -0.01036630  0.59212571  0.36435377  1
  O  O199  1  -0.01070822  0.64138326  0.66690922  1
  O  O200  1  0.00664949  0.64122946  0.84094598  1
  O  O201  1  -0.00201597  0.87921916  0.14651840  1
  O  O202  1  -0.00056076  0.88763679  0.33498413  1
  O  O203  1  -0.01618638  0.84908331  0.65733286  1
  O  O204  1  0.00536235  0.84042066  0.84458530  1
  O  O205  1  0.25404598  0.11492188  0.09855320  1
  O  O206  1  0.24398432  0.14903018  0.38022229  1
  O  O207  1  0.25108535  0.08284791  0.63027263  1
  O  O208  1  0.25878411  0.10914885  0.89492456  1
  O  O209  1  0.25026368  0.38103939  0.09992165  1
  O  O210  1  0.24577556  0.34129132  0.39499537  1
  O  O211  1  0.24357130  0.38122833  0.58947089  1
  O  O212  1  0.24650724  0.38501981  0.87438290  1
  O  O213  1  0.25193990  0.61577327  0.09618171  1
  O  O214  1  0.26626652  0.63466025  0.41121175  1
  O  O215  1  0.25632682  0.61977910  0.59321557  1
  O  O216  1  0.24973220  0.59958292  0.89023776  1
  O  O217  1  0.25738889  0.88689940  0.09121941  1
  O  O218  1  0.25645752  0.84219179  0.39306440  1
  O  O219  1  0.26232975  0.90019382  0.60960006  1
  O  O220  1  0.25652638  0.88650876  0.89009572  1
  O  O221  1  0.50462245  0.15225298  0.13864025  1
  O  O222  1  0.48633705  0.10603804  0.38542579  1
  O  O223  1  0.49207171  0.13223692  0.61482230  1
  O  O224  1  0.51994182  0.13713667  0.84622619  1
  O  O225  1  0.50602946  0.35272059  0.14382072  1
  O  O226  1  0.49362200  0.39791568  0.35040628  1
  O  O227  1  0.50686175  0.36591166  0.64528732  1
  O  O228  1  0.51569847  0.34331569  0.85689922  1
  O  O229  1  0.50547378  0.65182188  0.13804085  1
  O  O230  1  0.50236689  0.58315783  0.36313030  1
  O  O231  1  0.51064540  0.63012803  0.64927622  1
  O  O232  1  0.51008312  0.62422862  0.83973507  1
  O  O233  1  0.49921347  0.84946942  0.13215379  1
  O  O234  1  0.48881573  0.88604967  0.34121989  1
  O  O235  1  0.50921697  0.84481085  0.63285771  1
  O  O236  1  0.51007533  0.87315619  0.84198196  1
  O  O237  1  0.74742501  0.10604451  0.11015653  1
  O  O238  1  0.75891793  0.14908613  0.40216249  1
  O  O239  1  0.75302712  0.13290813  0.60093143  1
  O  O240  1  0.75159960  0.08951064  0.88196722  1
  O  O241  1  0.74819230  0.40182958  0.12229683  1
  O  O242  1  0.75169105  0.34574879  0.38370260  1
  O  O243  1  0.75238976  0.37681008  0.62199982  1
  O  O244  1  0.75674385  0.38642182  0.90431916  1
  O  O245  1  0.74839628  0.61258886  0.13171155  1
  O  O246  1  0.74322903  0.64422310  0.40024757  1
  O  O247  1  0.75854503  0.58738785  0.60028776  1
  O  O248  1  0.74771298  0.61029307  0.89614479  1
  O  O249  1  0.73922684  0.90045940  0.11363949  1
  O  O250  1  0.74810701  0.85032105  0.36940523  1
  O  O251  1  0.74814938  0.89019609  0.59196450  1
  O  O252  1  0.74446071  0.89134753  0.87823131  1
  O  O253  1  0.12685398  0.00172490  0.12106208  1
  O  O254  1  0.15499748  0.00074185  0.37858999  1
  O  O255  1  0.11291799  -0.02363989  0.60236105  1
  O  O256  1  0.09628501  -0.01002631  0.88417094  1
  O  O257  1  0.15027318  0.24999743  0.13793015  1
  O  O258  1  0.08698050  0.24058690  0.37270017  1
  O  O259  1  0.15712474  0.23951241  0.64737729  1
  O  O260  1  0.13591656  0.25432846  0.85545363  1
  O  O261  1  0.12382710  0.49761819  0.09608259  1
  O  O262  1  0.14287945  0.48349380  0.42249780  1
  O  O263  1  0.10783845  0.49699569  0.61372973  1
  O  O264  1  0.11421299  0.49794012  0.86343275  1
  O  O265  1  0.15159436  0.74882164  0.13919669  1
  O  O266  1  0.10186687  0.75161123  0.34945170  1
  O  O267  1  0.14680230  0.75681148  0.63754560  1
  O  O268  1  0.14850133  0.74795826  0.86472170  1
  O  O269  1  0.39980456  -0.00620054  0.13531235  1
  O  O270  1  0.34361936  -0.00409656  0.36057954  1
  O  O271  1  0.40629353  -0.00838349  0.63297429  1
  O  O272  1  0.39756896  0.00004705  0.85263235  1
  O  O273  1  0.36737845  0.24646820  0.09671652  1
  O  O274  1  0.39625929  0.24793801  0.39052355  1
  O  O275  1  0.35304121  0.23942508  0.60806389  1
  O  O276  1  0.37448329  0.24059740  0.89598027  1
  O  O277  1  0.38414838  0.50073540  0.11609878  1
  O  O278  1  0.33883758  0.49075534  0.36205520  1
  O  O279  1  0.38348753  0.50989926  0.65055025  1
  O  O280  1  0.38886615  0.50031578  0.84071172  1
  O  O281  1  0.36280373  0.75457758  0.09276207  1
  O  O282  1  0.40445065  0.74056520  0.37882943  1
  O  O283  1  0.36863790  0.75112033  0.59187984  1
  O  O284  1  0.39139894  0.75876252  0.88492568  1
  O  O285  1  0.59543863  0.00734978  0.09357186  1
  O  O286  1  0.63233101  -0.00783035  0.37677215  1
  O  O287  1  0.60783604  -0.00156594  0.60954301  1
  O  O288  1  0.61234278  -0.00364732  0.88086671  1
  O  O289  1  0.64727888  0.25044348  0.14784584  1
  O  O290  1  0.60344253  0.25651375  0.35227465  1
  O  O291  1  0.62759899  0.24499974  0.65053224  1
  O  O292  1  0.67117801  0.24840866  0.87460379  1
  O  O293  1  0.60418345  0.50441209  0.11775027  1
  O  O294  1  0.64457644  0.49107354  0.40771722  1
  O  O295  1  0.61743231  0.49185002  0.61005591  1
  O  O296  1  0.61774507  0.49212062  0.89140822  1
  O  O297  1  0.64748287  0.74818678  0.13893404  1
  O  O298  1  0.59478535  0.74080434  0.35525879  1
  O  O299  1  0.65642579  0.73986339  0.63391033  1
  O  O300  1  0.62973263  0.74720975  0.85519996  1
  O  O301  1  0.89019246  0.01381969  0.10228146  1
  O  O302  1  0.83515110  0.00030872  0.38416632  1
  O  O303  1  0.90494896  0.00176273  0.58947501  1
  O  O304  1  0.90900278  0.00721862  0.89269411  1
  O  O305  1  0.85862991  0.26230627  0.15030348  1
  O  O306  1  0.90129446  0.25524982  0.36288384  1
  O  O307  1  0.88023674  0.25590019  0.66905602  1
  O  O308  1  0.85598927  0.24246181  0.84764346  1
  O  O309  1  0.87766546  0.50291097  0.09381103  1
  O  O310  1  0.84209240  0.50967391  0.41448592  1
  O  O311  1  0.89870662  0.49209026  0.62528096  1
  O  O312  1  0.90176372  0.50384887  0.89083919  1
  O  O313  1  0.85722520  0.74177116  0.13986984  1
  O  O314  1  0.91255396  0.74295357  0.37027202  1
  O  O315  1  0.85189943  0.73832089  0.65544560  1
  O  O316  1  0.86665714  0.74104581  0.84168009  1
