# generated using pymatgen
data_Mg32Ti42(Bi17O64)3
_symmetry_space_group_name_H-M   'P 1'
_cell_length_a   15.94118552
_cell_length_b   15.93901791
_cell_length_c   15.94825678
_cell_angle_alpha   89.97300168
_cell_angle_beta   90.02927418
_cell_angle_gamma   89.95833369
_symmetry_Int_Tables_number   1
_chemical_formula_structural   Mg32Ti42(Bi17O64)3
_chemical_formula_sum   'Mg32 Ti42 Bi51 O192'
_cell_volume   4052.24014082
_cell_formula_units_Z   1
loop_
 _symmetry_equiv_pos_site_id
 _symmetry_equiv_pos_as_xyz
  1  'x, y, z'
loop_
 _atom_site_type_symbol
 _atom_site_label
 _atom_site_symmetry_multiplicity
 _atom_site_fract_x
 _atom_site_fract_y
 _atom_site_fract_z
 _atom_site_occupancy
  Mg  Mg0  1  0.36681024  0.63020856  0.37171264  1
  Mg  Mg1  1  0.12710865  0.12154751  0.12223803  1
  Mg  Mg2  1  0.11980365  0.60786128  0.88483926  1
  Mg  Mg3  1  0.13713189  0.12826505  0.63169676  1
  Mg  Mg4  1  0.11930898  0.87448055  0.88022784  1
  Mg  Mg5  1  0.37571852  0.61460656  0.12589241  1
  Mg  Mg6  1  0.37833128  0.62116778  0.62927653  1
  Mg  Mg7  1  0.62069992  0.11669908  0.87403897  1
  Mg  Mg8  1  0.11943220  0.12357048  0.37341654  1
  Mg  Mg9  1  0.87634899  0.87619371  0.36971940  1
  Mg  Mg10  1  0.36290331  0.88038830  0.62777577  1
  Mg  Mg11  1  0.86666415  0.61834781  0.61812866  1
  Mg  Mg12  1  0.11115981  0.63852840  0.36353282  1
  Mg  Mg13  1  0.88768889  0.36458607  0.11427821  1
  Mg  Mg14  1  0.36999519  0.87672084  0.37054785  1
  Mg  Mg15  1  0.12305842  0.62627435  0.12071599  1
  Mg  Mg16  1  0.87488143  0.87903689  0.62969920  1
  Mg  Mg17  1  0.13257481  0.13160063  0.87677551  1
  Mg  Mg18  1  0.37847322  0.13072263  0.36920283  1
  Mg  Mg19  1  0.24814525  0.23596353  0.03468414  1
  Mg  Mg20  1  -0.03250101  0.55545105  0.03221166  1
  Mg  Mg21  1  0.05817378  0.25179439  0.02207025  1
  Mg  Mg22  1  0.78324778  0.24669482  0.44905720  1
  Mg  Mg23  1  -0.00061773  0.05115448  0.01866150  1
  Mg  Mg24  1  0.43860888  0.49187451  0.26880310  1
  Mg  Mg25  1  0.23142713  0.24553501  0.44364391  1
  Mg  Mg26  1  0.05640415  0.55617013  0.51203370  1
  Mg  Mg27  1  0.00596463  0.72564998  -0.03410916  1
  Mg  Mg28  1  -0.01222384  -0.01593547  0.26431904  1
  Mg  Mg29  1  0.73262026  0.31328686  0.01660759  1
  Mg  Mg30  1  0.25795504  0.23783049  0.78188135  1
  Mg  Mg31  1  0.52027748  0.29175174  0.51561256  1
  Ti  Ti32  1  0.38969207  0.37764365  0.62962135  1
  Ti  Ti33  1  0.62830655  0.88838433  0.61562530  1
  Ti  Ti34  1  0.62691719  0.37933178  0.38571500  1
  Ti  Ti35  1  0.62028083  0.11800673  0.12103197  1
  Ti  Ti36  1  0.62529019  0.61557045  0.37391736  1
  Ti  Ti37  1  0.61669869  0.37931608  0.87213176  1
  Ti  Ti38  1  0.37127219  0.36752936  0.38446488  1
  Ti  Ti39  1  0.87254930  0.35967238  0.61065829  1
  Ti  Ti40  1  0.88425742  0.61288213  0.87465712  1
  Ti  Ti41  1  0.37152075  0.87491347  0.87460433  1
  Ti  Ti42  1  0.62948170  0.62280157  0.61659518  1
  Ti  Ti43  1  0.62070682  0.87416294  0.12887084  1
  Ti  Ti44  1  0.36103161  0.36898465  0.13720829  1
  Ti  Ti45  1  0.12213910  0.88707234  0.64051971  1
  Ti  Ti46  1  0.63301987  0.37398994  0.63034896  1
  Ti  Ti47  1  0.86610381  0.12498563  0.11849716  1
  Ti  Ti48  1  0.13713062  0.36367425  0.88328379  1
  Ti  Ti49  1  0.62820568  0.13571287  0.62130324  1
  Ti  Ti50  1  0.13482364  0.37238325  0.61666775  1
  Ti  Ti51  1  0.88898110  0.12858759  0.37491298  1
  Ti  Ti52  1  0.88512981  0.85903394  0.88150100  1
  Ti  Ti53  1  0.62620394  0.86085221  0.37977739  1
  Ti  Ti54  1  0.86740425  0.12863395  0.88965406  1
  Ti  Ti55  1  0.11071669  0.37922802  0.38136982  1
  Ti  Ti56  1  0.61985428  0.62604588  0.12197218  1
  Ti  Ti57  1  0.38330368  0.62758791  0.87807207  1
  Ti  Ti58  1  0.89732224  0.36243176  0.89017769  1
  Ti  Ti59  1  0.62090940  0.63199279  0.87672076  1
  Ti  Ti60  1  0.36316236  0.14347303  0.63120048  1
  Ti  Ti61  1  0.10745438  0.88302995  0.11590580  1
  Ti  Ti62  1  0.12399398  0.37912725  0.13517569  1
  Ti  Ti63  1  0.37623434  0.12298057  0.13081646  1
  Ti  Ti64  1  0.37536683  0.13226227  0.88727876  1
  Ti  Ti65  1  0.88029217  0.62747310  0.38357411  1
  Ti  Ti66  1  0.37236513  0.88989939  0.13246846  1
  Ti  Ti67  1  0.86743515  0.12956887  0.63547875  1
  Ti  Ti68  1  0.37461628  0.37169505  0.88793852  1
  Ti  Ti69  1  0.87651161  0.37569000  0.37118558  1
  Ti  Ti70  1  0.62078025  0.13499985  0.38959634  1
  Ti  Ti71  1  0.11190670  0.87508340  0.37171279  1
  Ti  Ti72  1  0.62137305  0.86786894  0.87002063  1
  Ti  Ti73  1  0.87272214  0.89381233  0.11821802  1
  Bi  Bi74  1  0.24989501  -0.00298679  0.78204660  1
  Bi  Bi75  1  0.48818186  0.77338122  0.73243443  1
  Bi  Bi76  1  0.51199466  0.52101659  0.74910186  1
  Bi  Bi77  1  0.46391322  0.01277660  0.49722713  1
  Bi  Bi78  1  0.51492716  0.46747417  0.04560180  1
  Bi  Bi79  1  0.24056553  0.74330254  0.53072003  1
  Bi  Bi80  1  0.24951395  0.03274398  0.47965879  1
  Bi  Bi81  1  0.22094951  0.75093365  -0.00382985  1
  Bi  Bi82  1  0.48060623  0.72764463  0.24826004  1
  Bi  Bi83  1  0.73410831  0.23870408  0.23548184  1
  Bi  Bi84  1  -0.00075809  0.47486320  0.71880319  1
  Bi  Bi85  1  0.74705796  0.25270706  0.78565392  1
  Bi  Bi86  1  0.51813267  -0.00872547  0.27478708  1
  Bi  Bi87  1  0.22322639  0.01032160  0.00648555  1
  Bi  Bi88  1  0.74435189  0.75316493  0.72277458  1
  Bi  Bi89  1  0.46404507  0.75426576  0.01539062  1
  Bi  Bi90  1  0.02079975  0.74443954  0.51569324  1
  Bi  Bi91  1  -0.00211670  0.01043499  0.78993743  1
  Bi  Bi92  1  0.46211632  0.75959014  0.49917666  1
  Bi  Bi93  1  0.24610879  0.48690934  0.50824050  1
  Bi  Bi94  1  0.73973673  -0.01694969  -0.01272370  1
  Bi  Bi95  1  0.50818983  -0.00366156  -0.00440998  1
  Bi  Bi96  1  0.53178226  0.25459524  0.01360808  1
  Bi  Bi97  1  0.75467876  -0.01364122  0.26181340  1
  Bi  Bi98  1  0.00251883  0.70834475  0.72203783  1
  Bi  Bi99  1  0.26431967  0.49026114  0.77941448  1
  Bi  Bi100  1  -0.02391499  0.73061353  0.19709746  1
  Bi  Bi101  1  -0.00421995  0.22270271  0.22338637  1
  Bi  Bi102  1  0.51320363  0.27802379  0.26316391  1
  Bi  Bi103  1  0.76434387  -0.02138267  0.77010263  1
  Bi  Bi104  1  0.23448080  0.75307093  0.25223014  1
  Bi  Bi105  1  -0.02807282  0.50028087  0.23971222  1
  Bi  Bi106  1  0.21787065  0.71802915  0.74770893  1
  Bi  Bi107  1  0.23202162  -0.01139823  0.25837532  1
  Bi  Bi108  1  0.75397417  0.51083224  -0.02675880  1
  Bi  Bi109  1  0.22176066  0.52111636  0.26122923  1
  Bi  Bi110  1  0.75898830  0.50090510  0.49283596  1
  Bi  Bi111  1  0.00110488  -0.00006687  0.52647099  1
  Bi  Bi112  1  0.77486080  0.76076421  0.49661398  1
  Bi  Bi113  1  0.02336985  0.23088599  0.51425857  1
  Bi  Bi114  1  0.49343778  0.01960685  0.71800825  1
  Bi  Bi115  1  0.77238376  0.72427643  0.03385192  1
  Bi  Bi116  1  0.02297892  0.24264327  0.75344488  1
  Bi  Bi117  1  0.76571682  0.49928843  0.73338598  1
  Bi  Bi118  1  0.47074179  0.51519356  0.49073514  1
  Bi  Bi119  1  0.76982311  0.00517000  0.49851288  1
  Bi  Bi120  1  0.74022292  0.72087022  0.24830736  1
  Bi  Bi121  1  0.23281116  0.21886560  0.24701948  1
  Bi  Bi122  1  0.72435348  0.46161850  0.21632851  1
  Bi  Bi123  1  0.50514294  0.24662499  0.76067420  1
  Bi  Bi124  1  0.23393444  0.50742324  0.02152166  1
  O  O125  1  0.15317060  0.15251629  -0.00137281  1
  O  O126  1  0.11947012  0.12802093  0.24729944  1
  O  O127  1  0.14370656  0.16152438  0.50181843  1
  O  O128  1  0.08648846  0.11433646  0.75146641  1
  O  O129  1  0.15617864  0.33219708  -0.00863009  1
  O  O130  1  0.12282441  0.40131592  0.24963729  1
  O  O131  1  0.11657105  0.34311969  0.49689011  1
  O  O132  1  0.10441509  0.38725460  0.73758628  1
  O  O133  1  0.16250881  0.62470617  0.00153823  1
  O  O134  1  0.10119731  0.59182731  0.24242899  1
  O  O135  1  0.12968117  0.66253373  0.49021620  1
  O  O136  1  0.10634988  0.63148781  0.76021124  1
  O  O137  1  0.15885251  0.87830545  0.00408566  1
  O  O138  1  0.10396398  0.92853236  0.22960857  1
  O  O139  1  0.12581109  0.84248150  0.48174291  1
  O  O140  1  0.11427199  0.90258568  0.75138605  1
  O  O141  1  0.34506277  0.15000016  -0.00446228  1
  O  O142  1  0.39644704  0.12027571  0.24129526  1
  O  O143  1  0.36010266  0.12294510  0.51246410  1
  O  O144  1  0.41414234  0.12897295  0.74836952  1
  O  O145  1  0.36090650  0.36036395  -0.00159825  1
  O  O146  1  0.36434751  0.38356984  0.25324388  1
  O  O147  1  0.41958039  0.36540143  0.49152251  1
  O  O148  1  0.37527268  0.39772275  0.74042955  1
  O  O149  1  0.36696553  0.64181162  -0.00356208  1
  O  O150  1  0.40378579  0.61462691  0.24996092  1
  O  O151  1  0.38503361  0.63889454  0.49867370  1
  O  O152  1  0.39664845  0.59660482  0.75418436  1
  O  O153  1  0.36657909  0.85863010  -0.00378737  1
  O  O154  1  0.39476303  0.90360587  0.24366371  1
  O  O155  1  0.36854878  0.85815322  0.49966887  1
  O  O156  1  0.40151688  0.87685781  0.75443007  1
  O  O157  1  0.63263807  0.08003266  0.00577875  1
  O  O158  1  0.61075826  0.16697203  0.23920906  1
  O  O159  1  0.64690810  0.12214581  0.49888590  1
  O  O160  1  0.59499415  0.13240521  0.74216972  1
  O  O161  1  0.61748429  0.37353691  -0.00622221  1
  O  O162  1  0.63863748  0.34956375  0.25677680  1
  O  O163  1  0.61192655  0.38502012  0.50318111  1
  O  O164  1  0.62382184  0.35824514  0.74981818  1
  O  O165  1  0.64863962  0.61566939  0.00501159  1
  O  O166  1  0.61625161  0.64578974  0.25254027  1
  O  O167  1  0.64829864  0.60848843  0.50184875  1
  O  O168  1  0.60538668  0.63061546  0.75840204  1
  O  O169  1  0.63588475  0.89369785  0.00482076  1
  O  O170  1  0.60083160  0.86984156  0.25249208  1
  O  O171  1  0.65191157  0.88427882  0.49867488  1
  O  O172  1  0.61129530  0.85768610  0.75389469  1
  O  O173  1  0.85104989  0.13939151  0.00243362  1
  O  O174  1  0.92037451  0.09964553  0.24929893  1
  O  O175  1  0.84424650  0.14056545  0.48867489  1
  O  O176  1  0.89117437  0.10407451  0.74633329  1
  O  O177  1  0.86190103  0.34034328  -0.00585885  1
  O  O178  1  0.86155045  0.39551200  0.25731808  1
  O  O179  1  0.86265309  0.34089702  0.49767986  1
  O  O180  1  0.89493885  0.39228336  0.75551354  1
  O  O181  1  0.85118742  0.61282254  0.00084025  1
  O  O182  1  0.90553655  0.62007387  0.26141270  1
  O  O183  1  0.83071461  0.62210887  0.49781584  1
  O  O184  1  0.89387585  0.60482848  0.75767075  1
  O  O185  1  0.84891685  0.86249833  -0.00014450  1
  O  O186  1  0.88791281  0.90935574  0.23734250  1
  O  O187  1  0.84611082  0.88052323  0.49688863  1
  O  O188  1  0.88232165  0.88703521  0.76092072  1
  O  O189  1  0.00455872  0.15515339  0.09616558  1
  O  O190  1  -0.00192722  0.12001543  0.40401691  1
  O  O191  1  -0.00748703  0.11784833  0.59734425  1
  O  O192  1  -0.00790425  0.10209077  0.90186877  1
  O  O193  1  0.01716830  0.33266344  0.11520357  1
  O  O194  1  -0.00404543  0.37809251  0.37427761  1
  O  O195  1  -0.01235168  0.39312243  0.61025047  1
  O  O196  1  0.01225591  0.34831426  0.90074997  1
  O  O197  1  0.00592958  0.66416086  0.08310041  1
  O  O198  1  -0.00788323  0.61695169  0.41712865  1
  O  O199  1  -0.00857676  0.62799054  0.60599882  1
  O  O200  1  -0.00448299  0.60458647  0.91697506  1
  O  O201  1  -0.00260173  0.85335263  0.10637093  1
  O  O202  1  0.00004651  0.90656931  0.36873732  1
  O  O203  1  -0.00001002  0.88774203  0.60807848  1
  O  O204  1  -0.00677398  0.89091349  0.89727071  1
  O  O205  1  0.25618744  0.10433081  0.14200155  1
  O  O206  1  0.24903425  0.13094738  0.37815726  1
  O  O207  1  0.25718467  0.16391008  0.66833569  1
  O  O208  1  0.26140183  0.12711246  0.84186226  1
  O  O209  1  0.24940600  0.40512099  0.12798541  1
  O  O210  1  0.25645785  0.37440787  0.41538663  1
  O  O211  1  0.25022459  0.37447205  0.60622982  1
  O  O212  1  0.25601150  0.35713755  0.84325310  1
  O  O213  1  0.24945098  0.59198354  0.14299412  1
  O  O214  1  0.24134263  0.64052654  0.33992611  1
  O  O215  1  0.25229431  0.64962315  0.63669267  1
  O  O216  1  0.25954159  0.62847482  0.84505841  1
  O  O217  1  0.25503928  0.90585027  0.14248535  1
  O  O218  1  0.24170222  0.86630232  0.33465178  1
  O  O219  1  0.23692666  0.85312840  0.62959750  1
  O  O220  1  0.25756154  0.86443465  0.85097885  1
  O  O221  1  0.50310587  0.14028281  0.10145587  1
  O  O222  1  0.50112995  0.09993071  0.39258793  1
  O  O223  1  0.50720242  0.10303919  0.60453548  1
  O  O224  1  0.49139307  0.10298284  0.90288626  1
  O  O225  1  0.49235688  0.34826725  0.11625359  1
  O  O226  1  0.50278168  0.39867673  0.33961931  1
  O  O227  1  0.50568489  0.39341891  0.63342288  1
  O  O228  1  0.49383685  0.38342251  0.87335335  1
  O  O229  1  0.50598896  0.65066571  0.11160226  1
  O  O230  1  0.51255629  0.60910253  0.38320799  1
  O  O231  1  0.51381814  0.59836897  0.62210921  1
  O  O232  1  0.50459008  0.60114680  0.88877338  1
  O  O233  1  0.50485440  0.86900052  0.10508782  1
  O  O234  1  0.51187385  0.90352141  0.38912037  1
  O  O235  1  0.51101016  0.87297280  0.61804314  1
  O  O236  1  0.50502213  0.88882824  0.89377073  1
  O  O237  1  0.75541641  0.11034399  0.15047559  1
  O  O238  1  0.73296909  0.16917935  0.35763877  1
  O  O239  1  0.74791142  0.13560714  0.64322526  1
  O  O240  1  0.74919897  0.13607801  0.85871155  1
  O  O241  1  0.75816047  0.38855628  0.11329265  1
  O  O242  1  0.74282379  0.35260861  0.38870918  1
  O  O243  1  0.74823556  0.35490941  0.63341107  1
  O  O244  1  0.73929142  0.34886929  0.88331436  1
  O  O245  1  0.74421530  0.62980321  0.14346387  1
  O  O246  1  0.75373398  0.62723077  0.34891157  1
  O  O247  1  0.74649205  0.62075351  0.66418217  1
  O  O248  1  0.75297193  0.61220646  0.86908851  1
  O  O249  1  0.75163632  0.90729526  0.13225732  1
  O  O250  1  0.74336986  0.87416399  0.34589787  1
  O  O251  1  0.74601231  0.87572479  0.65434368  1
  O  O252  1  0.75103552  0.86645232  0.85988035  1
  O  O253  1  0.10189861  0.00436134  0.07772744  1
  O  O254  1  0.14677781  -0.00484570  0.38422922  1
  O  O255  1  0.12687105  0.00038778  0.59821801  1
  O  O256  1  0.15199394  0.00346701  0.88300127  1
  O  O257  1  0.16029541  0.25671499  0.13575250  1
  O  O258  1  0.14019174  0.26386710  0.35194125  1
  O  O259  1  0.09621192  0.25361588  0.63659631  1
  O  O260  1  0.13700477  0.25034172  0.83214301  1
  O  O261  1  0.10785750  0.48687657  0.08410314  1
  O  O262  1  0.13048581  0.49694485  0.40354055  1
  O  O263  1  0.12663699  0.48928414  0.59123644  1
  O  O264  1  0.15447720  0.48322299  0.88320277  1
  O  O265  1  0.14879948  0.76339451  0.12628768  1
  O  O266  1  0.11106027  0.76342487  0.31840082  1
  O  O267  1  0.09979958  0.76089305  0.63421639  1
  O  O268  1  0.11350165  0.74807394  0.90445341  1
  O  O269  1  0.39263664  0.00631755  0.09672626  1
  O  O270  1  0.35602815  0.00116943  0.39582410  1
  O  O271  1  0.36987380  0.00951147  0.63821061  1
  O  O272  1  0.35661463  -0.00331516  0.87728444  1
  O  O273  1  0.34340825  0.25025945  0.13074583  1
  O  O274  1  0.36385350  0.25441057  0.37035206  1
  O  O275  1  0.40302316  0.25567149  0.62635989  1
  O  O276  1  0.38293040  0.24912373  0.85262729  1
  O  O277  1  0.40890215  0.48823423  0.13264140  1
  O  O278  1  0.37151274  0.50026397  0.38607394  1
  O  O279  1  0.36829236  0.49519104  0.59198434  1
  O  O280  1  0.35243082  0.49374165  0.88481739  1
  O  O281  1  0.37920484  0.76179820  0.13641197  1
  O  O282  1  0.40040958  0.75379245  0.36224004  1
  O  O283  1  0.39807511  0.74855235  0.62954219  1
  O  O284  1  0.39926094  0.74422700  0.86141221  1
  O  O285  1  0.61041899  0.00350568  0.15431391  1
  O  O286  1  0.64042541  0.01953051  0.34968944  1
  O  O287  1  0.63395295  0.00048620  0.63226067  1
  O  O288  1  0.65021104  -0.01012683  0.86516152  1
  O  O289  1  0.65293268  0.23048104  0.07880808  1
  O  O290  1  0.57636174  0.25640476  0.39529443  1
  O  O291  1  0.60008967  0.25053555  0.60944158  1
  O  O292  1  0.60212886  0.24546453  0.87308574  1
  O  O293  1  0.60694464  0.50910635  0.14068924  1
  O  O294  1  0.64585777  0.49657025  0.36986548  1
  O  O295  1  0.65009973  0.49426950  0.64460979  1
  O  O296  1  0.63956216  0.49378523  0.86791212  1
  O  O297  1  0.64664359  0.75949865  0.12249942  1
  O  O298  1  0.62296023  0.74850831  0.39024756  1
  O  O299  1  0.64245112  0.74190990  0.62210861  1
  O  O300  1  0.61892525  0.74645792  0.89145599  1
  O  O301  1  0.90385548  0.00733370  0.09190399  1
  O  O302  1  0.84456935  0.01296558  0.37720976  1
  O  O303  1  0.86873002  0.00916101  0.59946873  1
  O  O304  1  0.85383846  0.00546513  0.88028287  1
  O  O305  1  0.87182229  0.23804569  0.15482665  1
  O  O306  1  0.88147466  0.24656043  0.35490940  1
  O  O307  1  0.89118255  0.24692350  0.64074576  1
  O  O308  1  0.87648663  0.24495827  0.84875976  1
  O  O309  1  0.92014620  0.48717720  0.11940524  1
  O  O310  1  0.86272209  0.49231775  0.39716221  1
  O  O311  1  0.84474025  0.48878497  0.61631187  1
  O  O312  1  0.87079141  0.48629985  0.89343686  1
  O  O313  1  0.85443215  0.76570352  0.14281062  1
  O  O314  1  0.87515862  0.74673660  0.39076993  1
  O  O315  1  0.85130440  0.74921059  0.62264216  1
  O  O316  1  0.90259104  0.73985098  0.88376160  1
