# generated using pymatgen
data_Mg32Ti42(Bi17O64)3
_symmetry_space_group_name_H-M   'P 1'
_cell_length_a   15.94422061
_cell_length_b   15.91679400
_cell_length_c   15.90600587
_cell_angle_alpha   90.00500612
_cell_angle_beta   90.13334649
_cell_angle_gamma   90.02108231
_symmetry_Int_Tables_number   1
_chemical_formula_structural   Mg32Ti42(Bi17O64)3
_chemical_formula_sum   'Mg32 Ti42 Bi51 O192'
_cell_volume   4036.62886498
_cell_formula_units_Z   1
loop_
 _symmetry_equiv_pos_site_id
 _symmetry_equiv_pos_as_xyz
  1  'x, y, z'
loop_
 _atom_site_type_symbol
 _atom_site_label
 _atom_site_symmetry_multiplicity
 _atom_site_fract_x
 _atom_site_fract_y
 _atom_site_fract_z
 _atom_site_occupancy
  Mg  Mg0  1  0.12350644  0.62221569  0.88117964  1
  Mg  Mg1  1  0.62741852  0.11740784  0.86747767  1
  Mg  Mg2  1  0.86470546  0.37728963  0.86253178  1
  Mg  Mg3  1  0.86799663  0.37387164  0.37874025  1
  Mg  Mg4  1  0.11236540  0.37742061  0.36603487  1
  Mg  Mg5  1  0.87652853  0.61728624  0.37204272  1
  Mg  Mg6  1  0.63036071  0.13199369  0.12988953  1
  Mg  Mg7  1  0.37097208  0.87285988  0.37809796  1
  Mg  Mg8  1  0.37827597  0.12895266  0.37042416  1
  Mg  Mg9  1  0.12122784  0.37458779  0.12694845  1
  Mg  Mg10  1  0.11945603  0.87063035  0.37944049  1
  Mg  Mg11  1  0.86379049  0.87387371  0.13133673  1
  Mg  Mg12  1  0.87465660  0.10857798  0.87288224  1
  Mg  Mg13  1  0.11980946  0.62608428  0.61679170  1
  Mg  Mg14  1  0.37638873  0.37190253  0.13184254  1
  Mg  Mg15  1  0.87413995  0.62470341  0.62368447  1
  Mg  Mg16  1  0.87589109  0.86870796  0.38666434  1
  Mg  Mg17  1  0.62177363  0.10675738  0.61962326  1
  Mg  Mg18  1  0.12856258  0.87812356  0.11953996  1
  Mg  Mg19  1  0.54495717  0.26656155  0.29567705  1
  Mg  Mg20  1  -0.02553244  0.74735952  0.05597833  1
  Mg  Mg21  1  -0.04808912  0.75219683  0.27306432  1
  Mg  Mg22  1  -0.06071767  0.00397847  0.69033073  1
  Mg  Mg23  1  0.73049558  0.53573655  0.52873097  1
  Mg  Mg24  1  -0.00589529  0.73272253  0.47743271  1
  Mg  Mg25  1  0.18923808  0.50865430  0.24918076  1
  Mg  Mg26  1  0.50586528  0.07222413  0.23888800  1
  Mg  Mg27  1  -0.04275213  0.18196509  0.73701239  1
  Mg  Mg28  1  0.77096989  0.00466732  0.69386440  1
  Mg  Mg29  1  0.78718933  0.71337051  0.47775084  1
  Mg  Mg30  1  0.80459977  0.06994487  0.50701510  1
  Mg  Mg31  1  0.50894959  0.23490314  0.49934367  1
  Ti  Ti32  1  0.61966798  0.63925023  0.62529767  1
  Ti  Ti33  1  0.39193637  0.35205897  0.37723735  1
  Ti  Ti34  1  0.12161902  0.11775258  0.87902424  1
  Ti  Ti35  1  0.37204260  0.87486742  0.13640769  1
  Ti  Ti36  1  0.63288517  0.62429832  0.39009324  1
  Ti  Ti37  1  0.11704970  0.12069683  0.12394886  1
  Ti  Ti38  1  0.37320976  0.62995179  0.89348208  1
  Ti  Ti39  1  0.63080209  0.87729893  0.38873596  1
  Ti  Ti40  1  0.37245607  0.87108899  0.61949987  1
  Ti  Ti41  1  0.35647746  0.61884673  0.37614347  1
  Ti  Ti42  1  0.62300890  0.63097005  0.13535147  1
  Ti  Ti43  1  0.14162745  0.38190034  0.88792195  1
  Ti  Ti44  1  0.62683451  0.37131060  0.88107920  1
  Ti  Ti45  1  0.11172554  0.62929710  0.12208071  1
  Ti  Ti46  1  0.62495776  0.36804604  0.13196828  1
  Ti  Ti47  1  0.88146880  0.62355829  0.87536307  1
  Ti  Ti48  1  0.87701710  0.37270718  0.12356946  1
  Ti  Ti49  1  0.36541673  0.62446013  0.62047279  1
  Ti  Ti50  1  0.62892658  0.38229842  0.63540024  1
  Ti  Ti51  1  0.87023266  0.87630367  0.85608981  1
  Ti  Ti52  1  0.37898556  0.36292563  0.87777031  1
  Ti  Ti53  1  0.37314471  0.12196698  0.62450323  1
  Ti  Ti54  1  0.13645694  0.12766493  0.37585753  1
  Ti  Ti55  1  0.37342854  0.12683586  0.87516228  1
  Ti  Ti56  1  0.11002221  0.62781859  0.37204970  1
  Ti  Ti57  1  0.62617000  0.88733616  0.14202411  1
  Ti  Ti58  1  0.62716019  0.87069121  0.85803741  1
  Ti  Ti59  1  0.37098149  0.13031392  0.12971619  1
  Ti  Ti60  1  0.61999017  0.62892433  0.89189776  1
  Ti  Ti61  1  0.12465830  0.11068945  0.63468536  1
  Ti  Ti62  1  0.86331137  0.38613106  0.63416818  1
  Ti  Ti63  1  0.86757294  0.62367834  0.13056860  1
  Ti  Ti64  1  0.38879102  0.36248131  0.63384289  1
  Ti  Ti65  1  0.61797976  0.10976506  0.38190125  1
  Ti  Ti66  1  0.37191642  0.63241010  0.13131291  1
  Ti  Ti67  1  0.62795646  0.39170422  0.39230233  1
  Ti  Ti68  1  0.87815607  0.11448634  0.11514631  1
  Ti  Ti69  1  0.10930027  0.87548917  0.86648946  1
  Ti  Ti70  1  0.62605240  0.87876024  0.62233856  1
  Ti  Ti71  1  0.10566957  0.88022232  0.62773196  1
  Ti  Ti72  1  0.86703532  0.86294878  0.60226187  1
  Ti  Ti73  1  0.37657388  0.87172517  0.88249004  1
  Bi  Bi74  1  0.24311940  0.50125277  0.73281273  1
  Bi  Bi75  1  0.22509477  0.73904901  0.74503652  1
  Bi  Bi76  1  0.21437595  0.25490987  0.74292738  1
  Bi  Bi77  1  0.76914682  0.74064426  -0.01381011  1
  Bi  Bi78  1  0.22649860  0.46335083  0.51263725  1
  Bi  Bi79  1  -0.01245715  0.24931884  -0.05472979  1
  Bi  Bi80  1  0.24077785  0.25250317  0.02946670  1
  Bi  Bi81  1  -0.01379855  0.23209362  0.27426787  1
  Bi  Bi82  1  0.47837054  0.73092169  0.74927052  1
  Bi  Bi83  1  0.48102363  0.74769387  0.48091332  1
  Bi  Bi84  1  0.74233034  0.76266143  0.27007861  1
  Bi  Bi85  1  0.21578807  0.25465444  0.51222939  1
  Bi  Bi86  1  0.48376801  0.49141432  0.51647811  1
  Bi  Bi87  1  0.73770742  -0.00769733  -0.02569904  1
  Bi  Bi88  1  0.25629440  -0.00399576  0.77997660  1
  Bi  Bi89  1  -0.01426847  0.04475940  0.47211500  1
  Bi  Bi90  1  0.77471107  0.22933592  0.25078671  1
  Bi  Bi91  1  0.73893304  0.50304187  0.26607834  1
  Bi  Bi92  1  0.00257782  -0.03903908  0.24913787  1
  Bi  Bi93  1  0.25223196  -0.00363743  0.01635273  1
  Bi  Bi94  1  0.71784844  0.24970975  0.50469096  1
  Bi  Bi95  1  -0.02252651  0.47940491  0.25869158  1
  Bi  Bi96  1  0.50480768  0.00714337  0.03197490  1
  Bi  Bi97  1  0.21258949  0.75108189  -0.00351247  1
  Bi  Bi98  1  0.76413972  0.22868790  -0.01440314  1
  Bi  Bi99  1  0.22418280  0.75418920  0.24427890  1
  Bi  Bi100  1  -0.03504250  0.50416460  0.50735147  1
  Bi  Bi101  1  0.77898856  0.00855282  0.30299857  1
  Bi  Bi102  1  0.25078143  0.50107540  0.02839057  1
  Bi  Bi103  1  0.73400733  0.51330449  0.76567674  1
  Bi  Bi104  1  0.75986342  0.73947958  0.72550034  1
  Bi  Bi105  1  0.48655655  0.50017014  0.77614623  1
  Bi  Bi106  1  0.52261910  0.22345540  0.73953855  1
  Bi  Bi107  1  0.47214794  0.48979797  0.26420526  1
  Bi  Bi108  1  0.48392128  -0.01418195  0.75471505  1
  Bi  Bi109  1  0.49507587  0.76035503  0.26384158  1
  Bi  Bi110  1  0.48720761  0.48449042  0.01794383  1
  Bi  Bi111  1  -0.01768140  -0.04279822  0.00503927  1
  Bi  Bi112  1  0.51907411  0.22375237  -0.00284458  1
  Bi  Bi113  1  0.47769155  0.01500044  0.48614035  1
  Bi  Bi114  1  0.73974179  0.48943333  0.01761635  1
  Bi  Bi115  1  0.21826107  0.75832061  0.49475669  1
  Bi  Bi116  1  0.02738587  0.47844712  0.74304288  1
  Bi  Bi117  1  0.76905288  0.21361119  0.72145645  1
  Bi  Bi118  1  -0.01806479  0.25999795  0.53906236  1
  Bi  Bi119  1  0.25162616  -0.01354909  0.49689829  1
  Bi  Bi120  1  0.52027038  0.77543573  0.01680255  1
  Bi  Bi121  1  0.23924282  0.27389594  0.26503859  1
  Bi  Bi122  1  -0.00080248  0.72559998  0.74217335  1
  Bi  Bi123  1  -0.01053824  0.47014396  -0.01826777  1
  Bi  Bi124  1  0.24148879  -0.00119058  0.26923547  1
  O  O125  1  0.11038915  0.14541878  -0.00880187  1
  O  O126  1  0.14524782  0.09975156  0.23992688  1
  O  O127  1  0.11255545  0.13587668  0.49453283  1
  O  O128  1  0.15979823  0.11688546  0.74730379  1
  O  O129  1  0.10241733  0.35832936  -0.00231946  1
  O  O130  1  0.16549999  0.38716887  0.25021160  1
  O  O131  1  0.12783880  0.36736606  0.49048223  1
  O  O132  1  0.15106157  0.39567650  0.75995516  1
  O  O133  1  0.10874870  0.65690703  0.00452232  1
  O  O134  1  0.15274611  0.62884615  0.24458294  1
  O  O135  1  0.09784030  0.64914112  0.49053260  1
  O  O136  1  0.15821276  0.61263046  0.75559481  1
  O  O137  1  0.10910179  0.85420808  -0.01334446  1
  O  O138  1  0.15436175  0.89045293  0.24877776  1
  O  O139  1  0.09877059  0.83404463  0.50960735  1
  O  O140  1  0.14817345  0.88587883  0.74630086  1
  O  O141  1  0.39702219  0.12924672  -0.01030172  1
  O  O142  1  0.37587757  0.10514277  0.24092493  1
  O  O143  1  0.41503158  0.14160377  0.50830381  1
  O  O144  1  0.35832809  0.10105208  0.74590074  1
  O  O145  1  0.40761515  0.36944416  -0.00733030  1
  O  O146  1  0.36999254  0.39014485  0.25955098  1
  O  O147  1  0.42866023  0.35542350  0.49904902  1
  O  O148  1  0.36462552  0.39309601  0.74580876  1
  O  O149  1  0.40437869  0.64102876  0.00338081  1
  O  O150  1  0.36207931  0.61084813  0.25230998  1
  O  O151  1  0.39371436  0.63621657  0.50030161  1
  O  O152  1  0.37244727  0.62169640  0.74408450  1
  O  O153  1  0.40027717  0.86438058  -0.00664920  1
  O  O154  1  0.35487993  0.88416144  0.24946366  1
  O  O155  1  0.40312024  0.86247653  0.50575508  1
  O  O156  1  0.36742286  0.90022625  0.74133143  1
  O  O157  1  0.59926816  0.10998123  -0.00097523  1
  O  O158  1  0.60572816  0.15652479  0.26480146  1
  O  O159  1  0.58966138  0.12237707  0.49662465  1
  O  O160  1  0.64548333  0.14994456  0.74418943  1
  O  O161  1  0.60819035  0.40416405  -0.00343229  1
  O  O162  1  0.63674485  0.34880445  0.24352474  1
  O  O163  1  0.62194359  0.42060235  0.50316251  1
  O  O164  1  0.63889321  0.36554548  0.74918574  1
  O  O165  1  0.60681987  0.61111427  0.00420647  1
  O  O166  1  0.66117028  0.63973903  0.25091614  1
  O  O167  1  0.61016502  0.60267028  0.50359183  1
  O  O168  1  0.65147314  0.63749135  0.74516366  1
  O  O169  1  0.60255689  0.89193448  0.01367293  1
  O  O170  1  0.61852341  0.84427280  0.25683860  1
  O  O171  1  0.61358601  0.88424804  0.50303984  1
  O  O172  1  0.64774300  0.84992587  0.74986897  1
  O  O173  1  0.89181472  0.15794743  0.00068946  1
  O  O174  1  0.85589919  0.11537697  0.23608485  1
  O  O175  1  0.90700428  0.14839217  0.50329925  1
  O  O176  1  0.85277455  0.09782840  0.74382005  1
  O  O177  1  0.89936979  0.35919878  -0.00119818  1
  O  O178  1  0.85455722  0.41037232  0.23686320  1
  O  O179  1  0.89804517  0.36012675  0.50251812  1
  O  O180  1  0.84685805  0.41221164  0.74265417  1
  O  O181  1  0.89074681  0.66613124  -0.00614536  1
  O  O182  1  0.85415327  0.59599554  0.24259262  1
  O  O183  1  0.90691992  0.64086784  0.49882358  1
  O  O184  1  0.83926133  0.61440457  0.75509166  1
  O  O185  1  0.90372820  0.84547893  0.00539326  1
  O  O186  1  0.87296630  0.91515101  0.25307126  1
  O  O187  1  0.89430602  0.81928290  0.50080117  1
  O  O188  1  0.85118678  0.91698789  0.75051202  1
  O  O189  1  0.00213173  0.12188695  0.13669802  1
  O  O190  1  0.01365630  0.11098301  0.35459239  1
  O  O191  1  0.01217988  0.10089955  0.65560921  1
  O  O192  1  0.00633724  0.13483814  0.84652565  1
  O  O193  1  -0.00596054  0.38934650  0.14243178  1
  O  O194  1  -0.00548401  0.36260397  0.32994230  1
  O  O195  1  -0.01450628  0.40897462  0.63719713  1
  O  O196  1  -0.00036223  0.38891749  0.86105348  1
  O  O197  1  -0.00125521  0.62940661  0.12930195  1
  O  O198  1  0.00228816  0.66246486  0.34794935  1
  O  O199  1  -0.00085771  0.61288291  0.66069608  1
  O  O200  1  -0.00575873  0.62461858  0.85071737  1
  O  O201  1  0.00262756  0.88337181  0.13582468  1
  O  O202  1  -0.00002441  0.85507302  0.33949950  1
  O  O203  1  -0.00521902  0.89886732  0.64254122  1
  O  O204  1  -0.00456465  0.87488407  0.85254225  1
  O  O205  1  0.25314940  0.11831663  0.09220552  1
  O  O206  1  0.25274566  0.14542833  0.37613339  1
  O  O207  1  0.25851376  0.13693353  0.60373463  1
  O  O208  1  0.25283738  0.10893297  0.88553563  1
  O  O209  1  0.25150255  0.37799686  0.09354886  1
  O  O210  1  0.27414580  0.34114630  0.39390153  1
  O  O211  1  0.27225725  0.35850292  0.59428345  1
  O  O212  1  0.25841182  0.38427987  0.89941443  1
  O  O213  1  0.25840076  0.63191350  0.09993683  1
  O  O214  1  0.24771031  0.60483415  0.39389762  1
  O  O215  1  0.25429574  0.64923373  0.61548117  1
  O  O216  1  0.25944897  0.63240960  0.90360411  1
  O  O217  1  0.25682448  0.87355286  0.09416744  1
  O  O218  1  0.24731347  0.87166353  0.41709913  1
  O  O219  1  0.25589471  0.86411738  0.59830316  1
  O  O220  1  0.25897689  0.88473943  0.88491179  1
  O  O221  1  0.49211250  0.12777283  0.12342712  1
  O  O222  1  0.49815706  0.08263944  0.36289330  1
  O  O223  1  0.50080060  0.11348388  0.65919475  1
  O  O224  1  0.49778988  0.13950203  0.85018261  1
  O  O225  1  0.50802068  0.40245404  0.13589774  1
  O  O226  1  0.51109325  0.38483925  0.34653365  1
  O  O227  1  0.50557560  0.40840290  0.64005429  1
  O  O228  1  0.49899479  0.37367407  0.84929237  1
  O  O229  1  0.50869500  0.62080676  0.14978353  1
  O  O230  1  0.51977858  0.65885991  0.36276593  1
  O  O231  1  0.50528871  0.61025114  0.64245428  1
  O  O232  1  0.50341703  0.63427335  0.85225601  1
  O  O233  1  0.49329352  0.86552113  0.13381486  1
  O  O234  1  0.50738817  0.84796791  0.37234657  1
  O  O235  1  0.50831546  0.89468297  0.64700906  1
  O  O236  1  0.50530439  0.87262583  0.84771548  1
  O  O237  1  0.75516763  0.13842186  0.09901712  1
  O  O238  1  0.73583256  0.12183458  0.40404973  1
  O  O239  1  0.74428164  0.14415966  0.59787336  1
  O  O240  1  0.75047142  0.11783133  0.90458141  1
  O  O241  1  0.75058685  0.37291139  0.09605990  1
  O  O242  1  0.74201589  0.38810065  0.37950472  1
  O  O243  1  0.74848435  0.34331765  0.61256046  1
  O  O244  1  0.74116451  0.38897448  0.89314494  1
  O  O245  1  0.75553146  0.64196361  0.09735391  1
  O  O246  1  0.75220577  0.59649188  0.41355667  1
  O  O247  1  0.74818574  0.65507635  0.59312253  1
  O  O248  1  0.74355306  0.62964214  0.89913330  1
  O  O249  1  0.73793605  0.88496647  0.12734288  1
  O  O250  1  0.74824474  0.87930225  0.36444641  1
  O  O251  1  0.75330625  0.84330180  0.61120647  1
  O  O252  1  0.75099866  0.87289520  0.89846636  1
  O  O253  1  0.13369511  0.00428859  0.09450339  1
  O  O254  1  0.14921050  0.00253987  0.38290450  1
  O  O255  1  0.13848569  -0.00585495  0.60687288  1
  O  O256  1  0.12268550  -0.00114771  0.88209777  1
  O  O257  1  0.14853901  0.24303832  0.13627515  1
  O  O258  1  0.12182985  0.24543285  0.34243746  1
  O  O259  1  0.12862767  0.23785330  0.63443915  1
  O  O260  1  0.13744674  0.25336621  0.85502894  1
  O  O261  1  0.14198860  0.51020173  0.12407388  1
  O  O262  1  0.10795615  0.50927652  0.35454276  1
  O  O263  1  0.15744228  0.50381671  0.62124231  1
  O  O264  1  0.12330997  0.49772371  0.90143233  1
  O  O265  1  0.13558020  0.75169763  0.13396202  1
  O  O266  1  0.15319457  0.74679089  0.36240263  1
  O  O267  1  0.11601191  0.75278906  0.65641807  1
  O  O268  1  0.13829565  0.75426471  0.85517141  1
  O  O269  1  0.37054708  -0.00343696  0.10568720  1
  O  O270  1  0.35925707  0.00021219  0.40526425  1
  O  O271  1  0.37095502  0.00208038  0.59878637  1
  O  O272  1  0.38504157  -0.00143162  0.87423978  1
  O  O273  1  0.35323499  0.24662847  0.12351032  1
  O  O274  1  0.42610846  0.24616381  0.35412274  1
  O  O275  1  0.39869174  0.24976215  0.64762012  1
  O  O276  1  0.36273763  0.25005871  0.86129156  1
  O  O277  1  0.37143236  0.50528303  0.10610714  1
  O  O278  1  0.39984223  0.50517831  0.39029555  1
  O  O279  1  0.36027361  0.50291640  0.60244030  1
  O  O280  1  0.39245876  0.50812756  0.88440092  1
  O  O281  1  0.37613421  0.74954048  0.14079027  1
  O  O282  1  0.37634048  0.74205208  0.37293391  1
  O  O283  1  0.39165382  0.75280379  0.63500744  1
  O  O284  1  0.37833771  0.75263761  0.85174286  1
  O  O285  1  0.59433265  0.00314913  0.15414576  1
  O  O286  1  0.63215043  -0.00665362  0.36623633  1
  O  O287  1  0.65725283  -0.01161555  0.64577601  1
  O  O288  1  0.63691414  -0.01046746  0.86860753  1
  O  O289  1  0.61479618  0.25670108  0.09794125  1
  O  O290  1  0.60342469  0.26689792  0.40920256  1
  O  O291  1  0.60140721  0.26697454  0.59147239  1
  O  O292  1  0.62668727  0.25498432  0.90179234  1
  O  O293  1  0.65808286  0.50534298  0.13917104  1
  O  O294  1  0.61452578  0.50882437  0.34864121  1
  O  O295  1  0.66682668  0.50126303  0.63918521  1
  O  O296  1  0.61206749  0.50803139  0.85623051  1
  O  O297  1  0.62043172  0.74985837  0.11411434  1
  O  O298  1  0.67129080  0.74350270  0.39475556  1
  O  O299  1  0.60089673  0.75039318  0.61883174  1
  O  O300  1  0.62226295  0.75293947  0.90323986  1
  O  O301  1  0.87747248  0.00310866  0.09282466  1
  O  O302  1  0.86663726  -0.00243691  0.41259385  1
  O  O303  1  0.85311710  -0.01404864  0.59643918  1
  O  O304  1  0.87284931  -0.01194690  0.91191570  1
  O  O305  1  0.87311975  0.25815347  0.15364350  1
  O  O306  1  0.86757599  0.25295730  0.34298256  1
  O  O307  1  0.90370854  0.26333818  0.65459733  1
  O  O308  1  0.87487879  0.24677876  0.85399043  1
  O  O309  1  0.86803070  0.50741704  0.08995128  1
  O  O310  1  0.90537657  0.49614148  0.38353253  1
  O  O311  1  0.84552271  0.49947367  0.58260875  1
  O  O312  1  0.87529486  0.50998763  0.90144343  1
  O  O313  1  0.89059803  0.74714995  0.15920609  1
  O  O314  1  0.85249810  0.74246875  0.35605900  1
  O  O315  1  0.88936286  0.75531381  0.65963875  1
  O  O316  1  0.85891030  0.75584811  0.84948725  1
