# generated using pymatgen
data_Mg32Ti42(Bi17O64)3
_symmetry_space_group_name_H-M   'P 1'
_cell_length_a   15.95884904
_cell_length_b   15.93039016
_cell_length_c   15.89280109
_cell_angle_alpha   90.08102736
_cell_angle_beta   90.02443080
_cell_angle_gamma   90.00441558
_symmetry_Int_Tables_number   1
_chemical_formula_structural   Mg32Ti42(Bi17O64)3
_chemical_formula_sum   'Mg32 Ti42 Bi51 O192'
_cell_volume   4040.43339601
_cell_formula_units_Z   1
loop_
 _symmetry_equiv_pos_site_id
 _symmetry_equiv_pos_as_xyz
  1  'x, y, z'
loop_
 _atom_site_type_symbol
 _atom_site_label
 _atom_site_symmetry_multiplicity
 _atom_site_fract_x
 _atom_site_fract_y
 _atom_site_fract_z
 _atom_site_occupancy
  Mg  Mg0  1  0.61871271  0.62509653  0.61325629  1
  Mg  Mg1  1  0.37378798  0.13005069  0.87874884  1
  Mg  Mg2  1  0.87616033  0.87389225  0.87194118  1
  Mg  Mg3  1  0.38041602  0.37684623  0.37146147  1
  Mg  Mg4  1  0.36514884  0.86531099  0.87243162  1
  Mg  Mg5  1  0.88397216  0.62341656  0.62547351  1
  Mg  Mg6  1  0.88130412  0.36261808  0.61651153  1
  Mg  Mg7  1  0.62362340  0.36505512  0.61625255  1
  Mg  Mg8  1  0.61846608  0.62412983  0.87713691  1
  Mg  Mg9  1  0.35930729  0.37929053  0.12246440  1
  Mg  Mg10  1  0.11990609  0.86997618  0.86253463  1
  Mg  Mg11  1  0.36943566  0.38012453  0.88304238  1
  Mg  Mg12  1  0.86755272  0.88667503  0.12139912  1
  Mg  Mg13  1  0.62435156  0.88311299  0.37950193  1
  Mg  Mg14  1  0.37218720  0.87053232  0.12304683  1
  Mg  Mg15  1  0.87465843  0.88481753  0.37983930  1
  Mg  Mg16  1  0.12788436  0.37388219  0.61738353  1
  Mg  Mg17  1  0.87268630  0.13058013  0.37677900  1
  Mg  Mg18  1  0.12129331  0.12358066  0.12368560  1
  Mg  Mg19  1  0.00966731  0.25178721  0.24897587  1
  Mg  Mg20  1  -0.06210957  0.27436751  0.78476368  1
  Mg  Mg21  1  0.49796746  0.74956099  0.43042494  1
  Mg  Mg22  1  0.19016251  0.46331709  0.00174356  1
  Mg  Mg23  1  0.21036902  0.53016023  0.22522143  1
  Mg  Mg24  1  0.74522775  0.02381259  0.29966784  1
  Mg  Mg25  1  0.74994684  0.05104709  0.02892467  1
  Mg  Mg26  1  0.03830859  0.74711921  0.71387089  1
  Mg  Mg27  1  0.21938759  0.74312475  -0.03154503  1
  Mg  Mg28  1  0.22388415  0.18304906  0.27213645  1
  Mg  Mg29  1  0.47471826  0.75289811  0.21690715  1
  Mg  Mg30  1  0.52947083  0.46777387  0.49627561  1
  Mg  Mg31  1  0.45565394  0.30301811  0.52907534  1
  Ti  Ti32  1  0.61320827  0.63147932  0.37353400  1
  Ti  Ti33  1  0.37126115  0.86711430  0.37493602  1
  Ti  Ti34  1  0.37098330  0.63973060  0.60320815  1
  Ti  Ti35  1  0.12413608  0.88278782  0.62420846  1
  Ti  Ti36  1  0.87912553  0.35447609  0.14172545  1
  Ti  Ti37  1  0.61231570  0.12343372  0.37451952  1
  Ti  Ti38  1  0.14057600  0.38042349  0.36613976  1
  Ti  Ti39  1  0.13212135  0.37134740  0.86002482  1
  Ti  Ti40  1  0.37339839  0.11715136  0.61837753  1
  Ti  Ti41  1  0.62226187  0.38763007  0.87667323  1
  Ti  Ti42  1  0.11153409  0.62240487  0.10843547  1
  Ti  Ti43  1  0.11739046  0.61771518  0.37656756  1
  Ti  Ti44  1  0.11984899  0.13461725  0.62953554  1
  Ti  Ti45  1  0.11392093  0.62269878  0.87429002  1
  Ti  Ti46  1  0.38300740  0.13104881  0.37760444  1
  Ti  Ti47  1  0.87671304  0.62800188  0.86125651  1
  Ti  Ti48  1  0.36235712  0.87113983  0.62026799  1
  Ti  Ti49  1  0.61569862  0.12755110  0.88444013  1
  Ti  Ti50  1  0.13189997  0.86788694  0.11314572  1
  Ti  Ti51  1  0.11625952  0.87033674  0.37508000  1
  Ti  Ti52  1  0.63076738  0.37808354  0.12273320  1
  Ti  Ti53  1  0.86576244  0.12339126  0.88324119  1
  Ti  Ti54  1  0.12398436  0.12871120  0.87078618  1
  Ti  Ti55  1  0.87563045  0.62281701  0.37784290  1
  Ti  Ti56  1  0.37004753  0.62668486  0.12453739  1
  Ti  Ti57  1  0.88424554  0.86613936  0.63631873  1
  Ti  Ti58  1  0.63036487  0.89562216  0.12375534  1
  Ti  Ti59  1  0.12618495  0.61567722  0.62259952  1
  Ti  Ti60  1  0.62357543  0.87014102  0.88224111  1
  Ti  Ti61  1  0.61562744  0.12504166  0.12487966  1
  Ti  Ti62  1  0.36766534  0.61808126  0.36037356  1
  Ti  Ti63  1  0.61771268  0.36770466  0.37526539  1
  Ti  Ti64  1  0.61305606  0.12331942  0.62788633  1
  Ti  Ti65  1  0.86576129  0.62505979  0.13035855  1
  Ti  Ti66  1  0.37297609  0.62852502  0.88226848  1
  Ti  Ti67  1  0.86315191  0.36729135  0.37886714  1
  Ti  Ti68  1  0.36045573  0.12481244  0.12494733  1
  Ti  Ti69  1  0.88409632  0.14049559  0.63179932  1
  Ti  Ti70  1  0.62071325  0.63109967  0.13022397  1
  Ti  Ti71  1  0.87393568  0.11033822  0.14181143  1
  Ti  Ti72  1  0.12608025  0.36526052  0.13781308  1
  Ti  Ti73  1  0.62158814  0.87764203  0.62277483  1
  Bi  Bi74  1  0.76296256  0.28127063  -0.02092722  1
  Bi  Bi75  1  0.47434404  -0.01508503  -0.01481500  1
  Bi  Bi76  1  0.49996067  0.72768231  0.73394837  1
  Bi  Bi77  1  -0.02477150  0.47413774  0.01545306  1
  Bi  Bi78  1  0.26149256  0.02488733  0.76096911  1
  Bi  Bi79  1  0.48446254  -0.01564106  0.48730274  1
  Bi  Bi80  1  0.47323665  0.48415969  0.24042985  1
  Bi  Bi81  1  0.72320173  0.72360660  0.74349723  1
  Bi  Bi82  1  -0.01537302  0.75520189  0.50960742  1
  Bi  Bi83  1  0.76172841  0.51886333  -0.02385841  1
  Bi  Bi84  1  0.72527705  0.25211556  0.74768528  1
  Bi  Bi85  1  0.75533154  0.00662236  0.51690176  1
  Bi  Bi86  1  0.24371325  -0.01761560  -0.02056246  1
  Bi  Bi87  1  0.26853744  0.26570842  0.70395557  1
  Bi  Bi88  1  0.48053931  -0.02943593  0.75279959  1
  Bi  Bi89  1  -0.01454906  0.01202016  0.76262213  1
  Bi  Bi90  1  0.00006374  -0.00913866  -0.00695730  1
  Bi  Bi91  1  0.21451142  0.02641017  0.48221036  1
  Bi  Bi92  1  0.74774007  0.79938618  0.25843242  1
  Bi  Bi93  1  0.76179595  0.75804365  -0.01809335  1
  Bi  Bi94  1  -0.01520929  0.01602380  0.51041393  1
  Bi  Bi95  1  0.01917635  0.04216325  0.27728352  1
  Bi  Bi96  1  0.47279097  0.26088307  0.23229898  1
  Bi  Bi97  1  0.23234967  -0.02270826  0.23548764  1
  Bi  Bi98  1  0.47617692  0.26924547  0.73935910  1
  Bi  Bi99  1  0.72517577  -0.00551989  0.77637056  1
  Bi  Bi100  1  0.49743781  0.49829976  0.70464295  1
  Bi  Bi101  1  -0.01109495  0.48302046  0.26996951  1
  Bi  Bi102  1  0.73145120  0.23037225  0.48620163  1
  Bi  Bi103  1  0.73603934  0.50852601  0.23957333  1
  Bi  Bi104  1  0.73312822  0.51549920  0.48480489  1
  Bi  Bi105  1  0.25098666  0.73038880  0.76555935  1
  Bi  Bi106  1  0.22408239  0.74618325  0.50438877  1
  Bi  Bi107  1  0.26356161  0.49512600  0.74496717  1
  Bi  Bi108  1  -0.01250342  0.48253856  0.51880531  1
  Bi  Bi109  1  0.73271507  0.23958116  0.23495818  1
  Bi  Bi110  1  0.48459859  -0.01724932  0.23954312  1
  Bi  Bi111  1  0.75000306  0.75328828  0.52122580  1
  Bi  Bi112  1  0.21766384  0.73507650  0.24312577  1
  Bi  Bi113  1  0.01589491  0.24896890  0.45847052  1
  Bi  Bi114  1  0.00402165  0.24137860  -0.02287101  1
  Bi  Bi115  1  0.51866917  0.74339931  0.01498412  1
  Bi  Bi116  1  -0.01982638  0.76569511  0.00876843  1
  Bi  Bi117  1  0.29276204  0.46920086  0.51941150  1
  Bi  Bi118  1  -0.01523728  0.47390161  0.76046853  1
  Bi  Bi119  1  -0.02903153  0.76394793  0.25729902  1
  Bi  Bi120  1  0.76551748  0.47626094  0.71035758  1
  Bi  Bi121  1  0.47632368  0.50909270  -0.01015298  1
  Bi  Bi122  1  0.24363670  0.25178724  0.47080950  1
  Bi  Bi123  1  0.24349607  0.26298312  -0.00928499  1
  Bi  Bi124  1  0.48331650  0.26707119  -0.01018129  1
  O  O125  1  0.10349953  0.14260868  -0.00281024  1
  O  O126  1  0.13887518  0.09535801  0.24858095  1
  O  O127  1  0.11597225  0.12256031  0.50675214  1
  O  O128  1  0.13960703  0.11546691  0.75182775  1
  O  O129  1  0.10070496  0.36599157  0.01366949  1
  O  O130  1  0.15595569  0.41466737  0.24720108  1
  O  O131  1  0.10577959  0.36524815  0.48506139  1
  O  O132  1  0.16823171  0.37849451  0.75173289  1
  O  O133  1  0.14888314  0.63905714  -0.00696264  1
  O  O134  1  0.11816243  0.62108853  0.24352152  1
  O  O135  1  0.15177095  0.62250259  0.49314478  1
  O  O136  1  0.10632908  0.64050313  0.74039831  1
  O  O137  1  0.16741540  0.85431566  0.00147403  1
  O  O138  1  0.11751284  0.87640753  0.25319486  1
  O  O139  1  0.15089915  0.86733694  0.49573314  1
  O  O140  1  0.09362880  0.85903284  0.73617794  1
  O  O141  1  0.37335083  0.09115672  0.01293027  1
  O  O142  1  0.35852116  0.16521627  0.26422834  1
  O  O143  1  0.39000526  0.10099957  0.50404562  1
  O  O144  1  0.35151635  0.14122038  0.74822810  1
  O  O145  1  0.41025060  0.38725355  0.00528536  1
  O  O146  1  0.38188757  0.36627512  0.24488070  1
  O  O147  1  0.41568890  0.41584524  0.49304488  1
  O  O148  1  0.36130079  0.35084369  0.75982214  1
  O  O149  1  0.36363119  0.60616662  0.00325994  1
  O  O150  1  0.40549935  0.64996105  0.24877634  1
  O  O151  1  0.35681833  0.61533366  0.49265273  1
  O  O152  1  0.38113417  0.65638427  0.75816683  1
  O  O153  1  0.36302346  0.90544213  -0.00066332  1
  O  O154  1  0.41443062  0.85904529  0.25735159  1
  O  O155  1  0.36454720  0.90467176  0.50154940  1
  O  O156  1  0.39707466  0.85719749  0.74289900  1
  O  O157  1  0.61818136  0.13721465  0.00629912  1
  O  O158  1  0.65570048  0.10970506  0.25771532  1
  O  O159  1  0.61756032  0.14336852  0.50740330  1
  O  O160  1  0.65489530  0.12181197  0.75726245  1
  O  O161  1  0.62021861  0.35224912  0.00773051  1
  O  O162  1  0.66172983  0.38400889  0.25584299  1
  O  O163  1  0.58422251  0.34894053  0.49331516  1
  O  O164  1  0.65397212  0.38484463  0.76047522  1
  O  O165  1  0.63676713  0.65060153  0.01168010  1
  O  O166  1  0.62134202  0.59488442  0.25458667  1
  O  O167  1  0.64751888  0.63396448  0.49086774  1
  O  O168  1  0.61092304  0.62955451  0.74804906  1
  O  O169  1  0.62183934  0.85699646  0.00220759  1
  O  O170  1  0.61833861  0.89328867  0.24027233  1
  O  O171  1  0.65941523  0.87346883  0.50941933  1
  O  O172  1  0.62519545  0.89337934  0.74929206  1
  O  O173  1  0.90076293  0.14690185  -0.00410464  1
  O  O174  1  0.84625758  0.08437906  0.25140260  1
  O  O175  1  0.91441356  0.14679887  0.51072510  1
  O  O176  1  0.87026545  0.09477064  0.74964990  1
  O  O177  1  0.89573220  0.34968877  0.02145309  1
  O  O178  1  0.86540797  0.40355773  0.25777809  1
  O  O179  1  0.91486967  0.35217887  0.49038024  1
  O  O180  1  0.87182922  0.39759906  0.74893242  1
  O  O181  1  0.84993582  0.65067575  0.00539999  1
  O  O182  1  0.89411934  0.60094510  0.24617193  1
  O  O183  1  0.86924038  0.65322489  0.49279113  1
  O  O184  1  0.88656039  0.59286526  0.75165790  1
  O  O185  1  0.86742933  0.84433166  0.00075947  1
  O  O186  1  0.88068202  0.86953299  0.24666315  1
  O  O187  1  0.86663682  0.83635032  0.50271543  1
  O  O188  1  0.89776013  0.90019667  0.74682091  1
  O  O189  1  -0.00581538  0.10069788  0.15019063  1
  O  O190  1  -0.00904823  0.16272818  0.33664578  1
  O  O191  1  0.00331795  0.10064684  0.64170322  1
  O  O192  1  -0.00078021  0.16538392  0.85164262  1
  O  O193  1  0.00009477  0.39822722  0.14983290  1
  O  O194  1  0.01030551  0.34891467  0.33717726  1
  O  O195  1  0.00757925  0.40655151  0.64040348  1
  O  O196  1  0.01511036  0.35644927  0.84054639  1
  O  O197  1  0.00069824  0.60595021  0.09422536  1
  O  O198  1  0.00425569  0.64413041  0.38091864  1
  O  O199  1  0.01285409  0.60190681  0.60016633  1
  O  O200  1  0.00010500  0.63629319  0.88249069  1
  O  O201  1  0.01029837  0.87520849  0.09532014  1
  O  O202  1  0.00233032  0.84844739  0.38509780  1
  O  O203  1  0.00623533  0.88377494  0.58896122  1
  O  O204  1  0.00392989  0.86908897  0.91515893  1
  O  O205  1  0.25033775  0.14620167  0.13144855  1
  O  O206  1  0.26134754  0.12546441  0.38953966  1
  O  O207  1  0.25339584  0.12702058  0.60749963  1
  O  O208  1  0.24229289  0.10152484  0.88399969  1
  O  O209  1  0.23944684  0.36779946  0.09459610  1
  O  O210  1  0.25552577  0.38561218  0.40490010  1
  O  O211  1  0.25553864  0.35463157  0.59228083  1
  O  O212  1  0.24492855  0.38604516  0.91622139  1
  O  O213  1  0.25800809  0.63301221  0.14956788  1
  O  O214  1  0.25283430  0.61129919  0.33510413  1
  O  O215  1  0.25532678  0.65253176  0.63419288  1
  O  O216  1  0.24399085  0.60833632  0.83670411  1
  O  O217  1  0.25106928  0.85929808  0.15464961  1
  O  O218  1  0.25881097  0.88440062  0.35479082  1
  O  O219  1  0.25072145  0.85597878  0.63422392  1
  O  O220  1  0.24302612  0.91089931  0.85706322  1
  O  O221  1  0.50581219  0.10774203  0.14590173  1
  O  O222  1  0.50300525  0.14963980  0.35916357  1
  O  O223  1  0.50454745  0.10266548  0.64438422  1
  O  O224  1  0.50559575  0.14779361  0.87480533  1
  O  O225  1  0.51735323  0.37938389  0.14723218  1
  O  O226  1  0.51080566  0.36726836  0.34004086  1
  O  O227  1  0.49970509  0.36896817  0.64974473  1
  O  O228  1  0.50845905  0.34847260  0.86522655  1
  O  O229  1  0.50706786  0.60782016  0.10575109  1
  O  O230  1  0.50130774  0.63191560  0.39324201  1
  O  O231  1  0.49109913  0.62775574  0.63057616  1
  O  O232  1  0.48828968  0.65259587  0.89466131  1
  O  O233  1  0.50189131  0.90946796  0.11098780  1
  O  O234  1  0.49961338  0.87003122  0.40816279  1
  O  O235  1  0.51002999  0.89657357  0.61184420  1
  O  O236  1  0.49907500  0.87644795  0.88517773  1
  O  O237  1  0.76134690  0.15090282  0.11150497  1
  O  O238  1  0.74806161  0.11252832  0.40674657  1
  O  O239  1  0.76782881  0.13402053  0.59606255  1
  O  O240  1  0.75803162  0.09046767  0.90792475  1
  O  O241  1  0.75968932  0.34475293  0.12337701  1
  O  O242  1  0.75429095  0.39413458  0.40824539  1
  O  O243  1  0.75114973  0.37068614  0.62055075  1
  O  O244  1  0.74429446  0.39524289  0.90686296  1
  O  O245  1  0.75046235  0.63534029  0.15060475  1
  O  O246  1  0.75767793  0.59313870  0.36790922  1
  O  O247  1  0.75346552  0.64482499  0.63114987  1
  O  O248  1  0.75119399  0.60596805  0.86313652  1
  O  O249  1  0.74193401  0.85046170  0.12653943  1
  O  O250  1  0.74978114  0.90597039  0.34902688  1
  O  O251  1  0.76957155  0.83791556  0.64165677  1
  O  O252  1  0.74380156  0.89050104  0.87544223  1
  O  O253  1  0.14746884  -0.01246781  0.11319152  1
  O  O254  1  0.11323516  -0.01150359  0.38963013  1
  O  O255  1  0.14257751  -0.00496503  0.62148698  1
  O  O256  1  0.09590700  0.01019657  0.88660880  1
  O  O257  1  0.10648720  0.25672663  0.16695643  1
  O  O258  1  0.16120692  0.26323855  0.35035925  1
  O  O259  1  0.11572065  0.24567871  0.62913910  1
  O  O260  1  0.14953248  0.25305218  0.87770028  1
  O  O261  1  0.14693862  0.51073967  0.10952626  1
  O  O262  1  0.10525251  0.50186979  0.37698247  1
  O  O263  1  0.16724108  0.50563706  0.63701814  1
  O  O264  1  0.11815094  0.49690776  0.89004190  1
  O  O265  1  0.12068798  0.74516725  0.13295068  1
  O  O266  1  0.14795914  0.74577475  0.37791265  1
  O  O267  1  0.11444767  0.74513851  0.60473473  1
  O  O268  1  0.14450011  0.74272936  0.86594864  1
  O  O269  1  0.36367102  0.00738015  0.16782314  1
  O  O270  1  0.40093135  0.00854438  0.36394326  1
  O  O271  1  0.37191810  -0.00451578  0.65357441  1
  O  O272  1  0.38798290  0.00375248  0.85278857  1
  O  O273  1  0.39784768  0.24355294  0.10990928  1
  O  O274  1  0.37759777  0.25419353  0.42603409  1
  O  O275  1  0.39393816  0.23702300  0.61924667  1
  O  O276  1  0.36359807  0.25067737  0.91640672  1
  O  O277  1  0.37572888  0.50646547  0.14309725  1
  O  O278  1  0.38540457  0.50640895  0.34850425  1
  O  O279  1  0.36775032  0.51680886  0.64447711  1
  O  O280  1  0.39274069  0.50897684  0.86638224  1
  O  O281  1  0.40461428  0.74635844  0.11008525  1
  O  O282  1  0.37432122  0.75336876  0.39381444  1
  O  O283  1  0.39387852  0.75773350  0.60199662  1
  O  O284  1  0.32391333  0.74478146  0.89696264  1
  O  O285  1  0.65639932  0.00681885  0.10417765  1
  O  O286  1  0.60539817  0.00997570  0.38981698  1
  O  O287  1  0.65921758  0.00421105  0.62543596  1
  O  O288  1  0.61512156  0.00622805  0.87322606  1
  O  O289  1  0.61883681  0.24355382  0.15392163  1
  O  O290  1  0.65142956  0.24898929  0.36562445  1
  O  O291  1  0.61923705  0.24128234  0.65244538  1
  O  O292  1  0.65921078  0.24700902  0.87114476  1
  O  O293  1  0.65059812  0.49447233  0.11919938  1
  O  O294  1  0.61638863  0.49143476  0.40579471  1
  O  O295  1  0.59724150  0.49618589  0.60334836  1
  O  O296  1  0.60062594  0.49816436  0.89716899  1
  O  O297  1  0.58647013  0.74444900  0.14953483  1
  O  O298  1  0.61919509  0.74795622  0.36610646  1
  O  O299  1  0.62066259  0.75852908  0.63896514  1
  O  O300  1  0.63046873  0.75599895  0.86274659  1
  O  O301  1  0.85464523  0.00804600  0.08711615  1
  O  O302  1  0.89242523  0.00570646  0.40810296  1
  O  O303  1  0.87215336  -0.01041250  0.59638334  1
  O  O304  1  0.90902730  0.00554344  0.88603890  1
  O  O305  1  0.90345725  0.24774323  0.17319892  1
  O  O306  1  0.84171336  0.25582795  0.36836178  1
  O  O307  1  0.89616646  0.24692902  0.66726872  1
  O  O308  1  0.84298734  0.23834520  0.85820148  1
  O  O309  1  0.86294579  0.50233046  0.09760323  1
  O  O310  1  0.90340864  0.49969456  0.39125134  1
  O  O311  1  0.86740090  0.49704307  0.59479293  1
  O  O312  1  0.88384063  0.51228391  0.91142135  1
  O  O313  1  0.90006257  0.74088893  0.13783571  1
  O  O314  1  0.86244975  0.73873656  0.34291250  1
  O  O315  1  0.92798711  0.75041446  0.64733757  1
  O  O316  1  0.85154543  0.74483886  0.86131694  1
