# generated using pymatgen
data_Mg32Ti42(Bi17O64)3
_symmetry_space_group_name_H-M   'P 1'
_cell_length_a   15.95801919
_cell_length_b   15.93390234
_cell_length_c   15.98550261
_cell_angle_alpha   90.02728169
_cell_angle_beta   90.08063971
_cell_angle_gamma   90.14510411
_symmetry_Int_Tables_number   1
_chemical_formula_structural   Mg32Ti42(Bi17O64)3
_chemical_formula_sum   'Mg32 Ti42 Bi51 O192'
_cell_volume   4064.67247698
_cell_formula_units_Z   1
loop_
 _symmetry_equiv_pos_site_id
 _symmetry_equiv_pos_as_xyz
  1  'x, y, z'
loop_
 _atom_site_type_symbol
 _atom_site_label
 _atom_site_symmetry_multiplicity
 _atom_site_fract_x
 _atom_site_fract_y
 _atom_site_fract_z
 _atom_site_occupancy
  Mg  Mg0  1  0.62352587  0.37213957  0.36961556  1
  Mg  Mg1  1  0.87321794  0.62873174  0.87323169  1
  Mg  Mg2  1  0.62571155  0.12604838  0.11600038  1
  Mg  Mg3  1  0.13171795  0.87470884  0.62814320  1
  Mg  Mg4  1  0.87000656  0.62070029  0.12706857  1
  Mg  Mg5  1  0.12992018  0.87347193  0.37196199  1
  Mg  Mg6  1  0.87747585  0.36630338  0.36984502  1
  Mg  Mg7  1  0.37143200  0.37482904  0.37034952  1
  Mg  Mg8  1  0.37240739  0.87530490  0.87373186  1
  Mg  Mg9  1  0.11403553  0.38104892  0.62332217  1
  Mg  Mg10  1  0.61216655  0.87334580  0.61277150  1
  Mg  Mg11  1  0.87608474  0.35872754  0.87465682  1
  Mg  Mg12  1  0.88407421  0.36933043  0.12908531  1
  Mg  Mg13  1  0.87021943  0.62841844  0.62056281  1
  Mg  Mg14  1  0.38669284  0.13856998  0.87898987  1
  Mg  Mg15  1  0.87953557  0.62340645  0.37124014  1
  Mg  Mg16  1  0.87485561  0.87556586  0.13294983  1
  Mg  Mg17  1  0.13175093  0.13394998  0.36206096  1
  Mg  Mg18  1  0.62401531  0.62742953  0.37918789  1
  Mg  Mg19  1  0.54212836  -0.02703005  0.80765364  1
  Mg  Mg20  1  0.48591144  0.29724262  0.78584220  1
  Mg  Mg21  1  0.44049014  0.75595746  0.52235135  1
  Mg  Mg22  1  0.52768245  0.47214531  -0.03115941  1
  Mg  Mg23  1  0.24028420  -0.04368212  0.26908055  1
  Mg  Mg24  1  0.22351598  0.53805511  0.22091517  1
  Mg  Mg25  1  -0.01877371  0.18902651  -0.00798149  1
  Mg  Mg26  1  0.05552868  -0.00183747  0.47500214  1
  Mg  Mg27  1  0.26594118  0.68867967  0.73737833  1
  Mg  Mg28  1  0.75353898  0.26918488  0.69537446  1
  Mg  Mg29  1  0.26555123  0.03056177  0.79954419  1
  Mg  Mg30  1  0.02060567  0.22487933  0.22643838  1
  Mg  Mg31  1  0.47201809  0.29186944  -0.00173082  1
  Ti  Ti32  1  0.36548108  0.38451472  0.88305642  1
  Ti  Ti33  1  0.88536986  0.87145613  0.87527627  1
  Ti  Ti34  1  0.13358795  0.61908596  0.38230723  1
  Ti  Ti35  1  0.86349502  0.11796533  0.61725882  1
  Ti  Ti36  1  0.12419680  0.87635221  0.86817226  1
  Ti  Ti37  1  0.38001930  0.60685587  0.62206165  1
  Ti  Ti38  1  0.61172275  0.12649262  0.37237276  1
  Ti  Ti39  1  0.38393423  0.12549719  0.12239925  1
  Ti  Ti40  1  0.12288948  0.12501181  0.11821255  1
  Ti  Ti41  1  0.62663641  0.61575331  0.11499830  1
  Ti  Ti42  1  0.12949035  0.87862739  0.12257983  1
  Ti  Ti43  1  0.61892732  0.37512694  0.63073449  1
  Ti  Ti44  1  0.88078314  0.11456413  0.13118980  1
  Ti  Ti45  1  0.37832340  0.62216918  0.88155601  1
  Ti  Ti46  1  0.37565999  0.36487725  0.63534603  1
  Ti  Ti47  1  0.37236715  0.11539194  0.35709914  1
  Ti  Ti48  1  0.38214449  0.12502472  0.64867163  1
  Ti  Ti49  1  0.37061817  0.61455954  0.11343118  1
  Ti  Ti50  1  0.12181467  0.61995232  0.62303220  1
  Ti  Ti51  1  0.86588400  0.88147525  0.61672187  1
  Ti  Ti52  1  0.62019288  0.63147069  0.61695361  1
  Ti  Ti53  1  0.87155052  0.88646982  0.37069075  1
  Ti  Ti54  1  0.36872772  0.86379207  0.12189564  1
  Ti  Ti55  1  0.12145661  0.36692590  0.35783704  1
  Ti  Ti56  1  0.62615553  0.86761466  0.12911304  1
  Ti  Ti57  1  0.11950612  0.11549050  0.88795426  1
  Ti  Ti58  1  0.61541295  0.13432307  0.62920675  1
  Ti  Ti59  1  0.62578426  0.13345705  0.87590479  1
  Ti  Ti60  1  0.87368456  0.11742884  0.86236027  1
  Ti  Ti61  1  0.37055161  0.86433419  0.36865722  1
  Ti  Ti62  1  0.37262192  0.88544484  0.64553773  1
  Ti  Ti63  1  0.12297278  0.35493062  0.87004895  1
  Ti  Ti64  1  0.62126052  0.37466451  0.11103347  1
  Ti  Ti65  1  0.37165184  0.38200673  0.13211979  1
  Ti  Ti66  1  0.12609933  0.62748825  0.85756762  1
  Ti  Ti67  1  0.36771445  0.61588159  0.38133941  1
  Ti  Ti68  1  0.63696869  0.36229633  0.86404719  1
  Ti  Ti69  1  0.87237560  0.37821291  0.60867292  1
  Ti  Ti70  1  0.61299586  0.86540310  0.37943993  1
  Ti  Ti71  1  0.62820756  0.61414125  0.88553138  1
  Ti  Ti72  1  0.12273389  0.36641780  0.12667023  1
  Ti  Ti73  1  0.88514614  0.12735590  0.37531215  1
  Bi  Bi74  1  0.24574018  0.72868326  0.22407519  1
  Bi  Bi75  1  -0.03276597  0.26192930  0.72927873  1
  Bi  Bi76  1  0.50557060  0.48449377  0.47526582  1
  Bi  Bi77  1  0.47777541  0.00983255  -0.01469992  1
  Bi  Bi78  1  0.23369825  0.47609189  0.48263138  1
  Bi  Bi79  1  0.49597870  0.25741978  0.49278655  1
  Bi  Bi80  1  0.70170489  0.78452038  0.75845649  1
  Bi  Bi81  1  0.49663099  0.50782977  0.75903648  1
  Bi  Bi82  1  0.01114231  0.72102018  0.24272746  1
  Bi  Bi83  1  0.76628888  0.48162458  0.23993657  1
  Bi  Bi84  1  -0.01422190  -0.02351418  0.01258194  1
  Bi  Bi85  1  0.22998034  0.76649595  0.49491972  1
  Bi  Bi86  1  0.75384971  0.48453618  0.47060594  1
  Bi  Bi87  1  0.00570276  0.78202919  0.49191809  1
  Bi  Bi88  1  0.72144810  0.00133839  0.49339885  1
  Bi  Bi89  1  0.73970522  -0.02711895  -0.03300432  1
  Bi  Bi90  1  0.20850743  0.49862121  0.00898680  1
  Bi  Bi91  1  0.22335737  0.73276064  -0.00533814  1
  Bi  Bi92  1  0.76312116  0.75113403  -0.01178675  1
  Bi  Bi93  1  -0.03177951  0.51968362  0.74403959  1
  Bi  Bi94  1  0.20447594  0.21269447  0.71812406  1
  Bi  Bi95  1  0.51633820  0.24032320  0.23316173  1
  Bi  Bi96  1  0.71912846  0.00441029  0.73296809  1
  Bi  Bi97  1  0.76895654  0.75141886  0.25779390  1
  Bi  Bi98  1  0.23738092  0.47735698  0.73994728  1
  Bi  Bi99  1  0.24468901  0.00616441  0.53765237  1
  Bi  Bi100  1  -0.01413326  0.72384468  0.01892878  1
  Bi  Bi101  1  0.02462843  0.00214480  0.27703540  1
  Bi  Bi102  1  0.25558140  0.25050186  0.24023661  1
  Bi  Bi103  1  -0.01591429  0.49224520  -0.03552038  1
  Bi  Bi104  1  0.75867563  0.23642826  0.47737596  1
  Bi  Bi105  1  -0.00083893  0.49636185  0.47311042  1
  Bi  Bi106  1  0.52076442  0.48993874  0.24266737  1
  Bi  Bi107  1  0.01208695  0.49868694  0.22651460  1
  Bi  Bi108  1  0.74483998  0.52276486  0.72710307  1
  Bi  Bi109  1  0.47262733  -0.01461977  0.50338581  1
  Bi  Bi110  1  0.03467764  0.21279520  0.51654963  1
  Bi  Bi111  1  0.71934764  -0.00136618  0.23705651  1
  Bi  Bi112  1  0.51405483  0.71615401  0.25017137  1
  Bi  Bi113  1  0.26367535  0.24162197  0.01050098  1
  Bi  Bi114  1  0.49219058  -0.02685250  0.23372775  1
  Bi  Bi115  1  0.76057393  0.23840043  0.23077274  1
  Bi  Bi116  1  0.25291399  -0.01490431  -0.01741996  1
  Bi  Bi117  1  0.76836646  0.47967971  -0.01058667  1
  Bi  Bi118  1  -0.01101639  0.76682310  0.71777364  1
  Bi  Bi119  1  0.77872233  0.73376445  0.48479578  1
  Bi  Bi120  1  0.47881746  0.74550687  0.74130857  1
  Bi  Bi121  1  0.52564353  0.77940979  -0.03332082  1
  Bi  Bi122  1  0.77338702  0.22811969  -0.00856976  1
  Bi  Bi123  1  0.02744217  0.02217281  0.69987525  1
  Bi  Bi124  1  0.27099488  0.22602235  0.48442660  1
  O  O125  1  0.11368590  0.15870133  0.00149333  1
  O  O126  1  0.09749864  0.11652384  0.24008373  1
  O  O127  1  0.14650117  0.14624724  0.48550092  1
  O  O128  1  0.14274885  0.09161233  0.76131072  1
  O  O129  1  0.11442572  0.38743340  0.00158386  1
  O  O130  1  0.15834198  0.38243179  0.24970466  1
  O  O131  1  0.10334632  0.40205699  0.49067573  1
  O  O132  1  0.15721608  0.36769487  0.75674698  1
  O  O133  1  0.13683078  0.62094491  -0.01538161  1
  O  O134  1  0.14195362  0.63766611  0.26375750  1
  O  O135  1  0.11648701  0.58997521  0.50602980  1
  O  O136  1  0.14535468  0.65531864  0.74445296  1
  O  O137  1  0.16399772  0.86828111  0.00665531  1
  O  O138  1  0.11576436  0.90125072  0.24440158  1
  O  O139  1  0.14562389  0.88065183  0.49749771  1
  O  O140  1  0.09880574  0.87457325  0.75657588  1
  O  O141  1  0.37854097  0.12758142  0.00559608  1
  O  O142  1  0.37797026  0.17018359  0.24049752  1
  O  O143  1  0.35339455  0.10429438  0.47545061  1
  O  O144  1  0.35937087  0.11627946  0.75823019  1
  O  O145  1  0.41333790  0.40732205  -0.01020670  1
  O  O146  1  0.35325262  0.35839280  0.24394184  1
  O  O147  1  0.41754673  0.37558654  0.51656100  1
  O  O148  1  0.36892785  0.36061680  0.75698414  1
  O  O149  1  0.36660617  0.61547308  -0.00095020  1
  O  O150  1  0.33056342  0.61677160  0.26978155  1
  O  O151  1  0.40193785  0.63276966  0.51212235  1
  O  O152  1  0.38274482  0.63981745  0.75196298  1
  O  O153  1  0.34969484  0.87237542  0.00726510  1
  O  O154  1  0.40273763  0.86387975  0.25193592  1
  O  O155  1  0.35516122  0.91217527  0.48176451  1
  O  O156  1  0.41032379  0.88656102  0.75181571  1
  O  O157  1  0.63752483  0.13404674  -0.00952591  1
  O  O158  1  0.61823771  0.13277220  0.25581130  1
  O  O159  1  0.64085640  0.13063466  0.49933417  1
  O  O160  1  0.61532921  0.09987343  0.74349805  1
  O  O161  1  0.58386664  0.35298633  0.00194006  1
  O  O162  1  0.63064550  0.40334462  0.24138691  1
  O  O163  1  0.59014685  0.37364804  0.51378145  1
  O  O164  1  0.66894972  0.37441505  0.75627144  1
  O  O165  1  0.61425162  0.65661457  0.00479312  1
  O  O166  1  0.61243547  0.61312116  0.24389364  1
  O  O167  1  0.61445787  0.63394705  0.50730945  1
  O  O168  1  0.63018013  0.60018515  0.76863174  1
  O  O169  1  0.64380557  0.86289043  0.01381790  1
  O  O170  1  0.61050265  0.89118379  0.25782472  1
  O  O171  1  0.64698852  0.87662244  0.49178133  1
  O  O172  1  0.61759769  0.89419222  0.74244160  1
  O  O173  1  0.86564291  0.11155816  0.01319798  1
  O  O174  1  0.90425919  0.15399481  0.26020095  1
  O  O175  1  0.84571788  0.11021181  0.50381350  1
  O  O176  1  0.89032710  0.13569091  0.75257042  1
  O  O177  1  0.89077151  0.40201408  0.00619622  1
  O  O178  1  0.83417172  0.36214241  0.25005944  1
  O  O179  1  0.89007717  0.39780175  0.49724241  1
  O  O180  1  0.85263045  0.32889820  0.75434029  1
  O  O181  1  0.90408200  0.60530215  -0.00019524  1
  O  O182  1  0.88081196  0.66376805  0.25123392  1
  O  O183  1  0.85689985  0.61681838  0.49648664  1
  O  O184  1  0.87078203  0.61805438  0.74932848  1
  O  O185  1  0.86560942  0.90168077  0.00354265  1
  O  O186  1  0.89021699  0.84809042  0.26021105  1
  O  O187  1  0.84892479  0.88880686  0.50444222  1
  O  O188  1  0.89439415  0.85839274  0.76106613  1
  O  O189  1  -0.00379154  0.15403075  0.11359746  1
  O  O190  1  -0.00436962  0.09846407  0.40887496  1
  O  O191  1  -0.00915734  0.13026865  0.61923259  1
  O  O192  1  -0.00435748  0.11288487  0.88925778  1
  O  O193  1  0.00811623  0.36918045  0.16340059  1
  O  O194  1  0.00506042  0.41735026  0.35276006  1
  O  O195  1  -0.01180742  0.37669064  0.64750620  1
  O  O196  1  0.01172619  0.38072717  0.85813616  1
  O  O197  1  0.00155480  0.64218611  0.13626198  1
  O  O198  1  0.01027543  0.60453449  0.36558751  1
  O  O199  1  0.00636791  0.62388483  0.63935024  1
  O  O200  1  0.01153701  0.61631701  0.85442152  1
  O  O201  1  0.01124524  0.86862871  0.09805873  1
  O  O202  1  -0.00292683  0.89749481  0.40772551  1
  O  O203  1  -0.00131972  0.86775202  0.62162081  1
  O  O204  1  0.00181546  0.88238175  0.90443069  1
  O  O205  1  0.24841249  0.14715488  0.12252068  1
  O  O206  1  0.25407426  0.16627405  0.35497821  1
  O  O207  1  0.26304885  0.12412612  0.62166523  1
  O  O208  1  0.24188027  0.11636394  0.89197854  1
  O  O209  1  0.25102055  0.35710449  0.09870788  1
  O  O210  1  0.24045268  0.35544424  0.40509402  1
  O  O211  1  0.26234556  0.38365115  0.61487768  1
  O  O212  1  0.25544417  0.36624967  0.90659194  1
  O  O213  1  0.24992065  0.62972837  0.12838386  1
  O  O214  1  0.24912288  0.64358419  0.41728659  1
  O  O215  1  0.26258696  0.61517852  0.63227626  1
  O  O216  1  0.26466955  0.65664401  0.86656187  1
  O  O217  1  0.25822294  0.89533061  0.15726674  1
  O  O218  1  0.25514299  0.85956802  0.35059313  1
  O  O219  1  0.25676217  0.90290858  0.63954195  1
  O  O220  1  0.24298710  0.91170916  0.85563233  1
  O  O221  1  0.50010740  0.14693495  0.12839398  1
  O  O222  1  0.49303314  0.10259767  0.36845269  1
  O  O223  1  0.50053526  0.12938314  0.61495677  1
  O  O224  1  0.51004902  0.08964863  0.87686755  1
  O  O225  1  0.49320565  0.37098570  0.15031918  1
  O  O226  1  0.49712215  0.40773768  0.36080791  1
  O  O227  1  0.51133149  0.36256115  0.67540557  1
  O  O228  1  0.51953853  0.40226381  0.85197789  1
  O  O229  1  0.48250416  0.62640894  0.14251711  1
  O  O230  1  0.48455754  0.61222720  0.35366216  1
  O  O231  1  0.50178562  0.63122661  0.64888136  1
  O  O232  1  0.50314960  0.58342722  0.88790804  1
  O  O233  1  0.49712664  0.88240580  0.11887059  1
  O  O234  1  0.49734527  0.90046111  0.38951930  1
  O  O235  1  0.48554618  0.86708874  0.58050069  1
  O  O236  1  0.50088034  0.89956341  0.90146933  1
  O  O237  1  0.75825799  0.11039735  0.15362569  1
  O  O238  1  0.74783577  0.15275319  0.36708105  1
  O  O239  1  0.75321523  0.13784524  0.65100898  1
  O  O240  1  0.75459368  0.14957285  0.86968877  1
  O  O241  1  0.73620236  0.40061179  0.10091416  1
  O  O242  1  0.74463861  0.35853978  0.40464884  1
  O  O243  1  0.75162709  0.36602183  0.60848193  1
  O  O244  1  0.74738751  0.35990252  0.91518937  1
  O  O245  1  0.74039706  0.60766706  0.11705003  1
  O  O246  1  0.74947904  0.66481466  0.36819430  1
  O  O247  1  0.74022580  0.62269257  0.63386787  1
  O  O248  1  0.74682114  0.63952035  0.89708168  1
  O  O249  1  0.74535031  0.88673439  0.15140334  1
  O  O250  1  0.75342660  0.85043582  0.36097963  1
  O  O251  1  0.75527197  0.87131769  0.65220070  1
  O  O252  1  0.75910903  0.85838774  0.88489686  1
  O  O253  1  0.11958913  0.01052567  0.10275577  1
  O  O254  1  0.13304421  0.00458040  0.36813825  1
  O  O255  1  0.10438996  0.00070607  0.59409666  1
  O  O256  1  0.11954160  -0.00084401  0.91034331  1
  O  O257  1  0.12391636  0.25205114  0.14854346  1
  O  O258  1  0.08541726  0.25866555  0.34344556  1
  O  O259  1  0.11658011  0.25462887  0.62552471  1
  O  O260  1  0.11990590  0.24194604  0.85601588  1
  O  O261  1  0.14052881  0.49128214  0.13263593  1
  O  O262  1  0.16541662  0.50590860  0.36083241  1
  O  O263  1  0.13013611  0.50361362  0.65506929  1
  O  O264  1  0.15535199  0.50964683  0.85911730  1
  O  O265  1  0.13799092  0.76312334  0.13599351  1
  O  O266  1  0.11676029  0.74621489  0.40237273  1
  O  O267  1  0.13874445  0.74184263  0.59825153  1
  O  O268  1  0.13089276  0.75776939  0.88915247  1
  O  O269  1  0.38709653  0.01099996  0.13365035  1
  O  O270  1  0.34331063  0.01047766  0.32128662  1
  O  O271  1  0.38552567  0.00646328  0.61837888  1
  O  O272  1  0.36901965  0.00297303  0.89742323  1
  O  O273  1  0.38133569  0.26645327  0.08495451  1
  O  O274  1  0.39344739  0.25120751  0.39900765  1
  O  O275  1  0.37831973  0.24539914  0.62033351  1
  O  O276  1  0.41224363  0.26658550  0.88893567  1
  O  O277  1  0.35158233  0.49914707  0.13675187  1
  O  O278  1  0.35682070  0.50136386  0.40359937  1
  O  O279  1  0.39327553  0.49393871  0.63927504  1
  O  O280  1  0.36615106  0.50284644  0.84780888  1
  O  O281  1  0.36052753  0.74845954  0.12769467  1
  O  O282  1  0.38924336  0.75725277  0.40466190  1
  O  O283  1  0.36949355  0.76232330  0.63283376  1
  O  O284  1  0.41497950  0.74409085  0.87616567  1
  O  O285  1  0.61881973  -0.00054354  0.13868605  1
  O  O286  1  0.64054988  0.00669123  0.37926190  1
  O  O287  1  0.64161838  0.00545341  0.60997053  1
  O  O288  1  0.65292412  0.00929077  0.86590115  1
  O  O289  1  0.63586470  0.25973483  0.14429178  1
  O  O290  1  0.58830699  0.24881888  0.37878304  1
  O  O291  1  0.63500453  0.25003078  0.63660178  1
  O  O292  1  0.59678273  0.25063426  0.84838308  1
  O  O293  1  0.59211908  0.50276247  0.09353365  1
  O  O294  1  0.63776587  0.50075654  0.39610123  1
  O  O295  1  0.62662159  0.49589208  0.63619991  1
  O  O296  1  0.64429444  0.49396041  0.90965263  1
  O  O297  1  0.61911544  0.75110385  0.15092185  1
  O  O298  1  0.59810842  0.75403010  0.36366121  1
  O  O299  1  0.62004137  0.74880107  0.64899772  1
  O  O300  1  0.59718900  0.73845323  0.85727897  1
  O  O301  1  0.90510395  0.00298172  0.14438078  1
  O  O302  1  0.85816985  0.00167119  0.35671580  1
  O  O303  1  0.87933828  0.00064250  0.64163397  1
  O  O304  1  0.85121934  0.00008201  0.86805281  1
  O  O305  1  0.84904561  0.24673783  0.12059443  1
  O  O306  1  0.88579199  0.24216800  0.40749849  1
  O  O307  1  0.87955389  0.24874522  0.61452219  1
  O  O308  1  0.89155420  0.23927912  0.91709606  1
  O  O309  1  0.88659254  0.49917847  0.16456470  1
  O  O310  1  0.83862582  0.50023074  0.36140891  1
  O  O311  1  0.86671402  0.49319972  0.64291684  1
  O  O312  1  0.88243896  0.49311288  0.86534826  1
  O  O313  1  0.87037289  0.74954697  0.09100029  1
  O  O314  1  0.89403593  0.75891461  0.40791444  1
  O  O315  1  0.88585909  0.75591975  0.61658240  1
  O  O316  1  0.88446987  0.75318248  0.90870136  1
