# generated using pymatgen
data_Mg32Ti42(Bi17O64)3
_symmetry_space_group_name_H-M   'P 1'
_cell_length_a   15.92946751
_cell_length_b   15.94704249
_cell_length_c   15.97194862
_cell_angle_alpha   90.16493826
_cell_angle_beta   89.94885629
_cell_angle_gamma   90.01627953
_symmetry_Int_Tables_number   1
_chemical_formula_structural   Mg32Ti42(Bi17O64)3
_chemical_formula_sum   'Mg32 Ti42 Bi51 O192'
_cell_volume   4057.30190103
_cell_formula_units_Z   1
loop_
 _symmetry_equiv_pos_site_id
 _symmetry_equiv_pos_as_xyz
  1  'x, y, z'
loop_
 _atom_site_type_symbol
 _atom_site_label
 _atom_site_symmetry_multiplicity
 _atom_site_fract_x
 _atom_site_fract_y
 _atom_site_fract_z
 _atom_site_occupancy
  Mg  Mg0  1  0.88110026  0.37823402  0.37019181  1
  Mg  Mg1  1  0.62503872  0.62136434  0.88193084  1
  Mg  Mg2  1  0.12065235  0.36588371  0.11707918  1
  Mg  Mg3  1  0.38356567  0.86435631  0.87893678  1
  Mg  Mg4  1  0.62041546  0.62772084  0.61988946  1
  Mg  Mg5  1  0.11878256  0.87904555  0.62706833  1
  Mg  Mg6  1  0.37404305  0.88869756  0.37068438  1
  Mg  Mg7  1  0.37220907  0.11836126  0.86891124  1
  Mg  Mg8  1  0.62023682  0.62607273  0.36144672  1
  Mg  Mg9  1  0.13076046  0.62868487  0.37380275  1
  Mg  Mg10  1  0.12647409  0.37199230  0.38384636  1
  Mg  Mg11  1  0.37701944  0.37487586  0.37282039  1
  Mg  Mg12  1  0.37971834  0.37425933  0.13369184  1
  Mg  Mg13  1  0.63023872  0.36512132  0.38367889  1
  Mg  Mg14  1  0.63034876  0.87497655  0.62711996  1
  Mg  Mg15  1  0.37506636  0.37915458  0.87665576  1
  Mg  Mg16  1  0.87693528  0.37302655  0.87088725  1
  Mg  Mg17  1  0.87200986  0.87431712  0.87694090  1
  Mg  Mg18  1  0.87191443  0.86723482  0.37544581  1
  Mg  Mg19  1  0.72446851  0.23738816  0.70480838  1
  Mg  Mg20  1  0.26057175  0.28298381  0.55936566  1
  Mg  Mg21  1  0.50464205  0.04240898  0.20895875  1
  Mg  Mg22  1  0.39958231  0.25786949  0.75662949  1
  Mg  Mg23  1  0.20873837  0.02221158  0.26587545  1
  Mg  Mg24  1  0.22111750  0.23531553  -0.06205473  1
  Mg  Mg25  1  0.02396141  0.50429106  0.71125593  1
  Mg  Mg26  1  0.51892714  0.45725926  0.27122373  1
  Mg  Mg27  1  0.51717628  0.57853785  0.74290169  1
  Mg  Mg28  1  -0.01904062  0.53476034  0.25190806  1
  Mg  Mg29  1  0.78476526  0.25407094  0.51092412  1
  Mg  Mg30  1  0.22018690  0.16880805  0.75412862  1
  Mg  Mg31  1  0.45011567  0.78071688  0.69568419  1
  Ti  Ti32  1  0.39419979  0.38464420  0.62580266  1
  Ti  Ti33  1  0.88151616  0.61096200  0.61979784  1
  Ti  Ti34  1  0.62546076  0.37292330  0.61727159  1
  Ti  Ti35  1  0.62469391  0.85498118  0.86825369  1
  Ti  Ti36  1  0.11271445  0.13905419  0.61738451  1
  Ti  Ti37  1  0.12443424  0.37978195  0.86214891  1
  Ti  Ti38  1  0.36662766  0.13117124  0.62779982  1
  Ti  Ti39  1  0.36337754  0.11438105  0.37281127  1
  Ti  Ti40  1  0.86308887  0.13036425  0.63270453  1
  Ti  Ti41  1  0.13683876  0.62974505  0.61952949  1
  Ti  Ti42  1  0.38958710  0.61807416  0.88042790  1
  Ti  Ti43  1  0.61955818  0.12953083  0.10643349  1
  Ti  Ti44  1  0.87681294  0.37443078  0.12394460  1
  Ti  Ti45  1  0.87020283  0.87142610  0.12356911  1
  Ti  Ti46  1  0.87068050  0.86118659  0.62703231  1
  Ti  Ti47  1  0.12622907  0.12839259  0.13170399  1
  Ti  Ti48  1  0.13496679  0.88763587  0.11756216  1
  Ti  Ti49  1  0.37962256  0.61927025  0.35782210  1
  Ti  Ti50  1  0.62750162  0.36656153  0.85780646  1
  Ti  Ti51  1  0.62098331  0.13425694  0.84896450  1
  Ti  Ti52  1  0.13448863  0.38605918  0.62265796  1
  Ti  Ti53  1  0.87992015  0.62374598  0.86146367  1
  Ti  Ti54  1  0.85746889  0.13151678  0.12575316  1
  Ti  Ti55  1  0.87314209  0.12102254  0.38582719  1
  Ti  Ti56  1  0.11852814  0.62366082  0.11215003  1
  Ti  Ti57  1  0.86608824  0.37953167  0.63396117  1
  Ti  Ti58  1  0.62720990  0.35871851  0.12834992  1
  Ti  Ti59  1  0.37774039  0.61545820  0.12704016  1
  Ti  Ti60  1  0.61529992  0.88077570  0.38481712  1
  Ti  Ti61  1  0.35799289  0.11942491  0.13064461  1
  Ti  Ti62  1  0.87693431  0.63346338  0.36965643  1
  Ti  Ti63  1  0.61431897  0.12315781  0.61789542  1
  Ti  Ti64  1  0.61944157  0.12643522  0.39055536  1
  Ti  Ti65  1  0.12125136  0.61369285  0.87008544  1
  Ti  Ti66  1  0.61550761  0.61712835  0.13113739  1
  Ti  Ti67  1  0.12687742  0.87847899  0.37976357  1
  Ti  Ti68  1  0.87336088  0.61345628  0.12992921  1
  Ti  Ti69  1  0.37127269  0.88134021  0.12476819  1
  Ti  Ti70  1  0.13002428  0.86869727  0.88556472  1
  Ti  Ti71  1  0.87259396  0.12403575  0.86199639  1
  Ti  Ti72  1  0.11383655  0.13160183  0.37323052  1
  Ti  Ti73  1  0.37826923  0.62332071  0.61959331  1
  Bi  Bi74  1  0.72112111  0.76371994  0.21374625  1
  Bi  Bi75  1  0.02892645  0.01204627  0.78246659  1
  Bi  Bi76  1  0.47475618  -0.03495704  0.53579965  1
  Bi  Bi77  1  0.51267618  0.76942291  0.03537299  1
  Bi  Bi78  1  0.49490746  0.46476686  0.01028802  1
  Bi  Bi79  1  0.26668286  0.72612593  0.01199937  1
  Bi  Bi80  1  0.75910980  0.25149363  0.28553396  1
  Bi  Bi81  1  -0.00158765  0.50301742  0.46970262  1
  Bi  Bi82  1  0.73252399  0.73537885  0.48270447  1
  Bi  Bi83  1  -0.02910345  -0.02006899  0.25589974  1
  Bi  Bi84  1  -0.02428509  0.02014753  0.01502486  1
  Bi  Bi85  1  0.00749051  0.73578638  0.49873287  1
  Bi  Bi86  1  0.73707919  0.48663481  -0.02286276  1
  Bi  Bi87  1  0.25389981  0.49398244  0.46618895  1
  Bi  Bi88  1  0.71893010  0.51012364  0.73867146  1
  Bi  Bi89  1  0.01886440  0.75301204  0.23792978  1
  Bi  Bi90  1  0.46996453  0.24682578  0.24930608  1
  Bi  Bi91  1  0.46365552  0.24212366  0.49161754  1
  Bi  Bi92  1  0.49992617  0.78240826  0.25600904  1
  Bi  Bi93  1  0.48796380  0.74467046  0.49233480  1
  Bi  Bi94  1  0.03089192  0.75796118  0.75225765  1
  Bi  Bi95  1  0.71812312  -0.02334382  0.00842171  1
  Bi  Bi96  1  0.48438358  0.24538785  -0.03385215  1
  Bi  Bi97  1  0.50183623  0.50014150  0.46925154  1
  Bi  Bi98  1  0.22534589  0.02084018  0.51468527  1
  Bi  Bi99  1  0.49327011  0.00109476  0.01007346  1
  Bi  Bi100  1  0.72647299  0.47801176  0.25034878  1
  Bi  Bi101  1  0.26786305  0.73080181  0.76915838  1
  Bi  Bi102  1  0.00343678  0.26529462  0.73401562  1
  Bi  Bi103  1  0.28500430  0.49225688  0.75789854  1
  Bi  Bi104  1  -0.01412953  -0.01718803  0.52502709  1
  Bi  Bi105  1  0.24319793  0.77565484  0.25809671  1
  Bi  Bi106  1  0.01318672  0.24322109  -0.03233969  1
  Bi  Bi107  1  0.75302332  0.70923660  -0.00594005  1
  Bi  Bi108  1  0.23103207  0.28216310  0.25653179  1
  Bi  Bi109  1  0.28543654  -0.04112260  0.74283228  1
  Bi  Bi110  1  0.73377486  0.50877228  0.47281723  1
  Bi  Bi111  1  0.74012763  0.73133095  0.72322463  1
  Bi  Bi112  1  0.26852495  0.79082237  0.52416019  1
  Bi  Bi113  1  0.20655755  0.49800894  0.23452137  1
  Bi  Bi114  1  0.24765402  0.45919771  0.01114895  1
  Bi  Bi115  1  -0.01651091  0.75987669  -0.01549948  1
  Bi  Bi116  1  0.75410531  0.24056012  -0.02913904  1
  Bi  Bi117  1  0.22552965  0.03838806  -0.02865548  1
  Bi  Bi118  1  -0.01966450  0.49574100  -0.01974702  1
  Bi  Bi119  1  0.75413148  -0.02849820  0.75971857  1
  Bi  Bi120  1  -0.00887070  0.25045178  0.22732047  1
  Bi  Bi121  1  0.50334544  -0.01957504  0.75553045  1
  Bi  Bi122  1  0.71018605  0.01481956  0.25038301  1
  Bi  Bi123  1  0.75225480  -0.02428661  0.49311452  1
  Bi  Bi124  1  -0.01045338  0.27465721  0.49863185  1
  O  O125  1  0.16241618  0.15018583  0.01711327  1
  O  O126  1  0.10855779  0.09964760  0.25169842  1
  O  O127  1  0.13771225  0.13787715  0.49420265  1
  O  O128  1  0.11364420  0.10642423  0.73491209  1
  O  O129  1  0.16601286  0.34870452  -0.00703213  1
  O  O130  1  0.12755588  0.38463571  0.24957879  1
  O  O131  1  0.14659141  0.34265665  0.51455728  1
  O  O132  1  0.08886786  0.39743031  0.74849700  1
  O  O133  1  0.13437360  0.64282491  -0.00210485  1
  O  O134  1  0.09667849  0.59160398  0.24936952  1
  O  O135  1  0.13428843  0.66290355  0.50858731  1
  O  O136  1  0.09054885  0.60567726  0.75175801  1
  O  O137  1  0.11732403  0.84507266  0.00285435  1
  O  O138  1  0.17203949  0.89869034  0.23856835  1
  O  O139  1  0.10814788  0.85875989  0.49077251  1
  O  O140  1  0.10658273  0.89069553  0.75501399  1
  O  O141  1  0.35373174  0.11117617  0.01311778  1
  O  O142  1  0.40815442  0.10783950  0.25996455  1
  O  O143  1  0.35417758  0.15753067  0.50138931  1
  O  O144  1  0.35671171  0.14404395  0.74499255  1
  O  O145  1  0.37094055  0.38902686  0.00410831  1
  O  O146  1  0.41792350  0.37734837  0.25185489  1
  O  O147  1  0.35714143  0.36106956  0.51057394  1
  O  O148  1  0.38560229  0.38024212  0.74665537  1
  O  O149  1  0.36283228  0.61947020  -0.00123794  1
  O  O150  1  0.37311619  0.63592662  0.24502706  1
  O  O151  1  0.40267944  0.62761278  0.50480207  1
  O  O152  1  0.37363149  0.62780080  0.75343813  1
  O  O153  1  0.41370647  0.88762669  0.00034729  1
  O  O154  1  0.36821038  0.86160579  0.24311485  1
  O  O155  1  0.39303052  0.85492857  0.49778811  1
  O  O156  1  0.35789247  0.84592870  0.75273886  1
  O  O157  1  0.64024794  0.11311231  -0.00557049  1
  O  O158  1  0.60624313  0.10644983  0.25762662  1
  O  O159  1  0.64903544  0.11110465  0.50498888  1
  O  O160  1  0.61967431  0.16657421  0.73965266  1
  O  O161  1  0.63294992  0.40613107  0.01631898  1
  O  O162  1  0.61928255  0.37096488  0.24829969  1
  O  O163  1  0.63836067  0.40923175  0.50755298  1
  O  O164  1  0.64743701  0.34710242  0.74822116  1
  O  O165  1  0.64337595  0.59820576  0.01228266  1
  O  O166  1  0.62646141  0.66724571  0.24348730  1
  O  O167  1  0.63880929  0.60590049  0.49820675  1
  O  O168  1  0.63707574  0.63486423  0.75398944  1
  O  O169  1  0.60020381  0.90622554  -0.02098287  1
  O  O170  1  0.63151165  0.85358068  0.26387027  1
  O  O171  1  0.60637643  0.89589266  0.50376084  1
  O  O172  1  0.66282111  0.85896899  0.75241620  1
  O  O173  1  0.85685625  0.10112737  0.00560656  1
  O  O174  1  0.89030027  0.14738466  0.24461403  1
  O  O175  1  0.85089168  0.13099201  0.50375297  1
  O  O176  1  0.89678198  0.14875377  0.75067150  1
  O  O177  1  0.87055123  0.40335903  0.01069661  1
  O  O178  1  0.88854943  0.34099010  0.24638343  1
  O  O179  1  0.86971175  0.36128701  0.51064077  1
  O  O180  1  0.89591409  0.35619307  0.74783269  1
  O  O181  1  0.86701890  0.60330321  0.01455265  1
  O  O182  1  0.90186897  0.63809232  0.25529173  1
  O  O183  1  0.86678347  0.60025362  0.50542377  1
  O  O184  1  0.88591091  0.64275814  0.75097455  1
  O  O185  1  0.90363460  0.88971006  0.00770052  1
  O  O186  1  0.86927797  0.88163648  0.24642470  1
  O  O187  1  0.87589165  0.89633836  0.50367639  1
  O  O188  1  0.85426180  0.86802928  0.74531869  1
  O  O189  1  0.00909969  0.13886193  0.10737434  1
  O  O190  1  -0.00289180  0.13139621  0.38708880  1
  O  O191  1  -0.00047847  0.16585629  0.61440560  1
  O  O192  1  -0.00962270  0.12104464  0.89399838  1
  O  O193  1  -0.00440312  0.34126008  0.11493807  1
  O  O194  1  0.00342989  0.37170647  0.40374579  1
  O  O195  1  0.00482315  0.34707024  0.61531321  1
  O  O196  1  0.00528806  0.37151449  0.90734179  1
  O  O197  1  0.00307527  0.63866140  0.11578389  1
  O  O198  1  0.00403631  0.63246174  0.40540523  1
  O  O199  1  -0.00196760  0.64808198  0.60999052  1
  O  O200  1  -0.00343014  0.64062187  0.89688605  1
  O  O201  1  0.01572224  0.87323187  0.15608306  1
  O  O202  1  0.01007327  0.87304751  0.34374348  1
  O  O203  1  -0.00856902  0.87109042  0.61724317  1
  O  O204  1  -0.00088769  0.84311399  0.87203802  1
  O  O205  1  0.25167934  0.08891441  0.16108359  1
  O  O206  1  0.25167013  0.11289610  0.34973096  1
  O  O207  1  0.24780777  0.11121554  0.62622499  1
  O  O208  1  0.24497154  0.12698229  0.87041143  1
  O  O209  1  0.25465735  0.39590277  0.13944526  1
  O  O210  1  0.25097411  0.39502713  0.36377542  1
  O  O211  1  0.24758632  0.39310708  0.63932384  1
  O  O212  1  0.24183257  0.39577210  0.85284414  1
  O  O213  1  0.25368836  0.62502453  0.12406250  1
  O  O214  1  0.25902869  0.60803987  0.37709190  1
  O  O215  1  0.25029664  0.60539601  0.62754393  1
  O  O216  1  0.23665589  0.60891051  0.85239280  1
  O  O217  1  0.25777982  0.88065379  0.09643926  1
  O  O218  1  0.25107415  0.85400134  0.38361140  1
  O  O219  1  0.24145332  0.89938817  0.60098593  1
  O  O220  1  0.24340356  0.88398734  0.87194722  1
  O  O221  1  0.50271614  0.14139077  0.11564499  1
  O  O222  1  0.50715953  0.13381318  0.40633976  1
  O  O223  1  0.49838471  0.14495846  0.60293082  1
  O  O224  1  0.50180626  0.13532148  0.87916345  1
  O  O225  1  0.50799206  0.36035149  0.10126270  1
  O  O226  1  0.50713131  0.38884133  0.39059420  1
  O  O227  1  0.50788826  0.35952164  0.61295107  1
  O  O228  1  0.50660129  0.36935922  0.89608028  1
  O  O229  1  0.50228406  0.64900886  0.11546615  1
  O  O230  1  0.50033819  0.58000596  0.35347690  1
  O  O231  1  0.49532304  0.66114953  0.64842006  1
  O  O232  1  0.50161639  0.61514466  0.86554766  1
  O  O233  1  0.49956251  0.85482991  0.13862143  1
  O  O234  1  0.50080835  0.88038561  0.35837443  1
  O  O235  1  0.50468444  0.87718446  0.64387644  1
  O  O236  1  0.51102949  0.86192216  0.83193572  1
  O  O237  1  0.74433249  0.10916038  0.14392219  1
  O  O238  1  0.75590951  0.11339802  0.34359610  1
  O  O239  1  0.75237484  0.11636347  0.65375323  1
  O  O240  1  0.74969329  0.15100266  0.85837572  1
  O  O241  1  0.75181200  0.38907474  0.13962362  1
  O  O242  1  0.75647699  0.38221308  0.35137687  1
  O  O243  1  0.75596828  0.41280418  0.63470075  1
  O  O244  1  0.74807050  0.36202499  0.89198877  1
  O  O245  1  0.75757389  0.61631242  0.14485094  1
  O  O246  1  0.75893362  0.62581764  0.37449895  1
  O  O247  1  0.75967498  0.60669598  0.64070369  1
  O  O248  1  0.75871310  0.61561261  0.88342353  1
  O  O249  1  0.75644752  0.88708656  0.11092198  1
  O  O250  1  0.74285851  0.86321784  0.40534284  1
  O  O251  1  0.75540651  0.90885634  0.61510365  1
  O  O252  1  0.74358167  0.89936909  0.89074386  1
  O  O253  1  0.11830563  -0.00077846  0.09576708  1
  O  O254  1  0.13727353  -0.00293409  0.38408038  1
  O  O255  1  0.10922103  0.00935831  0.59638712  1
  O  O256  1  0.10421847  -0.01310862  0.89728454  1
  O  O257  1  0.14340180  0.24225242  0.15628381  1
  O  O258  1  0.12999786  0.24404623  0.35025561  1
  O  O259  1  0.15544795  0.24499113  0.65555540  1
  O  O260  1  0.12195671  0.26051251  0.85860184  1
  O  O261  1  0.12878982  0.50224398  0.10820144  1
  O  O262  1  0.12243925  0.50180405  0.40843935  1
  O  O263  1  0.10558989  0.50121933  0.61171025  1
  O  O264  1  0.10704206  0.50016068  0.89880346  1
  O  O265  1  0.13536130  0.74705934  0.15457625  1
  O  O266  1  0.12607897  0.75413294  0.33584042  1
  O  O267  1  0.13776728  0.74619161  0.65642651  1
  O  O268  1  0.13248293  0.74511955  0.84829890  1
  O  O269  1  0.41060639  -0.00178652  0.13206871  1
  O  O270  1  0.37470808  0.00706890  0.41117352  1
  O  O271  1  0.38558365  0.01212268  0.63810483  1
  O  O272  1  0.38170982  -0.00818210  0.84328654  1
  O  O273  1  0.36257239  0.23694369  0.15627099  1
  O  O274  1  0.38656050  0.24540423  0.36208581  1
  O  O275  1  0.36379609  0.25766795  0.63467693  1
  O  O276  1  0.36995881  0.25264392  0.88101344  1
  O  O277  1  0.40245509  0.50669698  0.12569184  1
  O  O278  1  0.37660818  0.50004664  0.40151511  1
  O  O279  1  0.39687185  0.50292118  0.62940572  1
  O  O280  1  0.37165928  0.50355746  0.86925634  1
  O  O281  1  0.37390276  0.75484203  0.09922341  1
  O  O282  1  0.40784950  0.73360054  0.37959902  1
  O  O283  1  0.35104530  0.74048333  0.62527264  1
  O  O284  1  0.34943209  0.73884166  0.88726157  1
  O  O285  1  0.60183119  0.00961853  0.12237589  1
  O  O286  1  0.64004575  -0.00283550  0.37478574  1
  O  O287  1  0.60649610  0.01349555  0.64356352  1
  O  O288  1  0.62238250  0.01659076  0.83582096  1
  O  O289  1  0.64577144  0.24812915  0.11508087  1
  O  O290  1  0.65016358  0.24047075  0.38239242  1
  O  O291  1  0.66478504  0.26387369  0.59620958  1
  O  O292  1  0.62012155  0.25235789  0.90437366  1
  O  O293  1  0.59951552  0.50910063  0.17170961  1
  O  O294  1  0.64313297  0.49997769  0.36306451  1
  O  O295  1  0.60359320  0.49967109  0.66658650  1
  O  O296  1  0.63818146  0.48711364  0.86669777  1
  O  O297  1  0.64371924  0.74472228  0.10090570  1
  O  O298  1  0.61198945  0.74952834  0.40782857  1
  O  O299  1  0.66029430  0.75009507  0.61076206  1
  O  O300  1  0.63977064  0.74870536  0.90311402  1
  O  O301  1  0.89599374  0.00482925  0.13423992  1
  O  O302  1  0.88025609  0.00371424  0.37268575  1
  O  O303  1  0.90368473  0.01782233  0.62990792  1
  O  O304  1  0.87083079  0.00711357  0.85302143  1
  O  O305  1  0.85606709  0.24660279  0.10640208  1
  O  O306  1  0.84854247  0.24536698  0.39071247  1
  O  O307  1  0.83782934  0.25539400  0.62881406  1
  O  O308  1  0.88308179  0.24675484  0.90640612  1
  O  O309  1  0.90234301  0.49735412  0.15674927  1
  O  O310  1  0.91159922  0.50583329  0.35814092  1
  O  O311  1  0.91345358  0.49859189  0.64571579  1
  O  O312  1  0.89616824  0.50412130  0.87038910  1
  O  O313  1  0.87199462  0.75367636  0.11420754  1
  O  O314  1  0.88343783  0.74523121  0.40061628  1
  O  O315  1  0.85314694  0.74958410  0.61228328  1
  O  O316  1  0.86319932  0.74524319  0.90569320  1
