# generated using pymatgen
data_Mg32Ti42(Bi17O64)3
_symmetry_space_group_name_H-M   'P 1'
_cell_length_a   15.95419037
_cell_length_b   15.93001108
_cell_length_c   15.93659643
_cell_angle_alpha   89.93731773
_cell_angle_beta   89.95558091
_cell_angle_gamma   89.94098137
_symmetry_Int_Tables_number   1
_chemical_formula_structural   Mg32Ti42(Bi17O64)3
_chemical_formula_sum   'Mg32 Ti42 Bi51 O192'
_cell_volume   4050.28704037
_cell_formula_units_Z   1
loop_
 _symmetry_equiv_pos_site_id
 _symmetry_equiv_pos_as_xyz
  1  'x, y, z'
loop_
 _atom_site_type_symbol
 _atom_site_label
 _atom_site_symmetry_multiplicity
 _atom_site_fract_x
 _atom_site_fract_y
 _atom_site_fract_z
 _atom_site_occupancy
  Mg  Mg0  1  0.36886262  0.87024555  0.11670737  1
  Mg  Mg1  1  0.86836013  0.62884273  0.12097691  1
  Mg  Mg2  1  0.62193446  0.37245255  0.12573278  1
  Mg  Mg3  1  0.11980033  0.87222731  0.12417239  1
  Mg  Mg4  1  0.11109685  0.38797516  0.62200640  1
  Mg  Mg5  1  0.13368074  0.37091324  0.12649435  1
  Mg  Mg6  1  0.37461066  0.87774283  0.87061979  1
  Mg  Mg7  1  0.62881386  0.36663188  0.61972490  1
  Mg  Mg8  1  0.63052685  0.87876357  0.12064688  1
  Mg  Mg9  1  0.63298090  0.12117596  0.89293782  1
  Mg  Mg10  1  0.11234287  0.38789468  0.86748045  1
  Mg  Mg11  1  0.36524912  0.12133148  0.12631567  1
  Mg  Mg12  1  0.88395941  0.37947073  0.87919006  1
  Mg  Mg13  1  0.88033303  0.88286700  0.38625184  1
  Mg  Mg14  1  0.13045404  0.12449943  0.36753167  1
  Mg  Mg15  1  0.11903925  0.87363862  0.87042391  1
  Mg  Mg16  1  0.11291144  0.87358001  0.38893901  1
  Mg  Mg17  1  0.61997502  0.88347647  0.63065474  1
  Mg  Mg18  1  0.61238953  0.37887762  0.87639697  1
  Mg  Mg19  1  0.69487632  0.24406989  0.78214666  1
  Mg  Mg20  1  0.42066205  0.46152124  -0.01126398  1
  Mg  Mg21  1  0.71656824  0.73025521  0.21101464  1
  Mg  Mg22  1  -0.06111424  0.74107547  0.51194581  1
  Mg  Mg23  1  -0.00204728  0.54712354  0.52595741  1
  Mg  Mg24  1  0.22908963  0.51519788  -0.07307236  1
  Mg  Mg25  1  0.44497656  0.47879413  0.81426907  1
  Mg  Mg26  1  0.25868271  0.31013249  -0.04138555  1
  Mg  Mg27  1  -0.00224064  0.04243391  0.70979358  1
  Mg  Mg28  1  -0.00022416  0.02296551  0.29249439  1
  Mg  Mg29  1  0.77730830  0.01832558  0.01447233  1
  Mg  Mg30  1  -0.03514146  0.72767004  0.72548895  1
  Mg  Mg31  1  0.00465137  0.52604870  -0.04509318  1
  Ti  Ti32  1  0.88126431  0.88290065  0.62909696  1
  Ti  Ti33  1  0.11860356  0.37515254  0.37518476  1
  Ti  Ti34  1  0.11468235  0.63798907  0.85216429  1
  Ti  Ti35  1  0.87018167  0.87331681  0.87068553  1
  Ti  Ti36  1  0.62839746  0.88078878  0.87574447  1
  Ti  Ti37  1  0.88145784  0.38017711  0.36858808  1
  Ti  Ti38  1  0.37536040  0.61916023  0.12928665  1
  Ti  Ti39  1  0.60853815  0.62339775  0.86662605  1
  Ti  Ti40  1  0.63472206  0.12014780  0.62785519  1
  Ti  Ti41  1  0.64125258  0.86634341  0.36437170  1
  Ti  Ti42  1  0.86799341  0.13443772  0.62284746  1
  Ti  Ti43  1  0.86554090  0.87444005  0.12857935  1
  Ti  Ti44  1  0.12217743  0.64479432  0.61470408  1
  Ti  Ti45  1  0.87326229  0.62378546  0.36867636  1
  Ti  Ti46  1  0.10345830  0.86542012  0.62652410  1
  Ti  Ti47  1  0.38906977  0.38619089  0.61406537  1
  Ti  Ti48  1  0.37547019  0.12972574  0.36888664  1
  Ti  Ti49  1  0.88079108  0.14527380  0.87858892  1
  Ti  Ti50  1  0.63179143  0.62385922  0.36004178  1
  Ti  Ti51  1  0.86983795  0.12024217  0.37079357  1
  Ti  Ti52  1  0.61690529  0.61754002  0.11275895  1
  Ti  Ti53  1  0.37687094  0.63182202  0.88735180  1
  Ti  Ti54  1  0.85896152  0.61998682  0.62428214  1
  Ti  Ti55  1  0.36513093  0.61407331  0.37603220  1
  Ti  Ti56  1  0.36860922  0.37469687  0.37453795  1
  Ti  Ti57  1  0.37537329  0.12649165  0.62544659  1
  Ti  Ti58  1  0.87931201  0.36034128  0.62404555  1
  Ti  Ti59  1  0.61951907  0.61620750  0.62647357  1
  Ti  Ti60  1  0.62596441  0.11807267  0.11446224  1
  Ti  Ti61  1  0.37160962  0.37696891  0.13661873  1
  Ti  Ti62  1  0.62797470  0.12063335  0.36980566  1
  Ti  Ti63  1  0.11785894  0.12912421  0.89093108  1
  Ti  Ti64  1  0.13668300  0.61519731  0.09965583  1
  Ti  Ti65  1  0.63557891  0.36761473  0.37057073  1
  Ti  Ti66  1  0.38523154  0.62895901  0.61848863  1
  Ti  Ti67  1  0.35492482  0.12388009  0.87638859  1
  Ti  Ti68  1  0.38090071  0.89121946  0.63060531  1
  Ti  Ti69  1  0.11119720  0.61826852  0.38309653  1
  Ti  Ti70  1  0.12799196  0.11327793  0.13121980  1
  Ti  Ti71  1  0.88001312  0.12196107  0.11579265  1
  Ti  Ti72  1  0.86686987  0.63636597  0.87081077  1
  Ti  Ti73  1  0.87482003  0.37605943  0.12370762  1
  Bi  Bi74  1  0.24265073  0.02679430  0.49816492  1
  Bi  Bi75  1  0.50867978  0.77498965  0.01436349  1
  Bi  Bi76  1  0.73557348  0.27740927  -0.01637585  1
  Bi  Bi77  1  0.52410844  0.50342000  0.49257659  1
  Bi  Bi78  1  0.48773240  0.24231045  0.48919909  1
  Bi  Bi79  1  0.72541833  0.46780127  0.74324540  1
  Bi  Bi80  1  0.73966703  0.76294226  0.73145752  1
  Bi  Bi81  1  0.48955181  0.23942391  0.22418380  1
  Bi  Bi82  1  0.00297668  0.51843204  0.20768237  1
  Bi  Bi83  1  0.26583250  0.52066849  0.74191384  1
  Bi  Bi84  1  0.47247174  0.27540872  -0.01982549  1
  Bi  Bi85  1  0.26854170  0.78517170  0.50291060  1
  Bi  Bi86  1  0.22517655  0.50596266  0.51222108  1
  Bi  Bi87  1  0.76348799  0.48052854  0.50376837  1
  Bi  Bi88  1  0.02570503  0.03233493  0.51879380  1
  Bi  Bi89  1  0.00248557  0.24992481  0.47044647  1
  Bi  Bi90  1  0.72423743  0.75573206  0.50034348  1
  Bi  Bi91  1  0.77529424  0.02075605  0.77390108  1
  Bi  Bi92  1  0.50224248  0.02182641  0.78089270  1
  Bi  Bi93  1  0.49690185  0.24415313  0.72225492  1
  Bi  Bi94  1  0.47058817  0.01245547  -0.00215318  1
  Bi  Bi95  1  0.74465364  -0.01124944  0.23121833  1
  Bi  Bi96  1  0.20274225  0.01779323  0.73348418  1
  Bi  Bi97  1  -0.00885413  0.76678395  -0.00010326  1
  Bi  Bi98  1  0.73923458  0.23664105  0.49179878  1
  Bi  Bi99  1  0.02635270  0.28224450  -0.00507876  1
  Bi  Bi100  1  0.00165147  0.23919746  0.22457825  1
  Bi  Bi101  1  0.23688710  0.26550819  0.54239875  1
  Bi  Bi102  1  -0.01279629  0.77935234  0.27112833  1
  Bi  Bi103  1  0.49124797  0.76337450  0.47203824  1
  Bi  Bi104  1  0.00125561  -0.00656188  -0.01024588  1
  Bi  Bi105  1  0.73672108  0.49579286  -0.03268371  1
  Bi  Bi106  1  0.51745302  0.48318730  0.26374163  1
  Bi  Bi107  1  0.22294050  0.50054840  0.24379602  1
  Bi  Bi108  1  0.21456782  0.74458402  0.25568489  1
  Bi  Bi109  1  0.23303220  0.77075527  -0.00937736  1
  Bi  Bi110  1  0.24634038  0.24320114  0.23808721  1
  Bi  Bi111  1  0.74422626  0.24196500  0.22627017  1
  Bi  Bi112  1  0.48160195  -0.02521955  0.23054625  1
  Bi  Bi113  1  0.48527794  -0.01606610  0.47586644  1
  Bi  Bi114  1  0.50650473  0.76839503  0.75859357  1
  Bi  Bi115  1  0.25809602  -0.04571223  0.29174745  1
  Bi  Bi116  1  0.75514285  0.74789258  0.00373321  1
  Bi  Bi117  1  0.03992058  0.24930135  0.72838419  1
  Bi  Bi118  1  0.75207798  0.50067764  0.22732212  1
  Bi  Bi119  1  0.27937659  0.30088148  0.76455927  1
  Bi  Bi120  1  0.23318941  -0.01018699  0.00080447  1
  Bi  Bi121  1  0.73971127  -0.01472964  0.49086503  1
  Bi  Bi122  1  0.46127823  0.75465011  0.24541184  1
  Bi  Bi123  1  0.25232800  0.77191106  0.74903241  1
  Bi  Bi124  1  -0.02224049  0.49749397  0.74738788  1
  O  O125  1  0.13939914  0.14261795  0.00605877  1
  O  O126  1  0.08904533  0.10002406  0.24631275  1
  O  O127  1  0.13506686  0.11919629  0.50065487  1
  O  O128  1  0.09573154  0.09654897  0.76980350  1
  O  O129  1  0.14843895  0.34422018  0.00458099  1
  O  O130  1  0.11529548  0.39767614  0.26194651  1
  O  O131  1  0.15280379  0.36607017  0.49907725  1
  O  O132  1  0.07979226  0.38253361  0.74603616  1
  O  O133  1  0.16949486  0.61738612  -0.00752755  1
  O  O134  1  0.11300365  0.59667370  0.26084239  1
  O  O135  1  0.15685991  0.63880522  0.49477852  1
  O  O136  1  0.08736124  0.64530261  0.73748074  1
  O  O137  1  0.11222818  0.83535578  0.00129630  1
  O  O138  1  0.15536901  0.87362604  0.24457580  1
  O  O139  1  0.09181351  0.87010035  0.51341927  1
  O  O140  1  0.15518812  0.87771866  0.74749382  1
  O  O141  1  0.36709903  0.11510417  -0.00445345  1
  O  O142  1  0.40854452  0.11231334  0.25759790  1
  O  O143  1  0.37485124  0.14947595  0.50431435  1
  O  O144  1  0.40093493  0.12712293  0.75110057  1
  O  O145  1  0.35848034  0.35275674  0.01639397  1
  O  O146  1  0.40950726  0.38192606  0.25399442  1
  O  O147  1  0.37227121  0.34493578  0.49506221  1
  O  O148  1  0.38837525  0.38936849  0.74054056  1
  O  O149  1  0.36974018  0.64656400  -0.00119980  1
  O  O150  1  0.39704559  0.61399321  0.24949183  1
  O  O151  1  0.36595540  0.63148432  0.49811296  1
  O  O152  1  0.38700097  0.58087088  0.73625878  1
  O  O153  1  0.41231245  0.87521094  -0.00501509  1
  O  O154  1  0.37518451  0.87440733  0.24781355  1
  O  O155  1  0.39421186  0.85790563  0.50757347  1
  O  O156  1  0.33966827  0.88519469  0.74043293  1
  O  O157  1  0.66390020  0.08571542  0.01138408  1
  O  O158  1  0.61241696  0.14528640  0.25950884  1
  O  O159  1  0.66447832  0.11485757  0.49897941  1
  O  O160  1  0.61321820  0.15234821  0.74386104  1
  O  O161  1  0.65530181  0.39008450  0.00560121  1
  O  O162  1  0.59738233  0.36090148  0.25664201  1
  O  O163  1  0.64325580  0.40632316  0.49101988  1
  O  O164  1  0.64128698  0.35497357  0.74890507  1
  O  O165  1  0.63899719  0.60197487  -0.00150728  1
  O  O166  1  0.61592576  0.65535333  0.25276045  1
  O  O167  1  0.64072769  0.60807956  0.50587928  1
  O  O168  1  0.61725422  0.64757770  0.75299407  1
  O  O169  1  0.60042452  0.88005636  -0.00756472  1
  O  O170  1  0.66599102  0.84941139  0.25278940  1
  O  O171  1  0.63585273  0.87217543  0.50599334  1
  O  O172  1  0.62924311  0.84327103  0.75294577  1
  O  O173  1  0.84817974  0.13448633  0.00339592  1
  O  O174  1  0.89923785  0.09979152  0.25930858  1
  O  O175  1  0.85161184  0.14001646  0.50900998  1
  O  O176  1  0.89597613  0.09918845  0.76313950  1
  O  O177  1  0.85316054  0.36579394  0.01348056  1
  O  O178  1  0.90204276  0.37993914  0.25787542  1
  O  O179  1  0.85435616  0.37377735  0.49997788  1
  O  O180  1  0.88441847  0.39828224  0.74164565  1
  O  O181  1  0.85912193  0.65048438  -0.00660137  1
  O  O182  1  0.91312707  0.62541728  0.25297284  1
  O  O183  1  0.86362421  0.63443460  0.50146675  1
  O  O184  1  0.89898478  0.61727334  0.74224099  1
  O  O185  1  0.86365906  0.83955003  -0.00230537  1
  O  O186  1  0.86100065  0.88764653  0.24276471  1
  O  O187  1  0.89390363  0.85891456  0.51606560  1
  O  O188  1  0.87319138  0.90190680  0.76010483  1
  O  O189  1  -0.00440442  0.14628557  0.11402737  1
  O  O190  1  -0.00565364  0.10710009  0.39753100  1
  O  O191  1  -0.01029669  0.13377149  0.61488862  1
  O  O192  1  -0.00465078  0.10975885  0.91062003  1
  O  O193  1  -0.00177736  0.35190685  0.12087736  1
  O  O194  1  0.00238607  0.38103810  0.40544724  1
  O  O195  1  -0.00801961  0.34118581  0.60324008  1
  O  O196  1  0.00136935  0.39713304  0.92592897  1
  O  O197  1  0.01342730  0.59598691  0.08667814  1
  O  O198  1  0.00377266  0.59754178  0.41055661  1
  O  O199  1  0.01105198  0.66234870  0.58577032  1
  O  O200  1  0.00908763  0.64342253  0.89813141  1
  O  O201  1  -0.01465931  0.85456232  0.11635803  1
  O  O202  1  -0.00048903  0.90269481  0.33954161  1
  O  O203  1  -0.00169255  0.83500473  0.66363525  1
  O  O204  1  -0.01013147  0.87644915  0.89865808  1
  O  O205  1  0.24111431  0.11573600  0.15671574  1
  O  O206  1  0.26225447  0.13803473  0.36070861  1
  O  O207  1  0.26230044  0.10385888  0.63150291  1
  O  O208  1  0.24187267  0.11043167  0.85979251  1
  O  O209  1  0.25805939  0.37452076  0.16464169  1
  O  O210  1  0.25799064  0.35636291  0.35717128  1
  O  O211  1  0.26226462  0.38377529  0.62400249  1
  O  O212  1  0.23689476  0.38930171  0.86341681  1
  O  O213  1  0.25752491  0.60793040  0.14674767  1
  O  O214  1  0.25512754  0.63057614  0.35534773  1
  O  O215  1  0.24811559  0.60178394  0.63439378  1
  O  O216  1  0.24981096  0.61712123  0.83969253  1
  O  O217  1  0.24766410  0.87857739  0.08658422  1
  O  O218  1  0.24235639  0.84916764  0.38183399  1
  O  O219  1  0.25486750  0.89781321  0.58430169  1
  O  O220  1  0.25143620  0.88239677  0.90891225  1
  O  O221  1  0.51205650  0.14216072  0.10475877  1
  O  O222  1  0.51383836  0.11123066  0.40715671  1
  O  O223  1  0.50777875  0.15649843  0.61398193  1
  O  O224  1  0.50663762  0.11272698  0.88668552  1
  O  O225  1  0.49702266  0.34225447  0.10491546  1
  O  O226  1  0.50952898  0.40557061  0.39145496  1
  O  O227  1  0.50344411  0.34557138  0.61093204  1
  O  O228  1  0.49158644  0.39471787  0.90708513  1
  O  O229  1  0.50285976  0.62737188  0.11358072  1
  O  O230  1  0.51367062  0.59819524  0.38687631  1
  O  O231  1  0.50272380  0.64159098  0.61192897  1
  O  O232  1  0.49322474  0.59567565  0.87117042  1
  O  O233  1  0.50775044  0.86035549  0.14619004  1
  O  O234  1  0.51904386  0.87684950  0.38170270  1
  O  O235  1  0.49242438  0.85854932  0.64710933  1
  O  O236  1  0.50312874  0.88286349  0.84022077  1
  O  O237  1  0.75676007  0.11107921  0.15725074  1
  O  O238  1  0.75254112  0.14715152  0.35992621  1
  O  O239  1  0.75538136  0.09939888  0.65037140  1
  O  O240  1  0.75833139  0.14546650  0.84718702  1
  O  O241  1  0.75450291  0.37464127  0.16014049  1
  O  O242  1  0.75259486  0.36117362  0.35850776  1
  O  O243  1  0.75773326  0.40345851  0.62290913  1
  O  O244  1  0.75731899  0.37686521  0.87581287  1
  O  O245  1  0.74360940  0.61522368  0.14856085  1
  O  O246  1  0.76040828  0.64439787  0.35096684  1
  O  O247  1  0.75064274  0.59919215  0.64178767  1
  O  O248  1  0.75263139  0.63465608  0.86334735  1
  O  O249  1  0.75031179  0.92174890  0.10514572  1
  O  O250  1  0.75524346  0.86441399  0.40168844  1
  O  O251  1  0.76188586  0.87703904  0.63941971  1
  O  O252  1  0.74281613  0.84443686  0.87533888  1
  O  O253  1  0.11473507  -0.00076494  0.09395572  1
  O  O254  1  0.15554856  -0.00380891  0.38762216  1
  O  O255  1  0.09632617  -0.01249087  0.64183136  1
  O  O256  1  0.12109772  -0.00311700  0.91176995  1
  O  O257  1  0.12884165  0.24368741  0.15993825  1
  O  O258  1  0.10509762  0.25353654  0.36773103  1
  O  O259  1  0.14968386  0.26042157  0.65092034  1
  O  O260  1  0.10700455  0.24459656  0.86110915  1
  O  O261  1  0.13666071  0.49702205  0.13075669  1
  O  O262  1  0.14659113  0.49793503  0.39597570  1
  O  O263  1  0.10562763  0.51375392  0.59142105  1
  O  O264  1  0.11345268  0.51662071  0.87554718  1
  O  O265  1  0.13228059  0.72936855  0.13973284  1
  O  O266  1  0.10363478  0.74022883  0.34750747  1
  O  O267  1  0.16354643  0.75495513  0.62699261  1
  O  O268  1  0.15166532  0.74881502  0.86714143  1
  O  O269  1  0.39890774  -0.00117319  0.12351600  1
  O  O270  1  0.37291393  0.00977613  0.40165109  1
  O  O271  1  0.40269544  0.00461188  0.60997320  1
  O  O272  1  0.38913032  0.00485601  0.87160348  1
  O  O273  1  0.36355368  0.24607066  0.15541667  1
  O  O274  1  0.41146576  0.24931512  0.36112101  1
  O  O275  1  0.36670920  0.24789268  0.64473580  1
  O  O276  1  0.34908821  0.24598343  0.87936261  1
  O  O277  1  0.38949062  0.49235931  0.10705341  1
  O  O278  1  0.36163273  0.49319285  0.38567487  1
  O  O279  1  0.39810474  0.49530575  0.59020054  1
  O  O280  1  0.35365415  0.51035714  0.89828992  1
  O  O281  1  0.37274682  0.74034450  0.13882034  1
  O  O282  1  0.40121423  0.73391712  0.37337918  1
  O  O283  1  0.35716645  0.74087744  0.63749981  1
  O  O284  1  0.37725921  0.74490305  0.84853390  1
  O  O285  1  0.61389075  0.00441247  0.16289934  1
  O  O286  1  0.65075646  -0.00303404  0.37364580  1
  O  O287  1  0.60737782  0.00877520  0.62823457  1
  O  O288  1  0.63694214  -0.00613463  0.85261315  1
  O  O289  1  0.65618617  0.24041180  0.11504422  1
  O  O290  1  0.61950264  0.25272440  0.40054781  1
  O  O291  1  0.65790039  0.24300790  0.60359960  1
  O  O292  1  0.62825113  0.25197479  0.89649130  1
  O  O293  1  0.62319923  0.50068745  0.15696312  1
  O  O294  1  0.64505360  0.50427510  0.34360070  1
  O  O295  1  0.61497337  0.50198091  0.64994206  1
  O  O296  1  0.64081869  0.50353807  0.86456637  1
  O  O297  1  0.64024063  0.74356009  0.10555574  1
  O  O298  1  0.62523963  0.74607995  0.39737032  1
  O  O299  1  0.65247757  0.74156556  0.62026277  1
  O  O300  1  0.59035512  0.74055452  0.89292594  1
  O  O301  1  0.88452701  0.00449084  0.10109810  1
  O  O302  1  0.84842976  0.00758367  0.39903202  1
  O  O303  1  0.90449561  -0.00270961  0.62272881  1
  O  O304  1  0.84215223  -0.01062789  0.90521692  1
  O  O305  1  0.86486367  0.24444779  0.15225313  1
  O  O306  1  0.89684635  0.24979337  0.37763767  1
  O  O307  1  0.85414923  0.24862132  0.64642635  1
  O  O308  1  0.90352758  0.25201406  0.86812129  1
  O  O309  1  0.87263384  0.49552606  0.13110286  1
  O  O310  1  0.85999525  0.50046735  0.37806776  1
  O  O311  1  0.91427856  0.50844150  0.61222490  1
  O  O312  1  0.89642563  0.51734583  0.87973685  1
  O  O313  1  0.82157320  0.76006620  0.13566064  1
  O  O314  1  0.91177763  0.74559174  0.38171669  1
  O  O315  1  0.86623049  0.73968371  0.63698479  1
  O  O316  1  0.88989771  0.75126748  0.83727211  1
