# generated using pymatgen
data_Mg32Ti42(Bi17O64)3
_symmetry_space_group_name_H-M   'P 1'
_cell_length_a   15.99166399
_cell_length_b   15.99126546
_cell_length_c   15.93789745
_cell_angle_alpha   90.04791347
_cell_angle_beta   89.89330067
_cell_angle_gamma   89.96327728
_symmetry_Int_Tables_number   1
_chemical_formula_structural   Mg32Ti42(Bi17O64)3
_chemical_formula_sum   'Mg32 Ti42 Bi51 O192'
_cell_volume   4075.74047547
_cell_formula_units_Z   1
loop_
 _symmetry_equiv_pos_site_id
 _symmetry_equiv_pos_as_xyz
  1  'x, y, z'
loop_
 _atom_site_type_symbol
 _atom_site_label
 _atom_site_symmetry_multiplicity
 _atom_site_fract_x
 _atom_site_fract_y
 _atom_site_fract_z
 _atom_site_occupancy
  Mg  Mg0  1  0.12676293  0.37908817  0.87978384  1
  Mg  Mg1  1  0.36927895  0.62709479  0.61787056  1
  Mg  Mg2  1  0.35655795  0.38306947  0.37198831  1
  Mg  Mg3  1  0.86524318  0.37556902  0.63100952  1
  Mg  Mg4  1  0.11113337  0.61914476  0.12706421  1
  Mg  Mg5  1  0.38756026  0.89134626  0.37635839  1
  Mg  Mg6  1  0.38558464  0.12525350  0.13403624  1
  Mg  Mg7  1  0.12905247  0.86275254  0.87539458  1
  Mg  Mg8  1  0.87831631  0.37694911  0.38230063  1
  Mg  Mg9  1  0.86701217  0.36244058  0.12111369  1
  Mg  Mg10  1  0.62389113  0.12340044  0.62604108  1
  Mg  Mg11  1  0.13269126  0.11328879  0.87214383  1
  Mg  Mg12  1  0.87793648  0.61430868  0.12750030  1
  Mg  Mg13  1  0.11635052  0.36699759  0.11508681  1
  Mg  Mg14  1  0.12732091  0.35953983  0.64116209  1
  Mg  Mg15  1  0.10932315  0.12126175  0.11095190  1
  Mg  Mg16  1  0.11277392  0.37366046  0.36657919  1
  Mg  Mg17  1  0.37082227  0.87692004  0.62269520  1
  Mg  Mg18  1  0.62078349  0.12911643  0.36751125  1
  Mg  Mg19  1  -0.00262468  0.26352644  0.28052132  1
  Mg  Mg20  1  0.74243122  0.03413064  0.25078017  1
  Mg  Mg21  1  0.76832568  0.45789867  0.78071014  1
  Mg  Mg22  1  -0.05379882  0.30776478  0.76494725  1
  Mg  Mg23  1  0.45189409  0.25824528  0.45941849  1
  Mg  Mg24  1  -0.00596844  0.43627545  0.20136467  1
  Mg  Mg25  1  0.50463612  0.46020413  0.30685368  1
  Mg  Mg26  1  0.50558139  0.05436751  0.48342484  1
  Mg  Mg27  1  0.00309768  0.45084492  0.54782409  1
  Mg  Mg28  1  0.18639634  0.45468230  0.50024260  1
  Mg  Mg29  1  0.52342124  0.01971830  0.21391365  1
  Mg  Mg30  1  0.75133500  0.44672604  -0.04694724  1
  Mg  Mg31  1  0.20592042  0.25446752  0.77923806  1
  Ti  Ti32  1  0.63673864  0.36460076  0.37868066  1
  Ti  Ti33  1  0.87553176  0.86587905  0.87441215  1
  Ti  Ti34  1  0.11527411  0.62363279  0.86271645  1
  Ti  Ti35  1  0.12530815  0.87523715  0.61551788  1
  Ti  Ti36  1  0.36555359  0.63303132  0.87352343  1
  Ti  Ti37  1  0.62182019  0.61895363  0.37489068  1
  Ti  Ti38  1  0.11953906  0.87396127  0.12320689  1
  Ti  Ti39  1  0.62268724  0.87034179  0.12561244  1
  Ti  Ti40  1  0.37079746  0.12278012  0.87515529  1
  Ti  Ti41  1  0.36518686  0.88018236  0.87299952  1
  Ti  Ti42  1  0.61510842  0.12414981  0.87651639  1
  Ti  Ti43  1  0.36905316  0.36970146  0.14338053  1
  Ti  Ti44  1  0.63141484  0.38274857  0.11936483  1
  Ti  Ti45  1  0.86480295  0.89599011  0.35787849  1
  Ti  Ti46  1  0.62818827  0.87482509  0.61444580  1
  Ti  Ti47  1  0.39285187  0.12005817  0.36069710  1
  Ti  Ti48  1  0.11627761  0.61472788  0.38301416  1
  Ti  Ti49  1  0.88487557  0.11897598  0.63122433  1
  Ti  Ti50  1  0.12888840  0.62138761  0.62069442  1
  Ti  Ti51  1  0.36968895  0.87873865  0.13909848  1
  Ti  Ti52  1  0.86795944  0.12422648  0.11965693  1
  Ti  Ti53  1  0.36938764  0.61741108  0.37927355  1
  Ti  Ti54  1  0.87383766  0.11243932  0.86797100  1
  Ti  Ti55  1  0.38327627  0.60934780  0.12953227  1
  Ti  Ti56  1  0.35652313  0.37733027  0.61457266  1
  Ti  Ti57  1  0.63421758  0.61534092  0.85791882  1
  Ti  Ti58  1  0.62594283  0.36962396  0.63064686  1
  Ti  Ti59  1  0.62265788  0.86047696  0.88186375  1
  Ti  Ti60  1  0.63013875  0.13412660  0.12572717  1
  Ti  Ti61  1  0.61506604  0.88510022  0.35755905  1
  Ti  Ti62  1  0.61961536  0.61441454  0.12677997  1
  Ti  Ti63  1  0.37315295  0.13237480  0.61906442  1
  Ti  Ti64  1  0.62207282  0.36693295  0.86154560  1
  Ti  Ti65  1  0.62019886  0.63443166  0.62071478  1
  Ti  Ti66  1  0.87594772  0.88408521  0.61353800  1
  Ti  Ti67  1  0.87470398  0.62972984  0.62222394  1
  Ti  Ti68  1  0.86446992  0.12688492  0.38338306  1
  Ti  Ti69  1  0.86574736  0.62346998  0.87002262  1
  Ti  Ti70  1  0.10887382  0.87555793  0.36539344  1
  Ti  Ti71  1  0.12736755  0.13573110  0.63290295  1
  Ti  Ti72  1  0.85899239  0.88734192  0.11864011  1
  Ti  Ti73  1  0.88031309  0.61525152  0.37519169  1
  Bi  Bi74  1  -0.01179813  0.04951260  0.25483320  1
  Bi  Bi75  1  0.20170354  0.24142124  0.23814121  1
  Bi  Bi76  1  0.00334531  0.76558391  0.73314150  1
  Bi  Bi77  1  0.24435460  0.74870344  0.72668045  1
  Bi  Bi78  1  0.49171006  0.46744053  0.50377612  1
  Bi  Bi79  1  0.01456083  -0.00975460  0.77084455  1
  Bi  Bi80  1  0.26520234  0.46304713  -0.01606586  1
  Bi  Bi81  1  0.75278820  0.22325745  0.73720543  1
  Bi  Bi82  1  0.02996678  0.03799425  0.49576358  1
  Bi  Bi83  1  0.47318709  0.28124113  -0.01782699  1
  Bi  Bi84  1  0.46760185  0.74341970  0.25602082  1
  Bi  Bi85  1  0.25550996  0.01593080  0.02914870  1
  Bi  Bi86  1  0.73133012  -0.00572172  0.01135003  1
  Bi  Bi87  1  0.47648058  0.50910230  0.73309022  1
  Bi  Bi88  1  -0.00316631  0.24374458  -0.04513622  1
  Bi  Bi89  1  0.74466849  0.71703461  0.01299623  1
  Bi  Bi90  1  0.50565167  0.27306095  0.23038231  1
  Bi  Bi91  1  0.24142484  0.24964052  0.45465080  1
  Bi  Bi92  1  0.75417715  0.75946545  0.73803778  1
  Bi  Bi93  1  -0.00598335  0.72523916  -0.00338959  1
  Bi  Bi94  1  0.49031520  0.51664043  -0.01926221  1
  Bi  Bi95  1  0.25279666  0.01371952  0.73906804  1
  Bi  Bi96  1  0.47378378  0.76427476  -0.00044853  1
  Bi  Bi97  1  0.25033257  0.47246942  0.77704275  1
  Bi  Bi98  1  0.73628813  0.49952114  0.53358982  1
  Bi  Bi99  1  0.74745463  0.72566425  0.24737869  1
  Bi  Bi100  1  -0.03090845  0.75771592  0.22770744  1
  Bi  Bi101  1  0.21366722  0.50263050  0.23432276  1
  Bi  Bi102  1  0.49080661  0.00853049  0.71582145  1
  Bi  Bi103  1  0.72009809  -0.01464076  0.75660329  1
  Bi  Bi104  1  0.22084324  0.01670036  0.25261114  1
  Bi  Bi105  1  0.73769839  0.23359911  0.50085266  1
  Bi  Bi106  1  -0.02374341  0.49576312  0.73677544  1
  Bi  Bi107  1  0.00578226  -0.00926942  -0.01808251  1
  Bi  Bi108  1  0.48217126  0.75491683  0.49001516  1
  Bi  Bi109  1  -0.04440585  0.45852106  -0.01977522  1
  Bi  Bi110  1  0.75320903  0.75010098  0.47058597  1
  Bi  Bi111  1  0.25277338  0.01212896  0.46830665  1
  Bi  Bi112  1  0.76094858  0.23805403  -0.01710771  1
  Bi  Bi113  1  0.46010943  0.26722678  0.75172996  1
  Bi  Bi114  1  0.49706840  0.00225298  0.00898283  1
  Bi  Bi115  1  -0.00355511  0.26816648  0.49325952  1
  Bi  Bi116  1  0.77501613  0.26909636  0.25388756  1
  Bi  Bi117  1  0.00130171  0.73858776  0.49887465  1
  Bi  Bi118  1  0.77507017  0.49738571  0.24741430  1
  Bi  Bi119  1  0.48446108  0.76726097  0.73723405  1
  Bi  Bi120  1  0.22709127  0.24522548  -0.00586835  1
  Bi  Bi121  1  0.25148412  0.77307193  0.46702645  1
  Bi  Bi122  1  0.23669898  0.72153338  0.24865954  1
  Bi  Bi123  1  0.22982782  0.73706829  0.01435156  1
  Bi  Bi124  1  0.72131817  0.00423127  0.47899374  1
  O  O125  1  0.16431732  0.11842378  -0.00519111  1
  O  O126  1  0.12476274  0.11406392  0.23774506  1
  O  O127  1  0.13027813  0.13537205  0.51163478  1
  O  O128  1  0.12402100  0.08229895  0.74374907  1
  O  O129  1  0.15990033  0.37272535  0.00083564  1
  O  O130  1  0.09223089  0.34128540  0.23955486  1
  O  O131  1  0.09564994  0.36155264  0.51501271  1
  O  O132  1  0.16115775  0.37481872  0.75816307  1
  O  O133  1  0.12223134  0.65000174  -0.00252377  1
  O  O134  1  0.13402260  0.62480816  0.26028598  1
  O  O135  1  0.12421037  0.66027435  0.49608185  1
  O  O136  1  0.12311443  0.60244499  0.74431095  1
  O  O137  1  0.14585898  0.84367052  0.00377771  1
  O  O138  1  0.11496907  0.89628488  0.24852609  1
  O  O139  1  0.13404593  0.84863286  0.49975119  1
  O  O140  1  0.09349552  0.88398260  0.74213032  1
  O  O141  1  0.35220309  0.12898095  -0.00838458  1
  O  O142  1  0.42390517  0.09066447  0.25692950  1
  O  O143  1  0.36740155  0.15676329  0.51011636  1
  O  O144  1  0.41425549  0.12621274  0.74978734  1
  O  O145  1  0.36351444  0.35592848  0.02290510  1
  O  O146  1  0.41653790  0.38582426  0.25566883  1
  O  O147  1  0.38560642  0.36147468  0.50139884  1
  O  O148  1  0.39103164  0.39475442  0.73706426  1
  O  O149  1  0.38667863  0.64065306  0.00594328  1
  O  O150  1  0.39057706  0.62153180  0.25069210  1
  O  O151  1  0.38391434  0.64889632  0.49286818  1
  O  O152  1  0.37789901  0.60226657  0.75692265  1
  O  O153  1  0.36430979  0.84981256  -0.00648908  1
  O  O154  1  0.39850467  0.88958925  0.24774425  1
  O  O155  1  0.37478123  0.84355420  0.50101580  1
  O  O156  1  0.41134372  0.88504709  0.75925063  1
  O  O157  1  0.65486081  0.14304852  -0.00017437  1
  O  O158  1  0.62322094  0.09380064  0.24251505  1
  O  O159  1  0.64784634  0.12856085  0.50134836  1
  O  O160  1  0.62411760  0.11492006  0.75780973  1
  O  O161  1  0.65828935  0.37429039  0.00873548  1
  O  O162  1  0.59653248  0.38095511  0.26205599  1
  O  O163  1  0.66551268  0.37220268  0.50224246  1
  O  O164  1  0.60024556  0.38681979  0.74869300  1
  O  O165  1  0.62991082  0.63647802  0.00784007  1
  O  O166  1  0.63888550  0.62346154  0.25475957  1
  O  O167  1  0.63245461  0.64873770  0.49793343  1
  O  O168  1  0.63697634  0.61565981  0.74394771  1
  O  O169  1  0.65859797  0.86293146  0.00108970  1
  O  O170  1  0.59577572  0.90987286  0.24377899  1
  O  O171  1  0.65321529  0.86795199  0.50233051  1
  O  O172  1  0.61481774  0.89522980  0.76160656  1
  O  O173  1  0.86296068  0.13939251  -0.00315956  1
  O  O174  1  0.85494816  0.10567594  0.24580813  1
  O  O175  1  0.87053924  0.13466855  0.50402403  1
  O  O176  1  0.87908781  0.10060189  0.75202637  1
  O  O177  1  0.84590778  0.38597346  0.00195531  1
  O  O178  1  0.89858457  0.33713700  0.24463069  1
  O  O179  1  0.90354583  0.37036768  0.51227661  1
  O  O180  1  0.87597467  0.40964515  0.75306044  1
  O  O181  1  0.87645627  0.64374309  -0.00169900  1
  O  O182  1  0.87497637  0.64395039  0.25943216  1
  O  O183  1  0.87843903  0.65443268  0.49650255  1
  O  O184  1  0.87713762  0.61372945  0.74792221  1
  O  O185  1  0.85277924  0.86213704  0.00329467  1
  O  O186  1  0.89526620  0.89638179  0.24684867  1
  O  O187  1  0.84751032  0.87366311  0.50343440  1
  O  O188  1  0.90441200  0.88271952  0.75621286  1
  O  O189  1  -0.01541465  0.13833864  0.13904132  1
  O  O190  1  -0.02037256  0.15417827  0.34397668  1
  O  O191  1  0.00376767  0.13310293  0.62101204  1
  O  O192  1  0.00116011  0.11223626  0.89750882  1
  O  O193  1  -0.00795914  0.37421428  0.08630835  1
  O  O194  1  -0.00380514  0.33761085  0.37999887  1
  O  O195  1  0.00451813  0.37858744  0.66411606  1
  O  O196  1  0.00243249  0.37078450  0.88283782  1
  O  O197  1  -0.00509698  0.66300766  0.12468285  1
  O  O198  1  0.00110975  0.64597205  0.37949690  1
  O  O199  1  -0.00037631  0.65842124  0.61923995  1
  O  O200  1  -0.00034352  0.60884801  0.88216997  1
  O  O201  1  0.00624257  0.84628891  0.11490184  1
  O  O202  1  -0.00044461  0.85915983  0.38111709  1
  O  O203  1  -0.00658281  0.85165917  0.60846680  1
  O  O204  1  -0.00483316  0.87793721  0.90070682  1
  O  O205  1  0.26083303  0.09454700  0.14311582  1
  O  O206  1  0.26786060  0.10030444  0.36147161  1
  O  O207  1  0.25269734  0.10560412  0.63643966  1
  O  O208  1  0.26062154  0.13775737  0.82859974  1
  O  O209  1  0.25574980  0.38580213  0.16148977  1
  O  O210  1  0.23663891  0.38445753  0.40394740  1
  O  O211  1  0.24813573  0.39859728  0.60135313  1
  O  O212  1  0.26715821  0.38083122  0.87612387  1
  O  O213  1  0.25721637  0.60199497  0.14244435  1
  O  O214  1  0.25521746  0.61397335  0.37353723  1
  O  O215  1  0.24365438  0.63689973  0.62785503  1
  O  O216  1  0.25491213  0.65161877  0.87702615  1
  O  O217  1  0.25488596  0.89837422  0.13796962  1
  O  O218  1  0.25738655  0.89665224  0.38897018  1
  O  O219  1  0.24124501  0.87484144  0.64740570  1
  O  O220  1  0.25761465  0.86259984  0.84642642  1
  O  O221  1  0.51208887  0.11910628  0.10955432  1
  O  O222  1  0.49979071  0.15448053  0.40371483  1
  O  O223  1  0.49710128  0.10291264  0.60285336  1
  O  O224  1  0.50331853  0.11067919  0.89612338  1
  O  O225  1  0.51124868  0.35122185  0.11492643  1
  O  O226  1  0.51760006  0.35845351  0.40495253  1
  O  O227  1  0.51455370  0.36627597  0.60344332  1
  O  O228  1  0.51151504  0.39429791  0.91218672  1
  O  O229  1  0.50482329  0.63925613  0.13050240  1
  O  O230  1  0.51144325  0.65884366  0.37303473  1
  O  O231  1  0.50692237  0.64329554  0.63368409  1
  O  O232  1  0.51559369  0.59943292  0.87155000  1
  O  O233  1  0.50604548  0.86696412  0.09822846  1
  O  O234  1  0.50873530  0.84937491  0.38357286  1
  O  O235  1  0.51157361  0.86234738  0.61995570  1
  O  O236  1  0.51003655  0.87921499  0.90972368  1
  O  O237  1  0.74514333  0.08863566  0.12790614  1
  O  O238  1  0.74928655  0.09624122  0.36990839  1
  O  O239  1  0.76016833  0.12857642  0.63774381  1
  O  O240  1  0.75673506  0.14380145  0.86654342  1
  O  O241  1  0.74394060  0.38665133  0.16563917  1
  O  O242  1  0.75259266  0.39160271  0.34372667  1
  O  O243  1  0.74457328  0.41871581  0.64803145  1
  O  O244  1  0.73703480  0.35945283  0.85619919  1
  O  O245  1  0.74862427  0.62689677  0.12850303  1
  O  O246  1  0.75374591  0.62871221  0.37962498  1
  O  O247  1  0.75708654  0.61085638  0.61530982  1
  O  O248  1  0.75106585  0.65562375  0.87987870  1
  O  O249  1  0.74671256  0.90882739  0.14209665  1
  O  O250  1  0.75042441  0.92902879  0.34718864  1
  O  O251  1  0.75614363  0.88033337  0.66123515  1
  O  O252  1  0.75417901  0.87104640  0.84764084  1
  O  O253  1  0.11561940  -0.01065625  0.09618514  1
  O  O254  1  0.12252068  -0.00573985  0.39934733  1
  O  O255  1  0.11324285  -0.00919029  0.59692526  1
  O  O256  1  0.11079330  -0.01141171  0.88276945  1
  O  O257  1  0.14515414  0.24203259  0.10742657  1
  O  O258  1  0.14451539  0.24489880  0.36345181  1
  O  O259  1  0.14922681  0.23853877  0.66718444  1
  O  O260  1  0.12848013  0.24389403  0.88169691  1
  O  O261  1  0.10391154  0.49369290  0.15555365  1
  O  O262  1  0.11421975  0.50339827  0.39788116  1
  O  O263  1  0.10897450  0.51277890  0.58667005  1
  O  O264  1  0.15992216  0.50877106  0.88314584  1
  O  O265  1  0.15619765  0.75074870  0.13936150  1
  O  O266  1  0.15345847  0.76157382  0.35603877  1
  O  O267  1  0.12566582  0.75281099  0.64986356  1
  O  O268  1  0.10912222  0.74060218  0.84529650  1
  O  O269  1  0.39439578  -0.00631444  0.10314089  1
  O  O270  1  0.39959687  0.01363822  0.42032816  1
  O  O271  1  0.37266032  0.00307155  0.64135155  1
  O  O272  1  0.36378809  -0.00111861  0.87893769  1
  O  O273  1  0.37783405  0.25200838  0.15822095  1
  O  O274  1  0.35728703  0.24639911  0.36809255  1
  O  O275  1  0.36580815  0.25499967  0.65071708  1
  O  O276  1  0.39461169  0.24499670  0.86896939  1
  O  O277  1  0.39448948  0.49728537  0.11321575  1
  O  O278  1  0.40757757  0.50361784  0.38207740  1
  O  O279  1  0.39828388  0.49846890  0.61218852  1
  O  O280  1  0.37626309  0.51356054  0.90213201  1
  O  O281  1  0.37277190  0.75486652  0.14033234  1
  O  O282  1  0.36789463  0.74721231  0.35505530  1
  O  O283  1  0.37187514  0.75165572  0.65999567  1
  O  O284  1  0.40485924  0.74787120  0.86239490  1
  O  O285  1  0.61179099  -0.00399834  0.09091066  1
  O  O286  1  0.60064533  -0.00144949  0.40949935  1
  O  O287  1  0.63700003  -0.00712574  0.62505219  1
  O  O288  1  0.64543425  0.00628946  0.89220457  1
  O  O289  1  0.63668726  0.24765401  0.14857527  1
  O  O290  1  0.65814906  0.25191790  0.37675950  1
  O  O291  1  0.65062929  0.25696052  0.63400793  1
  O  O292  1  0.60067742  0.25282031  0.87092538  1
  O  O293  1  0.61285210  0.49936978  0.12205425  1
  O  O294  1  0.60318571  0.50619058  0.38200066  1
  O  O295  1  0.61472860  0.51028054  0.59706583  1
  O  O296  1  0.66267894  0.50147472  0.87423132  1
  O  O297  1  0.64134839  0.75838296  0.14194919  1
  O  O298  1  0.65938951  0.77359390  0.36087349  1
  O  O299  1  0.64915325  0.75289334  0.64045384  1
  O  O300  1  0.61573463  0.74937956  0.86345794  1
  O  O301  1  0.89190024  0.00005384  0.10364725  1
  O  O302  1  0.90578591  0.00781367  0.38509832  1
  O  O303  1  0.89115308  0.00040186  0.61517296  1
  O  O304  1  0.87586787  -0.00305440  0.89371253  1
  O  O305  1  0.82906275  0.23840255  0.11772645  1
  O  O306  1  0.83849481  0.24472582  0.38337727  1
  O  O307  1  0.87225531  0.25015872  0.66629008  1
  O  O308  1  0.90219473  0.23632287  0.85841198  1
  O  O309  1  0.88707616  0.49329365  0.16374087  1
  O  O310  1  0.88130040  0.50461634  0.36429347  1
  O  O311  1  0.91063706  0.51386125  0.61177032  1
  O  O312  1  0.83891183  0.51230222  0.88535476  1
  O  O313  1  0.85694839  0.76640198  0.14823886  1
  O  O314  1  0.84378763  0.77653385  0.36423876  1
  O  O315  1  0.85946919  0.75206481  0.64370919  1
  O  O316  1  0.88924356  0.75030703  0.86271483  1
