# generated using pymatgen
data_Mg32Ti42(Bi17O64)3
_symmetry_space_group_name_H-M   'P 1'
_cell_length_a   15.97540262
_cell_length_b   15.97270458
_cell_length_c   15.93573513
_cell_angle_alpha   90.03399522
_cell_angle_beta   89.94446749
_cell_angle_gamma   90.10488269
_symmetry_Int_Tables_number   1
_chemical_formula_structural   Mg32Ti42(Bi17O64)3
_chemical_formula_sum   'Mg32 Ti42 Bi51 O192'
_cell_volume   4066.31825952
_cell_formula_units_Z   1
loop_
 _symmetry_equiv_pos_site_id
 _symmetry_equiv_pos_as_xyz
  1  'x, y, z'
loop_
 _atom_site_type_symbol
 _atom_site_label
 _atom_site_symmetry_multiplicity
 _atom_site_fract_x
 _atom_site_fract_y
 _atom_site_fract_z
 _atom_site_occupancy
  Mg  Mg0  1  0.87215377  0.62897827  0.36741013  1
  Mg  Mg1  1  0.62571503  0.62304686  0.37106449  1
  Mg  Mg2  1  0.63444554  0.37560132  0.62091302  1
  Mg  Mg3  1  0.12501119  0.12998447  0.37517854  1
  Mg  Mg4  1  0.62565759  0.13155502  0.11861194  1
  Mg  Mg5  1  0.62266632  0.11432541  0.37752718  1
  Mg  Mg6  1  0.12991127  0.14240267  0.11528620  1
  Mg  Mg7  1  0.37292466  0.86230046  0.11977687  1
  Mg  Mg8  1  0.37377789  0.87007421  0.38192853  1
  Mg  Mg9  1  0.88273967  0.36072778  0.38704935  1
  Mg  Mg10  1  0.88727759  0.87769517  0.37722059  1
  Mg  Mg11  1  0.13300124  0.62459218  0.13410225  1
  Mg  Mg12  1  0.62537022  0.86850446  0.12602490  1
  Mg  Mg13  1  0.37343170  0.37129806  0.37912678  1
  Mg  Mg14  1  0.62842981  0.86136875  0.62946930  1
  Mg  Mg15  1  0.13427257  0.87511307  0.38596059  1
  Mg  Mg16  1  0.12944329  0.12697736  0.62827342  1
  Mg  Mg17  1  0.12815299  0.61862445  0.37835184  1
  Mg  Mg18  1  0.87284746  0.11834130  0.63119174  1
  Mg  Mg19  1  0.77882947  0.29353312  0.75638042  1
  Mg  Mg20  1  0.22217329  0.70932679  0.50934918  1
  Mg  Mg21  1  0.23363066  0.26893484  0.49771474  1
  Mg  Mg22  1  0.57288132  0.77160586  0.79421035  1
  Mg  Mg23  1  0.29152418  0.50356912  0.28859156  1
  Mg  Mg24  1  -0.03581263  0.31346474  0.03807606  1
  Mg  Mg25  1  0.04114807  0.74961659  -0.03251342  1
  Mg  Mg26  1  0.27569080  -0.03369551  0.50258233  1
  Mg  Mg27  1  0.49698092  -0.06091786  0.74764893  1
  Mg  Mg28  1  0.01537258  0.77072829  0.77639360  1
  Mg  Mg29  1  0.80937091  0.45171826  0.25345396  1
  Mg  Mg30  1  0.01364016  0.57904572  0.79440201  1
  Mg  Mg31  1  -0.01574993  0.51375603  0.42828175  1
  Ti  Ti32  1  0.89770936  0.38541953  0.87623425  1
  Ti  Ti33  1  0.12933019  0.86564936  0.12237695  1
  Ti  Ti34  1  0.36601690  0.13314694  0.38372936  1
  Ti  Ti35  1  0.86436802  0.11957235  0.86900877  1
  Ti  Ti36  1  0.13454855  0.87480672  0.62855948  1
  Ti  Ti37  1  0.62058923  0.13023619  0.87752944  1
  Ti  Ti38  1  0.13306177  0.89089094  0.87198406  1
  Ti  Ti39  1  0.11363129  0.38288342  0.38370983  1
  Ti  Ti40  1  0.61792393  0.88014676  0.36984582  1
  Ti  Ti41  1  0.62090291  0.37926013  0.14519357  1
  Ti  Ti42  1  0.88035302  0.12326607  0.37768013  1
  Ti  Ti43  1  0.36831803  0.63318714  0.39143388  1
  Ti  Ti44  1  0.13219288  0.38452961  0.10731321  1
  Ti  Ti45  1  0.87370738  0.87478923  0.61378687  1
  Ti  Ti46  1  0.11812276  0.60544786  0.62513659  1
  Ti  Ti47  1  0.88425881  0.87729395  0.88298426  1
  Ti  Ti48  1  0.39019160  0.62556175  0.86087775  1
  Ti  Ti49  1  0.38368339  0.12508048  0.87080581  1
  Ti  Ti50  1  0.36874083  0.13144962  0.12809173  1
  Ti  Ti51  1  0.36674598  0.85974176  0.62380906  1
  Ti  Ti52  1  0.11655564  0.38189634  0.86220514  1
  Ti  Ti53  1  0.12145840  0.37115605  0.62569678  1
  Ti  Ti54  1  0.36560792  0.86280698  0.86565837  1
  Ti  Ti55  1  0.37131030  0.36098404  0.62113674  1
  Ti  Ti56  1  0.63718793  0.62776826  0.63367084  1
  Ti  Ti57  1  0.87356223  0.12498094  0.10548322  1
  Ti  Ti58  1  0.88534113  0.37234045  0.62724800  1
  Ti  Ti59  1  0.37905948  0.63044809  0.62562439  1
  Ti  Ti60  1  0.63766504  0.61477009  0.87477419  1
  Ti  Ti61  1  0.36562756  0.38482863  0.13418282  1
  Ti  Ti62  1  0.36864366  0.62200825  0.13016144  1
  Ti  Ti63  1  0.88961452  0.63151547  0.12556026  1
  Ti  Ti64  1  0.87781412  0.87936364  0.12096615  1
  Ti  Ti65  1  0.11593206  0.12981452  0.88132018  1
  Ti  Ti66  1  0.62324312  0.62580900  0.13201939  1
  Ti  Ti67  1  0.38773056  0.37100050  0.86609792  1
  Ti  Ti68  1  0.86750176  0.62579138  0.88731242  1
  Ti  Ti69  1  0.63720318  0.11586332  0.62561709  1
  Ti  Ti70  1  0.62641589  0.37226425  0.37621203  1
  Ti  Ti71  1  0.88465110  0.61732950  0.61276883  1
  Ti  Ti72  1  0.62460069  0.38086718  0.87454835  1
  Ti  Ti73  1  0.36308380  0.13371137  0.60273383  1
  Bi  Bi74  1  0.77445583  0.24225703  0.51680017  1
  Bi  Bi75  1  0.02651762  0.02723568  0.24170652  1
  Bi  Bi76  1  0.74607197  0.74471259  0.47065081  1
  Bi  Bi77  1  0.48375087  0.76780126  0.25542612  1
  Bi  Bi78  1  0.25690507  -0.00131466  0.27599224  1
  Bi  Bi79  1  0.51680840  0.49238383  0.71903323  1
  Bi  Bi80  1  0.00833062  0.75069606  0.51029821  1
  Bi  Bi81  1  0.75497850  -0.00871455  0.46484010  1
  Bi  Bi82  1  0.00714326  0.25173307  0.22522134  1
  Bi  Bi83  1  0.77822597  0.49747467  0.73708963  1
  Bi  Bi84  1  0.50652170  -0.03624374  -0.02820760  1
  Bi  Bi85  1  0.25653383  0.48533811  0.48787791  1
  Bi  Bi86  1  0.50745289  0.50323401  0.01514472  1
  Bi  Bi87  1  0.02640553  0.00480311  0.01646883  1
  Bi  Bi88  1  0.78745955  0.76206853  0.74789923  1
  Bi  Bi89  1  0.50079435  0.73336255  -0.00087030  1
  Bi  Bi90  1  0.75438408  0.02809553  0.23097536  1
  Bi  Bi91  1  0.23092524  0.71219627  -0.00926164  1
  Bi  Bi92  1  0.53748233  0.24319473  0.50038198  1
  Bi  Bi93  1  0.21879696  0.71683521  0.76792583  1
  Bi  Bi94  1  0.01816448  0.22626131  0.51113571  1
  Bi  Bi95  1  0.23917692  0.24870461  0.26940796  1
  Bi  Bi96  1  0.00592202  0.74071872  0.28269457  1
  Bi  Bi97  1  0.53367535  0.24054908  0.74775690  1
  Bi  Bi98  1  0.76342660  0.50057979  0.45898909  1
  Bi  Bi99  1  -0.00716336  0.22733182  0.75225661  1
  Bi  Bi100  1  0.23197729  0.74888150  0.27955902  1
  Bi  Bi101  1  0.03201992  -0.00577265  0.51232482  1
  Bi  Bi102  1  0.72025109  -0.00954912  -0.00265218  1
  Bi  Bi103  1  0.51117270  0.21518112  0.26156558  1
  Bi  Bi104  1  0.02534349  0.53670321  -0.01485663  1
  Bi  Bi105  1  0.77077937  0.49627994  0.04896307  1
  Bi  Bi106  1  0.75403886  0.26976546  -0.03421023  1
  Bi  Bi107  1  0.74492594  0.76606865  -0.00191170  1
  Bi  Bi108  1  0.50298138  0.48933923  0.48970935  1
  Bi  Bi109  1  0.79037255  0.26124113  0.23729581  1
  Bi  Bi110  1  0.27846645  0.01601598  0.73848705  1
  Bi  Bi111  1  0.52816423  0.74721917  0.48890498  1
  Bi  Bi112  1  0.26620365  0.49264133  -0.02971714  1
  Bi  Bi113  1  0.23505669  0.23595406  0.76397203  1
  Bi  Bi114  1  -0.01071642  -0.01046957  0.74493293  1
  Bi  Bi115  1  0.26695434  0.49062348  0.73158092  1
  Bi  Bi116  1  0.49931958  0.51929459  0.26233463  1
  Bi  Bi117  1  0.50099227  0.25454911  0.03376989  1
  Bi  Bi118  1  0.70959594  -0.02403604  0.76311117  1
  Bi  Bi119  1  0.26234160  0.25453589  -0.00656154  1
  Bi  Bi120  1  0.27378628  -0.01838030  0.00648161  1
  Bi  Bi121  1  0.78352578  0.76478964  0.24209320  1
  Bi  Bi122  1  0.01908959  0.48367477  0.22440656  1
  Bi  Bi123  1  0.50228100  -0.00657799  0.52411197  1
  Bi  Bi124  1  0.49784073  -0.00979343  0.20409870  1
  O  O125  1  0.13531461  0.10245926  -0.00448816  1
  O  O126  1  0.10405439  0.14449996  0.24196404  1
  O  O127  1  0.10695236  0.11210750  0.49994762  1
  O  O128  1  0.11418321  0.15612091  0.75498568  1
  O  O129  1  0.14820952  0.40135269  -0.00546925  1
  O  O130  1  0.09219252  0.35959443  0.26010546  1
  O  O131  1  0.14672122  0.39805792  0.50727540  1
  O  O132  1  0.10781752  0.34281270  0.75106304  1
  O  O133  1  0.14859177  0.60194531  0.00559902  1
  O  O134  1  0.11583973  0.66064780  0.25450787  1
  O  O135  1  0.14536659  0.60584956  0.51127370  1
  O  O136  1  0.08993474  0.66566179  0.74351244  1
  O  O137  1  0.13118825  0.91083518  -0.01030651  1
  O  O138  1  0.11744002  0.83890499  0.23394333  1
  O  O139  1  0.15315987  0.92403933  0.50538383  1
  O  O140  1  0.10359347  0.85737443  0.74699174  1
  O  O141  1  0.35628537  0.15194517  -0.00159211  1
  O  O142  1  0.39551258  0.11331632  0.24703073  1
  O  O143  1  0.32528751  0.16556932  0.49596627  1
  O  O144  1  0.39199563  0.09942401  0.75585020  1
  O  O145  1  0.34757708  0.37136514  -0.01488881  1
  O  O146  1  0.37448332  0.41317605  0.24471241  1
  O  O147  1  0.32878532  0.35765534  0.50741010  1
  O  O148  1  0.38116308  0.39658534  0.74785122  1
  O  O149  1  0.39570667  0.64064347  -0.00471883  1
  O  O150  1  0.37505932  0.59475824  0.24545577  1
  O  O151  1  0.33927784  0.65474086  0.50314637  1
  O  O152  1  0.38386523  0.60833021  0.74603310  1
  O  O153  1  0.36086009  0.87309406  -0.01030522  1
  O  O154  1  0.40772986  0.88466955  0.24603756  1
  O  O155  1  0.34862440  0.86432776  0.50886504  1
  O  O156  1  0.37831727  0.90641662  0.75117646  1
  O  O157  1  0.64457775  0.14675567  -0.01163091  1
  O  O158  1  0.59990429  0.11067638  0.25073296  1
  O  O159  1  0.63606178  0.14679631  0.50213547  1
  O  O160  1  0.59892004  0.11177869  0.74152840  1
  O  O161  1  0.63683507  0.34686624  -0.01037632  1
  O  O162  1  0.58886137  0.39664191  0.25304056  1
  O  O163  1  0.64512222  0.35022019  0.49433392  1
  O  O164  1  0.59309585  0.38142211  0.75029782  1
  O  O165  1  0.59286830  0.62758087  -0.00369486  1
  O  O166  1  0.61329935  0.60663705  0.24673624  1
  O  O167  1  0.63493126  0.65194770  0.51755677  1
  O  O168  1  0.62055500  0.58683754  0.75969118  1
  O  O169  1  0.65040385  0.87158381  -0.00351871  1
  O  O170  1  0.59371268  0.88652116  0.25407350  1
  O  O171  1  0.63304461  0.84184265  0.50669492  1
  O  O172  1  0.60619058  0.88726636  0.75032734  1
  O  O173  1  0.86085364  0.12198113  -0.00762643  1
  O  O174  1  0.86917869  0.12007904  0.25277317  1
  O  O175  1  0.87536439  0.14330453  0.50355996  1
  O  O176  1  0.90712847  0.10877238  0.75541627  1
  O  O177  1  0.85539557  0.36385618  -0.01029191  1
  O  O178  1  0.89005995  0.35333617  0.25927947  1
  O  O179  1  0.84895761  0.36660406  0.51317447  1
  O  O180  1  0.88665504  0.37264840  0.75926868  1
  O  O181  1  0.87267653  0.59589928  0.00796647  1
  O  O182  1  0.88449812  0.65641539  0.24343843  1
  O  O183  1  0.87490955  0.59117139  0.50157691  1
  O  O184  1  0.89292434  0.62375736  0.76859113  1
  O  O185  1  0.83893646  0.87744838  -0.00526753  1
  O  O186  1  0.88601997  0.86142475  0.24204960  1
  O  O187  1  0.84445837  0.87340412  0.50421248  1
  O  O188  1  0.90805945  0.83734207  0.75194300  1
  O  O189  1  -0.00765355  0.10579891  0.11753725  1
  O  O190  1  -0.00646603  0.14477381  0.37077736  1
  O  O191  1  0.00046813  0.15664876  0.62746352  1
  O  O192  1  0.00413204  0.14910653  0.88364910  1
  O  O193  1  0.01078436  0.40780148  0.10585146  1
  O  O194  1  0.00270655  0.37679651  0.41755449  1
  O  O195  1  0.00049058  0.35289492  0.61412798  1
  O  O196  1  0.00214243  0.34531504  0.90962883  1
  O  O197  1  0.00306300  0.61238238  0.11703243  1
  O  O198  1  -0.00092829  0.64210401  0.38788203  1
  O  O199  1  0.00011280  0.62560149  0.61092203  1
  O  O200  1  -0.00419441  0.64715024  0.90538765  1
  O  O201  1  -0.00780832  0.88488414  0.09663947  1
  O  O202  1  0.01106460  0.84424227  0.39995432  1
  O  O203  1  -0.00123079  0.86291316  0.59413761  1
  O  O204  1  -0.00081754  0.84015188  0.89089329  1
  O  O205  1  0.25399879  0.15701415  0.14260500  1
  O  O206  1  0.24738458  0.12828465  0.33736551  1
  O  O207  1  0.25227674  0.13306912  0.65730026  1
  O  O208  1  0.25416621  0.11733739  0.84765671  1
  O  O209  1  0.24814279  0.35608448  0.13122119  1
  O  O210  1  0.24167783  0.41376686  0.36365290  1
  O  O211  1  0.24479993  0.37805568  0.65280221  1
  O  O212  1  0.23750838  0.40560664  0.85336527  1
  O  O213  1  0.25843250  0.65197894  0.12710589  1
  O  O214  1  0.25576444  0.60440236  0.35898253  1
  O  O215  1  0.23421135  0.63188565  0.65499037  1
  O  O216  1  0.26083956  0.62172678  0.86444014  1
  O  O217  1  0.24487669  0.88056546  0.11884019  1
  O  O218  1  0.25362623  0.87948756  0.34296698  1
  O  O219  1  0.24544739  0.88398066  0.64798812  1
  O  O220  1  0.24734116  0.90613559  0.86231244  1
  O  O221  1  0.49432105  0.13137507  0.10563217  1
  O  O222  1  0.48324307  0.14236005  0.39332011  1
  O  O223  1  0.48201082  0.12090134  0.58624892  1
  O  O224  1  0.50196676  0.14899939  0.88496052  1
  O  O225  1  0.49166160  0.38919746  0.10127036  1
  O  O226  1  0.49772854  0.37578653  0.40850160  1
  O  O227  1  0.48493043  0.38566279  0.60343126  1
  O  O228  1  0.49663942  0.35025512  0.88313372  1
  O  O229  1  0.49656129  0.58371072  0.13251320  1
  O  O230  1  0.49383915  0.63547334  0.39053101  1
  O  O231  1  0.48953252  0.62554052  0.61066753  1
  O  O232  1  0.50204592  0.67363198  0.86142899  1
  O  O233  1  0.49943440  0.89192932  0.09924864  1
  O  O234  1  0.49951727  0.85044719  0.39449675  1
  O  O235  1  0.48411114  0.89090117  0.62381049  1
  O  O236  1  0.48843334  0.86746935  0.87074041  1
  O  O237  1  0.75291143  0.13554730  0.14055152  1
  O  O238  1  0.74701818  0.09034790  0.36574247  1
  O  O239  1  0.74656866  0.10936582  0.63676243  1
  O  O240  1  0.75374431  0.09686883  0.85651112  1
  O  O241  1  0.73729598  0.38252946  0.15940927  1
  O  O242  1  0.73974016  0.39690133  0.34972909  1
  O  O243  1  0.75080034  0.38423153  0.66515001  1
  O  O244  1  0.74461102  0.37435324  0.85884571  1
  O  O245  1  0.73672672  0.62492068  0.10876014  1
  O  O246  1  0.74849182  0.61725695  0.38821511  1
  O  O247  1  0.75284355  0.60706011  0.64387400  1
  O  O248  1  0.75104736  0.58858939  0.88949021  1
  O  O249  1  0.75071920  0.86217469  0.14250521  1
  O  O250  1  0.73979779  0.89618554  0.36459492  1
  O  O251  1  0.75964368  0.87218477  0.65916646  1
  O  O252  1  0.77002712  0.87888398  0.83775274  1
  O  O253  1  0.11180201  -0.00567223  0.13657243  1
  O  O254  1  0.12732174  0.00023392  0.33645139  1
  O  O255  1  0.09447751  -0.00097691  0.63976359  1
  O  O256  1  0.10004227  0.00472132  0.85041508  1
  O  O257  1  0.08598585  0.26563768  0.10569494  1
  O  O258  1  0.15581945  0.26189548  0.39477167  1
  O  O259  1  0.14187652  0.25728238  0.58867802  1
  O  O260  1  0.15734073  0.24892529  0.88977391  1
  O  O261  1  0.13960550  0.49467073  0.15968154  1
  O  O262  1  0.09063907  0.49933049  0.36068548  1
  O  O263  1  0.12217458  0.49545691  0.65433262  1
  O  O264  1  0.08278535  0.49041136  0.85105802  1
  O  O265  1  0.11731981  0.75726610  0.06985984  1
  O  O266  1  0.16709669  0.74744582  0.40100754  1
  O  O267  1  0.13295104  0.76425323  0.58332897  1
  O  O268  1  0.14397382  0.76529825  0.89087379  1
  O  O269  1  0.36420041  0.01265857  0.11191231  1
  O  O270  1  0.34400394  0.01196977  0.39758166  1
  O  O271  1  0.34719767  0.01448580  0.59829005  1
  O  O272  1  0.38543292  0.01197569  0.90540712  1
  O  O273  1  0.39305185  0.26327787  0.12930458  1
  O  O274  1  0.35559080  0.25171946  0.34535180  1
  O  O275  1  0.37961567  0.25022108  0.64472247  1
  O  O276  1  0.34887891  0.25652826  0.86425896  1
  O  O277  1  0.35227100  0.50066559  0.09418580  1
  O  O278  1  0.38399240  0.50634740  0.39900189  1
  O  O279  1  0.35394671  0.50834553  0.61112379  1
  O  O280  1  0.39044783  0.50514650  0.88496553  1
  O  O281  1  0.40859872  0.73871050  0.13689741  1
  O  O282  1  0.36932981  0.74283210  0.34556690  1
  O  O283  1  0.36578827  0.74999951  0.64568591  1
  O  O284  1  0.35145672  0.75342896  0.85648139  1
  O  O285  1  0.63870188  0.00331090  0.10934579  1
  O  O286  1  0.60743549  -0.00976502  0.41152638  1
  O  O287  1  0.61441176  -0.00037035  0.60308378  1
  O  O288  1  0.62147276  0.00797253  0.88590943  1
  O  O289  1  0.60025193  0.26022475  0.13874881  1
  O  O290  1  0.61184746  0.25381783  0.35902074  1
  O  O291  1  0.61183275  0.24494399  0.63373313  1
  O  O292  1  0.64537266  0.24459781  0.83593585  1
  O  O293  1  0.62725855  0.49232716  0.09620547  1
  O  O294  1  0.61169222  0.49767645  0.40105095  1
  O  O295  1  0.60831344  0.50335819  0.61529236  1
  O  O296  1  0.60419813  0.49104202  0.89506625  1
  O  O297  1  0.59881669  0.73920220  0.12633602  1
  O  O298  1  0.63643437  0.75181194  0.37575417  1
  O  O299  1  0.62126173  0.73592712  0.67505857  1
  O  O300  1  0.66230906  0.72866421  0.86917052  1
  O  O301  1  0.85684087  -0.00204782  0.12512846  1
  O  O302  1  0.88525579  0.00331192  0.39852955  1
  O  O303  1  0.89560204  -0.01126424  0.63003434  1
  O  O304  1  0.90362431  -0.00991653  0.87568926  1
  O  O305  1  0.89043396  0.24221269  0.12148151  1
  O  O306  1  0.83468692  0.24125583  0.37963044  1
  O  O307  1  0.84919042  0.25436718  0.64589556  1
  O  O308  1  0.84852475  0.23742870  0.85438023  1
  O  O309  1  0.85407298  0.51542577  0.15583604  1
  O  O310  1  0.87423878  0.49511062  0.36505906  1
  O  O311  1  0.87983948  0.49399427  0.64324988  1
  O  O312  1  0.90825727  0.49718983  0.87822296  1
  O  O313  1  0.86405466  0.74871777  0.10907959  1
  O  O314  1  0.85084169  0.75590097  0.37380328  1
  O  O315  1  0.86553396  0.73605985  0.61345454  1
  O  O316  1  0.84647328  0.74057904  0.89270216  1
