# generated using pymatgen
data_Mg32Ti42(Bi17O64)3
_symmetry_space_group_name_H-M   'P 1'
_cell_length_a   15.94326402
_cell_length_b   16.01465060
_cell_length_c   15.94904224
_cell_angle_alpha   90.08051633
_cell_angle_beta   89.96346507
_cell_angle_gamma   90.11294303
_symmetry_Int_Tables_number   1
_chemical_formula_structural   Mg32Ti42(Bi17O64)3
_chemical_formula_sum   'Mg32 Ti42 Bi51 O192'
_cell_volume   4072.18925976
_cell_formula_units_Z   1
loop_
 _symmetry_equiv_pos_site_id
 _symmetry_equiv_pos_as_xyz
  1  'x, y, z'
loop_
 _atom_site_type_symbol
 _atom_site_label
 _atom_site_symmetry_multiplicity
 _atom_site_fract_x
 _atom_site_fract_y
 _atom_site_fract_z
 _atom_site_occupancy
  Mg  Mg0  1  0.11596996  0.62917056  0.63156051  1
  Mg  Mg1  1  0.62136460  0.62164992  0.87726604  1
  Mg  Mg2  1  0.37398181  0.12817428  0.12569756  1
  Mg  Mg3  1  0.12384718  0.62763741  0.11994052  1
  Mg  Mg4  1  0.13171024  0.11693097  0.87974279  1
  Mg  Mg5  1  0.62635707  0.62222932  0.38413794  1
  Mg  Mg6  1  0.87935337  0.88649984  0.87802235  1
  Mg  Mg7  1  0.37147273  0.87196220  0.12803221  1
  Mg  Mg8  1  0.12273071  0.12095528  0.63663689  1
  Mg  Mg9  1  0.62912857  0.88625166  0.86821977  1
  Mg  Mg10  1  0.86000074  0.38404322  0.13285250  1
  Mg  Mg11  1  0.36712883  0.12566001  0.62550101  1
  Mg  Mg12  1  0.88006050  0.11918074  0.62425059  1
  Mg  Mg13  1  0.37348528  0.37177478  0.88156349  1
  Mg  Mg14  1  0.86190807  0.14473470  0.87836316  1
  Mg  Mg15  1  0.12503074  0.87852475  0.61906193  1
  Mg  Mg16  1  0.12872894  0.37740917  0.86754293  1
  Mg  Mg17  1  0.37958579  0.63155795  0.37529462  1
  Mg  Mg18  1  0.61682230  0.11585025  0.14003231  1
  Mg  Mg19  1  -0.07348669  0.06042168  0.01863286  1
  Mg  Mg20  1  0.75280506  0.20721977  0.06667566  1
  Mg  Mg21  1  0.53735233  0.70988619  0.24894401  1
  Mg  Mg22  1  0.19146114  0.05005007  0.47029105  1
  Mg  Mg23  1  0.75010683  0.41749043  -0.01012226  1
  Mg  Mg24  1  0.24142085  0.08060349  0.25881213  1
  Mg  Mg25  1  -0.01065267  0.04059223  0.81911952  1
  Mg  Mg26  1  0.78881013  0.20284520  0.24546821  1
  Mg  Mg27  1  -0.00530805  0.79079508  0.49512268  1
  Mg  Mg28  1  0.76903472  0.21962959  0.72987182  1
  Mg  Mg29  1  0.74264252  0.79693349  0.73124708  1
  Mg  Mg30  1  0.15904474  0.25607499  0.00067539  1
  Mg  Mg31  1  -0.07580650  0.24064253  0.04041242  1
  Ti  Ti32  1  0.87639812  0.61973712  0.11440822  1
  Ti  Ti33  1  0.37155064  0.87581244  0.87762642  1
  Ti  Ti34  1  0.11974415  0.37475242  0.62955232  1
  Ti  Ti35  1  0.87399671  0.87028108  0.11296796  1
  Ti  Ti36  1  0.62797491  0.88371361  0.36035331  1
  Ti  Ti37  1  0.10803588  0.12434438  0.11404819  1
  Ti  Ti38  1  0.63103079  0.37165283  0.12690891  1
  Ti  Ti39  1  0.37514967  0.63028759  0.89255862  1
  Ti  Ti40  1  0.11118616  0.38475023  0.38098523  1
  Ti  Ti41  1  0.62828220  0.13245779  0.85815509  1
  Ti  Ti42  1  0.86851620  0.61278650  0.86767381  1
  Ti  Ti43  1  0.37666941  0.12639322  0.88201139  1
  Ti  Ti44  1  0.63108134  0.63408160  0.62655380  1
  Ti  Ti45  1  0.63031552  0.38217305  0.62435163  1
  Ti  Ti46  1  0.87372977  0.63508404  0.63594332  1
  Ti  Ti47  1  0.37340553  0.63311477  0.62859455  1
  Ti  Ti48  1  0.36445604  0.37603583  0.62769354  1
  Ti  Ti49  1  0.12430930  0.62567817  0.87980879  1
  Ti  Ti50  1  0.12618527  0.86876004  0.37049095  1
  Ti  Ti51  1  0.37534848  0.12503171  0.38056456  1
  Ti  Ti52  1  0.62438342  0.87396962  0.12365144  1
  Ti  Ti53  1  0.11772073  0.88328897  0.87882547  1
  Ti  Ti54  1  0.61228393  0.37179677  0.87198519  1
  Ti  Ti55  1  0.87056393  0.38324015  0.37975357  1
  Ti  Ti56  1  0.37899867  0.36042142  0.12617814  1
  Ti  Ti57  1  0.87510570  0.12996074  0.37911197  1
  Ti  Ti58  1  0.36889208  0.87372996  0.62603982  1
  Ti  Ti59  1  0.87762293  0.87358267  0.36410284  1
  Ti  Ti60  1  0.88279246  0.62567334  0.37088627  1
  Ti  Ti61  1  0.86715157  0.36015005  0.87027670  1
  Ti  Ti62  1  0.62424633  0.62336380  0.11064772  1
  Ti  Ti63  1  0.87580737  0.88016388  0.62376837  1
  Ti  Ti64  1  0.11585510  0.63529564  0.37571474  1
  Ti  Ti65  1  0.39060018  0.63598600  0.12474578  1
  Ti  Ti66  1  0.87538209  0.37416367  0.62552783  1
  Ti  Ti67  1  0.12477649  0.88646061  0.12753705  1
  Ti  Ti68  1  0.62682584  0.88776568  0.61673252  1
  Ti  Ti69  1  0.62602816  0.12364368  0.36433356  1
  Ti  Ti70  1  0.37777511  0.38574527  0.37561809  1
  Ti  Ti71  1  0.63196769  0.12687341  0.62164576  1
  Ti  Ti72  1  0.63747837  0.37349683  0.38359226  1
  Ti  Ti73  1  0.36274965  0.87212597  0.37304508  1
  Bi  Bi74  1  0.21032017  0.29335973  0.22896402  1
  Bi  Bi75  1  0.02618025  0.02069615  0.28403243  1
  Bi  Bi76  1  0.76057593  0.75441262  0.47453056  1
  Bi  Bi77  1  0.74400378  0.75817130  -0.05109619  1
  Bi  Bi78  1  -0.02405699  0.74189676  -0.02244375  1
  Bi  Bi79  1  0.48822566  0.50834221  0.24955057  1
  Bi  Bi80  1  0.48698608  0.52406979  0.51200646  1
  Bi  Bi81  1  -0.01180464  0.78121004  0.74709352  1
  Bi  Bi82  1  0.51941865  0.76979571  -0.02237326  1
  Bi  Bi83  1  0.49491741  0.47501289  0.01313673  1
  Bi  Bi84  1  0.75644648  0.52198280  0.51967576  1
  Bi  Bi85  1  0.01637296  0.23155653  0.78549297  1
  Bi  Bi86  1  0.72462363  0.52088444  0.26104985  1
  Bi  Bi87  1  0.52014172  0.77386913  0.73772393  1
  Bi  Bi88  1  0.50789101  0.27091458  0.27486877  1
  Bi  Bi89  1  0.23516790  0.52115272  0.26749469  1
  Bi  Bi90  1  0.48920340  0.52063965  0.77057396  1
  Bi  Bi91  1  0.23687764  0.51926018  0.51998566  1
  Bi  Bi92  1  0.25268112  0.50288804  0.77796313  1
  Bi  Bi93  1  0.49122188  0.25002289  0.72557790  1
  Bi  Bi94  1  -0.00435861  0.51183520  0.52043649  1
  Bi  Bi95  1  0.00715318  0.49836140  0.22646931  1
  Bi  Bi96  1  0.78736694  0.01487700  0.22812396  1
  Bi  Bi97  1  0.00203243  0.75315289  0.21720196  1
  Bi  Bi98  1  0.25095667  0.74207064  0.23340676  1
  Bi  Bi99  1  0.23270464  0.75982842  -0.00920157  1
  Bi  Bi100  1  0.47802022  0.25303305  0.50879931  1
  Bi  Bi101  1  0.23887758  0.47536920  0.03190721  1
  Bi  Bi102  1  0.25655279  0.25193180  0.78168857  1
  Bi  Bi103  1  0.74995866  0.74990450  0.23134110  1
  Bi  Bi104  1  -0.02728992  0.26819893  0.22792016  1
  Bi  Bi105  1  0.72828723  0.02390586  -0.00242040  1
  Bi  Bi106  1  0.48595784  0.00779556  0.75046994  1
  Bi  Bi107  1  0.47204810  -0.00011579  0.49149427  1
  Bi  Bi108  1  0.23626810  0.75580880  0.51286040  1
  Bi  Bi109  1  0.75039569  0.01099388  0.49301614  1
  Bi  Bi110  1  0.78177085  0.01461461  0.75923070  1
  Bi  Bi111  1  0.47858430  -0.00466236  0.01646786  1
  Bi  Bi112  1  -0.00897129  0.48503783  0.78132414  1
  Bi  Bi113  1  0.72108883  0.50016015  0.76802429  1
  Bi  Bi114  1  0.24136151  0.01334929  0.02914018  1
  Bi  Bi115  1  0.00479226  0.00877099  0.50892303  1
  Bi  Bi116  1  0.02858433  0.23923668  0.51468870  1
  Bi  Bi117  1  0.50959367  0.75786687  0.46818593  1
  Bi  Bi118  1  0.23383839  0.24984778  0.45615756  1
  Bi  Bi119  1  0.25702105  0.01019497  0.74424468  1
  Bi  Bi120  1  0.21769845  0.75242236  0.75251655  1
  Bi  Bi121  1  0.46907452  -0.00253725  0.25554042  1
  Bi  Bi122  1  0.01571573  0.44519134  0.01727810  1
  Bi  Bi123  1  0.75610019  0.25399525  0.52105863  1
  Bi  Bi124  1  0.53547991  0.22750271  0.00437071  1
  O  O125  1  0.15730491  0.13033391  0.00185731  1
  O  O126  1  0.11668125  0.10796667  0.23835538  1
  O  O127  1  0.14369367  0.15991123  0.50608427  1
  O  O128  1  0.08330913  0.11276242  0.75696776  1
  O  O129  1  0.14496624  0.37945407  -0.00522090  1
  O  O130  1  0.11599536  0.39056849  0.25770694  1
  O  O131  1  0.14229512  0.35176843  0.49752581  1
  O  O132  1  0.10807534  0.39332045  0.74082192  1
  O  O133  1  0.15913918  0.63939575  -0.00134767  1
  O  O134  1  0.11075523  0.59668808  0.25771289  1
  O  O135  1  0.16171238  0.63796859  0.49212610  1
  O  O136  1  0.11771480  0.64800126  0.75690391  1
  O  O137  1  0.13485776  0.85957787  0.00177740  1
  O  O138  1  0.10092988  0.89059860  0.25012822  1
  O  O139  1  0.12105230  0.83367038  0.48775607  1
  O  O140  1  0.11554786  0.85800586  0.75403428  1
  O  O141  1  0.36106027  0.09214203  -0.00687937  1
  O  O142  1  0.37548658  0.10625296  0.25891782  1
  O  O143  1  0.37472612  0.11289556  0.50110177  1
  O  O144  1  0.41321522  0.13230747  0.75245435  1
  O  O145  1  0.35941279  0.40026927  0.00834077  1
  O  O146  1  0.40633979  0.37024679  0.24735166  1
  O  O147  1  0.38116045  0.37541578  0.49566789  1
  O  O148  1  0.38807283  0.34897953  0.74153352  1
  O  O149  1  0.35841821  0.61429436  0.00547923  1
  O  O150  1  0.42759609  0.63900148  0.24884798  1
  O  O151  1  0.36287101  0.59909859  0.50600075  1
  O  O152  1  0.40525758  0.62984852  0.74169841  1
  O  O153  1  0.36718120  0.90019192  -0.00525930  1
  O  O154  1  0.38827523  0.87486520  0.26018985  1
  O  O155  1  0.37202405  0.89039044  0.50974794  1
  O  O156  1  0.40484970  0.85856109  0.75259926  1
  O  O157  1  0.65782657  0.14450680  -0.00696649  1
  O  O158  1  0.58881607  0.10707266  0.25894067  1
  O  O159  1  0.66117956  0.12795459  0.50551410  1
  O  O160  1  0.59716690  0.11342873  0.74803888  1
  O  O161  1  0.63158721  0.37907938  -0.00922518  1
  O  O162  1  0.61022099  0.37432241  0.24276823  1
  O  O163  1  0.64404558  0.35357156  0.49680534  1
  O  O164  1  0.62020164  0.38829954  0.74219106  1
  O  O165  1  0.64590964  0.64055367  0.00318507  1
  O  O166  1  0.61087570  0.60444102  0.25251371  1
  O  O167  1  0.65819369  0.63581065  0.50698862  1
  O  O168  1  0.60895524  0.60173852  0.74120519  1
  O  O169  1  0.64796267  0.84639852  0.00346636  1
  O  O170  1  0.61295289  0.89733338  0.24729680  1
  O  O171  1  0.64800808  0.85659068  0.50546670  1
  O  O172  1  0.61209429  0.87763770  0.74401432  1
  O  O173  1  0.84186377  0.15250347  0.00042114  1
  O  O174  1  0.89121942  0.09903933  0.25847631  1
  O  O175  1  0.83853754  0.12967737  0.49389050  1
  O  O176  1  0.89414955  0.09112169  0.74950403  1
  O  O177  1  0.85282966  0.34293080  -0.01321621  1
  O  O178  1  0.90540136  0.38536336  0.25544563  1
  O  O179  1  0.86431964  0.35027740  0.49291317  1
  O  O180  1  0.88862087  0.40077225  0.73934587  1
  O  O181  1  0.86519358  0.63805670  0.00286561  1
  O  O182  1  0.90721814  0.60782919  0.25986518  1
  O  O183  1  0.84504638  0.63727651  0.50625698  1
  O  O184  1  0.89411559  0.59870096  0.75046706  1
  O  O185  1  0.86248877  0.84228688  0.00078376  1
  O  O186  1  0.89015320  0.88534801  0.25208242  1
  O  O187  1  0.86841291  0.83784513  0.50732966  1
  O  O188  1  0.90115475  0.88945189  0.74605366  1
  O  O189  1  -0.00166502  0.14251964  0.08739622  1
  O  O190  1  -0.01024690  0.10994310  0.39845544  1
  O  O191  1  -0.00111522  0.12413328  0.58564854  1
  O  O192  1  -0.00855600  0.15204606  0.89300968  1
  O  O193  1  -0.01722569  0.34223477  0.10017681  1
  O  O194  1  0.00045852  0.37695166  0.39456041  1
  O  O195  1  -0.00187831  0.38186431  0.59725848  1
  O  O196  1  -0.00413225  0.36927048  0.87166033  1
  O  O197  1  -0.00421992  0.65314963  0.11761366  1
  O  O198  1  0.00283192  0.63869471  0.40902082  1
  O  O199  1  -0.01074489  0.63233600  0.60369436  1
  O  O200  1  0.00973685  0.62617234  0.89661186  1
  O  O201  1  -0.00503467  0.84827914  0.11568744  1
  O  O202  1  -0.00708811  0.86579966  0.39143973  1
  O  O203  1  -0.00432694  0.84314566  0.61312566  1
  O  O204  1  0.00404089  0.84809668  0.88157418  1
  O  O205  1  0.25037138  0.09357149  0.13699326  1
  O  O206  1  0.25591213  0.11412416  0.37881235  1
  O  O207  1  0.24769840  0.11329779  0.66074298  1
  O  O208  1  0.25779566  0.11285519  0.84344562  1
  O  O209  1  0.26427453  0.40361754  0.14682795  1
  O  O210  1  0.26421786  0.37448766  0.36128197  1
  O  O211  1  0.24964915  0.38925827  0.63103915  1
  O  O212  1  0.25275587  0.37621215  0.84411367  1
  O  O213  1  0.25954047  0.61547895  0.16432763  1
  O  O214  1  0.25357501  0.63351569  0.34354181  1
  O  O215  1  0.25920932  0.59934374  0.63677426  1
  O  O216  1  0.26121094  0.62878096  0.84895154  1
  O  O217  1  0.24057398  0.89016560  0.13261905  1
  O  O218  1  0.24629145  0.86629891  0.36891363  1
  O  O219  1  0.25688158  0.88291373  0.64348653  1
  O  O220  1  0.25284450  0.87422684  0.86791989  1
  O  O221  1  0.50138342  0.13288140  0.09423873  1
  O  O222  1  0.50718942  0.10778614  0.40202768  1
  O  O223  1  0.51683911  0.15627114  0.60984116  1
  O  O224  1  0.50313689  0.12794206  0.90173475  1
  O  O225  1  0.50148370  0.36439075  0.09798143  1
  O  O226  1  0.50930093  0.36518533  0.37767383  1
  O  O227  1  0.51623326  0.34264083  0.61200053  1
  O  O228  1  0.49862858  0.37587999  0.88807979  1
  O  O229  1  0.50523868  0.65225763  0.10419434  1
  O  O230  1  0.50382899  0.62470362  0.41174921  1
  O  O231  1  0.50669436  0.63229248  0.59774396  1
  O  O232  1  0.49322547  0.60951462  0.88601923  1
  O  O233  1  0.50960670  0.86463666  0.09573690  1
  O  O234  1  0.51066808  0.88931960  0.39991001  1
  O  O235  1  0.50929651  0.85169144  0.61758660  1
  O  O236  1  0.50209945  0.88052421  0.89760281  1
  O  O237  1  0.74044447  0.12177945  0.15883623  1
  O  O238  1  0.74924527  0.12588753  0.33983429  1
  O  O239  1  0.75222176  0.10124745  0.65559370  1
  O  O240  1  0.74435723  0.13350618  0.82800878  1
  O  O241  1  0.74113596  0.40892111  0.11593293  1
  O  O242  1  0.75509346  0.36821513  0.35681703  1
  O  O243  1  0.75467930  0.39183999  0.61950426  1
  O  O244  1  0.75257664  0.39494139  0.86556038  1
  O  O245  1  0.75182045  0.61742301  0.15334359  1
  O  O246  1  0.75701209  0.61986281  0.35113981  1
  O  O247  1  0.75043891  0.59569649  0.64041933  1
  O  O248  1  0.75442031  0.61252579  0.85679184  1
  O  O249  1  0.75168793  0.86418401  0.14543804  1
  O  O250  1  0.74762169  0.85354472  0.36266688  1
  O  O251  1  0.75353847  0.88859391  0.64443535  1
  O  O252  1  0.75555674  0.85340450  0.84776173  1
  O  O253  1  0.10556252  -0.00216029  0.10426457  1
  O  O254  1  0.11895905  -0.01303248  0.38923227  1
  O  O255  1  0.12665488  0.00054361  0.57468439  1
  O  O256  1  0.09984653  -0.00654197  0.87738531  1
  O  O257  1  0.13535331  0.24170545  0.12552834  1
  O  O258  1  0.13955508  0.26368820  0.35713086  1
  O  O259  1  0.10248253  0.25758985  0.63553486  1
  O  O260  1  0.14184528  0.24839434  0.86873024  1
  O  O261  1  0.09789849  0.50320311  0.11204929  1
  O  O262  1  0.13610254  0.50292069  0.39575547  1
  O  O263  1  0.11625679  0.50267376  0.59962875  1
  O  O264  1  0.13848270  0.50823585  0.86899058  1
  O  O265  1  0.13640501  0.75171825  0.15134032  1
  O  O266  1  0.12294443  0.74532080  0.34240794  1
  O  O267  1  0.15754670  0.74811365  0.62418310  1
  O  O268  1  0.14764236  0.74999553  0.88071067  1
  O  O269  1  0.40477021  -0.00368096  0.13276912  1
  O  O270  1  0.38506478  -0.00541080  0.38056289  1
  O  O271  1  0.38748293  -0.00380968  0.65141443  1
  O  O272  1  0.38107653  -0.00216948  0.84410637  1
  O  O273  1  0.35746391  0.25321393  0.12383216  1
  O  O274  1  0.39237628  0.24265192  0.37145511  1
  O  O275  1  0.38124752  0.25192330  0.61278572  1
  O  O276  1  0.35647323  0.24120076  0.88180517  1
  O  O277  1  0.40988569  0.51024152  0.13344158  1
  O  O278  1  0.38369655  0.49994899  0.35503478  1
  O  O279  1  0.40328107  0.48835886  0.63374875  1
  O  O280  1  0.36901075  0.50359185  0.85636396  1
  O  O281  1  0.35262684  0.74699298  0.12612195  1
  O  O282  1  0.38685684  0.75870530  0.39761103  1
  O  O283  1  0.35957736  0.74660316  0.61533776  1
  O  O284  1  0.38267350  0.75134757  0.89626596  1
  O  O285  1  0.62863241  -0.00793405  0.09509234  1
  O  O286  1  0.64978174  -0.00270881  0.39149341  1
  O  O287  1  0.61138067  0.00074631  0.61065524  1
  O  O288  1  0.64362854  0.01039490  0.88933559  1
  O  O289  1  0.64193854  0.25664579  0.11558413  1
  O  O290  1  0.61920542  0.24207187  0.36439462  1
  O  O291  1  0.66943660  0.24176814  0.64303817  1
  O  O292  1  0.62035629  0.25228612  0.85894473  1
  O  O293  1  0.59727486  0.50662351  0.11303727  1
  O  O294  1  0.63911199  0.49006940  0.38027208  1
  O  O295  1  0.61507798  0.49335938  0.59962897  1
  O  O296  1  0.62182835  0.49535687  0.86661700  1
  O  O297  1  0.62707843  0.74660848  0.15875744  1
  O  O298  1  0.59813822  0.75399022  0.35548896  1
  O  O299  1  0.64915874  0.74442252  0.65403236  1
  O  O300  1  0.61589701  0.74865451  0.86895548  1
  O  O301  1  0.86960584  -0.01361703  0.10742094  1
  O  O302  1  0.85526397  -0.01110331  0.39394073  1
  O  O303  1  0.88619229  -0.01045533  0.59630861  1
  O  O304  1  0.88889726  0.00921354  0.90332549  1
  O  O305  1  0.85138121  0.25689880  0.15192377  1
  O  O306  1  0.87827362  0.24168321  0.34183987  1
  O  O307  1  0.85304521  0.25258880  0.63415731  1
  O  O308  1  0.85730225  0.25777168  0.82209051  1
  O  O309  1  0.90505403  0.50441113  0.11622807  1
  O  O310  1  0.87376855  0.49895919  0.39708006  1
  O  O311  1  0.88020847  0.49886976  0.59605637  1
  O  O312  1  0.89274507  0.49705326  0.88732644  1
  O  O313  1  0.86624122  0.74345186  0.15232876  1
  O  O314  1  0.86857157  0.74375024  0.36819123  1
  O  O315  1  0.85018131  0.74411669  0.66606772  1
  O  O316  1  0.88567628  0.73343437  0.86825922  1
