# generated using pymatgen
data_Mg32Ti42(Bi17O64)3
_symmetry_space_group_name_H-M   'P 1'
_cell_length_a   15.93147512
_cell_length_b   15.93824417
_cell_length_c   15.96523801
_cell_angle_alpha   89.86591323
_cell_angle_beta   89.91412681
_cell_angle_gamma   90.23198263
_symmetry_Int_Tables_number   1
_chemical_formula_structural   Mg32Ti42(Bi17O64)3
_chemical_formula_sum   'Mg32 Ti42 Bi51 O192'
_cell_volume   4053.84015199
_cell_formula_units_Z   1
loop_
 _symmetry_equiv_pos_site_id
 _symmetry_equiv_pos_as_xyz
  1  'x, y, z'
loop_
 _atom_site_type_symbol
 _atom_site_label
 _atom_site_symmetry_multiplicity
 _atom_site_fract_x
 _atom_site_fract_y
 _atom_site_fract_z
 _atom_site_occupancy
  Mg  Mg0  1  0.87560235  0.62447122  0.62911657  1
  Mg  Mg1  1  0.37952884  0.11251660  0.38206041  1
  Mg  Mg2  1  0.61835107  0.86627454  0.62406638  1
  Mg  Mg3  1  0.61576618  0.62083248  0.87813844  1
  Mg  Mg4  1  0.37763781  0.36756335  0.36827370  1
  Mg  Mg5  1  0.62827853  0.62741255  0.37351493  1
  Mg  Mg6  1  0.37387270  0.13269132  0.11718477  1
  Mg  Mg7  1  0.62579639  0.11943018  0.87244732  1
  Mg  Mg8  1  0.12571810  0.37924314  0.61433413  1
  Mg  Mg9  1  0.87726722  0.12312956  0.87588619  1
  Mg  Mg10  1  0.62939928  0.87907333  0.11298569  1
  Mg  Mg11  1  0.12350876  0.87932106  0.12799826  1
  Mg  Mg12  1  0.61545297  0.13286962  0.61641393  1
  Mg  Mg13  1  0.87610859  0.87199108  0.11783852  1
  Mg  Mg14  1  0.86726611  0.38103321  0.37030421  1
  Mg  Mg15  1  0.35902147  0.62324851  0.37623354  1
  Mg  Mg16  1  0.13348724  0.87096897  0.88268131  1
  Mg  Mg17  1  0.86703249  0.12279513  0.61639938  1
  Mg  Mg18  1  0.37164651  0.62228792  0.12222240  1
  Mg  Mg19  1  0.20963474  0.80228841  0.53412209  1
  Mg  Mg20  1  0.28919995  0.24290893  0.48514211  1
  Mg  Mg21  1  0.29568094  0.70540317  -0.00657965  1
  Mg  Mg22  1  0.72346225  0.00867314  0.72906694  1
  Mg  Mg23  1  0.20043593  0.75240312  0.70698543  1
  Mg  Mg24  1  0.26708352  0.46917721  0.45819405  1
  Mg  Mg25  1  0.06536200  -0.02146973  0.54599398  1
  Mg  Mg26  1  0.25592993  0.20717205  0.30538670  1
  Mg  Mg27  1  0.50723396  -0.04273522  0.47990683  1
  Mg  Mg28  1  0.43304145  0.81146632  0.02844225  1
  Mg  Mg29  1  0.51949843  0.46609240  0.81264066  1
  Mg  Mg30  1  0.49213151  0.22514769  0.46092415  1
  Mg  Mg31  1  0.74812210  0.52907169  0.26744785  1
  Ti  Ti32  1  0.62425332  0.86516153  0.37672642  1
  Ti  Ti33  1  0.60635349  0.37853743  0.60842644  1
  Ti  Ti34  1  0.12775083  0.62274588  0.11880781  1
  Ti  Ti35  1  0.62200394  0.11344882  0.37744709  1
  Ti  Ti36  1  0.63822137  0.62098561  0.13079133  1
  Ti  Ti37  1  0.13520348  0.61345704  0.37416782  1
  Ti  Ti38  1  0.37004147  0.36900699  0.86473925  1
  Ti  Ti39  1  0.37541643  0.86018002  0.38227454  1
  Ti  Ti40  1  0.37231795  0.37263622  0.12943443  1
  Ti  Ti41  1  0.86839263  0.37264481  0.12534887  1
  Ti  Ti42  1  0.38016172  0.12732077  0.62162313  1
  Ti  Ti43  1  0.87578376  0.62696963  0.87205231  1
  Ti  Ti44  1  0.88186148  0.37710910  0.86771326  1
  Ti  Ti45  1  0.14101386  0.87527825  0.37251215  1
  Ti  Ti46  1  0.37835424  0.12303347  0.86244561  1
  Ti  Ti47  1  0.12939651  0.13262677  0.13771627  1
  Ti  Ti48  1  0.88830449  0.87933306  0.37886110  1
  Ti  Ti49  1  0.12200370  0.37708529  0.86440937  1
  Ti  Ti50  1  0.61737451  0.61588408  0.62267999  1
  Ti  Ti51  1  0.86894902  0.86945824  0.62952112  1
  Ti  Ti52  1  0.13876162  0.36087629  0.38738822  1
  Ti  Ti53  1  0.37320437  0.87231453  0.86922198  1
  Ti  Ti54  1  0.11818879  0.36570004  0.12550625  1
  Ti  Ti55  1  0.87148727  0.62410277  0.12294891  1
  Ti  Ti56  1  0.37581296  0.37396113  0.61796536  1
  Ti  Ti57  1  0.12430080  0.10476648  0.37443714  1
  Ti  Ti58  1  0.86066984  0.38049079  0.61981401  1
  Ti  Ti59  1  0.37639068  0.60573525  0.87215758  1
  Ti  Ti60  1  0.12446279  0.62308917  0.61422817  1
  Ti  Ti61  1  0.88792212  0.11587833  0.38351412  1
  Ti  Ti62  1  0.13411478  0.12888375  0.86297013  1
  Ti  Ti63  1  0.88329913  0.13264390  0.12221693  1
  Ti  Ti64  1  0.61461437  0.87629048  0.86365392  1
  Ti  Ti65  1  0.63583544  0.37319745  0.14074338  1
  Ti  Ti66  1  0.12954462  0.13415470  0.60877426  1
  Ti  Ti67  1  0.13436026  0.62722789  0.86925153  1
  Ti  Ti68  1  0.37855881  0.86007650  0.62700817  1
  Ti  Ti69  1  0.35969227  0.61969317  0.62998228  1
  Ti  Ti70  1  0.63066912  0.13365056  0.11864272  1
  Ti  Ti71  1  0.87713168  0.62773890  0.37407096  1
  Ti  Ti72  1  0.88208428  0.86981452  0.87656238  1
  Ti  Ti73  1  0.61339710  0.37133727  0.36497825  1
  Bi  Bi74  1  0.77898171  0.73908667  0.50950879  1
  Bi  Bi75  1  0.75531236  0.22076197  0.74043479  1
  Bi  Bi76  1  0.71124041  0.47542951  0.75384180  1
  Bi  Bi77  1  0.02219493  0.74178136  0.48553995  1
  Bi  Bi78  1  0.01270324  0.77743031  0.76731123  1
  Bi  Bi79  1  0.00385411  0.23383827  -0.02624235  1
  Bi  Bi80  1  -0.00778340  0.51254744  0.74639614  1
  Bi  Bi81  1  0.51280012  0.01239006  0.22552433  1
  Bi  Bi82  1  0.71782495  0.74541662  -0.02339033  1
  Bi  Bi83  1  0.24284116  0.48266689  0.73580839  1
  Bi  Bi84  1  0.25203480  0.26169319  -0.00015001  1
  Bi  Bi85  1  0.48252279  0.53789769  0.25202424  1
  Bi  Bi86  1  0.48567167  0.72687643  0.48319361  1
  Bi  Bi87  1  0.49036722  0.01122603  -0.00909909  1
  Bi  Bi88  1  -0.01675718  0.50658841  0.23950437  1
  Bi  Bi89  1  0.51302868  -0.00831552  0.71807225  1
  Bi  Bi90  1  -0.01436711  0.26405127  0.27039845  1
  Bi  Bi91  1  -0.00817482  -0.00996986  0.22531116  1
  Bi  Bi92  1  -0.01559000  0.50506052  0.50935340  1
  Bi  Bi93  1  -0.02112319  0.26899040  0.51153182  1
  Bi  Bi94  1  0.75609884  0.22462507  0.25806405  1
  Bi  Bi95  1  -0.00659979  0.22605264  0.73168688  1
  Bi  Bi96  1  0.73948999  -0.03408299  0.50495788  1
  Bi  Bi97  1  0.51252477  0.77077264  0.22163756  1
  Bi  Bi98  1  0.28127706  0.00174076  0.21781616  1
  Bi  Bi99  1  0.49805848  0.50720690  0.02950439  1
  Bi  Bi100  1  0.72269011  0.73074702  0.73806133  1
  Bi  Bi101  1  -0.01370634  0.51051775  -0.00984196  1
  Bi  Bi102  1  0.02211954  0.75637368  0.00600914  1
  Bi  Bi103  1  0.73510215  0.25463104  -0.03714744  1
  Bi  Bi104  1  0.46622492  0.23505018  0.25661701  1
  Bi  Bi105  1  0.25889781  0.24473998  0.72873467  1
  Bi  Bi106  1  0.53599990  0.25701609  0.75677225  1
  Bi  Bi107  1  0.48938650  0.71523550  0.74466903  1
  Bi  Bi108  1  0.76116551  0.00384963  0.22339089  1
  Bi  Bi109  1  0.76266721  0.77796652  0.23883487  1
  Bi  Bi110  1  -0.04220865  0.00346792  0.72936750  1
  Bi  Bi111  1  0.73310006  0.23147261  0.49052706  1
  Bi  Bi112  1  0.02793721  0.74727843  0.24074804  1
  Bi  Bi113  1  0.72474999  0.47012083  -0.01960612  1
  Bi  Bi114  1  0.21947968  0.48259693  0.24701456  1
  Bi  Bi115  1  0.49101731  0.51510906  0.48008315  1
  Bi  Bi116  1  0.24536831  0.48758657  -0.00294562  1
  Bi  Bi117  1  0.75517839  -0.02734252  -0.04016979  1
  Bi  Bi118  1  0.27772295  0.77824978  0.20650387  1
  Bi  Bi119  1  0.22586373  -0.04085033  0.72738619  1
  Bi  Bi120  1  0.03255094  0.00533246  -0.00837560  1
  Bi  Bi121  1  0.51560440  0.28257744  -0.01698502  1
  Bi  Bi122  1  0.73798984  0.48861214  0.46838905  1
  Bi  Bi123  1  0.26834616  0.00007250  -0.02648084  1
  Bi  Bi124  1  0.27291252  -0.00775673  0.49184876  1
  O  O125  1  0.10330405  0.12748400  0.01174209  1
  O  O126  1  0.14693149  0.14784018  0.25723676  1
  O  O127  1  0.10474495  0.09720406  0.49926570  1
  O  O128  1  0.14093382  0.14210063  0.74930470  1
  O  O129  1  0.15391120  0.37961382  0.00068615  1
  O  O130  1  0.12586243  0.37074222  0.24510888  1
  O  O131  1  0.15560229  0.40615266  0.49080352  1
  O  O132  1  0.10330982  0.38013766  0.75324979  1
  O  O133  1  0.09475043  0.62176441  0.00477027  1
  O  O134  1  0.13899070  0.65016856  0.25762795  1
  O  O135  1  0.10156675  0.61538734  0.49904628  1
  O  O136  1  0.13890301  0.64816522  0.75431426  1
  O  O137  1  0.09912779  0.88016441  0.00373278  1
  O  O138  1  0.13171036  0.84606361  0.25933624  1
  O  O139  1  0.14539565  0.90314542  0.49368993  1
  O  O140  1  0.13692402  0.85087532  0.75832964  1
  O  O141  1  0.38059287  0.09954053  -0.00648680  1
  O  O142  1  0.35800226  0.14427876  0.24770926  1
  O  O143  1  0.38987106  0.15809605  0.50817850  1
  O  O144  1  0.35685245  0.13803048  0.74830948  1
  O  O145  1  0.33592756  0.38161060  -0.00849660  1
  O  O146  1  0.38844278  0.36170970  0.24004741  1
  O  O147  1  0.33739300  0.36556125  0.50912602  1
  O  O148  1  0.41053639  0.39133287  0.75864892  1
  O  O149  1  0.38345129  0.61072857  -0.00989841  1
  O  O150  1  0.37693023  0.62602687  0.24969639  1
  O  O151  1  0.39482598  0.62135936  0.51521377  1
  O  O152  1  0.36308226  0.64698756  0.75399626  1
  O  O153  1  0.38534912  0.91943451  -0.00997179  1
  O  O154  1  0.38713072  0.84860241  0.26239387  1
  O  O155  1  0.33350175  0.86340063  0.51173087  1
  O  O156  1  0.39475658  0.87040122  0.75032516  1
  O  O157  1  0.62527350  0.13684693  0.00496347  1
  O  O158  1  0.64579717  0.11300652  0.25956261  1
  O  O159  1  0.60426746  0.16495434  0.49145334  1
  O  O160  1  0.63127348  0.14727709  0.74776032  1
  O  O161  1  0.64384610  0.35490694  0.01240265  1
  O  O162  1  0.59391795  0.38911288  0.24959870  1
  O  O163  1  0.65023462  0.36670474  0.49910782  1
  O  O164  1  0.59667701  0.39412183  0.74096121  1
  O  O165  1  0.63256931  0.63654764  0.00512568  1
  O  O166  1  0.63560847  0.59017743  0.24837880  1
  O  O167  1  0.60762681  0.63195564  0.50921521  1
  O  O168  1  0.65130755  0.61144604  0.75232044  1
  O  O169  1  0.64640032  0.87948742  -0.01222811  1
  O  O170  1  0.59785095  0.87799373  0.25851159  1
  O  O171  1  0.62467155  0.88550999  0.50093755  1
  O  O172  1  0.60254245  0.87585488  0.74888339  1
  O  O173  1  0.89439913  0.13563062  0.00789793  1
  O  O174  1  0.85174205  0.11173395  0.26097015  1
  O  O175  1  0.88288712  0.14682443  0.49514625  1
  O  O176  1  0.87524942  0.14020049  0.74888373  1
  O  O177  1  0.85425878  0.36240446  0.01153989  1
  O  O178  1  0.90782364  0.38491789  0.24854796  1
  O  O179  1  0.85738279  0.35398076  0.50071743  1
  O  O180  1  0.89062170  0.39847361  0.75244207  1
  O  O181  1  0.89750947  0.62923149  0.00743163  1
  O  O182  1  0.86470969  0.59186043  0.25632457  1
  O  O183  1  0.88004519  0.64034261  0.49633839  1
  O  O184  1  0.87787076  0.60070232  0.75716927  1
  O  O185  1  0.87785652  0.87237854  -0.00662916  1
  O  O186  1  0.86296609  0.88533048  0.26378033  1
  O  O187  1  0.85010255  0.87526218  0.49651612  1
  O  O188  1  0.88626763  0.85930631  0.74565231  1
  O  O189  1  -0.00185073  0.13615655  0.15610090  1
  O  O190  1  0.00350886  0.14530328  0.36299561  1
  O  O191  1  0.00033790  0.11135525  0.64479676  1
  O  O192  1  0.00819529  0.12733488  0.87504982  1
  O  O193  1  0.00725714  0.35454265  0.10941764  1
  O  O194  1  0.01669442  0.34384795  0.38551788  1
  O  O195  1  -0.00111026  0.38994895  0.58959617  1
  O  O196  1  0.00505384  0.39462179  0.89742166  1
  O  O197  1  -0.00450024  0.63172543  0.15369958  1
  O  O198  1  -0.00044284  0.65458846  0.36946763  1
  O  O199  1  0.00585418  0.60613953  0.63648513  1
  O  O200  1  0.00617398  0.59056432  0.86584545  1
  O  O201  1  -0.00384649  0.86895057  0.15384549  1
  O  O202  1  0.00069074  0.85376713  0.38491898  1
  O  O203  1  -0.02295914  0.92385730  0.61359705  1
  O  O204  1  0.00206011  0.88306811  0.85683049  1
  O  O205  1  0.24190233  0.09376698  0.12048796  1
  O  O206  1  0.24538336  0.10031325  0.38484883  1
  O  O207  1  0.24269620  0.17262156  0.59933019  1
  O  O208  1  0.24881177  0.14062958  0.89420459  1
  O  O209  1  0.25260216  0.40619025  0.13303651  1
  O  O210  1  0.25096716  0.40050448  0.35231375  1
  O  O211  1  0.25164309  0.36826386  0.65782774  1
  O  O212  1  0.24937407  0.35602242  0.84514373  1
  O  O213  1  0.24110976  0.62228371  0.09890534  1
  O  O214  1  0.24252320  0.58551575  0.40099477  1
  O  O215  1  0.25084586  0.65670411  0.62074935  1
  O  O216  1  0.24580694  0.64545595  0.89783410  1
  O  O217  1  0.24885142  0.89351453  0.13819955  1
  O  O218  1  0.25675806  0.89841029  0.36503045  1
  O  O219  1  0.25931601  0.84825636  0.64886569  1
  O  O220  1  0.25887000  0.87321905  0.88926564  1
  O  O221  1  0.50726317  0.13641885  0.14997702  1
  O  O222  1  0.50281595  0.14775590  0.35970098  1
  O  O223  1  0.49098438  0.10869266  0.63932553  1
  O  O224  1  0.49499817  0.09663744  0.86919738  1
  O  O225  1  0.49659222  0.37193389  0.09414924  1
  O  O226  1  0.50596069  0.33564432  0.39462711  1
  O  O227  1  0.49225136  0.39554367  0.59228428  1
  O  O228  1  0.48403647  0.39512451  0.91053743  1
  O  O229  1  0.51065230  0.61897861  0.13470218  1
  O  O230  1  0.49902210  0.62741063  0.38006930  1
  O  O231  1  0.50173346  0.61043812  0.65497942  1
  O  O232  1  0.49271422  0.59188090  0.84918475  1
  O  O233  1  0.51010420  0.84688762  0.11359327  1
  O  O234  1  0.49545878  0.85723289  0.40215369  1
  O  O235  1  0.48520000  0.91505883  0.60211403  1
  O  O236  1  0.50582419  0.90762023  0.88575571  1
  O  O237  1  0.75263429  0.11294805  0.12615128  1
  O  O238  1  0.74497545  0.11926994  0.40015004  1
  O  O239  1  0.74396877  0.15383497  0.61623701  1
  O  O240  1  0.75337644  0.15175394  0.86943979  1
  O  O241  1  0.75223817  0.38996420  0.15465067  1
  O  O242  1  0.74689052  0.42305552  0.34899286  1
  O  O243  1  0.75080267  0.36634533  0.64734443  1
  O  O244  1  0.76074561  0.36565044  0.87281966  1
  O  O245  1  0.75718945  0.59697650  0.12818701  1
  O  O246  1  0.75350604  0.60166498  0.38140807  1
  O  O247  1  0.74853234  0.65219233  0.62271013  1
  O  O248  1  0.76194431  0.64940622  0.88111847  1
  O  O249  1  0.75093494  0.88107491  0.14151353  1
  O  O250  1  0.73632103  0.90767695  0.37601663  1
  O  O251  1  0.74688573  0.85910204  0.61982850  1
  O  O252  1  0.75992633  0.85549094  0.87285782  1
  O  O253  1  0.09448113  0.00735747  0.13022006  1
  O  O254  1  0.10619947  -0.00362631  0.35019612  1
  O  O255  1  0.14523019  0.01494454  0.63618932  1
  O  O256  1  0.13434053  0.00870848  0.88679750  1
  O  O257  1  0.15271054  0.25022448  0.11298138  1
  O  O258  1  0.17652184  0.25317475  0.40197853  1
  O  O259  1  0.09073101  0.24838365  0.61621722  1
  O  O260  1  0.11490795  0.25492611  0.88515567  1
  O  O261  1  0.10960896  0.50249015  0.13834619  1
  O  O262  1  0.10485156  0.50557940  0.35026678  1
  O  O263  1  0.14431239  0.50887402  0.64131966  1
  O  O264  1  0.15053802  0.49986662  0.87581749  1
  O  O265  1  0.11291203  0.74673281  0.11850495  1
  O  O266  1  0.14469735  0.75858428  0.41799985  1
  O  O267  1  0.11668590  0.74573078  0.60599171  1
  O  O268  1  0.09525127  0.74268529  0.88757380  1
  O  O269  1  0.39738276  0.00519581  0.14836461  1
  O  O270  1  0.39641744  -0.01016127  0.41872521  1
  O  O271  1  0.33916448  0.01440117  0.62322792  1
  O  O272  1  0.34626068  0.00691902  0.85646255  1
  O  O273  1  0.35560625  0.25649005  0.09852720  1
  O  O274  1  0.35625154  0.24526637  0.37402210  1
  O  O275  1  0.38152835  0.26136761  0.64667198  1
  O  O276  1  0.39125841  0.25084436  0.88133773  1
  O  O277  1  0.39718209  0.49656475  0.12640570  1
  O  O278  1  0.39152228  0.49251020  0.39009626  1
  O  O279  1  0.34624745  0.50472244  0.63457216  1
  O  O280  1  0.34231992  0.49844082  0.86738514  1
  O  O281  1  0.35398791  0.74726886  0.09691784  1
  O  O282  1  0.36846648  0.74695515  0.40131857  1
  O  O283  1  0.41363523  0.75125330  0.62413254  1
  O  O284  1  0.39146849  0.76587667  0.91468837  1
  O  O285  1  0.61085396  0.00648401  0.12900376  1
  O  O286  1  0.59191302  0.00638366  0.39553815  1
  O  O287  1  0.63202965  0.00433356  0.64400039  1
  O  O288  1  0.66776514  -0.00473836  0.85185326  1
  O  O289  1  0.63952182  0.25180189  0.14527918  1
  O  O290  1  0.66057644  0.26345546  0.36107900  1
  O  O291  1  0.59980481  0.26488530  0.63423839  1
  O  O292  1  0.60954543  0.25266393  0.87897213  1
  O  O293  1  0.62267924  0.49154514  0.09894941  1
  O  O294  1  0.60870480  0.49310585  0.40035192  1
  O  O295  1  0.64625101  0.49936184  0.62077837  1
  O  O296  1  0.63750503  0.49595968  0.87763106  1
  O  O297  1  0.64536379  0.73920353  0.14943010  1
  O  O298  1  0.64285164  0.75453052  0.37461015  1
  O  O299  1  0.60894231  0.74068844  0.65307950  1
  O  O300  1  0.62296654  0.75267457  0.87035581  1
  O  O301  1  0.88229841  0.00557254  0.13517232  1
  O  O302  1  0.89758119  0.00021706  0.38632511  1
  O  O303  1  0.83411729  0.00096666  0.66113762  1
  O  O304  1  0.86508005  -0.00787492  0.86928991  1
  O  O305  1  0.86661640  0.24995830  0.15116263  1
  O  O306  1  0.86705994  0.25034071  0.34914103  1
  O  O307  1  0.89862696  0.26035693  0.63460132  1
  O  O308  1  0.90265242  0.26158812  0.87328954  1
  O  O309  1  0.90200951  0.49347822  0.11935315  1
  O  O310  1  0.89870438  0.50449360  0.39705975  1
  O  O311  1  0.87041076  0.49784251  0.59903381  1
  O  O312  1  0.86813736  0.50014038  0.90469238  1
  O  O313  1  0.85813910  0.74072991  0.14572672  1
  O  O314  1  0.85243541  0.75101236  0.36987885  1
  O  O315  1  0.88585972  0.75585955  0.61068565  1
  O  O316  1  0.91027008  0.74202397  0.87058193  1
