# generated using pymatgen
data_Mg32Ti42(Bi17O64)3
_symmetry_space_group_name_H-M   'P 1'
_cell_length_a   15.93720801
_cell_length_b   15.96484871
_cell_length_c   15.91868843
_cell_angle_alpha   90.05542511
_cell_angle_beta   90.00099827
_cell_angle_gamma   89.97258281
_symmetry_Int_Tables_number   1
_chemical_formula_structural   Mg32Ti42(Bi17O64)3
_chemical_formula_sum   'Mg32 Ti42 Bi51 O192'
_cell_volume   4050.27095716
_cell_formula_units_Z   1
loop_
 _symmetry_equiv_pos_site_id
 _symmetry_equiv_pos_as_xyz
  1  'x, y, z'
loop_
 _atom_site_type_symbol
 _atom_site_label
 _atom_site_symmetry_multiplicity
 _atom_site_fract_x
 _atom_site_fract_y
 _atom_site_fract_z
 _atom_site_occupancy
  Mg  Mg0  1  0.12601647  0.11872628  0.63006987  1
  Mg  Mg1  1  0.12150352  0.11871189  0.88174815  1
  Mg  Mg2  1  0.87517769  0.37453780  0.12284881  1
  Mg  Mg3  1  0.87696974  0.10986533  0.63598476  1
  Mg  Mg4  1  0.61223861  0.37240012  0.12141050  1
  Mg  Mg5  1  0.87087641  0.62362880  0.62564115  1
  Mg  Mg6  1  0.38019244  0.61578809  0.11743068  1
  Mg  Mg7  1  0.88464888  0.63352474  0.88025355  1
  Mg  Mg8  1  0.63638572  0.11783131  0.12461923  1
  Mg  Mg9  1  0.87744743  0.62504653  0.37276205  1
  Mg  Mg10  1  0.36689109  0.37438901  0.36499179  1
  Mg  Mg11  1  0.88129934  0.87295146  0.86953098  1
  Mg  Mg12  1  0.87254167  0.12397620  0.87713191  1
  Mg  Mg13  1  0.12270016  0.38228100  0.87469727  1
  Mg  Mg14  1  0.87006706  0.12936747  0.37003585  1
  Mg  Mg15  1  0.62559585  0.36296386  0.37437955  1
  Mg  Mg16  1  0.37007537  0.37540507  0.86926579  1
  Mg  Mg17  1  0.36964326  0.11357629  0.11761228  1
  Mg  Mg18  1  0.12927141  0.62278364  0.36933778  1
  Mg  Mg19  1  0.80191864  0.21260963  0.50907899  1
  Mg  Mg20  1  0.48180488  0.45915339  -0.01202610  1
  Mg  Mg21  1  0.04309607  0.18716711  0.27173688  1
  Mg  Mg22  1  0.78902788  -0.00307846  0.77845524  1
  Mg  Mg23  1  0.73246715  0.44696447  0.01429721  1
  Mg  Mg24  1  -0.03094694  0.75261852  0.71922731  1
  Mg  Mg25  1  0.26098773  0.49268459  0.24777657  1
  Mg  Mg26  1  0.30592579  -0.04422440  -0.00750826  1
  Mg  Mg27  1  0.72857943  0.24334472  -0.00267840  1
  Mg  Mg28  1  0.55225004  0.00807640  0.27103369  1
  Mg  Mg29  1  -0.03441392  -0.00517444  0.04939079  1
  Mg  Mg30  1  0.19848697  0.02528313  0.30697200  1
  Mg  Mg31  1  0.50943554  0.45361175  0.29150551  1
  Ti  Ti32  1  0.37616782  0.12101722  0.62023047  1
  Ti  Ti33  1  0.11950949  0.87005337  0.88408238  1
  Ti  Ti34  1  0.12262156  0.61309794  0.12069024  1
  Ti  Ti35  1  0.62853048  0.88532116  0.86603174  1
  Ti  Ti36  1  0.62261682  0.35892710  0.88328835  1
  Ti  Ti37  1  0.38425394  0.86025573  0.86525315  1
  Ti  Ti38  1  0.37951711  0.86740163  0.62971391  1
  Ti  Ti39  1  0.86510570  0.36075595  0.89071256  1
  Ti  Ti40  1  0.11657724  0.87268062  0.62506688  1
  Ti  Ti41  1  0.37705105  0.61810438  0.63349437  1
  Ti  Ti42  1  0.61611751  0.87319872  0.13517901  1
  Ti  Ti43  1  0.63035436  0.88148064  0.62226879  1
  Ti  Ti44  1  0.61596052  0.61057821  0.88046932  1
  Ti  Ti45  1  0.88057139  0.88400028  0.38991265  1
  Ti  Ti46  1  0.63127086  0.88302987  0.38298330  1
  Ti  Ti47  1  0.11869208  0.11400455  0.12096642  1
  Ti  Ti48  1  0.61933893  0.13745152  0.61689535  1
  Ti  Ti49  1  0.88130669  0.62216103  0.11588528  1
  Ti  Ti50  1  0.63999656  0.12209253  0.87449344  1
  Ti  Ti51  1  0.11507326  0.36886339  0.62503196  1
  Ti  Ti52  1  0.13021389  0.86256088  0.38723010  1
  Ti  Ti53  1  0.37901785  0.61762842  0.87453572  1
  Ti  Ti54  1  0.63149688  0.37541661  0.61432605  1
  Ti  Ti55  1  0.36898288  0.36474621  0.63236670  1
  Ti  Ti56  1  0.11548277  0.62501301  0.87909045  1
  Ti  Ti57  1  0.37898099  0.11403290  0.35842471  1
  Ti  Ti58  1  0.37893120  0.38632500  0.13269849  1
  Ti  Ti59  1  0.12117536  0.62649908  0.62420782  1
  Ti  Ti60  1  0.12800493  0.38149768  0.35782078  1
  Ti  Ti61  1  0.37076172  0.61551661  0.36728879  1
  Ti  Ti62  1  0.63269649  0.61858385  0.63341911  1
  Ti  Ti63  1  0.12548809  0.37848552  0.12532181  1
  Ti  Ti64  1  0.61687452  0.62351372  0.11267106  1
  Ti  Ti65  1  0.63157858  0.12527301  0.38167350  1
  Ti  Ti66  1  0.86974064  0.13390261  0.13715881  1
  Ti  Ti67  1  0.37524828  0.87172701  0.13379389  1
  Ti  Ti68  1  0.86298607  0.37057886  0.37265670  1
  Ti  Ti69  1  0.87089044  0.38506332  0.61293625  1
  Ti  Ti70  1  0.37496550  0.11627366  0.88133726  1
  Ti  Ti71  1  0.37607607  0.87270655  0.35944789  1
  Ti  Ti72  1  0.86375348  0.87685460  0.62618487  1
  Ti  Ti73  1  0.14354729  0.88068341  0.12525761  1
  Bi  Bi74  1  0.23351822  0.25112211  -0.00102207  1
  Bi  Bi75  1  0.51843039  0.01368401  0.73277011  1
  Bi  Bi76  1  0.47399413  0.24324224  0.00551520  1
  Bi  Bi77  1  0.50978040  0.71354649  0.49976959  1
  Bi  Bi78  1  -0.01221829  0.47651069  -0.00461209  1
  Bi  Bi79  1  0.01028583  -0.03131839  0.24591902  1
  Bi  Bi80  1  0.77252614  0.25365102  0.72599422  1
  Bi  Bi81  1  -0.00758112  0.52282683  0.75405582  1
  Bi  Bi82  1  0.24724803  0.72275751  -0.00398324  1
  Bi  Bi83  1  -0.02247195  0.47934279  0.25257049  1
  Bi  Bi84  1  0.26421829  0.47710121  -0.00057781  1
  Bi  Bi85  1  0.00464029  0.21813310  0.74257520  1
  Bi  Bi86  1  0.25087347  0.71444808  0.23125844  1
  Bi  Bi87  1  0.00359782  0.73563557  0.26064312  1
  Bi  Bi88  1  0.26503751  -0.03147129  0.50821808  1
  Bi  Bi89  1  0.47752104  0.25798133  0.47365172  1
  Bi  Bi90  1  0.77648014  0.75378938  0.22280358  1
  Bi  Bi91  1  0.02485327  0.03651472  0.48174333  1
  Bi  Bi92  1  0.74326537  0.74053699  0.47346689  1
  Bi  Bi93  1  0.24260767  -0.01581549  0.77380522  1
  Bi  Bi94  1  0.75230221  0.27037579  0.22181190  1
  Bi  Bi95  1  0.78220575  -0.01819756  0.23256315  1
  Bi  Bi96  1  0.23696409  0.48454043  0.74311629  1
  Bi  Bi97  1  0.76006180  0.02451671  0.50519791  1
  Bi  Bi98  1  0.01646205  0.25070274  0.46206905  1
  Bi  Bi99  1  0.52907199  0.23567345  0.23786129  1
  Bi  Bi100  1  0.48758978  -0.01202395  0.48112222  1
  Bi  Bi101  1  0.76827868  0.49752211  0.77454227  1
  Bi  Bi102  1  0.72948534  0.51360227  0.22240622  1
  Bi  Bi103  1  0.22863194  0.74315377  0.74598154  1
  Bi  Bi104  1  0.50921978  0.00868960  0.02609590  1
  Bi  Bi105  1  0.23836139  0.22579984  0.76570479  1
  Bi  Bi106  1  0.25538021  0.72375394  0.50085911  1
  Bi  Bi107  1  0.53902711  0.72273113  0.27734587  1
  Bi  Bi108  1  0.48859702  0.74841284  -0.00013659  1
  Bi  Bi109  1  -0.01252242  0.22102389  -0.00122068  1
  Bi  Bi110  1  0.73288365  0.74952357  -0.00719738  1
  Bi  Bi111  1  0.23993889  0.20466454  0.48692476  1
  Bi  Bi112  1  -0.01473091  0.49201978  0.48561934  1
  Bi  Bi113  1  0.47655036  0.47757881  0.50096578  1
  Bi  Bi114  1  0.75734958  -0.02305463  0.00392829  1
  Bi  Bi115  1  0.51206961  0.47742245  0.73841222  1
  Bi  Bi116  1  0.22611190  0.47927060  0.49248110  1
  Bi  Bi117  1  -0.01925896  0.72821278  0.49824082  1
  Bi  Bi118  1  0.48275730  0.23524835  0.76703535  1
  Bi  Bi119  1  0.51973790  0.75245711  0.73486322  1
  Bi  Bi120  1  0.00456475  -0.01711871  0.76344585  1
  Bi  Bi121  1  -0.02839870  0.79386621  0.03372017  1
  Bi  Bi122  1  0.76706190  0.73662198  0.76923125  1
  Bi  Bi123  1  0.25496326  0.21620472  0.22731681  1
  Bi  Bi124  1  0.70210812  0.52377751  0.44958453  1
  O  O125  1  0.11084605  0.15223830  0.00510929  1
  O  O126  1  0.13647411  0.11153703  0.24206773  1
  O  O127  1  0.11560908  0.13951955  0.50395233  1
  O  O128  1  0.12616922  0.13539104  0.75542097  1
  O  O129  1  0.15343699  0.37038378  0.00628429  1
  O  O130  1  0.11110605  0.40546087  0.24713155  1
  O  O131  1  0.15014839  0.36288018  0.50157461  1
  O  O132  1  0.11758851  0.40593656  0.74281828  1
  O  O133  1  0.11823965  0.65233077  -0.00135319  1
  O  O134  1  0.15900806  0.59883352  0.23942532  1
  O  O135  1  0.12453855  0.65257054  0.50961019  1
  O  O136  1  0.15529414  0.61204779  0.75607749  1
  O  O137  1  0.10442073  0.86566586  -0.00218430  1
  O  O138  1  0.14718029  0.91999652  0.23944276  1
  O  O139  1  0.11667313  0.84552185  0.50013120  1
  O  O140  1  0.15830750  0.87779375  0.74303552  1
  O  O141  1  0.36327635  0.15421391  -0.00750725  1
  O  O142  1  0.36461782  0.11194436  0.24581813  1
  O  O143  1  0.37766716  0.14879006  0.50099465  1
  O  O144  1  0.40162528  0.11520289  0.74991981  1
  O  O145  1  0.33825709  0.35694829  -0.00408361  1
  O  O146  1  0.39718547  0.41512343  0.24430441  1
  O  O147  1  0.37828357  0.36374266  0.50790132  1
  O  O148  1  0.39401512  0.39881378  0.74598932  1
  O  O149  1  0.38010000  0.66395994  -0.00653409  1
  O  O150  1  0.34557260  0.59648021  0.25227101  1
  O  O151  1  0.37941318  0.65114266  0.50295202  1
  O  O152  1  0.37539661  0.60381070  0.75214341  1
  O  O153  1  0.38020598  0.84788189  -0.01339576  1
  O  O154  1  0.36673407  0.89843989  0.24557957  1
  O  O155  1  0.38627818  0.87618120  0.50258053  1
  O  O156  1  0.35914538  0.90091505  0.74894235  1
  O  O157  1  0.65779977  0.12973799  -0.00918916  1
  O  O158  1  0.61821708  0.12455757  0.25743266  1
  O  O159  1  0.61263288  0.10056725  0.49840758  1
  O  O160  1  0.60070894  0.13367255  0.74216267  1
  O  O161  1  0.65555309  0.35069031  0.00144567  1
  O  O162  1  0.58489464  0.36230927  0.24714268  1
  O  O163  1  0.63047558  0.39161723  0.50290755  1
  O  O164  1  0.60367438  0.37707046  0.76091417  1
  O  O165  1  0.64394998  0.63825133  -0.00562949  1
  O  O166  1  0.63223899  0.63656113  0.23220153  1
  O  O167  1  0.61322971  0.61357805  0.50848630  1
  O  O168  1  0.60895668  0.63703779  0.75348117  1
  O  O169  1  0.63591216  0.90033146  -0.00270750  1
  O  O170  1  0.62447853  0.86423942  0.25281676  1
  O  O171  1  0.60566579  0.89427504  0.50052978  1
  O  O172  1  0.62861819  0.85912039  0.74772495  1
  O  O173  1  0.90778419  0.10487441  0.01406391  1
  O  O174  1  0.86154297  0.16044499  0.24924535  1
  O  O175  1  0.87342403  0.10351339  0.50707434  1
  O  O176  1  0.87112079  0.16136620  0.75227487  1
  O  O177  1  0.85424463  0.41423850  0.00271468  1
  O  O178  1  0.89568581  0.36339371  0.25666050  1
  O  O179  1  0.86122586  0.41093170  0.50258482  1
  O  O180  1  0.86158748  0.34938090  0.76851955  1
  O  O181  1  0.90223864  0.60953057  0.00500027  1
  O  O182  1  0.87571491  0.66429189  0.25154450  1
  O  O183  1  0.90390485  0.61330305  0.50154949  1
  O  O184  1  0.87615855  0.65941493  0.74946381  1
  O  O185  1  0.89698026  0.90317559  -0.00350599  1
  O  O186  1  0.85328178  0.86030264  0.26502291  1
  O  O187  1  0.88669978  0.91132998  0.50676807  1
  O  O188  1  0.86379115  0.83790252  0.74302028  1
  O  O189  1  0.00534955  0.16055604  0.14831526  1
  O  O190  1  -0.00424707  0.13607818  0.37846069  1
  O  O191  1  -0.00060921  0.12102157  0.64648990  1
  O  O192  1  -0.00250330  0.16016239  0.87346158  1
  O  O193  1  0.00536633  0.37727691  0.10707441  1
  O  O194  1  0.00252979  0.38053836  0.39438969  1
  O  O195  1  -0.00289459  0.38086879  0.60505767  1
  O  O196  1  -0.01434972  0.36357000  0.90402189  1
  O  O197  1  0.00800743  0.64419847  0.14599443  1
  O  O198  1  0.00494464  0.64360157  0.36118217  1
  O  O199  1  0.00685570  0.62344074  0.64870793  1
  O  O200  1  0.00930010  0.64778718  0.84294154  1
  O  O201  1  0.01024310  0.86823216  0.14312567  1
  O  O202  1  -0.00239206  0.86659208  0.35910586  1
  O  O203  1  0.00229391  0.87334591  0.65118983  1
  O  O204  1  0.00985121  0.85842331  0.83939176  1
  O  O205  1  0.24161520  0.12873248  0.11946350  1
  O  O206  1  0.25529128  0.11890712  0.37982479  1
  O  O207  1  0.25469781  0.13659859  0.61188929  1
  O  O208  1  0.25732964  0.11485445  0.85835822  1
  O  O209  1  0.25136543  0.41956314  0.14360324  1
  O  O210  1  0.24516615  0.40642390  0.35297331  1
  O  O211  1  0.25338192  0.37531163  0.64226076  1
  O  O212  1  0.24851054  0.41760427  0.86124932  1
  O  O213  1  0.24763229  0.63048067  0.10536139  1
  O  O214  1  0.25358809  0.62758419  0.39809102  1
  O  O215  1  0.25482069  0.64547729  0.61909690  1
  O  O216  1  0.25845360  0.61826014  0.89741979  1
  O  O217  1  0.25386283  0.89901161  0.09363274  1
  O  O218  1  0.24927226  0.88216816  0.38797941  1
  O  O219  1  0.25497964  0.86403593  0.60355320  1
  O  O220  1  0.25269266  0.90441004  0.88691807  1
  O  O221  1  0.50081884  0.13431400  0.09719120  1
  O  O222  1  0.49826683  0.08701445  0.36674520  1
  O  O223  1  0.49881362  0.10869889  0.61661027  1
  O  O224  1  0.50036057  0.15501346  0.88764258  1
  O  O225  1  0.49062576  0.37215526  0.08813669  1
  O  O226  1  0.49465166  0.38056704  0.39652584  1
  O  O227  1  0.50224556  0.39444291  0.62211992  1
  O  O228  1  0.50388779  0.35836639  0.90361529  1
  O  O229  1  0.50488247  0.64287062  0.11175481  1
  O  O230  1  0.49063911  0.63609167  0.37205658  1
  O  O231  1  0.49586831  0.62728505  0.62343840  1
  O  O232  1  0.50237331  0.65605136  0.88169274  1
  O  O233  1  0.49558616  0.86091530  0.11435141  1
  O  O234  1  0.49901922  0.90354646  0.36403426  1
  O  O235  1  0.49820004  0.88519287  0.64278245  1
  O  O236  1  0.50170011  0.85843520  0.86301116  1
  O  O237  1  0.76041862  0.08687484  0.12731174  1
  O  O238  1  0.74556746  0.13922667  0.40847284  1
  O  O239  1  0.74149889  0.13265976  0.60298615  1
  O  O240  1  0.74719004  0.09401604  0.84808193  1
  O  O241  1  0.74713919  0.39211531  0.14836029  1
  O  O242  1  0.75142769  0.37012299  0.35408677  1
  O  O243  1  0.74697655  0.37761216  0.63961526  1
  O  O244  1  0.74188304  0.41151325  0.87994358  1
  O  O245  1  0.76089715  0.61727160  0.12739885  1
  O  O246  1  0.75176998  0.63490296  0.38488171  1
  O  O247  1  0.74401059  0.63669633  0.62539463  1
  O  O248  1  0.73914469  0.60908904  0.85543831  1
  O  O249  1  0.74031394  0.90105092  0.12355982  1
  O  O250  1  0.74691216  0.86541732  0.40229709  1
  O  O251  1  0.74631984  0.86377529  0.60492636  1
  O  O252  1  0.74710309  0.91254948  0.86788619  1
  O  O253  1  0.08433454  0.00628472  0.10331459  1
  O  O254  1  0.11406857  -0.01367648  0.38961788  1
  O  O255  1  0.12592932  -0.01156622  0.60432008  1
  O  O256  1  0.11252961  -0.00745776  0.86091393  1
  O  O257  1  0.14999533  0.26626741  0.14282251  1
  O  O258  1  0.11134531  0.26396645  0.35316468  1
  O  O259  1  0.11955770  0.25871494  0.64052428  1
  O  O260  1  0.16221628  0.25980839  0.87325579  1
  O  O261  1  0.10762762  0.50635131  0.09571463  1
  O  O262  1  0.11659175  0.50075258  0.40663340  1
  O  O263  1  0.13828756  0.50620702  0.60416893  1
  O  O264  1  0.09443084  0.51017681  0.89179318  1
  O  O265  1  0.14939445  0.76594147  0.14274237  1
  O  O266  1  0.13336211  0.75608792  0.33925287  1
  O  O267  1  0.11684589  0.74743225  0.65632812  1
  O  O268  1  0.15510758  0.75372176  0.86544966  1
  O  O269  1  0.38732845  -0.00696801  0.08572454  1
  O  O270  1  0.36490546  -0.00012807  0.39993540  1
  O  O271  1  0.36441343  0.00469344  0.60910341  1
  O  O272  1  0.38884260  0.00429663  0.90265545  1
  O  O273  1  0.36078136  0.26430203  0.14402024  1
  O  O274  1  0.39325005  0.24239681  0.36433968  1
  O  O275  1  0.38733243  0.25077476  0.64727976  1
  O  O276  1  0.36300443  0.24937457  0.84469754  1
  O  O277  1  0.38833606  0.49671716  0.07721943  1
  O  O278  1  0.38268966  0.50525930  0.39666953  1
  O  O279  1  0.36906649  0.50512717  0.60379568  1
  O  O280  1  0.39906438  0.50779836  0.90177602  1
  O  O281  1  0.35627749  0.75772134  0.14094278  1
  O  O282  1  0.37410957  0.75903007  0.35441980  1
  O  O283  1  0.38730691  0.75410248  0.64787176  1
  O  O284  1  0.36210118  0.75252819  0.84206350  1
  O  O285  1  0.58803267  -0.00440920  0.14504932  1
  O  O286  1  0.64643659  -0.00147517  0.35820120  1
  O  O287  1  0.63122710  -0.00295630  0.64298893  1
  O  O288  1  0.59678021  0.00650557  0.86157801  1
  O  O289  1  0.63780847  0.24416398  0.14080990  1
  O  O290  1  0.59261157  0.23813405  0.37651381  1
  O  O291  1  0.61525013  0.25345564  0.61312223  1
  O  O292  1  0.65273190  0.24801496  0.86881600  1
  O  O293  1  0.63455618  0.50514706  0.11219402  1
  O  O294  1  0.61933527  0.49374484  0.34918348  1
  O  O295  1  0.62699591  0.50162314  0.64435628  1
  O  O296  1  0.59211721  0.50199591  0.90132982  1
  O  O297  1  0.63616277  0.75766352  0.11181459  1
  O  O298  1  0.61365241  0.76016850  0.38978236  1
  O  O299  1  0.60427517  0.75173463  0.61778412  1
  O  O300  1  0.64689191  0.76623146  0.88787902  1
  O  O301  1  0.89970235  0.01048013  0.15938862  1
  O  O302  1  0.86944871  -0.00214726  0.35756108  1
  O  O303  1  0.85001032  -0.01092160  0.66546674  1
  O  O304  1  0.89653529  -0.00006408  0.84350185  1
  O  O305  1  0.82751859  0.24608716  0.10322204  1
  O  O306  1  0.87606269  0.26007936  0.41617367  1
  O  O307  1  0.85832017  0.26260555  0.61163103  1
  O  O308  1  0.83728286  0.25341782  0.92131560  1
  O  O309  1  0.88280063  0.50762811  0.15642962  1
  O  O310  1  0.89191020  0.49769941  0.36510708  1
  O  O311  1  0.88070304  0.49623343  0.66155316  1
  O  O312  1  0.88723342  0.50640536  0.84802027  1
  O  O313  1  0.86116732  0.74740378  0.10806038  1
  O  O314  1  0.87115697  0.75889873  0.41363693  1
  O  O315  1  0.89381026  0.75565711  0.60288088  1
  O  O316  1  0.83879198  0.75273194  0.89366388  1
