# generated using pymatgen
data_Mg32Ti42(Bi17O64)3
_symmetry_space_group_name_H-M   'P 1'
_cell_length_a   15.94434245
_cell_length_b   15.94614521
_cell_length_c   15.96415930
_cell_angle_alpha   89.91922834
_cell_angle_beta   90.04150101
_cell_angle_gamma   89.87000852
_symmetry_Int_Tables_number   1
_chemical_formula_structural   Mg32Ti42(Bi17O64)3
_chemical_formula_sum   'Mg32 Ti42 Bi51 O192'
_cell_volume   4058.88472047
_cell_formula_units_Z   1
loop_
 _symmetry_equiv_pos_site_id
 _symmetry_equiv_pos_as_xyz
  1  'x, y, z'
loop_
 _atom_site_type_symbol
 _atom_site_label
 _atom_site_symmetry_multiplicity
 _atom_site_fract_x
 _atom_site_fract_y
 _atom_site_fract_z
 _atom_site_occupancy
  Mg  Mg0  1  0.87204802  0.87709410  0.11961261  1
  Mg  Mg1  1  0.62742617  0.87713837  0.86083302  1
  Mg  Mg2  1  0.11964667  0.13101810  0.37087117  1
  Mg  Mg3  1  0.38520712  0.86599369  0.12557360  1
  Mg  Mg4  1  0.63699221  0.37160287  0.37601690  1
  Mg  Mg5  1  0.37767327  0.12628649  0.13466302  1
  Mg  Mg6  1  0.63670647  0.12205340  0.13405470  1
  Mg  Mg7  1  0.12753983  0.61427076  0.11706853  1
  Mg  Mg8  1  0.62058459  0.86293915  0.11758564  1
  Mg  Mg9  1  0.35335364  0.88811765  0.87843171  1
  Mg  Mg10  1  0.62782079  0.12532232  0.62299154  1
  Mg  Mg11  1  0.63326060  0.63445130  0.62802805  1
  Mg  Mg12  1  0.37565135  0.13584786  0.86934020  1
  Mg  Mg13  1  0.63530099  0.37606333  0.62454597  1
  Mg  Mg14  1  0.13697047  0.62361365  0.85774285  1
  Mg  Mg15  1  0.39112809  0.62502037  0.37417209  1
  Mg  Mg16  1  0.12141823  0.86648660  0.37916350  1
  Mg  Mg17  1  0.87309676  0.62957814  0.86757701  1
  Mg  Mg18  1  0.87471693  0.61188008  0.12356056  1
  Mg  Mg19  1  0.79149341  0.24825951  0.48667253  1
  Mg  Mg20  1  0.78910224  0.25786024  0.20521619  1
  Mg  Mg21  1  0.74773818  0.45361739  0.22400967  1
  Mg  Mg22  1  0.72595764  0.21778687  0.75130390  1
  Mg  Mg23  1  0.67371212  -0.00731564  0.00403436  1
  Mg  Mg24  1  0.74044592  -0.04840528  0.20677215  1
  Mg  Mg25  1  0.30433588  0.54669205  0.50900965  1
  Mg  Mg26  1  -0.03570948  0.48358330  0.76396735  1
  Mg  Mg27  1  0.75556078  -0.02640919  0.47214350  1
  Mg  Mg28  1  0.44840479  0.80159931  0.75671944  1
  Mg  Mg29  1  0.22429884  0.06040133  -0.06454679  1
  Mg  Mg30  1  0.22532626  0.21103137  0.77303671  1
  Mg  Mg31  1  0.28554949  0.67634991  0.69177871  1
  Ti  Ti32  1  0.12071842  0.36818009  0.36625583  1
  Ti  Ti33  1  0.36979605  0.13746232  0.62389110  1
  Ti  Ti34  1  0.87217100  0.62478106  0.37041054  1
  Ti  Ti35  1  0.13720188  0.37964691  0.12169490  1
  Ti  Ti36  1  0.63997477  0.13181016  0.38329323  1
  Ti  Ti37  1  0.37389355  0.37145261  0.61750196  1
  Ti  Ti38  1  0.12372539  0.61102254  0.62676141  1
  Ti  Ti39  1  0.62832036  0.62636539  0.36348184  1
  Ti  Ti40  1  0.63688313  0.61816639  0.11270844  1
  Ti  Ti41  1  0.38667017  0.37668480  0.12865228  1
  Ti  Ti42  1  0.61322244  0.11887468  0.87518104  1
  Ti  Ti43  1  0.13208490  0.61689446  0.37545375  1
  Ti  Ti44  1  0.87859313  0.61298946  0.62880371  1
  Ti  Ti45  1  0.86541466  0.13096182  0.62472607  1
  Ti  Ti46  1  0.13857091  0.12551454  0.12777511  1
  Ti  Ti47  1  0.86580205  0.37048011  0.37571269  1
  Ti  Ti48  1  0.38282868  0.37098156  0.87014154  1
  Ti  Ti49  1  0.86396806  0.11181356  0.12782738  1
  Ti  Ti50  1  0.86790172  0.36315031  0.86862149  1
  Ti  Ti51  1  0.63295821  0.87938862  0.61621245  1
  Ti  Ti52  1  0.88135219  0.38457983  0.10568693  1
  Ti  Ti53  1  0.38911156  0.38257414  0.37411268  1
  Ti  Ti54  1  0.36721768  0.62731191  0.87896420  1
  Ti  Ti55  1  0.11113982  0.87255492  0.62358649  1
  Ti  Ti56  1  0.12307811  0.37753651  0.86972243  1
  Ti  Ti57  1  0.62982010  0.36360753  0.87430479  1
  Ti  Ti58  1  0.38256070  0.86964216  0.37708749  1
  Ti  Ti59  1  0.86787103  0.11691435  0.87393536  1
  Ti  Ti60  1  0.38367750  0.61650120  0.11404582  1
  Ti  Ti61  1  0.12624026  0.12800084  0.61598825  1
  Ti  Ti62  1  0.88018281  0.87448134  0.87877103  1
  Ti  Ti63  1  0.87307000  0.37181270  0.62760143  1
  Ti  Ti64  1  0.86285356  0.11981216  0.36687317  1
  Ti  Ti65  1  0.13324648  0.86420789  0.85827729  1
  Ti  Ti66  1  0.63069127  0.63032828  0.86622031  1
  Ti  Ti67  1  0.62197786  0.86582266  0.37694030  1
  Ti  Ti68  1  0.35949618  0.88078920  0.62440982  1
  Ti  Ti69  1  0.63107598  0.36898759  0.12024588  1
  Ti  Ti70  1  0.12035610  0.37351746  0.60840866  1
  Ti  Ti71  1  0.86890414  0.87299244  0.36976028  1
  Ti  Ti72  1  0.38073289  0.11582876  0.37697864  1
  Ti  Ti73  1  0.87936729  0.88581803  0.61585962  1
  Bi  Bi74  1  0.23262636  -0.01118115  0.47267911  1
  Bi  Bi75  1  0.49611992  0.77836327  -0.04038769  1
  Bi  Bi76  1  0.49466714  -0.00455382  0.72220090  1
  Bi  Bi77  1  0.54106372  0.48772990  0.24944367  1
  Bi  Bi78  1  0.27322717  0.49819159  0.25817435  1
  Bi  Bi79  1  0.74086080  0.22116019  -0.00410164  1
  Bi  Bi80  1  0.44471309  0.00757828  -0.00279723  1
  Bi  Bi81  1  0.46706316  0.74005041  0.53309088  1
  Bi  Bi82  1  0.51094827  0.73414909  0.22114305  1
  Bi  Bi83  1  0.02578121  0.25463883  0.73902179  1
  Bi  Bi84  1  0.74322594  0.78062814  -0.00972981  1
  Bi  Bi85  1  0.22824524  0.25239444  -0.01199616  1
  Bi  Bi86  1  0.23554165  0.74357854  0.49442559  1
  Bi  Bi87  1  0.01222386  0.49823313  0.23228297  1
  Bi  Bi88  1  0.03024118  -0.02802906  0.23383938  1
  Bi  Bi89  1  0.51775976  -0.00923612  0.22277096  1
  Bi  Bi90  1  0.75425370  -0.01214697  0.75546194  1
  Bi  Bi91  1  0.22170008  0.77989467  0.01954342  1
  Bi  Bi92  1  0.48098881  0.52679146  0.73218060  1
  Bi  Bi93  1  -0.00336906  0.72560435  0.76146729  1
  Bi  Bi94  1  0.52432155  0.00522056  0.48480053  1
  Bi  Bi95  1  0.51969133  0.22252257  0.24394643  1
  Bi  Bi96  1  0.00428604  -0.00336653  0.46636451  1
  Bi  Bi97  1  -0.00412076  0.22619343  0.48549117  1
  Bi  Bi98  1  0.24354803  -0.04531468  0.22182325  1
  Bi  Bi99  1  0.48235994  0.24659781  0.00639527  1
  Bi  Bi100  1  0.74015923  0.50024504  0.47669082  1
  Bi  Bi101  1  0.27710293  0.25457947  0.47880185  1
  Bi  Bi102  1  0.25770107  0.22953536  0.25791622  1
  Bi  Bi103  1  0.51212698  0.52042173  0.52559367  1
  Bi  Bi104  1  -0.00030148  0.21477257  -0.01191325  1
  Bi  Bi105  1  0.00792726  0.24398004  0.21923749  1
  Bi  Bi106  1  0.73463558  0.50644747  0.72719230  1
  Bi  Bi107  1  0.25575258  0.00567153  0.72318155  1
  Bi  Bi108  1  0.25482320  0.47949098  0.72091653  1
  Bi  Bi109  1  0.24780654  0.49600189  -0.02414564  1
  Bi  Bi110  1  0.50445006  0.49701273  -0.02485892  1
  Bi  Bi111  1  0.00576932  0.71838318  0.49691146  1
  Bi  Bi112  1  0.01102294  0.74715360  0.21176103  1
  Bi  Bi113  1  0.76932571  0.74210773  0.22055637  1
  Bi  Bi114  1  0.75763453  0.76226576  0.73612002  1
  Bi  Bi115  1  0.53017501  0.26597594  0.50074183  1
  Bi  Bi116  1  -0.00633097  0.48859613  0.47269770  1
  Bi  Bi117  1  -0.00302829  0.51953301  -0.03806266  1
  Bi  Bi118  1  0.03981666  -0.00770983  -0.02498871  1
  Bi  Bi119  1  0.00184775  0.03348285  0.73584509  1
  Bi  Bi120  1  0.52393263  0.25415370  0.73039735  1
  Bi  Bi121  1  0.75759338  0.50817772  -0.03730300  1
  Bi  Bi122  1  0.01505496  0.74328060  -0.00512340  1
  Bi  Bi123  1  0.75516769  0.74907736  0.49583590  1
  Bi  Bi124  1  0.26177834  0.72572609  0.22729724  1
  O  O125  1  0.13272927  0.11307375  0.00914590  1
  O  O126  1  0.12818150  0.15587708  0.24713224  1
  O  O127  1  0.09670869  0.11807145  0.50177706  1
  O  O128  1  0.12512506  0.14294050  0.74171412  1
  O  O129  1  0.12842227  0.40296459  0.00567861  1
  O  O130  1  0.11902893  0.35534530  0.25058422  1
  O  O131  1  0.09975684  0.39080042  0.49813312  1
  O  O132  1  0.15447780  0.32531894  0.76933017  1
  O  O133  1  0.09248319  0.61850915  -0.01132620  1
  O  O134  1  0.14844199  0.64271353  0.26180429  1
  O  O135  1  0.09414507  0.61066584  0.50261251  1
  O  O136  1  0.16724793  0.64244177  0.73310242  1
  O  O137  1  0.10628457  0.85506980  -0.01202694  1
  O  O138  1  0.13575918  0.87739634  0.25627353  1
  O  O139  1  0.10800162  0.90433204  0.50461205  1
  O  O140  1  0.13315399  0.86987049  0.74221623  1
  O  O141  1  0.39101946  0.14061718  0.00781820  1
  O  O142  1  0.36160108  0.13513815  0.26116930  1
  O  O143  1  0.37431984  0.13698783  0.50300906  1
  O  O144  1  0.32862790  0.12684511  0.74606555  1
  O  O145  1  0.40376675  0.36956490  0.00908126  1
  O  O146  1  0.36225958  0.38848426  0.25505067  1
  O  O147  1  0.37858255  0.36968346  0.50134363  1
  O  O148  1  0.35751417  0.38509884  0.75803047  1
  O  O149  1  0.40796443  0.62468882  0.00174536  1
  O  O150  1  0.34679836  0.61822298  0.25665121  1
  O  O151  1  0.40668342  0.62086625  0.49905807  1
  O  O152  1  0.35492440  0.60051538  0.76314543  1
  O  O153  1  0.39658855  0.86883461  -0.00216573  1
  O  O154  1  0.35547097  0.86661641  0.26568411  1
  O  O155  1  0.39392410  0.87305988  0.51459615  1
  O  O156  1  0.35820537  0.89986943  0.75257797  1
  O  O157  1  0.64574730  0.11496232  -0.00090782  1
  O  O158  1  0.63175663  0.13184948  0.26669317  1
  O  O159  1  0.59117010  0.13383383  0.50173337  1
  O  O160  1  0.62051012  0.14814366  0.75843803  1
  O  O161  1  0.61585223  0.39176405  0.00373847  1
  O  O162  1  0.63943140  0.37788389  0.24665335  1
  O  O163  1  0.60224839  0.39119318  0.50221179  1
  O  O164  1  0.64872249  0.32980974  0.76051418  1
  O  O165  1  0.61912521  0.59398058  -0.00105524  1
  O  O166  1  0.64290463  0.64354305  0.24880555  1
  O  O167  1  0.61638055  0.60325539  0.49991106  1
  O  O168  1  0.65804732  0.63175875  0.75439685  1
  O  O169  1  0.63251006  0.87521568  -0.00823544  1
  O  O170  1  0.64583120  0.89113729  0.26752814  1
  O  O171  1  0.59245379  0.87463099  0.50456973  1
  O  O172  1  0.66072853  0.88343670  0.73826124  1
  O  O173  1  0.85710552  0.13080059  0.00629539  1
  O  O174  1  0.85448641  0.14910883  0.25625955  1
  O  O175  1  0.87664223  0.12345745  0.51133597  1
  O  O176  1  0.88861720  0.13354311  0.76120656  1
  O  O177  1  0.89275978  0.39620890  -0.00583283  1
  O  O178  1  0.82519264  0.36047875  0.27127804  1
  O  O179  1  0.90273886  0.39245717  0.51455294  1
  O  O180  1  0.87042818  0.35910207  0.75367296  1
  O  O181  1  0.89745246  0.60532485  -0.00529932  1
  O  O182  1  0.85293388  0.62938164  0.26062881  1
  O  O183  1  0.89438082  0.62547912  0.51059159  1
  O  O184  1  0.86728521  0.65760281  0.74199089  1
  O  O185  1  0.86749946  0.86555550  -0.00618377  1
  O  O186  1  0.83692813  0.87569936  0.26062784  1
  O  O187  1  0.88745948  0.89901723  0.50062414  1
  O  O188  1  0.84768371  0.87771505  0.74336161  1
  O  O189  1  -0.01193032  0.12122376  0.13997631  1
  O  O190  1  -0.01656986  0.11815680  0.37852101  1
  O  O191  1  -0.00600754  0.14441467  0.64359005  1
  O  O192  1  -0.00952229  0.10372202  0.90093824  1
  O  O193  1  -0.00305414  0.39575645  0.14006100  1
  O  O194  1  -0.01333904  0.39716211  0.36380172  1
  O  O195  1  0.00700464  0.36887269  0.65662655  1
  O  O196  1  0.01272337  0.39942010  0.84659484  1
  O  O197  1  0.00103331  0.61088530  0.15299587  1
  O  O198  1  -0.00525416  0.62808901  0.37163323  1
  O  O199  1  0.00509237  0.64692671  0.63668582  1
  O  O200  1  0.00334949  0.59326325  0.83011311  1
  O  O201  1  -0.00810572  0.87677431  0.15060348  1
  O  O202  1  -0.01182160  0.89583140  0.36075063  1
  O  O203  1  -0.00620775  0.86316463  0.63715633  1
  O  O204  1  -0.00541519  0.90812465  0.86767839  1
  O  O205  1  0.25087862  0.14883869  0.13317797  1
  O  O206  1  0.24600683  0.15640819  0.38237159  1
  O  O207  1  0.24060229  0.10680525  0.60988282  1
  O  O208  1  0.25343097  0.16981757  0.88590346  1
  O  O209  1  0.25123437  0.35936709  0.12414834  1
  O  O210  1  0.23516781  0.35196976  0.38110664  1
  O  O211  1  0.23916480  0.38034394  0.62162800  1
  O  O212  1  0.26424654  0.36310326  0.90790122  1
  O  O213  1  0.25522943  0.64613917  0.11371141  1
  O  O214  1  0.24500489  0.62595203  0.41245913  1
  O  O215  1  0.24078427  0.62392582  0.58799632  1
  O  O216  1  0.25802446  0.63310362  0.91014564  1
  O  O217  1  0.25919489  0.86416065  0.12080480  1
  O  O218  1  0.25367047  0.87021306  0.40756188  1
  O  O219  1  0.24460840  0.90003173  0.61068832  1
  O  O220  1  0.24027773  0.84000427  0.88681416  1
  O  O221  1  0.50825712  0.11945806  0.15247874  1
  O  O222  1  0.49418204  0.10367132  0.36523484  1
  O  O223  1  0.48251591  0.13516895  0.65583591  1
  O  O224  1  0.50181200  0.09823766  0.87358209  1
  O  O225  1  0.50248360  0.40506116  0.14129647  1
  O  O226  1  0.49916778  0.39594251  0.36100308  1
  O  O227  1  0.48729131  0.37112254  0.64327038  1
  O  O228  1  0.51045242  0.40054562  0.86534802  1
  O  O229  1  0.49812260  0.60396396  0.15129157  1
  O  O230  1  0.51530113  0.60441845  0.35572243  1
  O  O231  1  0.50710017  0.62188813  0.63696107  1
  O  O232  1  0.51223809  0.59129285  0.85962882  1
  O  O233  1  0.50554257  0.86736607  0.16067289  1
  O  O234  1  0.50025955  0.90330054  0.36678594  1
  O  O235  1  0.50242910  0.86757353  0.66270148  1
  O  O236  1  0.50002266  0.87103693  0.85665620  1
  O  O237  1  0.75388753  0.16401790  0.12969025  1
  O  O238  1  0.74969719  0.15508972  0.40877539  1
  O  O239  1  0.75172041  0.13548301  0.65206578  1
  O  O240  1  0.75512854  0.16189390  0.86430353  1
  O  O241  1  0.75005218  0.35465778  0.11890099  1
  O  O242  1  0.75788801  0.35997762  0.42997420  1
  O  O243  1  0.76083213  0.40438864  0.62291057  1
  O  O244  1  0.75558285  0.35356279  0.89595897  1
  O  O245  1  0.74851780  0.64946216  0.11018175  1
  O  O246  1  0.75264139  0.63743554  0.40654603  1
  O  O247  1  0.76029766  0.60102971  0.61781210  1
  O  O248  1  0.75058667  0.63080173  0.89873516  1
  O  O249  1  0.74607734  0.84800191  0.12166269  1
  O  O250  1  0.74368833  0.86413206  0.41153853  1
  O  O251  1  0.74349881  0.91891530  0.59082409  1
  O  O252  1  0.75710381  0.84753221  0.87017893  1
  O  O253  1  0.13413843  0.00941724  0.14346571  1
  O  O254  1  0.12857276  0.00407969  0.37626615  1
  O  O255  1  0.10234103  0.00728161  0.64063538  1
  O  O256  1  0.14148865  -0.01361451  0.88257297  1
  O  O257  1  0.09942444  0.25531990  0.11174285  1
  O  O258  1  0.08878584  0.25639672  0.38771525  1
  O  O259  1  0.11741649  0.25260698  0.61302825  1
  O  O260  1  0.10767462  0.26530181  0.91586797  1
  O  O261  1  0.13478865  0.49464431  0.15565685  1
  O  O262  1  0.12137424  0.49967010  0.36096663  1
  O  O263  1  0.12000377  0.49738832  0.64501882  1
  O  O264  1  0.16403706  0.49329192  0.86454746  1
  O  O265  1  0.10461047  0.73946312  0.10988536  1
  O  O266  1  0.12227816  0.74419728  0.40794225  1
  O  O267  1  0.13005149  0.76042627  0.59374687  1
  O  O268  1  0.09103625  0.74607792  0.86929248  1
  O  O269  1  0.39335830  -0.00294893  0.13024740  1
  O  O270  1  0.35124682  0.00268122  0.38718751  1
  O  O271  1  0.38002562  0.00547055  0.63436167  1
  O  O272  1  0.33792965  0.01165386  0.90909188  1
  O  O273  1  0.40641172  0.26096277  0.14027842  1
  O  O274  1  0.37963138  0.25769944  0.38146771  1
  O  O275  1  0.35594948  0.25258487  0.62853965  1
  O  O276  1  0.41286635  0.25921558  0.87689656  1
  O  O277  1  0.35021032  0.50083095  0.12862573  1
  O  O278  1  0.34793712  0.49539881  0.38844832  1
  O  O279  1  0.35807098  0.49325889  0.62160832  1
  O  O280  1  0.36986651  0.49673138  0.89999422  1
  O  O281  1  0.39154722  0.73673737  0.14437750  1
  O  O282  1  0.39817169  0.75533830  0.39770138  1
  O  O283  1  0.36985910  0.76072520  0.64860972  1
  O  O284  1  0.40255558  0.73799115  0.85759078  1
  O  O285  1  0.64110630  -0.00634062  0.13057251  1
  O  O286  1  0.64501876  0.00755757  0.41334037  1
  O  O287  1  0.59293382  0.00287836  0.62313527  1
  O  O288  1  0.65656175  0.00677225  0.87172967  1
  O  O289  1  0.60009671  0.25693890  0.12720379  1
  O  O290  1  0.60403616  0.24970170  0.38552464  1
  O  O291  1  0.60851205  0.25285393  0.61904158  1
  O  O292  1  0.60913044  0.24903311  0.90503459  1
  O  O293  1  0.65109396  0.50312957  0.14734445  1
  O  O294  1  0.66575405  0.50411917  0.35681126  1
  O  O295  1  0.61630272  0.49642396  0.66010659  1
  O  O296  1  0.66054675  0.48783601  0.86313788  1
  O  O297  1  0.59512475  0.73520482  0.11156700  1
  O  O298  1  0.61636222  0.75070233  0.38123511  1
  O  O299  1  0.65628084  0.76044386  0.61887647  1
  O  O300  1  0.61678737  0.74207166  0.88085878  1
  O  O301  1  0.83776473  0.00372605  0.14004963  1
  O  O302  1  0.84353106  0.00591581  0.38049653  1
  O  O303  1  0.89119668  0.00902037  0.64605402  1
  O  O304  1  0.84626175  0.00181742  0.86827543  1
  O  O305  1  0.89415280  0.26671778  0.13104418  1
  O  O306  1  0.88523827  0.25443839  0.39941231  1
  O  O307  1  0.85696491  0.25791178  0.60216420  1
  O  O308  1  0.90759184  0.25330670  0.88977347  1
  O  O309  1  0.85225407  0.48820887  0.15306533  1
  O  O310  1  0.85896183  0.50370211  0.38887958  1
  O  O311  1  0.90068574  0.50450652  0.65830915  1
  O  O312  1  0.86280134  0.49315611  0.86064003  1
  O  O313  1  0.88895208  0.74507021  0.14181163  1
  O  O314  1  0.87406124  0.75599762  0.39400259  1
  O  O315  1  0.84450704  0.76919396  0.61439658  1
  O  O316  1  0.90827885  0.75635837  0.86950819  1
