# generated using pymatgen
data_Mg32Ti42(Bi17O64)3
_symmetry_space_group_name_H-M   'P 1'
_cell_length_a   15.88545098
_cell_length_b   15.97890311
_cell_length_c   15.93249412
_cell_angle_alpha   90.01297671
_cell_angle_beta   90.01705835
_cell_angle_gamma   90.25641476
_symmetry_Int_Tables_number   1
_chemical_formula_structural   Mg32Ti42(Bi17O64)3
_chemical_formula_sum   'Mg32 Ti42 Bi51 O192'
_cell_volume   4044.13737105
_cell_formula_units_Z   1
loop_
 _symmetry_equiv_pos_site_id
 _symmetry_equiv_pos_as_xyz
  1  'x, y, z'
loop_
 _atom_site_type_symbol
 _atom_site_label
 _atom_site_symmetry_multiplicity
 _atom_site_fract_x
 _atom_site_fract_y
 _atom_site_fract_z
 _atom_site_occupancy
  Mg  Mg0  1  0.87554914  0.61672600  0.62061273  1
  Mg  Mg1  1  0.12465845  0.62548366  0.61954840  1
  Mg  Mg2  1  0.62510954  0.87367684  0.12762709  1
  Mg  Mg3  1  0.37571562  0.12039148  0.12400424  1
  Mg  Mg4  1  0.62145564  0.37440879  0.37771021  1
  Mg  Mg5  1  0.38041795  0.87835496  0.37510405  1
  Mg  Mg6  1  0.62570619  0.62161745  0.60999282  1
  Mg  Mg7  1  0.88299261  0.14306999  0.12813611  1
  Mg  Mg8  1  0.87711565  0.86724613  0.36888624  1
  Mg  Mg9  1  0.63492099  0.12065190  0.62222580  1
  Mg  Mg10  1  0.88408507  0.87269760  0.62915333  1
  Mg  Mg11  1  0.12804083  0.37645532  0.86893917  1
  Mg  Mg12  1  0.62949697  0.62435015  0.13007352  1
  Mg  Mg13  1  0.12182135  0.12160363  0.61749133  1
  Mg  Mg14  1  0.12360661  0.62700073  0.87083392  1
  Mg  Mg15  1  0.63160240  0.86706704  0.61477764  1
  Mg  Mg16  1  0.62199382  0.12794957  0.12267011  1
  Mg  Mg17  1  0.13523947  0.36699807  0.38636275  1
  Mg  Mg18  1  0.11659778  0.11680654  0.12540843  1
  Mg  Mg19  1  0.03015970  0.24506061  0.28138729  1
  Mg  Mg20  1  0.75350873  0.04640486  0.19854680  1
  Mg  Mg21  1  -0.00880875  0.77496885  0.47937462  1
  Mg  Mg22  1  0.50010818  0.53152608  0.46836254  1
  Mg  Mg23  1  0.78245605  0.45655954  0.48953147  1
  Mg  Mg24  1  0.49558633  -0.03615902  -0.02375257  1
  Mg  Mg25  1  0.75346002  0.73256964  0.23995414  1
  Mg  Mg26  1  0.78474409  -0.05652869  0.50470634  1
  Mg  Mg27  1  0.25213333  0.54949052  0.72776517  1
  Mg  Mg28  1  0.79836158  0.73631780  0.51338715  1
  Mg  Mg29  1  -0.06308715  0.00003713  0.02822781  1
  Mg  Mg30  1  0.26908467  0.05161114  0.69997125  1
  Mg  Mg31  1  0.57840475  -0.01785785  0.48740632  1
  Ti  Ti32  1  0.37346412  0.87040205  0.62441524  1
  Ti  Ti33  1  0.61361191  0.11644189  0.87033144  1
  Ti  Ti34  1  0.88129924  0.63651539  0.38872335  1
  Ti  Ti35  1  0.14142820  0.37326960  0.62835752  1
  Ti  Ti36  1  0.37570013  0.63206490  0.36469616  1
  Ti  Ti37  1  0.64575402  0.63253763  0.38390648  1
  Ti  Ti38  1  0.61502518  0.86398770  0.87478331  1
  Ti  Ti39  1  0.38131541  0.61910716  0.61657901  1
  Ti  Ti40  1  0.60940002  0.39199746  0.60462421  1
  Ti  Ti41  1  0.12249696  0.10635312  0.87514879  1
  Ti  Ti42  1  0.65195397  0.87064872  0.36883529  1
  Ti  Ti43  1  0.63379477  0.37551388  0.13808404  1
  Ti  Ti44  1  0.36903841  0.37115831  0.86868684  1
  Ti  Ti45  1  0.39156588  0.87861720  0.12861168  1
  Ti  Ti46  1  0.37096499  0.11242617  0.37031365  1
  Ti  Ti47  1  0.11516869  0.63138382  0.37688929  1
  Ti  Ti48  1  0.85509489  0.86474037  0.12932812  1
  Ti  Ti49  1  0.87156386  0.11596105  0.87137315  1
  Ti  Ti50  1  0.12723733  0.12515913  0.38047499  1
  Ti  Ti51  1  0.87101631  0.88064780  0.88121948  1
  Ti  Ti52  1  0.38014231  0.11626784  0.88856036  1
  Ti  Ti53  1  0.87582143  0.10683044  0.36942058  1
  Ti  Ti54  1  0.35951359  0.62047120  0.12654567  1
  Ti  Ti55  1  0.12375840  0.88819587  0.37245553  1
  Ti  Ti56  1  0.37111682  0.86502335  0.86587382  1
  Ti  Ti57  1  0.12765785  0.88681635  0.62733642  1
  Ti  Ti58  1  0.64913741  0.12649396  0.37361992  1
  Ti  Ti59  1  0.88015459  0.36078281  0.86820848  1
  Ti  Ti60  1  0.87132294  0.61506784  0.12328455  1
  Ti  Ti61  1  0.62350325  0.62587396  0.87225566  1
  Ti  Ti62  1  0.88469384  0.37774304  0.11602120  1
  Ti  Ti63  1  0.37693847  0.37433346  0.37753840  1
  Ti  Ti64  1  0.11790197  0.87369121  0.11312785  1
  Ti  Ti65  1  0.87752264  0.37244192  0.63152498  1
  Ti  Ti66  1  0.86712890  0.12113465  0.61777683  1
  Ti  Ti67  1  0.87024051  0.61049574  0.87401120  1
  Ti  Ti68  1  0.36975553  0.37319483  0.11846188  1
  Ti  Ti69  1  0.37908507  0.39561981  0.61331019  1
  Ti  Ti70  1  0.11659760  0.61590570  0.12596495  1
  Ti  Ti71  1  0.37275400  0.62025667  0.86997027  1
  Ti  Ti72  1  0.12512189  0.37227719  0.12282784  1
  Ti  Ti73  1  0.12120879  0.86697844  0.86999997  1
  Bi  Bi74  1  0.74952186  0.50359228  0.72830326  1
  Bi  Bi75  1  0.01338959  0.23715580  0.72481264  1
  Bi  Bi76  1  0.28594813  0.23198577  0.53013238  1
  Bi  Bi77  1  0.22611220  0.75571411  0.24587506  1
  Bi  Bi78  1  0.72231571  -0.01648543  -0.00218446  1
  Bi  Bi79  1  0.52575673  0.74780892  0.25276021  1
  Bi  Bi80  1  -0.02669106  0.26929729  0.47675452  1
  Bi  Bi81  1  0.80552485  0.27657228  0.26817987  1
  Bi  Bi82  1  0.51175204  0.20739283  0.49507881  1
  Bi  Bi83  1  0.02465151  0.49021314  0.73884787  1
  Bi  Bi84  1  0.77130121  0.48784911  0.28102377  1
  Bi  Bi85  1  0.23239017  0.76830375  0.48987042  1
  Bi  Bi86  1  0.24249605  0.74386997  0.74199127  1
  Bi  Bi87  1  -0.01495446  -0.00559150  0.21412092  1
  Bi  Bi88  1  0.51529884  -0.00473604  0.70473616  1
  Bi  Bi89  1  0.50995271  0.49011640  0.26666947  1
  Bi  Bi90  1  -0.00992185  0.00301591  0.74494219  1
  Bi  Bi91  1  0.01567722  0.23085839  -0.02025190  1
  Bi  Bi92  1  0.25809090  -0.01607461  0.22888383  1
  Bi  Bi93  1  0.01806842  0.49046035  -0.01898986  1
  Bi  Bi94  1  0.70960459  0.27831945  0.76769744  1
  Bi  Bi95  1  -0.01861768  0.74217572  0.23596078  1
  Bi  Bi96  1  0.53454421  0.01238979  0.25876976  1
  Bi  Bi97  1  0.52072069  0.45975192  0.78548521  1
  Bi  Bi98  1  0.25702239  0.49466857  -0.02912396  1
  Bi  Bi99  1  0.49936434  0.23911254  0.23243048  1
  Bi  Bi100  1  0.75605928  0.21565063  -0.00080139  1
  Bi  Bi101  1  -0.00946877  0.00947381  0.48899919  1
  Bi  Bi102  1  0.74650788  -0.02658897  0.73590009  1
  Bi  Bi103  1  0.50245246  0.77378728  0.48494738  1
  Bi  Bi104  1  0.74382421  0.72866251  0.00121999  1
  Bi  Bi105  1  0.25476106  0.74888505  0.00013658  1
  Bi  Bi106  1  0.00759814  0.73212698  0.71672130  1
  Bi  Bi107  1  0.46324676  0.21543784  0.72328197  1
  Bi  Bi108  1  0.24212493  0.22874940  0.77377328  1
  Bi  Bi109  1  0.27324291  0.00020439  0.50874323  1
  Bi  Bi110  1  0.73706371  0.26596139  0.52317037  1
  Bi  Bi111  1  0.00740845  0.46558123  0.26964976  1
  Bi  Bi112  1  0.24653611  0.22427653  0.24162081  1
  Bi  Bi113  1  0.73513392  0.45839812  -0.02786521  1
  Bi  Bi114  1  0.49640125  0.72776350  0.02256549  1
  Bi  Bi115  1  0.75512233  0.73533806  0.71798075  1
  Bi  Bi116  1  0.23909955  0.22213035  0.00163330  1
  Bi  Bi117  1  0.01150046  0.49544421  0.49805062  1
  Bi  Bi118  1  -0.01755605  0.73958793  -0.02184389  1
  Bi  Bi119  1  0.50022034  0.72672749  0.72559326  1
  Bi  Bi120  1  0.25682786  0.47792964  0.25744819  1
  Bi  Bi121  1  0.51104641  0.49991482  0.01367081  1
  Bi  Bi122  1  0.53926706  0.26797225  -0.01586667  1
  Bi  Bi123  1  0.24412678  0.51784707  0.47797728  1
  Bi  Bi124  1  0.26163484  -0.02131897  -0.01269998  1
  O  O125  1  0.12474283  0.12654489  -0.00473461  1
  O  O126  1  0.11628765  0.15561453  0.25275943  1
  O  O127  1  0.11464986  0.09281353  0.49381505  1
  O  O128  1  0.13568921  0.13695924  0.75502293  1
  O  O129  1  0.13415334  0.41129977  0.00643818  1
  O  O130  1  0.08749448  0.35353253  0.24620306  1
  O  O131  1  0.13379456  0.41087568  0.51194388  1
  O  O132  1  0.09713571  0.35958904  0.74487962  1
  O  O133  1  0.11709716  0.60202264  0.00925785  1
  O  O134  1  0.12294557  0.65221920  0.26043461  1
  O  O135  1  0.11967700  0.59117872  0.49938830  1
  O  O136  1  0.13311631  0.65721456  0.74520194  1
  O  O137  1  0.15145082  0.88530436  0.00283890  1
  O  O138  1  0.10871809  0.84579043  0.26236284  1
  O  O139  1  0.15405407  0.89114353  0.50654021  1
  O  O140  1  0.12255901  0.84873725  0.75313779  1
  O  O141  1  0.37488335  0.14577491  -0.00093982  1
  O  O142  1  0.34273411  0.12125329  0.25322598  1
  O  O143  1  0.36698784  0.12585182  0.49234242  1
  O  O144  1  0.35419681  0.13057997  0.75893298  1
  O  O145  1  0.34178772  0.37247862  0.00485520  1
  O  O146  1  0.39371893  0.40076276  0.25288111  1
  O  O147  1  0.35262538  0.39426064  0.49865208  1
  O  O148  1  0.40272651  0.38443458  0.75231191  1
  O  O149  1  0.35479094  0.64106874  0.00197758  1
  O  O150  1  0.36159344  0.63490089  0.24854574  1
  O  O151  1  0.39666061  0.60267706  0.50370496  1
  O  O152  1  0.36579170  0.62860608  0.75506810  1
  O  O153  1  0.34362394  0.86757636  0.00529631  1
  O  O154  1  0.39373518  0.89195302  0.24530951  1
  O  O155  1  0.34162724  0.87460176  0.50679898  1
  O  O156  1  0.38886697  0.86616420  0.75243617  1
  O  O157  1  0.62146068  0.15043247  -0.00209033  1
  O  O158  1  0.64473681  0.10946491  0.25409712  1
  O  O159  1  0.60892940  0.10697014  0.49087347  1
  O  O160  1  0.63135119  0.10058622  0.75715664  1
  O  O161  1  0.64575044  0.35680096  0.01273439  1
  O  O162  1  0.58928836  0.37412804  0.25038602  1
  O  O163  1  0.66672917  0.39500576  0.49761346  1
  O  O164  1  0.60225411  0.36169081  0.72951616  1
  O  O165  1  0.62092070  0.65224083  -0.00118110  1
  O  O166  1  0.64189583  0.66628982  0.25676685  1
  O  O167  1  0.59928323  0.60900883  0.48775221  1
  O  O168  1  0.65423915  0.61118932  0.75823246  1
  O  O169  1  0.65180573  0.86320360  -0.00409583  1
  O  O170  1  0.59654282  0.86687559  0.25680833  1
  O  O171  1  0.67015864  0.89007088  0.48993394  1
  O  O172  1  0.61460659  0.90365974  0.76121466  1
  O  O173  1  0.88308787  0.14614876  -0.00384460  1
  O  O174  1  0.85921525  0.10107825  0.25582105  1
  O  O175  1  0.89758745  0.14273621  0.50313140  1
  O  O176  1  0.87114190  0.09493137  0.75350718  1
  O  O177  1  0.84710862  0.36637774  0.00080904  1
  O  O178  1  0.88592881  0.39528401  0.24596588  1
  O  O179  1  0.85641202  0.35492995  0.50929491  1
  O  O180  1  0.88988760  0.38782378  0.75275651  1
  O  O181  1  0.88383964  0.63547541  0.00267707  1
  O  O182  1  0.85985180  0.64959736  0.24851978  1
  O  O183  1  0.90015650  0.65730874  0.50059853  1
  O  O184  1  0.84255688  0.61232913  0.75645234  1
  O  O185  1  0.85400364  0.88934271  0.00607572  1
  O  O186  1  0.90730887  0.86847403  0.24168751  1
  O  O187  1  0.86393903  0.84414020  0.50344298  1
  O  O188  1  0.88385269  0.90869067  0.76049073  1
  O  O189  1  -0.00662082  0.08782364  0.11199715  1
  O  O190  1  -0.00269804  0.08648305  0.37124591  1
  O  O191  1  -0.00411391  0.10700926  0.64643062  1
  O  O192  1  0.00394398  0.14023595  0.86835868  1
  O  O193  1  -0.00254235  0.40346266  0.10615326  1
  O  O194  1  0.00864098  0.40001302  0.39481021  1
  O  O195  1  -0.00804629  0.40607269  0.61317922  1
  O  O196  1  -0.00574412  0.36185454  0.90537289  1
  O  O197  1  -0.00338079  0.61357101  0.14091567  1
  O  O198  1  0.00016844  0.59127161  0.37084194  1
  O  O199  1  -0.00111547  0.60715520  0.65062070  1
  O  O200  1  -0.01149179  0.64474249  0.87070840  1
  O  O201  1  0.00431766  0.91067458  0.10160765  1
  O  O202  1  0.01024735  0.89178474  0.41097185  1
  O  O203  1  0.00863713  0.91792355  0.63280478  1
  O  O204  1  0.00491049  0.86021419  0.88959418  1
  O  O205  1  0.24325039  0.14928828  0.12232991  1
  O  O206  1  0.24160518  0.15217292  0.37976799  1
  O  O207  1  0.24477571  0.15066035  0.62638055  1
  O  O208  1  0.24944918  0.12522762  0.88223470  1
  O  O209  1  0.24191890  0.36595583  0.15146459  1
  O  O210  1  0.25714625  0.36557249  0.34852823  1
  O  O211  1  0.25264931  0.35034575  0.63649602  1
  O  O212  1  0.25413245  0.40468241  0.86186718  1
  O  O213  1  0.24146184  0.65282803  0.12774003  1
  O  O214  1  0.24917105  0.64751702  0.39756166  1
  O  O215  1  0.25502897  0.64744569  0.63057663  1
  O  O216  1  0.25013500  0.59399302  0.86132137  1
  O  O217  1  0.24343136  0.85966440  0.15238582  1
  O  O218  1  0.24262118  0.84187628  0.36837905  1
  O  O219  1  0.24478797  0.83519882  0.63754448  1
  O  O220  1  0.25601471  0.89473554  0.86716313  1
  O  O221  1  0.49885841  0.11666785  0.16120457  1
  O  O222  1  0.48845251  0.10834788  0.35522057  1
  O  O223  1  0.50447510  0.12402911  0.63515480  1
  O  O224  1  0.49408729  0.13221039  0.85999942  1
  O  O225  1  0.48682072  0.39170694  0.09693865  1
  O  O226  1  0.49661677  0.42675472  0.39099939  1
  O  O227  1  0.49696405  0.41993575  0.59076650  1
  O  O228  1  0.49123386  0.38169647  0.89593431  1
  O  O229  1  0.48636741  0.61197469  0.10684436  1
  O  O230  1  0.49155673  0.60426513  0.35893798  1
  O  O231  1  0.49621075  0.61034413  0.65145845  1
  O  O232  1  0.50075830  0.63441097  0.87144870  1
  O  O233  1  0.49573506  0.91082725  0.09031151  1
  O  O234  1  0.50458337  0.89417779  0.42345547  1
  O  O235  1  0.49138150  0.88994710  0.60933227  1
  O  O236  1  0.49759131  0.86410619  0.89820017  1
  O  O237  1  0.75426339  0.14681996  0.11756929  1
  O  O238  1  0.75953928  0.14797366  0.38769306  1
  O  O239  1  0.75586065  0.15787805  0.62242589  1
  O  O240  1  0.75138153  0.11486760  0.89074996  1
  O  O241  1  0.74581534  0.36615709  0.15858633  1
  O  O242  1  0.74795897  0.37314129  0.34952089  1
  O  O243  1  0.74977030  0.34532198  0.64080945  1
  O  O244  1  0.75322509  0.38080711  0.85637321  1
  O  O245  1  0.75436876  0.65259910  0.11964064  1
  O  O246  1  0.75679614  0.66652959  0.40359573  1
  O  O247  1  0.75005985  0.66170375  0.60393888  1
  O  O248  1  0.74989225  0.62477587  0.90290481  1
  O  O249  1  0.75032895  0.82848551  0.15147699  1
  O  O250  1  0.75302318  0.83787115  0.33690939  1
  O  O251  1  0.75265489  0.86427780  0.65063647  1
  O  O252  1  0.75148087  0.90114002  0.86245099  1
  O  O253  1  0.14035544  -0.00788750  0.15383572  1
  O  O254  1  0.14653482  -0.00238148  0.35211357  1
  O  O255  1  0.16475899  -0.00474835  0.64874003  1
  O  O256  1  0.11706036  -0.00507640  0.86894092  1
  O  O257  1  0.11240305  0.26230028  0.09338331  1
  O  O258  1  0.09324486  0.24230028  0.39366916  1
  O  O259  1  0.09496347  0.25804641  0.61322086  1
  O  O260  1  0.13972586  0.25331474  0.89043544  1
  O  O261  1  0.13325201  0.50584639  0.15854181  1
  O  O262  1  0.15671331  0.50362958  0.36164307  1
  O  O263  1  0.14690355  0.49737182  0.66887322  1
  O  O264  1  0.09492296  0.50101458  0.86400769  1
  O  O265  1  0.10582550  0.75599971  0.11552025  1
  O  O266  1  0.10294119  0.74195060  0.41558924  1
  O  O267  1  0.07341295  0.76292775  0.59877353  1
  O  O268  1  0.14662729  0.75327767  0.89800606  1
  O  O269  1  0.34048698  -0.00431291  0.11455286  1
  O  O270  1  0.34522337  0.00101471  0.38259211  1
  O  O271  1  0.34803449  -0.01447325  0.63186239  1
  O  O272  1  0.39084201  -0.00081887  0.90572836  1
  O  O273  1  0.38572082  0.26034994  0.14808521  1
  O  O274  1  0.39681589  0.26279976  0.37990207  1
  O  O275  1  0.39778488  0.27031444  0.61077118  1
  O  O276  1  0.35773117  0.25740633  0.86905352  1
  O  O277  1  0.34760689  0.50650643  0.12080304  1
  O  O278  1  0.34307226  0.51159946  0.37113111  1
  O  O279  1  0.34063534  0.50422195  0.63969087  1
  O  O280  1  0.38877596  0.50644674  0.89818007  1
  O  O281  1  0.39732140  0.75761148  0.12567214  1
  O  O282  1  0.40103527  0.74857683  0.38931081  1
  O  O283  1  0.39999467  0.74469605  0.62456034  1
  O  O284  1  0.35229450  0.74993069  0.88195419  1
  O  O285  1  0.65932271  -0.00275574  0.12467225  1
  O  O286  1  0.63487900  -0.00330442  0.36784918  1
  O  O287  1  0.62177903  -0.00520471  0.61836717  1
  O  O288  1  0.60274125  0.00241846  0.91739776  1
  O  O289  1  0.59145502  0.25810761  0.13068243  1
  O  O290  1  0.60704872  0.23975041  0.38764748  1
  O  O291  1  0.60691383  0.26120750  0.58873344  1
  O  O292  1  0.62028921  0.24054375  0.86735392  1
  O  O293  1  0.62220715  0.49602464  0.11153986  1
  O  O294  1  0.64636875  0.51826962  0.34568592  1
  O  O295  1  0.64844778  0.49754788  0.63233186  1
  O  O296  1  0.61756940  0.50723339  0.89477402  1
  O  O297  1  0.58300495  0.75252094  0.12634085  1
  O  O298  1  0.59960827  0.75502790  0.38680549  1
  O  O299  1  0.60425893  0.74768342  0.63960643  1
  O  O300  1  0.63231233  0.75369990  0.85613309  1
  O  O301  1  0.85505959  -0.01043941  0.13506128  1
  O  O302  1  0.85622006  -0.00424994  0.40880683  1
  O  O303  1  0.84305662  0.00668734  0.60104834  1
  O  O304  1  0.90072753  0.00608989  0.90364561  1
  O  O305  1  0.89659190  0.26567406  0.14543302  1
  O  O306  1  0.91875717  0.23633704  0.35064395  1
  O  O307  1  0.90228155  0.25302174  0.63897463  1
  O  O308  1  0.86521971  0.24749688  0.85770970  1
  O  O309  1  0.85286421  0.50417128  0.11602628  1
  O  O310  1  0.84201148  0.51860132  0.39612929  1
  O  O311  1  0.83443124  0.49260455  0.60885837  1
  O  O312  1  0.87946412  0.49842678  0.88787128  1
  O  O313  1  0.90458400  0.75742144  0.11178201  1
  O  O314  1  0.92297889  0.74742386  0.36879816  1
  O  O315  1  0.88219700  0.74905533  0.65464727  1
  O  O316  1  0.86706370  0.76380661  0.89097368  1
