# generated using pymatgen
data_Mg32Ti42(Bi17O64)3
_symmetry_space_group_name_H-M   'P 1'
_cell_length_a   15.95471916
_cell_length_b   15.94273591
_cell_length_c   15.92793180
_cell_angle_alpha   90.00358753
_cell_angle_beta   90.04679416
_cell_angle_gamma   90.11582265
_symmetry_Int_Tables_number   1
_chemical_formula_structural   Mg32Ti42(Bi17O64)3
_chemical_formula_sum   'Mg32 Ti42 Bi51 O192'
_cell_volume   4051.44894785
_cell_formula_units_Z   1
loop_
 _symmetry_equiv_pos_site_id
 _symmetry_equiv_pos_as_xyz
  1  'x, y, z'
loop_
 _atom_site_type_symbol
 _atom_site_label
 _atom_site_symmetry_multiplicity
 _atom_site_fract_x
 _atom_site_fract_y
 _atom_site_fract_z
 _atom_site_occupancy
  Mg  Mg0  1  0.62619302  0.37295680  0.37939919  1
  Mg  Mg1  1  0.87486058  0.62240471  0.63234289  1
  Mg  Mg2  1  0.87973003  0.13354857  0.37356097  1
  Mg  Mg3  1  0.36636149  0.61787872  0.37008758  1
  Mg  Mg4  1  0.87069975  0.63037859  0.37236041  1
  Mg  Mg5  1  0.62472270  0.12176820  0.86776871  1
  Mg  Mg6  1  0.37842740  0.62925928  0.62536188  1
  Mg  Mg7  1  0.12011932  0.63120924  0.62768637  1
  Mg  Mg8  1  0.37649656  0.37647966  0.88581795  1
  Mg  Mg9  1  0.38143587  0.63342680  0.87632866  1
  Mg  Mg10  1  0.11784775  0.86718088  0.87201611  1
  Mg  Mg11  1  0.61475419  0.87698295  0.37921113  1
  Mg  Mg12  1  0.13149754  0.60885836  0.36931952  1
  Mg  Mg13  1  0.62248194  0.62686346  0.37574849  1
  Mg  Mg14  1  0.61222244  0.11621090  0.62535905  1
  Mg  Mg15  1  0.37055141  0.87735015  0.87309040  1
  Mg  Mg16  1  0.87383328  0.88392379  0.62301745  1
  Mg  Mg17  1  0.62534897  0.13013466  0.12445814  1
  Mg  Mg18  1  0.87748437  0.13721902  0.86840814  1
  Mg  Mg19  1  0.77601331  0.47607925  -0.03963597  1
  Mg  Mg20  1  0.69139126  0.48637294  0.79382650  1
  Mg  Mg21  1  0.05305127  0.29305817  0.00887614  1
  Mg  Mg22  1  0.22600816  -0.00962763  0.54182011  1
  Mg  Mg23  1  -0.01014416  0.73177896  0.03596767  1
  Mg  Mg24  1  0.43518005  -0.01653952  0.26847379  1
  Mg  Mg25  1  -0.01410713  0.73126509  0.50561101  1
  Mg  Mg26  1  0.41821686  0.04984128  0.47687315  1
  Mg  Mg27  1  0.55188506  0.76141981  0.78031596  1
  Mg  Mg28  1  0.00318231  0.24944579  0.71136949  1
  Mg  Mg29  1  0.56403489  0.43927261  -0.02333050  1
  Mg  Mg30  1  0.52175975  0.48065403  0.27180804  1
  Mg  Mg31  1  0.25307373  0.51442146  0.21959358  1
  Ti  Ti32  1  0.62035391  0.63488975  0.62856925  1
  Ti  Ti33  1  0.85876116  0.62413207  0.12171226  1
  Ti  Ti34  1  0.86912852  0.87253301  0.38345606  1
  Ti  Ti35  1  0.36380812  0.87438918  0.38134602  1
  Ti  Ti36  1  0.86700739  0.36940990  0.37192468  1
  Ti  Ti37  1  0.37615692  0.11736533  0.87079070  1
  Ti  Ti38  1  0.86945573  0.86827713  0.12941002  1
  Ti  Ti39  1  0.86910935  0.62083172  0.88019750  1
  Ti  Ti40  1  0.11867307  0.13813741  0.86488242  1
  Ti  Ti41  1  0.10824445  0.86767543  0.11274971  1
  Ti  Ti42  1  0.60912767  0.61740846  0.12934594  1
  Ti  Ti43  1  0.37555824  0.62876320  0.12291082  1
  Ti  Ti44  1  0.88698913  0.88284184  0.87329324  1
  Ti  Ti45  1  0.89568879  0.37115898  0.85847468  1
  Ti  Ti46  1  0.12787707  0.12387633  0.37328500  1
  Ti  Ti47  1  0.61882081  0.87399866  0.61229931  1
  Ti  Ti48  1  0.86887635  0.38260714  0.13057666  1
  Ti  Ti49  1  0.36994874  0.38926037  0.12693542  1
  Ti  Ti50  1  0.61457213  0.88051262  0.13418972  1
  Ti  Ti51  1  0.12260058  0.63130437  0.11816448  1
  Ti  Ti52  1  0.87282480  0.13339023  0.12871344  1
  Ti  Ti53  1  0.36528112  0.86967470  0.12081104  1
  Ti  Ti54  1  0.36753258  0.10727729  0.12443771  1
  Ti  Ti55  1  0.87963701  0.37934809  0.61754560  1
  Ti  Ti56  1  0.63543737  0.62420554  0.89667295  1
  Ti  Ti57  1  0.37498435  0.37533556  0.62392968  1
  Ti  Ti58  1  0.11608212  0.87449592  0.39746729  1
  Ti  Ti59  1  0.11566889  0.37515863  0.85732072  1
  Ti  Ti60  1  0.38369039  0.12519676  0.63510245  1
  Ti  Ti61  1  0.13644781  0.13274272  0.61865901  1
  Ti  Ti62  1  0.61254656  0.37419650  0.61748279  1
  Ti  Ti63  1  0.38183386  0.38754445  0.35916883  1
  Ti  Ti64  1  0.12637705  0.37589307  0.61827987  1
  Ti  Ti65  1  0.12129445  0.11727081  0.12119881  1
  Ti  Ti66  1  0.62866306  0.38607445  0.12929445  1
  Ti  Ti67  1  0.38091783  0.88215281  0.61766257  1
  Ti  Ti68  1  0.13491938  0.39370270  0.13194101  1
  Ti  Ti69  1  0.87458677  0.13589708  0.63120644  1
  Ti  Ti70  1  0.11814397  0.62794917  0.87406884  1
  Ti  Ti71  1  0.61763549  0.11965353  0.38439023  1
  Ti  Ti72  1  0.13925583  0.38851193  0.36583694  1
  Ti  Ti73  1  0.12591663  0.86686314  0.62461568  1
  Bi  Bi74  1  0.27678744  0.75936102  0.74180636  1
  Bi  Bi75  1  -0.01660158  0.01741461  0.49796569  1
  Bi  Bi76  1  0.72360242  0.75874016  0.25951159  1
  Bi  Bi77  1  -0.00292426  0.51908232  -0.00902075  1
  Bi  Bi78  1  0.22904044  -0.01058117  -0.01856163  1
  Bi  Bi79  1  -0.00939871  0.02863965  -0.00843180  1
  Bi  Bi80  1  0.49448273  0.77302275  0.25715848  1
  Bi  Bi81  1  0.73025785  -0.00138175  0.75566257  1
  Bi  Bi82  1  0.74380730  0.01012556  0.49694713  1
  Bi  Bi83  1  0.28118715  0.50043046  0.76682826  1
  Bi  Bi84  1  0.23835545  0.23653222  0.24849973  1
  Bi  Bi85  1  0.50076505  0.53246428  0.77434448  1
  Bi  Bi86  1  -0.00514729  0.51964787  0.74019271  1
  Bi  Bi87  1  0.21953816  -0.03200002  0.25184012  1
  Bi  Bi88  1  0.74900467  0.79091617  -0.01109681  1
  Bi  Bi89  1  0.73060237  0.24857602  0.53496910  1
  Bi  Bi90  1  0.26552900  0.51674696  -0.01439625  1
  Bi  Bi91  1  -0.01551217  0.76984414  0.72747892  1
  Bi  Bi92  1  -0.01083396  0.52393781  0.50129696  1
  Bi  Bi93  1  0.52768383  0.29204430  0.78815002  1
  Bi  Bi94  1  0.77056175  0.74268274  0.52818126  1
  Bi  Bi95  1  -0.03405420  -0.00517070  0.25181431  1
  Bi  Bi96  1  0.72182567  0.01051704  0.24894414  1
  Bi  Bi97  1  0.25190264  0.24651072  0.47541786  1
  Bi  Bi98  1  0.74955051  0.77477062  0.76430160  1
  Bi  Bi99  1  0.25059393  0.75750894  -0.02004817  1
  Bi  Bi100  1  0.73575268  0.51872833  0.50638916  1
  Bi  Bi101  1  0.74310283  0.28518564  0.76879845  1
  Bi  Bi102  1  0.52174745  -0.02899483  0.77841017  1
  Bi  Bi103  1  0.48097742  0.50223537  0.49066557  1
  Bi  Bi104  1  0.75808623  0.27957467  0.00412969  1
  Bi  Bi105  1  0.24970495  0.72606918  0.25222277  1
  Bi  Bi106  1  0.48338336  0.21313530  0.25351440  1
  Bi  Bi107  1  -0.02653576  0.51058768  0.26148490  1
  Bi  Bi108  1  0.52065995  0.02558978  -0.00213242  1
  Bi  Bi109  1  0.48407244  0.72874033  0.48192283  1
  Bi  Bi110  1  0.27444371  0.25983027  0.74270989  1
  Bi  Bi111  1  0.73364496  0.52045475  0.26576520  1
  Bi  Bi112  1  0.00385730  0.73989465  0.29101625  1
  Bi  Bi113  1  0.74587683  0.02682456  -0.00734034  1
  Bi  Bi114  1  0.00452550  0.26354318  0.22020954  1
  Bi  Bi115  1  0.23341521  0.51417466  0.52319755  1
  Bi  Bi116  1  0.25835408  0.73812277  0.50339372  1
  Bi  Bi117  1  0.26164552  0.24437776  -0.02428762  1
  Bi  Bi118  1  -0.00893243  0.02136678  0.73457630  1
  Bi  Bi119  1  0.49002678  0.25670968  0.03296642  1
  Bi  Bi120  1  0.50721269  0.77861123  -0.02368873  1
  Bi  Bi121  1  0.72188657  0.23862749  0.26872223  1
  Bi  Bi122  1  0.23605983  -0.00847636  0.75530469  1
  Bi  Bi123  1  0.00552934  0.27295845  0.48127359  1
  Bi  Bi124  1  0.47762900  0.24088769  0.48592239  1
  O  O125  1  0.13066190  0.09838023  0.00710032  1
  O  O126  1  0.11650463  0.14768818  0.25676297  1
  O  O127  1  0.16684402  0.10586195  0.50742940  1
  O  O128  1  0.09860982  0.15407841  0.75278702  1
  O  O129  1  0.14551004  0.38358516  0.01920145  1
  O  O130  1  0.12378099  0.33952666  0.25150017  1
  O  O131  1  0.15649790  0.39039572  0.49606352  1
  O  O132  1  0.10066151  0.35074616  0.74501234  1
  O  O133  1  0.13442436  0.59118433  0.00066351  1
  O  O134  1  0.12275883  0.65862726  0.24328805  1
  O  O135  1  0.11701142  0.58634783  0.49443139  1
  O  O136  1  0.09191882  0.62778002  0.75946375  1
  O  O137  1  0.11264075  0.90810652  0.00135090  1
  O  O138  1  0.14040765  0.85391755  0.23737780  1
  O  O139  1  0.11446325  0.91491072  0.50538811  1
  O  O140  1  0.15974876  0.86597961  0.74372163  1
  O  O141  1  0.35507093  0.14524638  0.00871904  1
  O  O142  1  0.40115220  0.10450278  0.24189112  1
  O  O143  1  0.36608982  0.16126900  0.50959017  1
  O  O144  1  0.38678138  0.09934259  0.75422489  1
  O  O145  1  0.35193141  0.36123185  0.01344386  1
  O  O146  1  0.40759012  0.41664814  0.24929185  1
  O  O147  1  0.38022370  0.34425164  0.50561182  1
  O  O148  1  0.37249248  0.38599441  0.75078112  1
  O  O149  1  0.35055348  0.63171418  0.00164810  1
  O  O150  1  0.34146646  0.60952118  0.24519924  1
  O  O151  1  0.36980129  0.65375028  0.49933999  1
  O  O152  1  0.37193303  0.60921519  0.74871836  1
  O  O153  1  0.40376901  0.86088729  0.00432671  1
  O  O154  1  0.35266230  0.88387851  0.24414125  1
  O  O155  1  0.38543836  0.84824237  0.49563200  1
  O  O156  1  0.34324540  0.88689271  0.73981094  1
  O  O157  1  0.63623711  0.11253787  -0.00214378  1
  O  O158  1  0.62317991  0.11241191  0.25452372  1
  O  O159  1  0.65722934  0.12663806  0.49945751  1
  O  O160  1  0.61565737  0.07891341  0.74629672  1
  O  O161  1  0.67886227  0.38920245  -0.00496900  1
  O  O162  1  0.61189762  0.39667784  0.24281832  1
  O  O163  1  0.63222361  0.34600961  0.50273296  1
  O  O164  1  0.62923755  0.38359492  0.74273412  1
  O  O165  1  0.63143449  0.64757831  0.00625724  1
  O  O166  1  0.60265039  0.57997465  0.24880125  1
  O  O167  1  0.65698275  0.63795910  0.50335156  1
  O  O168  1  0.62744282  0.58400479  0.73607336  1
  O  O169  1  0.61280023  0.85513782  0.01365862  1
  O  O170  1  0.64968378  0.88825524  0.25112053  1
  O  O171  1  0.60962150  0.84596182  0.50321049  1
  O  O172  1  0.62715211  0.88978137  0.74313079  1
  O  O173  1  0.86585087  0.10301452  0.00281700  1
  O  O174  1  0.90211685  0.12577633  0.24444338  1
  O  O175  1  0.86834882  0.10163981  0.50684472  1
  O  O176  1  0.91727410  0.14968101  0.74477285  1
  O  O177  1  0.85350688  0.38400549  0.00823414  1
  O  O178  1  0.90367078  0.36630956  0.25013402  1
  O  O179  1  0.87327505  0.38386134  0.49310300  1
  O  O180  1  0.91723576  0.35064643  0.74598618  1
  O  O181  1  0.85645293  0.57807814  0.00324725  1
  O  O182  1  0.90186927  0.63700540  0.23870312  1
  O  O183  1  0.88124666  0.61950521  0.49822165  1
  O  O184  1  0.90174936  0.62501052  0.76348107  1
  O  O185  1  0.86644426  0.87826904  -0.00809278  1
  O  O186  1  0.88222488  0.85361673  0.24569935  1
  O  O187  1  0.87468431  0.90314510  0.49674788  1
  O  O188  1  0.87098045  0.84762068  0.74908708  1
  O  O189  1  -0.00058168  0.10422140  0.11187904  1
  O  O190  1  0.01101729  0.12134914  0.40826214  1
  O  O191  1  0.01346164  0.09674033  0.60959687  1
  O  O192  1  0.00453220  0.12970745  0.90054491  1
  O  O193  1  0.01040523  0.37007383  0.11908406  1
  O  O194  1  0.02427671  0.40250210  0.38143702  1
  O  O195  1  0.01207723  0.39261310  0.59587291  1
  O  O196  1  -0.00040770  0.35076190  0.91078638  1
  O  O197  1  0.00112550  0.61989411  0.10058940  1
  O  O198  1  0.00426497  0.60946065  0.36351465  1
  O  O199  1  0.00055035  0.59931941  0.61860852  1
  O  O200  1  -0.00912581  0.64178213  0.92268339  1
  O  O201  1  -0.00563686  0.85548386  0.11411809  1
  O  O202  1  0.00638169  0.89695611  0.36074288  1
  O  O203  1  0.00811039  0.89330274  0.65442475  1
  O  O204  1  -0.00382305  0.84453101  0.85585348  1
  O  O205  1  0.24835405  0.12359529  0.14681060  1
  O  O206  1  0.24636662  0.15775235  0.36392683  1
  O  O207  1  0.24943255  0.14585328  0.65502345  1
  O  O208  1  0.24442430  0.13551579  0.87417281  1
  O  O209  1  0.25653639  0.38261750  0.16273018  1
  O  O210  1  0.26668226  0.34135449  0.36070420  1
  O  O211  1  0.25323170  0.34619717  0.63201945  1
  O  O212  1  0.23311977  0.38769071  0.86097795  1
  O  O213  1  0.24067126  0.64364060  0.12765882  1
  O  O214  1  0.24382068  0.66219835  0.38005742  1
  O  O215  1  0.24350262  0.63981919  0.60709895  1
  O  O216  1  0.23332714  0.59640192  0.86701797  1
  O  O217  1  0.25137563  0.87111472  0.09328984  1
  O  O218  1  0.24198984  0.86237980  0.38034815  1
  O  O219  1  0.24238036  0.87033161  0.59500779  1
  O  O220  1  0.24486150  0.87715424  0.90233730  1
  O  O221  1  0.49556180  0.12792644  0.10347962  1
  O  O222  1  0.50635641  0.11257176  0.40641441  1
  O  O223  1  0.48919661  0.10793917  0.59802912  1
  O  O224  1  0.49096476  0.12761005  0.90131199  1
  O  O225  1  0.50770326  0.38837287  0.08639620  1
  O  O226  1  0.50513019  0.41592889  0.38246166  1
  O  O227  1  0.49928141  0.37896335  0.62534472  1
  O  O228  1  0.50105440  0.36104107  0.89939225  1
  O  O229  1  0.49170648  0.62350911  0.12093276  1
  O  O230  1  0.49935030  0.60663090  0.40094496  1
  O  O231  1  0.50678589  0.62025047  0.59868884  1
  O  O232  1  0.50943139  0.64861842  0.84981390  1
  O  O233  1  0.49967647  0.88421377  0.15237307  1
  O  O234  1  0.49068823  0.88876426  0.33902447  1
  O  O235  1  0.49361847  0.89558028  0.63312963  1
  O  O236  1  0.49230654  0.84230323  0.85395432  1
  O  O237  1  0.75622342  0.12388760  0.13386174  1
  O  O238  1  0.75514924  0.14339231  0.35682780  1
  O  O239  1  0.76283986  0.14920150  0.64278412  1
  O  O240  1  0.75357511  0.08823039  0.86620272  1
  O  O241  1  0.75417760  0.36615534  0.14670562  1
  O  O242  1  0.75646336  0.34604983  0.35675785  1
  O  O243  1  0.76487900  0.35542309  0.62871075  1
  O  O244  1  0.77378325  0.40359895  0.84045936  1
  O  O245  1  0.74713581  0.62325092  0.15220950  1
  O  O246  1  0.74825048  0.63693285  0.34049689  1
  O  O247  1  0.75215633  0.65210315  0.63038756  1
  O  O248  1  0.74742889  0.57664112  0.87633747  1
  O  O249  1  0.75107591  0.85771556  0.11708431  1
  O  O250  1  0.75787569  0.85031097  0.37921458  1
  O  O251  1  0.74375933  0.84631185  0.62067486  1
  O  O252  1  0.75918610  0.87747894  0.86413511  1
  O  O253  1  0.12240080  -0.00686186  0.15189393  1
  O  O254  1  0.13779793  0.00506381  0.35882783  1
  O  O255  1  0.15073055  0.00710692  0.64705390  1
  O  O256  1  0.13577239  0.00769938  0.85894575  1
  O  O257  1  0.10929683  0.23625831  0.11080467  1
  O  O258  1  0.12015648  0.25170858  0.40182443  1
  O  O259  1  0.10317014  0.24732365  0.60739894  1
  O  O260  1  0.12732585  0.25336843  0.90403946  1
  O  O261  1  0.13846447  0.50639156  0.15302902  1
  O  O262  1  0.17651485  0.49144696  0.33058511  1
  O  O263  1  0.15365056  0.48901934  0.63873703  1
  O  O264  1  0.08834607  0.49074816  0.86581297  1
  O  O265  1  0.11172106  0.74841659  0.08130839  1
  O  O266  1  0.08684635  0.76134629  0.41254801  1
  O  O267  1  0.09344131  0.75694833  0.60086989  1
  O  O268  1  0.14207415  0.73937616  0.88994901  1
  O  O269  1  0.37211725  -0.00429762  0.11392078  1
  O  O270  1  0.36664771  -0.01157537  0.38235153  1
  O  O271  1  0.34832793  0.00537098  0.58222591  1
  O  O272  1  0.36357585  0.00439311  0.89409282  1
  O  O273  1  0.39598696  0.26284087  0.15023177  1
  O  O274  1  0.41785801  0.26726024  0.36091391  1
  O  O275  1  0.38886811  0.24360020  0.66326222  1
  O  O276  1  0.35888464  0.24888321  0.87256151  1
  O  O277  1  0.35079177  0.50627566  0.11327513  1
  O  O278  1  0.36187472  0.49386998  0.40899766  1
  O  O279  1  0.36222279  0.49071930  0.60977276  1
  O  O280  1  0.37069779  0.50297405  0.87984078  1
  O  O281  1  0.37509535  0.75027528  0.13733116  1
  O  O282  1  0.39977575  0.74920781  0.36238740  1
  O  O283  1  0.37238954  0.76154956  0.63831836  1
  O  O284  1  0.34021658  0.74991729  0.86616948  1
  O  O285  1  0.63632700  -0.00535738  0.12094503  1
  O  O286  1  0.65426013  0.00208210  0.38326711  1
  O  O287  1  0.65322954  -0.01109314  0.60248685  1
  O  O288  1  0.60021237  -0.00714343  0.88836543  1
  O  O289  1  0.61285617  0.26149677  0.11427229  1
  O  O290  1  0.61385077  0.24287856  0.35746313  1
  O  O291  1  0.62857043  0.24878644  0.63268031  1
  O  O292  1  0.63808149  0.24448604  0.85096786  1
  O  O293  1  0.62383667  0.50324740  0.09846620  1
  O  O294  1  0.66306539  0.49736298  0.39189126  1
  O  O295  1  0.63523234  0.49105164  0.59329968  1
  O  O296  1  0.59548044  0.50996764  0.88063239  1
  O  O297  1  0.61905073  0.74203817  0.15883290  1
  O  O298  1  0.60837893  0.74942297  0.34248350  1
  O  O299  1  0.60275685  0.74516331  0.66429446  1
  O  O300  1  0.64898689  0.73435846  0.85744829  1
  O  O301  1  0.87205621  -0.01414978  0.14131794  1
  O  O302  1  0.87006108  -0.00424261  0.35084686  1
  O  O303  1  0.87325265  0.00948735  0.65826749  1
  O  O304  1  0.90386644  -0.00575244  0.85943846  1
  O  O305  1  0.88583806  0.24824465  0.11793441  1
  O  O306  1  0.90802403  0.25871339  0.37887777  1
  O  O307  1  0.91294753  0.24860692  0.60897868  1
  O  O308  1  0.83922976  0.26003443  0.88338714  1
  O  O309  1  0.87729407  0.49695074  0.14876311  1
  O  O310  1  0.86688799  0.49610335  0.34987716  1
  O  O311  1  0.87258084  0.49099202  0.63794056  1
  O  O312  1  0.90942553  0.49245075  0.86942555  1
  O  O313  1  0.87246086  0.73678078  0.08680258  1
  O  O314  1  0.90853068  0.75614305  0.39814662  1
  O  O315  1  0.90231447  0.75444106  0.60234373  1
  O  O316  1  0.83988410  0.73154215  0.88131967  1
