# generated using pymatgen
data_Mg32Ti42(Bi17O64)3
_symmetry_space_group_name_H-M   'P 1'
_cell_length_a   15.94505524
_cell_length_b   15.98546199
_cell_length_c   16.00128701
_cell_angle_alpha   90.04076060
_cell_angle_beta   89.96031623
_cell_angle_gamma   89.90139571
_symmetry_Int_Tables_number   1
_chemical_formula_structural   Mg32Ti42(Bi17O64)3
_chemical_formula_sum   'Mg32 Ti42 Bi51 O192'
_cell_volume   4078.54518029
_cell_formula_units_Z   1
loop_
 _symmetry_equiv_pos_site_id
 _symmetry_equiv_pos_as_xyz
  1  'x, y, z'
loop_
 _atom_site_type_symbol
 _atom_site_label
 _atom_site_symmetry_multiplicity
 _atom_site_fract_x
 _atom_site_fract_y
 _atom_site_fract_z
 _atom_site_occupancy
  Mg  Mg0  1  0.87385017  0.88103281  0.88399091  1
  Mg  Mg1  1  0.13061356  0.61761059  0.62815047  1
  Mg  Mg2  1  0.87730585  0.87422807  0.62532876  1
  Mg  Mg3  1  0.12666817  0.62424087  0.13256424  1
  Mg  Mg4  1  0.87920634  0.87194966  0.12863466  1
  Mg  Mg5  1  0.87459452  0.62166793  0.87469224  1
  Mg  Mg6  1  0.62939370  0.12623503  0.87399623  1
  Mg  Mg7  1  0.63088317  0.11109956  0.37952434  1
  Mg  Mg8  1  0.63174056  0.61391301  0.87935985  1
  Mg  Mg9  1  0.62313712  0.87770142  0.62962017  1
  Mg  Mg10  1  0.37289476  0.13620315  0.88781157  1
  Mg  Mg11  1  0.61448531  0.12933022  0.13171485  1
  Mg  Mg12  1  0.63066615  0.38011123  0.12221669  1
  Mg  Mg13  1  0.63147651  0.87260625  0.12558644  1
  Mg  Mg14  1  0.62643085  0.13071202  0.62561994  1
  Mg  Mg15  1  0.12889929  0.87931813  0.88229354  1
  Mg  Mg16  1  0.37814973  0.62045210  0.37312593  1
  Mg  Mg17  1  0.87481992  0.88930685  0.37258302  1
  Mg  Mg18  1  0.63371921  0.61852644  0.12759257  1
  Mg  Mg19  1  0.04304753  0.00109531  0.28978551  1
  Mg  Mg20  1  0.50171854  0.20780530  0.27917518  1
  Mg  Mg21  1  -0.03622408  0.00159596  0.01554586  1
  Mg  Mg22  1  0.54383759  0.25392411  0.79358877  1
  Mg  Mg23  1  0.77374290  0.51335024  0.01533756  1
  Mg  Mg24  1  0.71809854  0.56415073  0.48743438  1
  Mg  Mg25  1  0.00147419  0.29789884  0.45173610  1
  Mg  Mg26  1  0.28178429  0.27592113  0.27464746  1
  Mg  Mg27  1  0.55301421  0.73305538  0.55391127  1
  Mg  Mg28  1  0.01116203  -0.06224243  0.51252767  1
  Mg  Mg29  1  0.29187933  -0.01115878  0.05564500  1
  Mg  Mg30  1  -0.00922329  0.79440506  0.26910504  1
  Mg  Mg31  1  0.25842832  0.51244429  0.28459318  1
  Ti  Ti32  1  0.60786933  0.37320989  0.38651868  1
  Ti  Ti33  1  0.11891150  0.63257297  0.36109095  1
  Ti  Ti34  1  0.12196783  0.12857317  0.61816736  1
  Ti  Ti35  1  0.36605658  0.36253514  0.88247150  1
  Ti  Ti36  1  0.60873130  0.62985939  0.36584365  1
  Ti  Ti37  1  0.36483802  0.38122238  0.13597828  1
  Ti  Ti38  1  0.13402071  0.13419671  0.36943555  1
  Ti  Ti39  1  0.12824658  0.63929347  0.87407919  1
  Ti  Ti40  1  0.12293427  0.36443550  0.87982789  1
  Ti  Ti41  1  0.37083069  0.88469715  0.87873119  1
  Ti  Ti42  1  0.11868433  0.37995642  0.61814191  1
  Ti  Ti43  1  0.88054223  0.38360312  0.87836001  1
  Ti  Ti44  1  0.37257901  0.62888819  0.87231916  1
  Ti  Ti45  1  0.38349916  0.37746678  0.38094705  1
  Ti  Ti46  1  0.62266176  0.87685983  0.38144304  1
  Ti  Ti47  1  0.87570055  0.63011477  0.37587787  1
  Ti  Ti48  1  0.60670517  0.36132872  0.62194978  1
  Ti  Ti49  1  0.36329312  0.11419825  0.37200693  1
  Ti  Ti50  1  0.11525754  0.10576045  0.12783467  1
  Ti  Ti51  1  0.12810501  0.86837422  0.63185403  1
  Ti  Ti52  1  0.13568129  0.36832661  0.13792847  1
  Ti  Ti53  1  0.64964632  0.37814435  0.88136575  1
  Ti  Ti54  1  0.88059513  0.12797926  0.88699630  1
  Ti  Ti55  1  0.12141711  0.86699749  0.36874688  1
  Ti  Ti56  1  0.88174771  0.12920218  0.13170175  1
  Ti  Ti57  1  0.63418861  0.88383848  0.87449394  1
  Ti  Ti58  1  0.88728440  0.13080389  0.61610780  1
  Ti  Ti59  1  0.38191728  0.13862698  0.13859321  1
  Ti  Ti60  1  0.37556736  0.61477792  0.13178864  1
  Ti  Ti61  1  0.36649627  0.63110546  0.63156498  1
  Ti  Ti62  1  0.85774903  0.37760380  0.11129138  1
  Ti  Ti63  1  0.88461317  0.12052165  0.37235314  1
  Ti  Ti64  1  0.11641299  0.88020853  0.12481836  1
  Ti  Ti65  1  0.12774686  0.12288472  0.88802738  1
  Ti  Ti66  1  0.37290926  0.37667587  0.62376196  1
  Ti  Ti67  1  0.87624768  0.38306437  0.62899529  1
  Ti  Ti68  1  0.86930833  0.63090472  0.12861971  1
  Ti  Ti69  1  0.36720345  0.13035628  0.62141524  1
  Ti  Ti70  1  0.38384988  0.87665961  0.61923588  1
  Ti  Ti71  1  0.87772696  0.62887897  0.63111050  1
  Ti  Ti72  1  0.13826344  0.37796623  0.37042587  1
  Ti  Ti73  1  0.38353651  0.87098294  0.38203943  1
  Bi  Bi74  1  0.72581564  0.23478415  0.26633901  1
  Bi  Bi75  1  0.76853952  0.76319051  0.26653077  1
  Bi  Bi76  1  -0.03599375  0.50038142  0.25427228  1
  Bi  Bi77  1  0.77298939  -0.00256566  0.22876637  1
  Bi  Bi78  1  0.52058196  0.01338988  0.52000972  1
  Bi  Bi79  1  0.73193977  0.22270062  0.01393195  1
  Bi  Bi80  1  0.00020637  0.52849712  0.02297721  1
  Bi  Bi81  1  -0.02921319  0.27929953  0.26329198  1
  Bi  Bi82  1  0.27724342  0.74472916  0.48914382  1
  Bi  Bi83  1  0.49567803  0.04205578  0.76876894  1
  Bi  Bi84  1  0.25830656  0.77664166  0.76253104  1
  Bi  Bi85  1  0.24690727  0.22879324  0.03260519  1
  Bi  Bi86  1  0.49359825  -0.02811529  0.22725136  1
  Bi  Bi87  1  0.25353508  -0.03170645  0.25676283  1
  Bi  Bi88  1  0.24635910  0.26243177  0.74959818  1
  Bi  Bi89  1  0.72868132  0.74356846  0.74526752  1
  Bi  Bi90  1  0.49574309  -0.03038266  0.02096443  1
  Bi  Bi91  1  0.22813461  0.50208278  0.01101597  1
  Bi  Bi92  1  -0.02821631  0.49520987  0.48845102  1
  Bi  Bi93  1  0.50052673  0.26351871  0.02903657  1
  Bi  Bi94  1  0.00356457  0.26082858  0.03125383  1
  Bi  Bi95  1  0.26388454  0.74735412  0.03180336  1
  Bi  Bi96  1  0.51366320  0.53257036  0.53161900  1
  Bi  Bi97  1  0.25447318  0.72898442  0.24884722  1
  Bi  Bi98  1  0.49915568  0.22174725  0.48485046  1
  Bi  Bi99  1  0.74025530  0.47963920  0.29080634  1
  Bi  Bi100  1  0.78096788  0.01824122  0.74316236  1
  Bi  Bi101  1  0.25321482  0.02398406  0.75843920  1
  Bi  Bi102  1  0.51182095  0.73103074  -0.01687838  1
  Bi  Bi103  1  0.02287934  0.73198040  0.52669282  1
  Bi  Bi104  1  0.23735407  0.49940546  0.76960871  1
  Bi  Bi105  1  0.72617514  0.51908113  0.70453926  1
  Bi  Bi106  1  -0.01408195  0.78181261  0.75741014  1
  Bi  Bi107  1  0.00537404  0.01572653  0.78175323  1
  Bi  Bi108  1  -0.02503455  0.25948316  0.75459000  1
  Bi  Bi109  1  -0.00222031  0.77843684  0.00308733  1
  Bi  Bi110  1  0.51881968  0.49809379  0.23908300  1
  Bi  Bi111  1  0.22026319  -0.00141894  0.50428494  1
  Bi  Bi112  1  0.51392492  0.49910215  0.00357060  1
  Bi  Bi113  1  0.49767895  0.76614337  0.75696919  1
  Bi  Bi114  1  0.72305798  -0.00016635  0.00701582  1
  Bi  Bi115  1  0.51570591  0.75952599  0.22421777  1
  Bi  Bi116  1  0.49524208  0.47084391  0.77221805  1
  Bi  Bi117  1  0.01050928  0.52368237  0.76888821  1
  Bi  Bi118  1  0.73692085  0.24350797  0.72930794  1
  Bi  Bi119  1  0.25314159  0.26363917  0.50805980  1
  Bi  Bi120  1  0.25009343  0.52614695  0.49121164  1
  Bi  Bi121  1  0.74226969  0.76995362  0.51851152  1
  Bi  Bi122  1  0.78357109  -0.00379938  0.51003189  1
  Bi  Bi123  1  0.78954434  0.27515143  0.47315640  1
  Bi  Bi124  1  0.75675452  0.72298763  -0.01836015  1
  O  O125  1  0.11441925  0.14368477  -0.00259585  1
  O  O126  1  0.12207116  0.09378014  0.24279505  1
  O  O127  1  0.14644893  0.12407880  0.48900138  1
  O  O128  1  0.13484988  0.10254256  0.73370038  1
  O  O129  1  0.11011986  0.35945584  -0.00845849  1
  O  O130  1  0.16293606  0.36102506  0.24818130  1
  O  O131  1  0.10889261  0.35690454  0.49004343  1
  O  O132  1  0.16023691  0.37716535  0.73650334  1
  O  O133  1  0.11291397  0.62104928  -0.00908298  1
  O  O134  1  0.16549693  0.61133698  0.25165231  1
  O  O135  1  0.11020232  0.62778550  0.48546204  1
  O  O136  1  0.13607599  0.60421255  0.75348917  1
  O  O137  1  0.11460209  0.85438658  0.00795599  1
  O  O138  1  0.12212946  0.90765396  0.24564211  1
  O  O139  1  0.11079371  0.85953925  0.48334306  1
  O  O140  1  0.10532848  0.86850394  0.74510815  1
  O  O141  1  0.38382109  0.16150782  0.01574192  1
  O  O142  1  0.36990491  0.10770146  0.25152140  1
  O  O143  1  0.36366714  0.15183118  0.48855891  1
  O  O144  1  0.36208188  0.11608023  0.73874668  1
  O  O145  1  0.39300812  0.35580279  -0.00565466  1
  O  O146  1  0.33834770  0.40364354  0.24395515  1
  O  O147  1  0.38728529  0.34906508  0.49295709  1
  O  O148  1  0.34478736  0.37842897  0.73767218  1
  O  O149  1  0.39285438  0.64884345  -0.00222324  1
  O  O150  1  0.34032889  0.60570056  0.24531033  1
  O  O151  1  0.36008120  0.62204988  0.50235931  1
  O  O152  1  0.37012340  0.63389565  0.75101304  1
  O  O153  1  0.35212291  0.89697727  -0.01012912  1
  O  O154  1  0.37618520  0.89147413  0.26222762  1
  O  O155  1  0.35320371  0.86971938  0.50150933  1
  O  O156  1  0.38378497  0.85608012  0.74276589  1
  O  O157  1  0.63200836  0.12511848  -0.00091083  1
  O  O158  1  0.63166900  0.13329525  0.25638542  1
  O  O159  1  0.60430932  0.12818668  0.49972991  1
  O  O160  1  0.62206460  0.16194438  0.74933997  1
  O  O161  1  0.59520350  0.38292717  -0.01038221  1
  O  O162  1  0.62769657  0.40183954  0.25457108  1
  O  O163  1  0.59695728  0.36435436  0.50212954  1
  O  O164  1  0.63324889  0.35971027  0.75402716  1
  O  O165  1  0.59187196  0.61857386  0.00250775  1
  O  O166  1  0.63867722  0.58122649  0.25617715  1
  O  O167  1  0.61129798  0.63615479  0.48728423  1
  O  O168  1  0.65866929  0.62861534  0.75771184  1
  O  O169  1  0.62043038  0.89301849  -0.00385651  1
  O  O170  1  0.60675715  0.88678011  0.25606984  1
  O  O171  1  0.61533091  0.82795785  0.49129304  1
  O  O172  1  0.62160461  0.84724674  0.75675096  1
  O  O173  1  0.90016931  0.11656843  0.00431457  1
  O  O174  1  0.85394209  0.14913389  0.25116256  1
  O  O175  1  0.86948421  0.12067046  0.49996632  1
  O  O176  1  0.88665365  0.10622186  0.75367732  1
  O  O177  1  0.90553037  0.36979920  -0.00631588  1
  O  O178  1  0.86910667  0.37475749  0.23237246  1
  O  O179  1  0.91085681  0.36595721  0.51099162  1
  O  O180  1  0.87377208  0.36780135  0.75289041  1
  O  O181  1  0.89870917  0.62726494  0.00673813  1
  O  O182  1  0.86207550  0.59819003  0.24800236  1
  O  O183  1  0.90577314  0.62784037  0.49103377  1
  O  O184  1  0.85141737  0.61272252  0.74246767  1
  O  O185  1  0.91188506  0.88575292  0.01049849  1
  O  O186  1  0.84508820  0.87960446  0.24946122  1
  O  O187  1  0.88974754  0.90892357  0.49400828  1
  O  O188  1  0.88770553  0.88014572  0.75326243  1
  O  O189  1  0.00040649  0.15473575  0.13559220  1
  O  O190  1  -0.00722094  0.09380955  0.35847046  1
  O  O191  1  0.00436870  0.13467038  0.62036863  1
  O  O192  1  0.00982987  0.14015752  0.85234503  1
  O  O193  1  0.01286186  0.35462396  0.13883697  1
  O  O194  1  0.01506630  0.38240392  0.34683143  1
  O  O195  1  0.01100267  0.35402297  0.64963982  1
  O  O196  1  0.00720586  0.35259219  0.85225123  1
  O  O197  1  -0.00000128  0.61113302  0.13714551  1
  O  O198  1  0.00742662  0.60057462  0.34726205  1
  O  O199  1  -0.00081599  0.64675103  0.63527171  1
  O  O200  1  0.00657282  0.63845050  0.84865720  1
  O  O201  1  0.00658193  0.83330182  0.14930697  1
  O  O202  1  0.00033928  0.89519068  0.35043838  1
  O  O203  1  0.00202205  0.85407205  0.61334200  1
  O  O204  1  0.00358897  0.83901212  0.87798049  1
  O  O205  1  0.23928718  0.10026516  0.10050592  1
  O  O206  1  0.24626022  0.16280248  0.35123670  1
  O  O207  1  0.25065669  0.08937463  0.61354137  1
  O  O208  1  0.24675237  0.10154192  0.87407733  1
  O  O209  1  0.24978373  0.38177195  0.08908871  1
  O  O210  1  0.25174698  0.34110073  0.38411866  1
  O  O211  1  0.25513453  0.38216305  0.58746880  1
  O  O212  1  0.24975258  0.40339997  0.88327890  1
  O  O213  1  0.25363541  0.61554756  0.08874024  1
  O  O214  1  0.24233003  0.63775955  0.39139787  1
  O  O215  1  0.25529616  0.59098481  0.62559863  1
  O  O216  1  0.25281716  0.59926819  0.88173929  1
  O  O217  1  0.23386304  0.91224961  0.12928733  1
  O  O218  1  0.24062481  0.86051858  0.35748663  1
  O  O219  1  0.24462608  0.88886236  0.63767394  1
  O  O220  1  0.25352089  0.89139074  0.84437040  1
  O  O221  1  0.49168449  0.17389205  0.15321648  1
  O  O222  1  0.48563724  0.12341794  0.37628692  1
  O  O223  1  0.48608162  0.13369804  0.60628566  1
  O  O224  1  0.49559176  0.14936464  0.85350149  1
  O  O225  1  0.48067853  0.35163181  0.13540919  1
  O  O226  1  0.49547572  0.41309754  0.36613898  1
  O  O227  1  0.49642321  0.34113184  0.64397224  1
  O  O228  1  0.48154380  0.35324611  0.84141623  1
  O  O229  1  0.48930107  0.63317337  0.15636474  1
  O  O230  1  0.49988586  0.60066428  0.35527731  1
  O  O231  1  0.48958066  0.63922500  0.61229937  1
  O  O232  1  0.49630555  0.65925805  0.86644478  1
  O  O233  1  0.49720808  0.87409116  0.12417019  1
  O  O234  1  0.49460595  0.88916372  0.38531844  1
  O  O235  1  0.49580215  0.83575724  0.61610742  1
  O  O236  1  0.49236496  0.84364488  0.87626986  1
  O  O237  1  0.75772961  0.11486773  0.10845713  1
  O  O238  1  0.74805586  0.17021702  0.38535717  1
  O  O239  1  0.75513590  0.11994097  0.65140786  1
  O  O240  1  0.76467039  0.10227408  0.87234067  1
  O  O241  1  0.75099094  0.40515963  0.08732688  1
  O  O242  1  0.73391820  0.35002464  0.37278726  1
  O  O243  1  0.76474539  0.39339096  0.61395527  1
  O  O244  1  0.76046467  0.40368808  0.89866701  1
  O  O245  1  0.75720429  0.60244601  0.10285379  1
  O  O246  1  0.75985349  0.63771557  0.39114662  1
  O  O247  1  0.76537121  0.59009563  0.59565687  1
  O  O248  1  0.75250074  0.59898710  0.92151920  1
  O  O249  1  0.75038717  0.91294504  0.11513465  1
  O  O250  1  0.74338734  0.84707575  0.38071308  1
  O  O251  1  0.74924182  0.88518552  0.59511332  1
  O  O252  1  0.74613608  0.90867399  0.88274330  1
  O  O253  1  0.07510672  -0.00022857  0.09684883  1
  O  O254  1  0.13915116  -0.00091609  0.38269042  1
  O  O255  1  0.10525624  -0.01195717  0.58742651  1
  O  O256  1  0.10469287  0.00519041  0.87979565  1
  O  O257  1  0.13971452  0.24709482  0.12003083  1
  O  O258  1  0.08868257  0.23903875  0.36758848  1
  O  O259  1  0.15023188  0.24024529  0.62288382  1
  O  O260  1  0.14865953  0.24869206  0.85585825  1
  O  O261  1  0.12464198  0.48933624  0.10877491  1
  O  O262  1  0.15715656  0.49031128  0.36891373  1
  O  O263  1  0.10886381  0.49085658  0.60910953  1
  O  O264  1  0.11045457  0.48831412  0.86115781  1
  O  O265  1  0.16578729  0.75483595  0.13656424  1
  O  O266  1  0.09764523  0.75001963  0.33652147  1
  O  O267  1  0.13805833  0.74970580  0.61136688  1
  O  O268  1  0.15663543  0.74747995  0.86775215  1
  O  O269  1  0.39972273  0.02057074  0.11281844  1
  O  O270  1  0.34563923  0.00468343  0.39152824  1
  O  O271  1  0.40096907  -0.00988878  0.61722306  1
  O  O272  1  0.39957858  -0.00149877  0.86114199  1
  O  O273  1  0.32629497  0.25083501  0.15336478  1
  O  O274  1  0.39758569  0.26784922  0.33317006  1
  O  O275  1  0.34539857  0.24441798  0.62563355  1
  O  O276  1  0.33643645  0.25548050  0.86459469  1
  O  O277  1  0.38252554  0.49749538  0.10325519  1
  O  O278  1  0.33949653  0.49280501  0.38520400  1
  O  O279  1  0.40215680  0.48966255  0.61533133  1
  O  O280  1  0.39872512  0.50588788  0.86594507  1
  O  O281  1  0.34884980  0.73853840  0.13949329  1
  O  O282  1  0.37393480  0.75284886  0.38151068  1
  O  O283  1  0.34469232  0.74462979  0.61855881  1
  O  O284  1  0.34430324  0.75144645  0.87139051  1
  O  O285  1  0.58993927  0.00714830  0.11844297  1
  O  O286  1  0.63470221  -0.01329480  0.40705680  1
  O  O287  1  0.60355857  0.00087808  0.62414431  1
  O  O288  1  0.59750252  -0.00280244  0.85797364  1
  O  O289  1  0.64381830  0.25590672  0.11144266  1
  O  O290  1  0.58751590  0.26167410  0.35916359  1
  O  O291  1  0.66054331  0.25728055  0.61542779  1
  O  O292  1  0.64488684  0.26137298  0.88691384  1
  O  O293  1  0.58936078  0.49748096  0.11666687  1
  O  O294  1  0.65705030  0.49652200  0.40198653  1
  O  O295  1  0.60880522  0.48617057  0.62651115  1
  O  O296  1  0.59464874  0.49168896  0.86516242  1
  O  O297  1  0.62638443  0.74627660  0.14655589  1
  O  O298  1  0.60707835  0.73963858  0.33551749  1
  O  O299  1  0.65685723  0.74793997  0.62740413  1
  O  O300  1  0.65020318  0.75298483  0.89436944  1
  O  O301  1  0.89164628  0.01251675  0.14557173  1
  O  O302  1  0.83556247  0.01351618  0.36326418  1
  O  O303  1  0.86758613  0.00642421  0.62623005  1
  O  O304  1  0.91744316  0.00451960  0.88779804  1
  O  O305  1  0.86443313  0.25373472  0.10662013  1
  O  O306  1  0.90185317  0.24565554  0.39048786  1
  O  O307  1  0.86798882  0.24620480  0.63631171  1
  O  O308  1  0.87245849  0.24470028  0.86876741  1
  O  O309  1  0.88953102  0.49242842  0.10801085  1
  O  O310  1  0.88009005  0.50393745  0.37994062  1
  O  O311  1  0.90875410  0.49779749  0.61638696  1
  O  O312  1  0.91025602  0.49481673  0.87210823  1
  O  O313  1  0.85213166  0.74394867  0.14132182  1
  O  O314  1  0.89220949  0.74479247  0.33661759  1
  O  O315  1  0.85147409  0.74328151  0.62438983  1
  O  O316  1  0.84604719  0.74986522  0.88457632  1
