# generated using pymatgen
data_Mg32Ti42(Bi17O64)3
_symmetry_space_group_name_H-M   'P 1'
_cell_length_a   15.92672750
_cell_length_b   15.95043613
_cell_length_c   16.02873319
_cell_angle_alpha   90.15950687
_cell_angle_beta   90.07142473
_cell_angle_gamma   89.78051226
_symmetry_Int_Tables_number   1
_chemical_formula_structural   Mg32Ti42(Bi17O64)3
_chemical_formula_sum   'Mg32 Ti42 Bi51 O192'
_cell_volume   4071.86255906
_cell_formula_units_Z   1
loop_
 _symmetry_equiv_pos_site_id
 _symmetry_equiv_pos_as_xyz
  1  'x, y, z'
loop_
 _atom_site_type_symbol
 _atom_site_label
 _atom_site_symmetry_multiplicity
 _atom_site_fract_x
 _atom_site_fract_y
 _atom_site_fract_z
 _atom_site_occupancy
  Mg  Mg0  1  0.87333153  0.12928838  0.62592724  1
  Mg  Mg1  1  0.38126520  0.63014018  0.13047595  1
  Mg  Mg2  1  0.87793498  0.62677538  0.86361722  1
  Mg  Mg3  1  0.38342621  0.12309243  0.62168321  1
  Mg  Mg4  1  0.13698860  0.11985752  0.37388638  1
  Mg  Mg5  1  0.87762535  0.37406863  0.87432283  1
  Mg  Mg6  1  0.63781868  0.13333644  0.88139628  1
  Mg  Mg7  1  0.63566635  0.88052114  0.62196359  1
  Mg  Mg8  1  0.12552776  0.13564576  0.63383852  1
  Mg  Mg9  1  0.37422119  0.37787798  0.87421023  1
  Mg  Mg10  1  0.11218506  0.87594131  0.62515153  1
  Mg  Mg11  1  0.38199254  0.87378505  0.11664599  1
  Mg  Mg12  1  0.12844863  0.62215588  0.86772421  1
  Mg  Mg13  1  0.62359537  0.61759806  0.62308057  1
  Mg  Mg14  1  0.63056408  0.12693236  0.12052371  1
  Mg  Mg15  1  0.86585554  0.37664031  0.62191454  1
  Mg  Mg16  1  0.37650919  0.37274109  0.13166248  1
  Mg  Mg17  1  0.63405766  0.36888978  0.86376429  1
  Mg  Mg18  1  0.11472432  0.86859979  0.88723431  1
  Mg  Mg19  1  0.00690935  0.03648071  -0.03347195  1
  Mg  Mg20  1  -0.00625665  0.81103656  0.75239020  1
  Mg  Mg21  1  0.26198532  -0.01482068  0.19139614  1
  Mg  Mg22  1  0.46764510  -0.04733545  0.54360931  1
  Mg  Mg23  1  0.44609042  0.46483273  0.70286772  1
  Mg  Mg24  1  0.76459338  0.51913838  0.47152906  1
  Mg  Mg25  1  0.46745844  0.30497610  0.56003720  1
  Mg  Mg26  1  -0.03981416  0.74896723  -0.04312836  1
  Mg  Mg27  1  0.74266992  0.55326053  0.23573143  1
  Mg  Mg28  1  0.73193782  0.24770677  0.69627124  1
  Mg  Mg29  1  0.07897745  -0.00244998  0.76300598  1
  Mg  Mg30  1  0.51622819  0.48592934  -0.06493724  1
  Mg  Mg31  1  0.24727088  0.49276004  0.73607345  1
  Ti  Ti32  1  0.87797503  0.63355282  0.12632993  1
  Ti  Ti33  1  0.61381128  0.38457568  0.62861862  1
  Ti  Ti34  1  0.37210530  0.60731330  0.84525193  1
  Ti  Ti35  1  0.62381077  0.87217632  0.86616488  1
  Ti  Ti36  1  0.13357135  0.61434632  0.62540129  1
  Ti  Ti37  1  0.60612469  0.12667393  0.37124200  1
  Ti  Ti38  1  0.39217607  0.62584849  0.61665457  1
  Ti  Ti39  1  0.12432709  0.38488449  0.86858757  1
  Ti  Ti40  1  0.62223884  0.63009673  0.86581963  1
  Ti  Ti41  1  0.11767130  0.37413750  0.61237090  1
  Ti  Ti42  1  0.87497014  0.89004615  0.62053878  1
  Ti  Ti43  1  0.86577029  0.62933448  0.37361982  1
  Ti  Ti44  1  0.12689368  0.38674445  0.13083598  1
  Ti  Ti45  1  0.38828807  0.37440206  0.36928141  1
  Ti  Ti46  1  0.37079441  0.13578046  0.86661481  1
  Ti  Ti47  1  0.88061431  0.87001549  0.37482302  1
  Ti  Ti48  1  0.61765846  0.11446190  0.59595769  1
  Ti  Ti49  1  0.11722352  0.11875163  0.11840468  1
  Ti  Ti50  1  0.62809127  0.89585176  0.37779227  1
  Ti  Ti51  1  0.62132932  0.37515939  0.37420364  1
  Ti  Ti52  1  0.87761685  0.88170464  0.86547757  1
  Ti  Ti53  1  0.13655059  0.87842038  0.38226094  1
  Ti  Ti54  1  0.12493656  0.14586160  0.86872622  1
  Ti  Ti55  1  0.12528657  0.87660269  0.12190687  1
  Ti  Ti56  1  0.89127897  0.87136402  0.12592734  1
  Ti  Ti57  1  0.87070367  0.39360395  0.12894432  1
  Ti  Ti58  1  0.13668082  0.62864237  0.12923916  1
  Ti  Ti59  1  0.13894028  0.62140514  0.38336775  1
  Ti  Ti60  1  0.63107787  0.62631086  0.37933734  1
  Ti  Ti61  1  0.87997990  0.13246085  0.86902513  1
  Ti  Ti62  1  0.37724892  0.63325259  0.37990952  1
  Ti  Ti63  1  0.63455957  0.38326926  0.12731787  1
  Ti  Ti64  1  0.88417569  0.38143325  0.36644870  1
  Ti  Ti65  1  0.37176214  0.88777551  0.88414806  1
  Ti  Ti66  1  0.88938714  0.12697373  0.11990598  1
  Ti  Ti67  1  0.86225594  0.61609702  0.62268617  1
  Ti  Ti68  1  0.38318252  0.11509253  0.37170191  1
  Ti  Ti69  1  0.37631032  0.88499418  0.37489182  1
  Ti  Ti70  1  0.36864559  0.12249040  0.11224487  1
  Ti  Ti71  1  0.12882330  0.38157086  0.37571725  1
  Ti  Ti72  1  0.62534745  0.63276420  0.11565414  1
  Ti  Ti73  1  0.62602990  0.87857313  0.11377983  1
  Bi  Bi74  1  0.27549141  0.51066010  0.24036704  1
  Bi  Bi75  1  0.02854301  0.01250338  0.51345565  1
  Bi  Bi76  1  0.00159959  0.52764431  0.25990282  1
  Bi  Bi77  1  0.00163597  0.28384555  0.01266956  1
  Bi  Bi78  1  0.27463193  0.29925818  0.71440650  1
  Bi  Bi79  1  0.25883654  0.22586211  0.26058234  1
  Bi  Bi80  1  0.76666988  0.01039643  -0.01047475  1
  Bi  Bi81  1  0.53172827  0.24379177  0.74477813  1
  Bi  Bi82  1  0.27780870  0.78407216  0.53506908  1
  Bi  Bi83  1  0.73768400  0.23933659  0.26568978  1
  Bi  Bi84  1  0.46662282  0.72928100  -0.02692262  1
  Bi  Bi85  1  -0.01915346  0.23107495  0.48538215  1
  Bi  Bi86  1  0.28313475  -0.01608445  0.71419168  1
  Bi  Bi87  1  0.76354319  0.76169775  -0.01791183  1
  Bi  Bi88  1  -0.00451166  0.51897260  0.50834305  1
  Bi  Bi89  1  0.01051496  0.75676271  0.51638172  1
  Bi  Bi90  1  0.73200571  0.73730494  0.72922067  1
  Bi  Bi91  1  0.50886541  -0.00072512  0.72733855  1
  Bi  Bi92  1  0.78681025  0.04365929  0.45927607  1
  Bi  Bi93  1  0.25663017  0.02468073  0.51610042  1
  Bi  Bi94  1  -0.02099155  0.24655312  0.72670867  1
  Bi  Bi95  1  0.03468336  0.75845391  0.25918409  1
  Bi  Bi96  1  0.28886628  0.50044748  0.00001918  1
  Bi  Bi97  1  0.46470905  0.77836125  0.73468252  1
  Bi  Bi98  1  -0.00427659  0.02505419  0.28694203  1
  Bi  Bi99  1  0.00045906  0.53304869  -0.01634686  1
  Bi  Bi100  1  0.51561125  0.76641930  0.23867119  1
  Bi  Bi101  1  0.51749330  0.26944154  -0.01571423  1
  Bi  Bi102  1  0.77106908  0.25366597  -0.00184277  1
  Bi  Bi103  1  0.75805440  0.27510828  0.48895652  1
  Bi  Bi104  1  0.72915821  0.49921165  -0.02591896  1
  Bi  Bi105  1  0.50228580  0.01561831  0.21754495  1
  Bi  Bi106  1  0.76198580  0.76676166  0.51270995  1
  Bi  Bi107  1  0.27802119  0.25632170  0.49640245  1
  Bi  Bi108  1  0.51899859  0.51165078  0.48950319  1
  Bi  Bi109  1  0.51713260  0.51381601  0.23309221  1
  Bi  Bi110  1  0.52158464  0.02241139  -0.01988770  1
  Bi  Bi111  1  0.28971417  0.48501424  0.51302523  1
  Bi  Bi112  1  0.23276452  0.01692470  -0.03134423  1
  Bi  Bi113  1  0.74173962  0.04192913  0.74018420  1
  Bi  Bi114  1  0.50536551  0.25590169  0.22330172  1
  Bi  Bi115  1  0.02845696  0.24648383  0.25998177  1
  Bi  Bi116  1  0.25035637  0.28447209  -0.00473819  1
  Bi  Bi117  1  -0.01626499  0.49006409  0.75846841  1
  Bi  Bi118  1  0.20556728  0.75475240  0.74536892  1
  Bi  Bi119  1  0.51511625  0.76799090  0.48290218  1
  Bi  Bi120  1  0.75739835  0.76865302  0.23689776  1
  Bi  Bi121  1  0.75107022  0.49475466  0.75845959  1
  Bi  Bi122  1  0.23396812  0.75147204  -0.00750307  1
  Bi  Bi123  1  0.76656544  0.01615440  0.22938714  1
  Bi  Bi124  1  0.26954660  0.77112695  0.23907276  1
  O  O125  1  0.14586410  0.12634519  -0.00091192  1
  O  O126  1  0.09532090  0.11523061  0.23869291  1
  O  O127  1  0.13689124  0.10897690  0.50331867  1
  O  O128  1  0.10371662  0.12006722  0.75963986  1
  O  O129  1  0.12098684  0.35887126  0.00740822  1
  O  O130  1  0.11010375  0.37554992  0.24852549  1
  O  O131  1  0.10416753  0.36910512  0.49766734  1
  O  O132  1  0.14943873  0.40447579  0.75784780  1
  O  O133  1  0.15553452  0.63520429  0.01325783  1
  O  O134  1  0.10628921  0.61919749  0.25863944  1
  O  O135  1  0.12593144  0.61134778  0.49811587  1
  O  O136  1  0.11220279  0.64739198  0.73971513  1
  O  O137  1  0.12120954  0.85131679  0.01177266  1
  O  O138  1  0.13515578  0.86181586  0.26179225  1
  O  O139  1  0.09320889  0.88012749  0.49858084  1
  O  O140  1  0.10927008  0.86704341  0.75500869  1
  O  O141  1  0.34464449  0.12630623  0.00149487  1
  O  O142  1  0.40431819  0.12194588  0.25665581  1
  O  O143  1  0.34446764  0.13252600  0.49349686  1
  O  O144  1  0.39383233  0.11216296  0.75501059  1
  O  O145  1  0.36378417  0.37087134  0.00667867  1
  O  O146  1  0.35887573  0.39050118  0.25777745  1
  O  O147  1  0.37293513  0.35895833  0.49402723  1
  O  O148  1  0.34549300  0.41335579  0.75679951  1
  O  O149  1  0.35673378  0.65051345  0.00542791  1
  O  O150  1  0.38534250  0.59538941  0.26418171  1
  O  O151  1  0.35226396  0.63975102  0.50321450  1
  O  O152  1  0.40982390  0.58605018  0.73870087  1
  O  O153  1  0.38868361  0.84629513  -0.00530769  1
  O  O154  1  0.33571172  0.89940347  0.26734578  1
  O  O155  1  0.39578057  0.85415947  0.49802372  1
  O  O156  1  0.37788985  0.88019897  0.76309378  1
  O  O157  1  0.63909908  0.09257872  -0.00006243  1
  O  O158  1  0.59975560  0.13780247  0.24946924  1
  O  O159  1  0.64498038  0.10577608  0.48765686  1
  O  O160  1  0.64771773  0.15202596  0.75913414  1
  O  O161  1  0.61309860  0.41048793  0.01583584  1
  O  O162  1  0.65088178  0.35916430  0.26329727  1
  O  O163  1  0.57035162  0.37436166  0.51533728  1
  O  O164  1  0.64066789  0.32851311  0.74492067  1
  O  O165  1  0.64247746  0.61536166  0.00463491  1
  O  O166  1  0.61343751  0.62982006  0.26028304  1
  O  O167  1  0.64593061  0.58312060  0.49549521  1
  O  O168  1  0.61715931  0.65021244  0.75490967  1
  O  O169  1  0.61333715  0.89313335  0.00283494  1
  O  O170  1  0.63541830  0.85086690  0.26434350  1
  O  O171  1  0.58497503  0.89109728  0.49579442  1
  O  O172  1  0.65148629  0.85910977  0.75667671  1
  O  O173  1  0.85471173  0.12983517  0.00154475  1
  O  O174  1  0.88885686  0.09735212  0.23584372  1
  O  O175  1  0.86471526  0.15635021  0.49959806  1
  O  O176  1  0.88097916  0.10809041  0.75677275  1
  O  O177  1  0.87337335  0.35351211  0.00446209  1
  O  O178  1  0.87395564  0.39378558  0.24800689  1
  O  O179  1  0.88152420  0.33835918  0.49862106  1
  O  O180  1  0.86868510  0.41566841  0.74672241  1
  O  O181  1  0.87641221  0.65212037  0.01210841  1
  O  O182  1  0.86959193  0.59573872  0.25444877  1
  O  O183  1  0.83375894  0.63313956  0.49194448  1
  O  O184  1  0.89077986  0.59470054  0.73841414  1
  O  O185  1  0.88878862  0.83791579  0.01480448  1
  O  O186  1  0.84888744  0.88069714  0.25618716  1
  O  O187  1  0.88889279  0.84500433  0.49851860  1
  O  O188  1  0.88230587  0.88608004  0.74908681  1
  O  O189  1  0.00353390  0.08961008  0.08518701  1
  O  O190  1  0.00595592  0.13596138  0.37284035  1
  O  O191  1  -0.00148260  0.16715538  0.61434917  1
  O  O192  1  -0.00000784  0.14084315  0.89548519  1
  O  O193  1  -0.00459068  0.38636674  0.11158892  1
  O  O194  1  -0.00571194  0.35041312  0.36830961  1
  O  O195  1  0.00290104  0.35955153  0.65147769  1
  O  O196  1  0.00696684  0.35363201  0.87259213  1
  O  O197  1  -0.00323387  0.60916752  0.13579822  1
  O  O198  1  -0.01632722  0.62136363  0.37767237  1
  O  O199  1  -0.01641752  0.63453462  0.59051404  1
  O  O200  1  0.00486299  0.64473034  0.90463953  1
  O  O201  1  0.00386879  0.87806007  0.15111838  1
  O  O202  1  -0.00668905  0.85528228  0.35970767  1
  O  O203  1  -0.01162632  0.83166365  0.63104192  1
  O  O204  1  -0.01015871  0.83908446  0.87335772  1
  O  O205  1  0.25210228  0.12021931  0.15372153  1
  O  O206  1  0.26029577  0.11521728  0.34260929  1
  O  O207  1  0.24701808  0.09454146  0.63423706  1
  O  O208  1  0.24681626  0.10009896  0.86164371  1
  O  O209  1  0.23923885  0.35102713  0.12494322  1
  O  O210  1  0.24086438  0.38927453  0.39002958  1
  O  O211  1  0.23903886  0.40125117  0.62012853  1
  O  O212  1  0.24300012  0.39076659  0.90476613  1
  O  O213  1  0.24924970  0.63403638  0.16107558  1
  O  O214  1  0.25069218  0.60389692  0.36835377  1
  O  O215  1  0.24215038  0.58131577  0.64014659  1
  O  O216  1  0.25997332  0.58505173  0.83301862  1
  O  O217  1  0.24986139  0.86199259  0.12944453  1
  O  O218  1  0.24881110  0.87505450  0.41116495  1
  O  O219  1  0.23708987  0.88933732  0.62035956  1
  O  O220  1  0.25544985  0.88846602  0.88943669  1
  O  O221  1  0.49806974  0.10198374  0.10660007  1
  O  O222  1  0.49716819  0.14453082  0.39569344  1
  O  O223  1  0.50354821  0.07465855  0.60111912  1
  O  O224  1  0.49447218  0.14487205  0.90499125  1
  O  O225  1  0.51050417  0.38652255  0.15687961  1
  O  O226  1  0.49862735  0.34935093  0.35654209  1
  O  O227  1  0.49752875  0.35748121  0.66810821  1
  O  O228  1  0.50446345  0.36547079  0.88224950  1
  O  O229  1  0.50936380  0.60387578  0.12390975  1
  O  O230  1  0.49763265  0.63555672  0.39895117  1
  O  O231  1  0.50000170  0.65277878  0.60125948  1
  O  O232  1  0.50787877  0.61824915  0.89127392  1
  O  O233  1  0.50610488  0.87943549  0.15298638  1
  O  O234  1  0.49249804  0.85036779  0.35982552  1
  O  O235  1  0.50908704  0.88285920  0.64804612  1
  O  O236  1  0.50726175  0.84520502  0.86237049  1
  O  O237  1  0.75903903  0.12479764  0.13913077  1
  O  O238  1  0.74207663  0.10714873  0.34469897  1
  O  O239  1  0.74209520  0.13108341  0.63055020  1
  O  O240  1  0.76041982  0.09257669  0.87554776  1
  O  O241  1  0.75231392  0.35360203  0.11984672  1
  O  O242  1  0.72338349  0.40081748  0.42909875  1
  O  O243  1  0.72993527  0.35665577  0.61393148  1
  O  O244  1  0.75423743  0.40346650  0.87685883  1
  O  O245  1  0.74811752  0.64189041  0.14569928  1
  O  O246  1  0.74239464  0.58891670  0.35759970  1
  O  O247  1  0.74757835  0.60309645  0.65316807  1
  O  O248  1  0.75344678  0.59467880  0.86429427  1
  O  O249  1  0.74414371  0.84895788  0.12039412  1
  O  O250  1  0.74234922  0.89855502  0.39926687  1
  O  O251  1  0.76104776  0.88688085  0.60156159  1
  O  O252  1  0.75567192  0.88644563  0.90288681  1
  O  O253  1  0.14829737  -0.00799697  0.12597424  1
  O  O254  1  0.11356721  -0.00806523  0.37802150  1
  O  O255  1  0.08451744  -0.00032753  0.63689103  1
  O  O256  1  0.10363223  -0.00292978  0.89093789  1
  O  O257  1  0.09999849  0.23668159  0.13072940  1
  O  O258  1  0.14042136  0.25014623  0.34757857  1
  O  O259  1  0.15349333  0.26332371  0.63362773  1
  O  O260  1  0.14864622  0.25494800  0.86784302  1
  O  O261  1  0.14121685  0.50058318  0.12743045  1
  O  O262  1  0.10209081  0.49675403  0.37153997  1
  O  O263  1  0.08590814  0.50188015  0.62189509  1
  O  O264  1  0.09930083  0.50051276  0.89136849  1
  O  O265  1  0.12091669  0.74574251  0.14463723  1
  O  O266  1  0.12387514  0.74101986  0.37642952  1
  O  O267  1  0.14225223  0.74150797  0.60864270  1
  O  O268  1  0.16092681  0.74445564  0.87612076  1
  O  O269  1  0.37144209  0.00102244  0.13062046  1
  O  O270  1  0.39426391  -0.00204639  0.40175414  1
  O  O271  1  0.36965140  -0.00544710  0.61280345  1
  O  O272  1  0.39044710  -0.00068809  0.89418554  1
  O  O273  1  0.39440475  0.24149140  0.13435965  1
  O  O274  1  0.35040368  0.25103604  0.37055679  1
  O  O275  1  0.36324284  0.24747244  0.61650738  1
  O  O276  1  0.35370471  0.24749270  0.86570977  1
  O  O277  1  0.35389554  0.50091856  0.12435162  1
  O  O278  1  0.39182715  0.49325792  0.40309817  1
  O  O279  1  0.39905155  0.50556866  0.59485209  1
  O  O280  1  0.39382079  0.50556933  0.91010325  1
  O  O281  1  0.38691437  0.75422040  0.16512569  1
  O  O282  1  0.36135413  0.74541397  0.36014779  1
  O  O283  1  0.34934793  0.73458846  0.65048656  1
  O  O284  1  0.38122925  0.72871786  0.85685822  1
  O  O285  1  0.63471111  -0.00830895  0.14877582  1
  O  O286  1  0.60202431  0.00256996  0.35350325  1
  O  O287  1  0.63231580  0.00620766  0.65707006  1
  O  O288  1  0.60143720  -0.00737943  0.85857695  1
  O  O289  1  0.60607710  0.25686525  0.11838745  1
  O  O290  1  0.64688487  0.24534208  0.37834061  1
  O  O291  1  0.58030885  0.22639073  0.61433299  1
  O  O292  1  0.63860587  0.25524853  0.92112569  1
  O  O293  1  0.64834274  0.50027287  0.16261408  1
  O  O294  1  0.58985742  0.49079153  0.36669811  1
  O  O295  1  0.59362004  0.49318894  0.65054771  1
  O  O296  1  0.62386987  0.50284797  0.87450412  1
  O  O297  1  0.60521059  0.74818082  0.12072058  1
  O  O298  1  0.63606194  0.73979774  0.40355079  1
  O  O299  1  0.65709730  0.74926632  0.61393866  1
  O  O300  1  0.64885973  0.74731346  0.89269315  1
  O  O301  1  0.85857823  -0.01663651  0.11357361  1
  O  O302  1  0.89387129  -0.01231921  0.39076098  1
  O  O303  1  0.89383987  -0.00055225  0.60051260  1
  O  O304  1  0.89861345  -0.00948647  0.90997422  1
  O  O305  1  0.90342656  0.23796471  0.13066868  1
  O  O306  1  0.82494116  0.27531138  0.36190267  1
  O  O307  1  0.85720203  0.25555178  0.66942572  1
  O  O308  1  0.84884794  0.24411400  0.87424509  1
  O  O309  1  0.85410933  0.50326234  0.10995491  1
  O  O310  1  0.87518557  0.49177564  0.40143632  1
  O  O311  1  0.87398023  0.50018176  0.58384836  1
  O  O312  1  0.91179475  0.50233139  0.88551252  1
  O  O313  1  0.88280731  0.74678370  0.16176787  1
  O  O314  1  0.84913358  0.74453789  0.36109446  1
  O  O315  1  0.84010571  0.73876411  0.62893201  1
  O  O316  1  0.85143286  0.75280080  0.87183769  1
