# generated using pymatgen
data_Mg32Ti42(Bi17O64)3
_symmetry_space_group_name_H-M   'P 1'
_cell_length_a   15.93808156
_cell_length_b   15.96416990
_cell_length_c   15.93166702
_cell_angle_alpha   90.01355455
_cell_angle_beta   89.87550414
_cell_angle_gamma   89.99542413
_symmetry_Int_Tables_number   1
_chemical_formula_structural   Mg32Ti42(Bi17O64)3
_chemical_formula_sum   'Mg32 Ti42 Bi51 O192'
_cell_volume   4053.61565289
_cell_formula_units_Z   1
loop_
 _symmetry_equiv_pos_site_id
 _symmetry_equiv_pos_as_xyz
  1  'x, y, z'
loop_
 _atom_site_type_symbol
 _atom_site_label
 _atom_site_symmetry_multiplicity
 _atom_site_fract_x
 _atom_site_fract_y
 _atom_site_fract_z
 _atom_site_occupancy
  Mg  Mg0  1  0.86853605  0.12059346  0.87458429  1
  Mg  Mg1  1  0.38608100  0.37959517  0.11654556  1
  Mg  Mg2  1  0.37252558  0.62070341  0.88069288  1
  Mg  Mg3  1  0.12907842  0.37440280  0.38021115  1
  Mg  Mg4  1  0.62290760  0.37668775  0.62978384  1
  Mg  Mg5  1  0.12409445  0.37084432  0.12126134  1
  Mg  Mg6  1  0.87260420  0.87428241  0.62164520  1
  Mg  Mg7  1  0.12137637  0.87865406  0.13383456  1
  Mg  Mg8  1  0.12275805  0.63339310  0.38041087  1
  Mg  Mg9  1  0.62773444  0.62551200  0.38796896  1
  Mg  Mg10  1  0.62404076  0.87559993  0.87022231  1
  Mg  Mg11  1  0.36907145  0.10823145  0.87227879  1
  Mg  Mg12  1  0.86723545  0.37218949  0.38370062  1
  Mg  Mg13  1  0.63289121  0.60717996  0.86823505  1
  Mg  Mg14  1  0.37011957  0.12807416  0.36896340  1
  Mg  Mg15  1  0.63308213  0.63088609  0.63557021  1
  Mg  Mg16  1  0.37927726  0.87090127  0.12485021  1
  Mg  Mg17  1  0.36557624  0.63150792  0.63386688  1
  Mg  Mg18  1  0.11668124  0.62272501  0.12263995  1
  Mg  Mg19  1  0.49027025  -0.02573729  0.71754737  1
  Mg  Mg20  1  0.31123542  0.71237730  0.43951259  1
  Mg  Mg21  1  0.74382913  0.28236416  0.27198223  1
  Mg  Mg22  1  0.73950770  0.55262791  0.04817649  1
  Mg  Mg23  1  0.50603461  0.53592896  0.68790449  1
  Mg  Mg24  1  0.30576836  0.00903034  0.71262017  1
  Mg  Mg25  1  0.69985689  0.26268205  0.48951573  1
  Mg  Mg26  1  0.44505014  0.54060135  0.50429832  1
  Mg  Mg27  1  0.69299024  0.00735868  -0.00344344  1
  Mg  Mg28  1  0.72602216  -0.02816104  0.76148735  1
  Mg  Mg29  1  0.30816062  0.72632981  0.25963688  1
  Mg  Mg30  1  -0.04602996  0.00728700  0.49593976  1
  Mg  Mg31  1  0.79685647  0.25771701  0.77258128  1
  Ti  Ti32  1  0.87889079  0.62597112  0.63630150  1
  Ti  Ti33  1  0.13647164  0.37360344  0.62570898  1
  Ti  Ti34  1  0.86999917  0.88230245  0.87815898  1
  Ti  Ti35  1  0.61577945  0.13111833  0.12598355  1
  Ti  Ti36  1  0.12620015  0.87543230  0.61416542  1
  Ti  Ti37  1  0.10998958  0.10705783  0.61644294  1
  Ti  Ti38  1  0.87541312  0.12916010  0.63134196  1
  Ti  Ti39  1  0.38114329  0.38300766  0.87457947  1
  Ti  Ti40  1  0.61925453  0.88056046  0.11620692  1
  Ti  Ti41  1  0.62566003  0.13262114  0.37301089  1
  Ti  Ti42  1  0.86028368  0.12508559  0.37231211  1
  Ti  Ti43  1  0.37574553  0.87378758  0.86530059  1
  Ti  Ti44  1  0.63346430  0.38433198  0.38088961  1
  Ti  Ti45  1  0.13077131  0.12340176  0.13528410  1
  Ti  Ti46  1  0.87259677  0.61438462  0.88046599  1
  Ti  Ti47  1  0.62512524  0.88284067  0.63512275  1
  Ti  Ti48  1  0.87034365  0.12454849  0.12925657  1
  Ti  Ti49  1  0.63875080  0.14169319  0.61989119  1
  Ti  Ti50  1  0.63840243  0.88243181  0.38574818  1
  Ti  Ti51  1  0.62144150  0.37378604  0.86678616  1
  Ti  Ti52  1  0.38099035  0.62255553  0.11361244  1
  Ti  Ti53  1  0.88285458  0.37672332  0.88035885  1
  Ti  Ti54  1  0.38101292  0.38591934  0.63794874  1
  Ti  Ti55  1  0.37443782  0.12177923  0.12296722  1
  Ti  Ti56  1  0.11281009  0.62267292  0.87878539  1
  Ti  Ti57  1  0.13499594  0.11005302  0.88022207  1
  Ti  Ti58  1  0.87625064  0.87478767  0.13959704  1
  Ti  Ti59  1  0.12983462  0.12842255  0.37684529  1
  Ti  Ti60  1  0.13757553  0.87739023  0.37643614  1
  Ti  Ti61  1  0.88175634  0.61519051  0.13788064  1
  Ti  Ti62  1  0.63295438  0.35712569  0.12368036  1
  Ti  Ti63  1  0.12818629  0.87734742  0.86813405  1
  Ti  Ti64  1  0.62918677  0.12446299  0.85195188  1
  Ti  Ti65  1  0.87454471  0.88144144  0.37894918  1
  Ti  Ti66  1  0.37392546  0.87678265  0.38404768  1
  Ti  Ti67  1  0.13428142  0.37366769  0.87802514  1
  Ti  Ti68  1  0.11828750  0.63473159  0.63138878  1
  Ti  Ti69  1  0.86523415  0.37291543  0.12852942  1
  Ti  Ti70  1  0.88076582  0.36746639  0.62629343  1
  Ti  Ti71  1  0.36706627  0.85701446  0.61468195  1
  Ti  Ti72  1  0.36514402  0.38155106  0.38264352  1
  Ti  Ti73  1  0.87202756  0.60804492  0.37613488  1
  Bi  Bi74  1  0.23541974  0.52939943  0.51581952  1
  Bi  Bi75  1  0.49936290  0.00950097  0.27463755  1
  Bi  Bi76  1  0.01161674  0.48438839  0.73565772  1
  Bi  Bi77  1  0.00238132  0.25554120  0.49081925  1
  Bi  Bi78  1  0.76987768  0.73705837  0.49205166  1
  Bi  Bi79  1  0.01374545  0.48821434  0.48636687  1
  Bi  Bi80  1  0.48114662  0.52933145  0.29212868  1
  Bi  Bi81  1  0.48755742  0.28328953  0.51108356  1
  Bi  Bi82  1  0.48712339  -0.01008633  -0.01357020  1
  Bi  Bi83  1  0.01422614  0.48210377  0.01311472  1
  Bi  Bi84  1  0.26661396  -0.01487934  0.25010609  1
  Bi  Bi85  1  0.24981065  0.50977252  0.02692232  1
  Bi  Bi86  1  0.24653441  0.74630455  0.76901407  1
  Bi  Bi87  1  0.25922338  -0.02041591  0.01812480  1
  Bi  Bi88  1  0.00481381  0.74297956  0.48908970  1
  Bi  Bi89  1  0.48684290  0.23829699  -0.03892581  1
  Bi  Bi90  1  0.22886366  0.20909755  0.73758624  1
  Bi  Bi91  1  0.77846184  0.75555888  0.00809253  1
  Bi  Bi92  1  0.75704789  0.47968816  0.74515972  1
  Bi  Bi93  1  0.26321840  0.01654231  0.51999378  1
  Bi  Bi94  1  -0.02228258  -0.00643479  0.74610842  1
  Bi  Bi95  1  0.48522950  0.03401967  0.51923474  1
  Bi  Bi96  1  0.72777629  -0.00060605  0.23689744  1
  Bi  Bi97  1  -0.02255119  0.23208970  0.00083004  1
  Bi  Bi98  1  0.02953823  0.74534505  0.24954189  1
  Bi  Bi99  1  0.25432586  0.75114322  0.03290869  1
  Bi  Bi100  1  0.74558847  0.00555508  0.52239966  1
  Bi  Bi101  1  0.50666597  0.78423213  0.27094285  1
  Bi  Bi102  1  0.26180684  0.25916990  0.01085713  1
  Bi  Bi103  1  0.46644387  0.19890665  0.72758654  1
  Bi  Bi104  1  0.27073652  0.23714060  0.49323343  1
  Bi  Bi105  1  -0.02316186  0.25732586  0.25724287  1
  Bi  Bi106  1  0.02372012  0.48283864  0.25540859  1
  Bi  Bi107  1  0.72651119  0.51176910  0.53029301  1
  Bi  Bi108  1  0.00393884  0.00312778  0.28903379  1
  Bi  Bi109  1  0.71771426  0.51171569  0.24470364  1
  Bi  Bi110  1  0.54868407  0.72738381  0.00282482  1
  Bi  Bi111  1  0.00610225  0.77233971  0.74004204  1
  Bi  Bi112  1  0.49970103  0.71209656  0.77733613  1
  Bi  Bi113  1  -0.00076604  0.00145580  0.02572045  1
  Bi  Bi114  1  0.73277397  0.24574692  -0.02844599  1
  Bi  Bi115  1  0.53440071  0.74459462  0.52629780  1
  Bi  Bi116  1  0.49803854  0.28474264  0.25626730  1
  Bi  Bi117  1  0.02296822  0.76736061  0.00367218  1
  Bi  Bi118  1  0.25321908  0.54173986  0.26872614  1
  Bi  Bi119  1  0.71701353  0.72612423  0.23945057  1
  Bi  Bi120  1  0.75061013  0.74109090  0.77689815  1
  Bi  Bi121  1  0.25736156  0.50537084  0.76022992  1
  Bi  Bi122  1  0.25161018  0.28755448  0.23082405  1
  Bi  Bi123  1  0.00552046  0.23556497  0.77546414  1
  Bi  Bi124  1  0.54744737  0.51387068  0.01915061  1
  O  O125  1  0.16190545  0.13268837  -0.01332539  1
  O  O126  1  0.10306923  0.12162892  0.24749352  1
  O  O127  1  0.14593261  0.12531195  0.49950940  1
  O  O128  1  0.10685524  0.13042042  0.73749381  1
  O  O129  1  0.10433889  0.35976960  -0.00921598  1
  O  O130  1  0.13478567  0.39836834  0.25131683  1
  O  O131  1  0.09593635  0.36884113  0.50900621  1
  O  O132  1  0.13958248  0.40790918  0.74860427  1
  O  O133  1  0.13992640  0.64288230  -0.00959705  1
  O  O134  1  0.09847290  0.61859537  0.25209879  1
  O  O135  1  0.14856161  0.63926631  0.51159003  1
  O  O136  1  0.09523536  0.60999664  0.74744640  1
  O  O137  1  0.13448718  0.85434498  -0.00964076  1
  O  O138  1  0.09543880  0.87373328  0.25888852  1
  O  O139  1  0.13901104  0.87173783  0.49902502  1
  O  O140  1  0.09194941  0.88392563  0.74965850  1
  O  O141  1  0.36125112  0.15155400  0.00088530  1
  O  O142  1  0.38732106  0.09685347  0.24383087  1
  O  O143  1  0.34722817  0.12220403  0.49655631  1
  O  O144  1  0.41275451  0.07784254  0.74714009  1
  O  O145  1  0.38067064  0.33868798  -0.00827764  1
  O  O146  1  0.37190263  0.36111591  0.25413463  1
  O  O147  1  0.41000212  0.40669865  0.48937795  1
  O  O148  1  0.36141282  0.37748305  0.75191675  1
  O  O149  1  0.33810128  0.64278677  0.00108905  1
  O  O150  1  0.37526758  0.61197328  0.23624753  1
  O  O151  1  0.34221839  0.61724204  0.50731846  1
  O  O152  1  0.40852855  0.61080807  0.75448305  1
  O  O153  1  0.33760959  0.85752822  -0.00393256  1
  O  O154  1  0.38465786  0.90082048  0.25141781  1
  O  O155  1  0.35152082  0.83202842  0.49477062  1
  O  O156  1  0.38453088  0.90810884  0.75047715  1
  O  O157  1  0.65220985  0.12873559  0.01129000  1
  O  O158  1  0.61402149  0.09794286  0.25178933  1
  O  O159  1  0.66083825  0.13825654  0.49119468  1
  O  O160  1  0.59842805  0.13080823  0.73919297  1
  O  O161  1  0.62217087  0.34052231  0.01068440  1
  O  O162  1  0.65637198  0.37856779  0.25498869  1
  O  O163  1  0.61732716  0.36024764  0.49589140  1
  O  O164  1  0.63949853  0.38964370  0.75616217  1
  O  O165  1  0.63934927  0.61981968  -0.00043989  1
  O  O166  1  0.62688452  0.61794316  0.25813865  1
  O  O167  1  0.65463374  0.65160071  0.50871998  1
  O  O168  1  0.58810855  0.60888277  0.75054686  1
  O  O169  1  0.64501949  0.88983752  -0.00165662  1
  O  O170  1  0.61114596  0.89422717  0.24729886  1
  O  O171  1  0.64008320  0.86968312  0.50133238  1
  O  O172  1  0.60144708  0.91302828  0.74619282  1
  O  O173  1  0.86989643  0.13837983  0.00354441  1
  O  O174  1  0.90775597  0.13732463  0.24896220  1
  O  O175  1  0.85494533  0.10107665  0.49317752  1
  O  O176  1  0.89801482  0.12799119  0.74530565  1
  O  O177  1  0.88989258  0.37011225  -0.00066154  1
  O  O178  1  0.86083261  0.34468511  0.25072306  1
  O  O179  1  0.90130568  0.36494521  0.51065100  1
  O  O180  1  0.85269413  0.37286036  0.75326885  1
  O  O181  1  0.83620604  0.61945947  -0.00379422  1
  O  O182  1  0.90043185  0.62224281  0.25146253  1
  O  O183  1  0.84608275  0.62180917  0.49975293  1
  O  O184  1  0.89235354  0.64058526  0.74921423  1
  O  O185  1  0.84535984  0.87978683  -0.00651049  1
  O  O186  1  0.89946831  0.86930066  0.25114458  1
  O  O187  1  0.85590745  0.91236155  0.49524411  1
  O  O188  1  0.90419452  0.87109342  0.74835778  1
  O  O189  1  0.01499491  0.12998675  0.09042752  1
  O  O190  1  0.00158211  0.09027407  0.39917538  1
  O  O191  1  -0.00505414  0.14540052  0.59960005  1
  O  O192  1  0.01261158  0.13974464  0.88342352  1
  O  O193  1  -0.00610919  0.39784871  0.13752062  1
  O  O194  1  -0.00271133  0.39826306  0.36545632  1
  O  O195  1  -0.00193949  0.36234544  0.65680292  1
  O  O196  1  0.00060989  0.37174600  0.85294894  1
  O  O197  1  -0.01091789  0.60474910  0.09593404  1
  O  O198  1  -0.00904740  0.62075862  0.40727244  1
  O  O199  1  -0.00198048  0.64681269  0.60421255  1
  O  O200  1  -0.00723179  0.62896063  0.89447649  1
  O  O201  1  -0.00685859  0.87538242  0.09123857  1
  O  O202  1  -0.00969779  0.91351196  0.39992220  1
  O  O203  1  0.00383718  0.84295934  0.61193458  1
  O  O204  1  -0.00822435  0.85764857  0.89304368  1
  O  O205  1  0.25149208  0.09066477  0.13716168  1
  O  O206  1  0.24165399  0.15147298  0.35685345  1
  O  O207  1  0.23493331  0.09215164  0.64207395  1
  O  O208  1  0.24752784  0.10557331  0.83007970  1
  O  O209  1  0.25475517  0.37493079  0.11460522  1
  O  O210  1  0.25363100  0.36209378  0.39867353  1
  O  O211  1  0.24965441  0.40113211  0.61375807  1
  O  O212  1  0.24972203  0.37113753  0.89157638  1
  O  O213  1  0.24534095  0.60385116  0.13469970  1
  O  O214  1  0.24472674  0.65710882  0.34399707  1
  O  O215  1  0.23878238  0.59350267  0.65002257  1
  O  O216  1  0.24036695  0.62014256  0.84213230  1
  O  O217  1  0.24811819  0.89872472  0.13774355  1
  O  O218  1  0.24913843  0.85779861  0.34964819  1
  O  O219  1  0.24342586  0.90270038  0.63829179  1
  O  O220  1  0.24169727  0.87349232  0.84614390  1
  O  O221  1  0.50054790  0.13079770  0.11159677  1
  O  O222  1  0.50512520  0.10521009  0.38115973  1
  O  O223  1  0.51589094  0.15009977  0.58799692  1
  O  O224  1  0.51597637  0.10370326  0.89771961  1
  O  O225  1  0.51195602  0.36897769  0.14590403  1
  O  O226  1  0.51104158  0.38932625  0.34667697  1
  O  O227  1  0.49626306  0.35271861  0.63536768  1
  O  O228  1  0.49964097  0.36888976  0.87716730  1
  O  O229  1  0.49510683  0.63564658  0.09366511  1
  O  O230  1  0.50642511  0.59141500  0.40625739  1
  O  O231  1  0.49459078  0.63605622  0.59723191  1
  O  O232  1  0.50059580  0.64252852  0.90214014  1
  O  O233  1  0.50501762  0.87387338  0.10504156  1
  O  O234  1  0.49701940  0.88609820  0.37603414  1
  O  O235  1  0.48688817  0.85716853  0.61201854  1
  O  O236  1  0.49238405  0.87957386  0.89268562  1
  O  O237  1  0.76092413  0.11666818  0.14984912  1
  O  O238  1  0.75290955  0.15742533  0.34144566  1
  O  O239  1  0.75028395  0.09258021  0.64009817  1
  O  O240  1  0.74773053  0.16364038  0.84888305  1
  O  O241  1  0.75567300  0.34254105  0.12037069  1
  O  O242  1  0.74501230  0.33361368  0.39267314  1
  O  O243  1  0.75911701  0.40703311  0.61998860  1
  O  O244  1  0.75051390  0.35086196  0.87877027  1
  O  O245  1  0.75865012  0.63113554  0.14744703  1
  O  O246  1  0.76036798  0.65421259  0.36094083  1
  O  O247  1  0.75714827  0.59309848  0.64396940  1
  O  O248  1  0.75564247  0.61455296  0.84143185  1
  O  O249  1  0.75967172  0.88908857  0.14677878  1
  O  O250  1  0.75056719  0.86440518  0.35935879  1
  O  O251  1  0.73958321  0.91274005  0.64531813  1
  O  O252  1  0.75476320  0.87243119  0.83353069  1
  O  O253  1  0.10972043  0.00257729  0.10689991  1
  O  O254  1  0.14286591  -0.00140713  0.36102865  1
  O  O255  1  0.08829171  -0.00405368  0.61221516  1
  O  O256  1  0.11474351  -0.00422437  0.88442494  1
  O  O257  1  0.15073357  0.24218697  0.12991080  1
  O  O258  1  0.09404521  0.24334486  0.37817013  1
  O  O259  1  0.14518589  0.25742682  0.63000832  1
  O  O260  1  0.13576329  0.25387598  0.84280194  1
  O  O261  1  0.12363278  0.49710853  0.09363044  1
  O  O262  1  0.12782455  0.50524226  0.40189595  1
  O  O263  1  0.09611815  0.50158837  0.61204894  1
  O  O264  1  0.11783201  0.50047848  0.89286298  1
  O  O265  1  0.10683455  0.75034588  0.13147925  1
  O  O266  1  0.09401185  0.75986347  0.37582082  1
  O  O267  1  0.13764512  0.75102731  0.64784078  1
  O  O268  1  0.12103980  0.74818936  0.85109381  1
  O  O269  1  0.38118873  0.00170937  0.08848632  1
  O  O270  1  0.35587679  -0.00803101  0.39321905  1
  O  O271  1  0.37783292  -0.01306995  0.59964855  1
  O  O272  1  0.36857693  -0.00910874  0.91287144  1
  O  O273  1  0.34601597  0.23811424  0.13835694  1
  O  O274  1  0.38458745  0.25634784  0.39758435  1
  O  O275  1  0.36391552  0.27013362  0.59284415  1
  O  O276  1  0.39946380  0.23085327  0.85030556  1
  O  O277  1  0.37988129  0.50421866  0.09406860  1
  O  O278  1  0.36135738  0.49819258  0.35697666  1
  O  O279  1  0.40171811  0.49996475  0.62623248  1
  O  O280  1  0.36797693  0.49284417  0.88743101  1
  O  O281  1  0.34966826  0.74633869  0.14213735  1
  O  O282  1  0.39007501  0.75706171  0.34900929  1
  O  O283  1  0.34793045  0.75367779  0.65364756  1
  O  O284  1  0.36574195  0.75586153  0.85067054  1
  O  O285  1  0.63927314  0.00576854  0.11783674  1
  O  O286  1  0.64288829  0.00047158  0.38303123  1
  O  O287  1  0.58728001  0.00216069  0.60933012  1
  O  O288  1  0.66924591  0.01532587  0.87132774  1
  O  O289  1  0.62950303  0.24128988  0.16556229  1
  O  O290  1  0.60431740  0.24510081  0.36690292  1
  O  O291  1  0.66149204  0.24979093  0.61581183  1
  O  O292  1  0.61356979  0.24467408  0.88089328  1
  O  O293  1  0.65166802  0.48283823  0.11198334  1
  O  O294  1  0.65732039  0.49657124  0.38087020  1
  O  O295  1  0.61245517  0.50303418  0.61154698  1
  O  O296  1  0.62698173  0.48415348  0.90535243  1
  O  O297  1  0.63600697  0.76469130  0.12632281  1
  O  O298  1  0.60643191  0.75889031  0.36104717  1
  O  O299  1  0.62484633  0.76322394  0.63751926  1
  O  O300  1  0.63593291  0.74741317  0.85946904  1
  O  O301  1  0.89806936  0.00472325  0.12676662  1
  O  O302  1  0.85636108  0.00826897  0.34458852  1
  O  O303  1  0.90459080  0.00550426  0.62644564  1
  O  O304  1  0.87506864  -0.00304923  0.85549331  1
  O  O305  1  0.90319772  0.24905374  0.12352090  1
  O  O306  1  0.90862962  0.24018276  0.38220451  1
  O  O307  1  0.85197255  0.24800845  0.64098668  1
  O  O308  1  0.88900155  0.25249483  0.86568707  1
  O  O309  1  0.84731045  0.49628268  0.12568379  1
  O  O310  1  0.85122365  0.49962175  0.37143309  1
  O  O311  1  0.90088057  0.50158830  0.63838645  1
  O  O312  1  0.87894749  0.49697774  0.86943965  1
  O  O313  1  0.87618685  0.75152605  0.11210363  1
  O  O314  1  0.89153960  0.76645813  0.40222515  1
  O  O315  1  0.84469093  0.74507252  0.61463546  1
  O  O316  1  0.84916846  0.74670488  0.88359302  1
