# generated using pymatgen
data_Mg32Ti42(Bi17O64)3
_symmetry_space_group_name_H-M   'P 1'
_cell_length_a   15.92336079
_cell_length_b   15.89917967
_cell_length_c   15.95466036
_cell_angle_alpha   90.05497144
_cell_angle_beta   90.00551227
_cell_angle_gamma   90.12744695
_symmetry_Int_Tables_number   1
_chemical_formula_structural   Mg32Ti42(Bi17O64)3
_chemical_formula_sum   'Mg32 Ti42 Bi51 O192'
_cell_volume   4039.20355348
_cell_formula_units_Z   1
loop_
 _symmetry_equiv_pos_site_id
 _symmetry_equiv_pos_as_xyz
  1  'x, y, z'
loop_
 _atom_site_type_symbol
 _atom_site_label
 _atom_site_symmetry_multiplicity
 _atom_site_fract_x
 _atom_site_fract_y
 _atom_site_fract_z
 _atom_site_occupancy
  Mg  Mg0  1  0.61837387  0.12277868  0.38648994  1
  Mg  Mg1  1  0.88055356  0.12634495  0.12013543  1
  Mg  Mg2  1  0.11154953  0.37183828  0.37312832  1
  Mg  Mg3  1  0.37525044  0.87070098  0.87375578  1
  Mg  Mg4  1  0.11269567  0.37009882  0.87304136  1
  Mg  Mg5  1  0.12147710  0.38125212  0.62265936  1
  Mg  Mg6  1  0.62041064  0.87166327  0.12602362  1
  Mg  Mg7  1  0.62875093  0.87524784  0.38087064  1
  Mg  Mg8  1  0.37115405  0.37078831  0.87692859  1
  Mg  Mg9  1  0.87027205  0.12610969  0.64293311  1
  Mg  Mg10  1  0.12789831  0.12577521  0.38072511  1
  Mg  Mg11  1  0.38354928  0.38637351  0.38406930  1
  Mg  Mg12  1  0.37695513  0.62578672  0.88038481  1
  Mg  Mg13  1  0.62581248  0.37253554  0.87376759  1
  Mg  Mg14  1  0.62209780  0.62909617  0.37299321  1
  Mg  Mg15  1  0.88386898  0.61817802  0.36362829  1
  Mg  Mg16  1  0.88429212  0.88012082  0.62349995  1
  Mg  Mg17  1  0.63644601  0.62937343  0.86423864  1
  Mg  Mg18  1  0.88268145  0.13603618  0.36055493  1
  Mg  Mg19  1  0.50538880  0.74746667  -0.05609451  1
  Mg  Mg20  1  -0.04707573  0.75382772  0.02806010  1
  Mg  Mg21  1  0.74316924  0.48460666  0.79617980  1
  Mg  Mg22  1  -0.03823424  0.04572700  0.49770795  1
  Mg  Mg23  1  -0.03557701  0.54803602  0.50772505  1
  Mg  Mg24  1  0.03519192  0.23568769  0.23440322  1
  Mg  Mg25  1  0.77969497  0.29459624  0.76285460  1
  Mg  Mg26  1  0.02153049  0.51774028  0.00713855  1
  Mg  Mg27  1  -0.03701023  -0.04698965  0.00114649  1
  Mg  Mg28  1  0.63137175  0.86117613  0.63541042  1
  Mg  Mg29  1  0.49676628  0.73579454  0.75823996  1
  Mg  Mg30  1  0.49841706  0.77637154  0.28591984  1
  Mg  Mg31  1  0.20171604  0.49629271  0.44863550  1
  Ti  Ti32  1  0.13412346  0.87719478  0.60537392  1
  Ti  Ti33  1  0.12412640  0.11667798  0.11316202  1
  Ti  Ti34  1  0.36990238  0.61920156  0.62211052  1
  Ti  Ti35  1  0.87905063  0.62334892  0.87885182  1
  Ti  Ti36  1  0.63005245  0.36575085  0.63958733  1
  Ti  Ti37  1  0.37121998  0.87464151  0.38389475  1
  Ti  Ti38  1  0.88722057  0.12330142  0.87619068  1
  Ti  Ti39  1  0.12510123  0.63578801  0.11322675  1
  Ti  Ti40  1  0.86579688  0.37064928  0.12555444  1
  Ti  Ti41  1  0.38583884  0.86902929  0.12507003  1
  Ti  Ti42  1  0.63223712  0.13317009  0.63866257  1
  Ti  Ti43  1  0.62819933  0.37468864  0.38656634  1
  Ti  Ti44  1  0.37646329  0.36445861  0.12689820  1
  Ti  Ti45  1  0.62087893  0.12077958  0.11584557  1
  Ti  Ti46  1  0.12427351  0.61114540  0.62254009  1
  Ti  Ti47  1  0.36911766  0.12482890  0.36711279  1
  Ti  Ti48  1  0.38735781  0.62880851  0.36671130  1
  Ti  Ti49  1  0.62523803  0.87106206  0.87608210  1
  Ti  Ti50  1  0.86909417  0.63594879  0.63653043  1
  Ti  Ti51  1  0.37987654  0.38169579  0.62566687  1
  Ti  Ti52  1  0.86613206  0.88164875  0.13920594  1
  Ti  Ti53  1  0.62311606  0.36973445  0.11861492  1
  Ti  Ti54  1  0.60998293  0.62715917  0.12456371  1
  Ti  Ti55  1  0.12266645  0.87651463  0.36640988  1
  Ti  Ti56  1  0.86176032  0.37707649  0.62211803  1
  Ti  Ti57  1  0.12134624  0.85753708  0.88919121  1
  Ti  Ti58  1  0.38115518  0.62836984  0.11953733  1
  Ti  Ti59  1  0.62573713  0.12584067  0.87156177  1
  Ti  Ti60  1  0.87761548  0.85713154  0.87265732  1
  Ti  Ti61  1  0.63836885  0.62603671  0.63162437  1
  Ti  Ti62  1  0.37077091  0.86606617  0.63914181  1
  Ti  Ti63  1  0.38063552  0.11658407  0.87719716  1
  Ti  Ti64  1  0.10908320  0.11750811  0.60951985  1
  Ti  Ti65  1  0.87985413  0.88880053  0.37503848  1
  Ti  Ti66  1  0.12176534  0.87498021  0.11995525  1
  Ti  Ti67  1  0.12031650  0.12733477  0.88572626  1
  Ti  Ti68  1  0.38218549  0.11941327  0.12951250  1
  Ti  Ti69  1  0.11488554  0.62533550  0.87684658  1
  Ti  Ti70  1  0.11622903  0.61903707  0.35580390  1
  Ti  Ti71  1  0.88570807  0.60780656  0.12013110  1
  Ti  Ti72  1  0.87876989  0.38464223  0.88750203  1
  Ti  Ti73  1  0.87257131  0.38001264  0.36361186  1
  Bi  Bi74  1  0.01983107  -0.02290007  0.76128479  1
  Bi  Bi75  1  0.50583795  0.25323560  -0.01217461  1
  Bi  Bi76  1  0.50295689  -0.00675391  0.27111597  1
  Bi  Bi77  1  0.02516707  0.28416442  0.02118035  1
  Bi  Bi78  1  0.24209330  0.00260304  0.25851013  1
  Bi  Bi79  1  -0.00573056  0.26570756  0.49171814  1
  Bi  Bi80  1  0.23937371  0.24393248  0.70944553  1
  Bi  Bi81  1  0.25119495  0.71085907  0.48645450  1
  Bi  Bi82  1  0.72232639  0.76431712  0.25217497  1
  Bi  Bi83  1  0.48441102  0.21337151  0.53010888  1
  Bi  Bi84  1  0.01841207  0.75602970  0.71375431  1
  Bi  Bi85  1  -0.02117051  0.74226870  0.23622042  1
  Bi  Bi86  1  0.52467541  -0.01678756  0.52652020  1
  Bi  Bi87  1  0.23001581  0.26335311  0.25983629  1
  Bi  Bi88  1  0.24676205  0.30293786  0.48871394  1
  Bi  Bi89  1  0.76357631  -0.01321173  0.52388123  1
  Bi  Bi90  1  0.25357905  0.23628900  0.00047371  1
  Bi  Bi91  1  0.50159954  -0.00990551  0.01452934  1
  Bi  Bi92  1  0.75007186  0.23840031  0.24681610  1
  Bi  Bi93  1  0.52603105  0.50312360  0.52593920  1
  Bi  Bi94  1  0.25508854  0.72591211  0.75387166  1
  Bi  Bi95  1  0.75417461  0.74895213  0.49581330  1
  Bi  Bi96  1  0.73847393  0.02131737  0.27492679  1
  Bi  Bi97  1  0.27010137  0.51164791  0.23120955  1
  Bi  Bi98  1  0.23943910  0.02150269  0.75047265  1
  Bi  Bi99  1  0.72807945  0.75221283  0.00129497  1
  Bi  Bi100  1  -0.02387543  0.48613328  0.73725406  1
  Bi  Bi101  1  0.22785712  0.46688733  0.00951648  1
  Bi  Bi102  1  0.49785070  0.74811285  0.52287817  1
  Bi  Bi103  1  0.45695074  0.23903986  0.74151883  1
  Bi  Bi104  1  0.02903103  0.45367967  0.22033224  1
  Bi  Bi105  1  0.29243676  0.02742147  0.53033225  1
  Bi  Bi106  1  0.25844748  0.00169577  -0.01069975  1
  Bi  Bi107  1  0.76660300  -0.01748355  0.75727805  1
  Bi  Bi108  1  0.25704467  0.77095597  0.23452177  1
  Bi  Bi109  1  0.76656499  0.22236240  0.48520129  1
  Bi  Bi110  1  0.48196132  0.48153623  -0.01404798  1
  Bi  Bi111  1  0.50027530  0.25462359  0.28181889  1
  Bi  Bi112  1  0.72469803  0.51667273  0.24838336  1
  Bi  Bi113  1  0.76214121  0.00222866  0.00181262  1
  Bi  Bi114  1  0.50285980  0.47577679  0.25939054  1
  Bi  Bi115  1  0.00608484  0.02770813  0.25518987  1
  Bi  Bi116  1  0.50608603  0.53203683  0.76897707  1
  Bi  Bi117  1  -0.00070077  0.75253438  0.47231149  1
  Bi  Bi118  1  0.73593398  0.50054465  0.00113172  1
  Bi  Bi119  1  0.51248674  -0.02302023  0.75786034  1
  Bi  Bi120  1  0.76333125  0.51457201  0.48077649  1
  Bi  Bi121  1  0.26975918  0.75633480  -0.01660356  1
  Bi  Bi122  1  0.00212616  0.25346174  0.72957450  1
  Bi  Bi123  1  0.77365559  0.23574660  -0.01119541  1
  Bi  Bi124  1  0.23132257  0.46529823  0.76420307  1
  O  O125  1  0.10462226  0.08762835  0.00088091  1
  O  O126  1  0.15498660  0.15204777  0.23803759  1
  O  O127  1  0.07784043  0.10167107  0.50024781  1
  O  O128  1  0.15359239  0.13719843  0.76458622  1
  O  O129  1  0.08696233  0.40606135  -0.00742389  1
  O  O130  1  0.11377282  0.34018536  0.25077131  1
  O  O131  1  0.13412258  0.38895089  0.49756127  1
  O  O132  1  0.14773727  0.35493739  0.75183756  1
  O  O133  1  0.13223002  0.60342702  -0.00088967  1
  O  O134  1  0.10806607  0.64670259  0.24663460  1
  O  O135  1  0.14409475  0.58830859  0.51377184  1
  O  O136  1  0.12082991  0.66221990  0.75704669  1
  O  O137  1  0.14595175  0.89658635  0.00625021  1
  O  O138  1  0.10900152  0.84914190  0.25334710  1
  O  O139  1  0.14924796  0.89248279  0.49670536  1
  O  O140  1  0.10058590  0.85880031  0.76487937  1
  O  O141  1  0.39268271  0.09039588  0.00227786  1
  O  O142  1  0.34887663  0.13343662  0.24192973  1
  O  O143  1  0.39971487  0.10557299  0.48711329  1
  O  O144  1  0.34848405  0.14628001  0.76708049  1
  O  O145  1  0.36519117  0.40600134  0.00900522  1
  O  O146  1  0.39256408  0.36028807  0.24418646  1
  O  O147  1  0.38956159  0.37768162  0.51009888  1
  O  O148  1  0.36245143  0.35208981  0.75217113  1
  O  O149  1  0.38025686  0.60298395  0.01019033  1
  O  O150  1  0.35385677  0.63825525  0.25546051  1
  O  O151  1  0.35981049  0.61645202  0.49618372  1
  O  O152  1  0.38813096  0.65782360  0.73829335  1
  O  O153  1  0.34457108  0.88496641  0.00960322  1
  O  O154  1  0.39343796  0.83763974  0.24435970  1
  O  O155  1  0.36260489  0.89610399  0.49390125  1
  O  O156  1  0.40211082  0.84134213  0.74857300  1
  O  O157  1  0.58841745  0.10661793  -0.00542216  1
  O  O158  1  0.65031365  0.13105166  0.23535363  1
  O  O159  1  0.59350917  0.10995141  0.51052288  1
  O  O160  1  0.65045341  0.13475593  0.75355694  1
  O  O161  1  0.62723849  0.41504525  0.00269594  1
  O  O162  1  0.61652321  0.36393666  0.23693927  1
  O  O163  1  0.61418293  0.39428054  0.49843532  1
  O  O164  1  0.66531744  0.35297655  0.74803872  1
  O  O165  1  0.64172692  0.61489725  0.00793856  1
  O  O166  1  0.64881733  0.63951866  0.24411502  1
  O  O167  1  0.62903959  0.59353944  0.49762307  1
  O  O168  1  0.60200919  0.65480793  0.73552768  1
  O  O169  1  0.65799062  0.87817661  -0.00115613  1
  O  O170  1  0.60579084  0.83737996  0.25197785  1
  O  O171  1  0.63449551  0.90161958  0.50539376  1
  O  O172  1  0.59104234  0.84975282  0.75988817  1
  O  O173  1  0.88772837  0.16139811  -0.00346774  1
  O  O174  1  0.83638359  0.12576496  0.24209389  1
  O  O175  1  0.89743411  0.16135352  0.49113200  1
  O  O176  1  0.85766004  0.09319155  0.76541186  1
  O  O177  1  0.88101451  0.35369475  0.00396436  1
  O  O178  1  0.86520648  0.40049233  0.24988797  1
  O  O179  1  0.87779343  0.33618350  0.50888978  1
  O  O180  1  0.84580661  0.41252039  0.75246649  1
  O  O181  1  0.87557887  0.65019067  -0.00183302  1
  O  O182  1  0.90927721  0.61671419  0.23831179  1
  O  O183  1  0.85758166  0.62757476  0.50910782  1
  O  O184  1  0.89874437  0.60728492  0.75001159  1
  O  O185  1  0.87314353  0.85227496  -0.00536761  1
  O  O186  1  0.90547822  0.88928918  0.24866056  1
  O  O187  1  0.85138552  0.86531201  0.49190810  1
  O  O188  1  0.88747192  0.90605151  0.75722214  1
  O  O189  1  0.00824519  0.13718321  0.15153739  1
  O  O190  1  0.00676102  0.14796244  0.32956726  1
  O  O191  1  -0.00059142  0.12762705  0.65329517  1
  O  O192  1  0.00231704  0.12281119  0.85768697  1
  O  O193  1  -0.01546291  0.33642920  0.14751797  1
  O  O194  1  -0.01368343  0.34028797  0.37391310  1
  O  O195  1  -0.00569967  0.36364355  0.64619318  1
  O  O196  1  -0.01329492  0.36152485  0.84230717  1
  O  O197  1  0.00742651  0.66478884  0.10301515  1
  O  O198  1  0.00569413  0.62368838  0.41016303  1
  O  O199  1  0.00380637  0.62593124  0.60854881  1
  O  O200  1  0.00349524  0.60577723  0.89184564  1
  O  O201  1  0.00718862  0.86495077  0.09420848  1
  O  O202  1  0.00722245  0.87152799  0.39729408  1
  O  O203  1  0.01138398  0.87327804  0.62497839  1
  O  O204  1  -0.00063611  0.90044773  0.89026716  1
  O  O205  1  0.25264476  0.11461158  0.09117021  1
  O  O206  1  0.25757884  0.09957531  0.39274997  1
  O  O207  1  0.23375167  0.12632189  0.61045518  1
  O  O208  1  0.24856049  0.12691002  0.91048496  1
  O  O209  1  0.25793913  0.39776703  0.13551233  1
  O  O210  1  0.25864685  0.39901526  0.38801899  1
  O  O211  1  0.25684521  0.37385340  0.62035687  1
  O  O212  1  0.24384554  0.38827739  0.89244326  1
  O  O213  1  0.24684272  0.60430182  0.13174802  1
  O  O214  1  0.23528611  0.61139446  0.38128625  1
  O  O215  1  0.25012211  0.62960895  0.64316398  1
  O  O216  1  0.24795479  0.64887277  0.86855197  1
  O  O217  1  0.25138311  0.89104488  0.15965929  1
  O  O218  1  0.24828855  0.88316247  0.34391412  1
  O  O219  1  0.25057957  0.87488620  0.64686209  1
  O  O220  1  0.24021860  0.84184566  0.86952602  1
  O  O221  1  0.49639273  0.14481204  0.13865350  1
  O  O222  1  0.49626007  0.11750936  0.34004774  1
  O  O223  1  0.50756864  0.14528354  0.64690333  1
  O  O224  1  0.49603223  0.10860455  0.84793101  1
  O  O225  1  0.49983234  0.37071156  0.10113591  1
  O  O226  1  0.50691098  0.37067974  0.36246493  1
  O  O227  1  0.50806886  0.36869543  0.64659622  1
  O  O228  1  0.49968257  0.36579548  0.90444970  1
  O  O229  1  0.49882624  0.64956805  0.13326275  1
  O  O230  1  0.49695220  0.66879440  0.35601521  1
  O  O231  1  0.49717916  0.63371120  0.60268878  1
  O  O232  1  0.50513851  0.64492397  0.86332921  1
  O  O233  1  0.49519711  0.85840988  0.09574912  1
  O  O234  1  0.49240505  0.86472817  0.37944842  1
  O  O235  1  0.49926758  0.85685793  0.60726119  1
  O  O236  1  0.50799965  0.87248189  0.90597069  1
  O  O237  1  0.73863513  0.11474965  0.08583031  1
  O  O238  1  0.74819913  0.11067937  0.39323049  1
  O  O239  1  0.74702766  0.11716996  0.59919252  1
  O  O240  1  0.73900543  0.11165932  0.90750711  1
  O  O241  1  0.74973338  0.40526276  0.11598233  1
  O  O242  1  0.74717514  0.40034277  0.38305297  1
  O  O243  1  0.74892077  0.38482186  0.60567630  1
  O  O244  1  0.75464909  0.39419621  0.88830938  1
  O  O245  1  0.77206615  0.59174368  0.12833420  1
  O  O246  1  0.75863270  0.59496796  0.36815732  1
  O  O247  1  0.75246574  0.61270352  0.64355659  1
  O  O248  1  0.76399766  0.59768693  0.86177528  1
  O  O249  1  0.75353915  0.88933499  0.15233757  1
  O  O250  1  0.76414252  0.89018584  0.35066149  1
  O  O251  1  0.75320667  0.90415998  0.63730437  1
  O  O252  1  0.75739647  0.87787719  0.85839131  1
  O  O253  1  0.11953390  -0.00111910  0.15772996  1
  O  O254  1  0.11804319  -0.00185844  0.34097872  1
  O  O255  1  0.12748867  -0.00097338  0.65119086  1
  O  O256  1  0.14313536  -0.00120935  0.85182578  1
  O  O257  1  0.13609041  0.23758539  0.09058388  1
  O  O258  1  0.16154077  0.25031612  0.38442716  1
  O  O259  1  0.11756096  0.24223431  0.62430432  1
  O  O260  1  0.12357718  0.24247201  0.90951382  1
  O  O261  1  0.10264416  0.51501742  0.12810625  1
  O  O262  1  0.11399700  0.50014734  0.34808011  1
  O  O263  1  0.12116017  0.50318374  0.66597361  1
  O  O264  1  0.13202946  0.50913284  0.84883814  1
  O  O265  1  0.15439181  0.75646609  0.11825133  1
  O  O266  1  0.12297403  0.74659678  0.39969222  1
  O  O267  1  0.12157823  0.75270370  0.61362602  1
  O  O268  1  0.09541900  0.75091605  0.91363623  1
  O  O269  1  0.39776393  -0.00346875  0.13830880  1
  O  O270  1  0.37986651  -0.00758446  0.34206943  1
  O  O271  1  0.38102815  -0.01389548  0.63667335  1
  O  O272  1  0.35054572  -0.00299501  0.86377890  1
  O  O273  1  0.36223099  0.24937135  0.10531901  1
  O  O274  1  0.38520791  0.24217788  0.37456213  1
  O  O275  1  0.38317808  0.25222603  0.62394993  1
  O  O276  1  0.38519034  0.23777887  0.90931468  1
  O  O277  1  0.38681139  0.50797335  0.15575161  1
  O  O278  1  0.40666059  0.51286036  0.36066280  1
  O  O279  1  0.38276533  0.50410186  0.63992465  1
  O  O280  1  0.40503103  0.50079205  0.86478129  1
  O  O281  1  0.34694557  0.74774988  0.11379867  1
  O  O282  1  0.34653877  0.75195025  0.39113437  1
  O  O283  1  0.36962073  0.75103896  0.59058195  1
  O  O284  1  0.38532948  0.74993393  0.91275783  1
  O  O285  1  0.59917859  0.00295772  0.12712492  1
  O  O286  1  0.61923804  -0.00146194  0.34949793  1
  O  O287  1  0.59786239  0.00220485  0.64810134  1
  O  O288  1  0.62054622  -0.00744257  0.85228869  1
  O  O289  1  0.63424129  0.25528909  0.09937234  1
  O  O290  1  0.62666856  0.25399347  0.37549184  1
  O  O291  1  0.63259116  0.25072619  0.60730601  1
  O  O292  1  0.61623131  0.24113443  0.89474646  1
  O  O293  1  0.61244184  0.50952381  0.14890021  1
  O  O294  1  0.61190976  0.49935079  0.34640838  1
  O  O295  1  0.61010714  0.50187928  0.63697462  1
  O  O296  1  0.61995118  0.50169956  0.83905077  1
  O  O297  1  0.65641934  0.74418374  0.11674603  1
  O  O298  1  0.66528172  0.75028769  0.38942736  1
  O  O299  1  0.63865774  0.74161008  0.58596101  1
  O  O300  1  0.63017991  0.75051660  0.90252737  1
  O  O301  1  0.88542136  -0.00482733  0.09591240  1
  O  O302  1  0.90560692  0.00567300  0.38838930  1
  O  O303  1  0.88551405  0.00774198  0.58852667  1
  O  O304  1  0.87670403  0.00973681  0.91699682  1
  O  O305  1  0.83558097  0.25826701  0.13459038  1
  O  O306  1  0.83493781  0.25856148  0.36123641  1
  O  O307  1  0.86383048  0.25888680  0.67229220  1
  O  O308  1  0.84404874  0.24720929  0.86031699  1
  O  O309  1  0.92423177  0.49907017  0.09820591  1
  O  O310  1  0.89293654  0.48783699  0.41377399  1
  O  O311  1  0.90048445  0.49285185  0.60950294  1
  O  O312  1  0.89312566  0.49659592  0.90427438  1
  O  O313  1  0.87310821  0.75818027  0.13896051  1
  O  O314  1  0.89576636  0.75237396  0.36571645  1
  O  O315  1  0.87405996  0.74848643  0.63553503  1
  O  O316  1  0.89001606  0.74598713  0.85669242  1
