# generated using pymatgen
data_Mg32Ti42(Bi17O64)3
_symmetry_space_group_name_H-M   'P 1'
_cell_length_a   15.97828869
_cell_length_b   15.94191547
_cell_length_c   15.95901756
_cell_angle_alpha   89.89952681
_cell_angle_beta   89.93869656
_cell_angle_gamma   90.04436898
_symmetry_Int_Tables_number   1
_chemical_formula_structural   Mg32Ti42(Bi17O64)3
_chemical_formula_sum   'Mg32 Ti42 Bi51 O192'
_cell_volume   4065.14340788
_cell_formula_units_Z   1
loop_
 _symmetry_equiv_pos_site_id
 _symmetry_equiv_pos_as_xyz
  1  'x, y, z'
loop_
 _atom_site_type_symbol
 _atom_site_label
 _atom_site_symmetry_multiplicity
 _atom_site_fract_x
 _atom_site_fract_y
 _atom_site_fract_z
 _atom_site_occupancy
  Mg  Mg0  1  0.87718227  0.62556127  0.37332848  1
  Mg  Mg1  1  0.12582098  0.36567298  0.62923358  1
  Mg  Mg2  1  0.62032215  0.62735999  0.62037884  1
  Mg  Mg3  1  0.62538457  0.12321821  0.38500924  1
  Mg  Mg4  1  0.36947069  0.13899215  0.12857484  1
  Mg  Mg5  1  0.37096342  0.86716401  0.11627919  1
  Mg  Mg6  1  0.60976880  0.61632139  0.88131719  1
  Mg  Mg7  1  0.37453764  0.13555701  0.62065381  1
  Mg  Mg8  1  0.11596980  0.63307249  0.87524542  1
  Mg  Mg9  1  0.36750380  0.39147698  0.87410583  1
  Mg  Mg10  1  0.37425539  0.10672284  0.37592771  1
  Mg  Mg11  1  0.86345727  0.11147342  0.11855919  1
  Mg  Mg12  1  0.61865663  0.37334203  0.87944884  1
  Mg  Mg13  1  0.36493536  0.62602122  0.12779600  1
  Mg  Mg14  1  0.12651085  0.12686384  0.11724455  1
  Mg  Mg15  1  0.62466993  0.62749371  0.12776317  1
  Mg  Mg16  1  0.87532027  0.37549256  0.86264634  1
  Mg  Mg17  1  0.11874579  0.62998173  0.61601202  1
  Mg  Mg18  1  0.62163945  0.37681016  0.62452483  1
  Mg  Mg19  1  0.40897147  0.00783068  0.75163274  1
  Mg  Mg20  1  0.30207855  0.80395792  0.73745074  1
  Mg  Mg21  1  0.44057742  0.53644432  -0.00233337  1
  Mg  Mg22  1  0.29429929  0.25203929  -0.04866783  1
  Mg  Mg23  1  0.01614667  0.28827995  0.75404206  1
  Mg  Mg24  1  0.68098793  0.01540809  0.25064312  1
  Mg  Mg25  1  0.77359169  0.77383342  0.48483438  1
  Mg  Mg26  1  0.07639567  0.49936479  0.74382989  1
  Mg  Mg27  1  0.46855742  -0.00734101  0.19935684  1
  Mg  Mg28  1  0.28826679  0.25121754  0.28650700  1
  Mg  Mg29  1  0.23842041  0.59871531  0.74792002  1
  Mg  Mg30  1  0.70566521  -0.05749140  -0.03002623  1
  Mg  Mg31  1  0.23787166  0.53414565  -0.05427562  1
  Ti  Ti32  1  0.36237309  0.36696586  0.12468985  1
  Ti  Ti33  1  0.88005999  0.86594988  0.62565444  1
  Ti  Ti34  1  0.36385743  0.87050725  0.88245083  1
  Ti  Ti35  1  0.13252478  0.38012588  0.87324438  1
  Ti  Ti36  1  0.63309547  0.11612898  0.86327267  1
  Ti  Ti37  1  0.62166746  0.12432181  0.61951526  1
  Ti  Ti38  1  0.86818731  0.62239761  0.13138410  1
  Ti  Ti39  1  0.87313103  0.12930281  0.37416884  1
  Ti  Ti40  1  0.38456000  0.62266749  0.63170121  1
  Ti  Ti41  1  0.61898138  0.62846812  0.37584747  1
  Ti  Ti42  1  0.63206677  0.86865425  0.61398992  1
  Ti  Ti43  1  0.88237876  0.87633034  0.36001201  1
  Ti  Ti44  1  0.87643314  0.87115395  0.87460812  1
  Ti  Ti45  1  0.36199074  0.88064822  0.37052409  1
  Ti  Ti46  1  0.12601292  0.12571224  0.36751319  1
  Ti  Ti47  1  0.12365047  0.87602310  0.11352535  1
  Ti  Ti48  1  0.63162332  0.87628060  0.37928876  1
  Ti  Ti49  1  0.37483822  0.62944258  0.86669066  1
  Ti  Ti50  1  0.12700277  0.61887332  0.37529800  1
  Ti  Ti51  1  0.62488396  0.11372628  0.11356089  1
  Ti  Ti52  1  0.12091468  0.36564605  0.37216134  1
  Ti  Ti53  1  0.11923662  0.87525468  0.87897272  1
  Ti  Ti54  1  0.87341707  0.12412376  0.87046650  1
  Ti  Ti55  1  0.11474329  0.13468325  0.63035665  1
  Ti  Ti56  1  0.62106662  0.36407166  0.12603822  1
  Ti  Ti57  1  0.11465654  0.12887172  0.87581150  1
  Ti  Ti58  1  0.86178542  0.87600581  0.11372187  1
  Ti  Ti59  1  0.12711573  0.61973097  0.11957114  1
  Ti  Ti60  1  0.12201446  0.88002295  0.36507686  1
  Ti  Ti61  1  0.88284379  0.61759363  0.87032597  1
  Ti  Ti62  1  0.87778988  0.38272615  0.63391179  1
  Ti  Ti63  1  0.11587776  0.87084737  0.62439362  1
  Ti  Ti64  1  0.87083040  0.62571827  0.60862059  1
  Ti  Ti65  1  0.36681055  0.62130667  0.37712892  1
  Ti  Ti66  1  0.86395528  0.36398278  0.13033424  1
  Ti  Ti67  1  0.37193900  0.38402567  0.36862233  1
  Ti  Ti68  1  0.61913802  0.37487530  0.36770006  1
  Ti  Ti69  1  0.61339501  0.87340780  0.13757378  1
  Ti  Ti70  1  0.12602659  0.36373910  0.11721788  1
  Ti  Ti71  1  0.86486701  0.38112948  0.37264346  1
  Ti  Ti72  1  0.37096420  0.37532221  0.63460021  1
  Ti  Ti73  1  0.87382960  0.12958130  0.63575867  1
  Bi  Bi74  1  -0.00579595  0.26839801  -0.02414390  1
  Bi  Bi75  1  0.26733565  -0.00110386  0.20898803  1
  Bi  Bi76  1  0.50376298  0.46952843  0.75817719  1
  Bi  Bi77  1  -0.02332863  0.25960241  0.50584842  1
  Bi  Bi78  1  -0.00305291  0.01909132  -0.00355042  1
  Bi  Bi79  1  0.21670943  -0.00882757  0.74853622  1
  Bi  Bi80  1  -0.00088025  0.00855648  0.22302568  1
  Bi  Bi81  1  0.24631714  0.23269153  0.49893713  1
  Bi  Bi82  1  -0.00401795  0.22846337  0.22103804  1
  Bi  Bi83  1  0.23520109  0.50022704  0.53572910  1
  Bi  Bi84  1  0.01212585  0.73336563  0.47354783  1
  Bi  Bi85  1  0.48502477  0.24524907  0.00494640  1
  Bi  Bi86  1  -0.01022541  0.73998255  0.23077319  1
  Bi  Bi87  1  0.45380650  -0.03018346  0.53358090  1
  Bi  Bi88  1  0.73611952  0.21996795  0.23597773  1
  Bi  Bi89  1  0.74045774  0.73056488  -0.02584515  1
  Bi  Bi90  1  0.71756444  0.49614408  0.00411891  1
  Bi  Bi91  1  0.50166571  0.79738637  0.74406826  1
  Bi  Bi92  1  0.72442285  0.26180070  0.49629974  1
  Bi  Bi93  1  0.26857567  0.22280934  0.76084214  1
  Bi  Bi94  1  0.75100137  0.00750496  0.49204341  1
  Bi  Bi95  1  -0.02103106  -0.01228760  0.75634387  1
  Bi  Bi96  1  0.74003057  0.25792781  -0.02659245  1
  Bi  Bi97  1  0.48098486  0.73448128  0.23383362  1
  Bi  Bi98  1  0.47799022  0.48124964  0.50479980  1
  Bi  Bi99  1  0.49334057  0.50929035  0.21167492  1
  Bi  Bi100  1  0.48339326  0.75096247  0.47707495  1
  Bi  Bi101  1  -0.02211706  0.00847710  0.49228766  1
  Bi  Bi102  1  0.48032147  0.23649950  0.48031282  1
  Bi  Bi103  1  0.51578909  -0.00560471  -0.04659925  1
  Bi  Bi104  1  0.72292774  0.75316747  0.74105334  1
  Bi  Bi105  1  0.47827968  0.21877075  0.77495021  1
  Bi  Bi106  1  0.01068985  0.47577413  0.50843943  1
  Bi  Bi107  1  0.73744789  0.75595135  0.25687192  1
  Bi  Bi108  1  -0.00136436  0.47375388  0.23596351  1
  Bi  Bi109  1  -0.00307967  0.71963442  0.73046436  1
  Bi  Bi110  1  0.52098104  0.76840322  -0.02157209  1
  Bi  Bi111  1  0.26903314  0.76252582  0.54296515  1
  Bi  Bi112  1  0.22399082  -0.00017765  0.50651946  1
  Bi  Bi113  1  -0.01665753  0.73974306  -0.00645696  1
  Bi  Bi114  1  0.72401512  0.27068514  0.74312850  1
  Bi  Bi115  1  0.28078564  0.05225308  -0.01913238  1
  Bi  Bi116  1  0.23239510  0.48716566  0.24047921  1
  Bi  Bi117  1  0.49452937  0.20929979  0.25638115  1
  Bi  Bi118  1  0.72539869  0.52699398  0.74846307  1
  Bi  Bi119  1  0.24520268  0.73582202  -0.01273086  1
  Bi  Bi120  1  0.74506978  -0.00454936  0.72829995  1
  Bi  Bi121  1  0.23427151  0.73952655  0.23688107  1
  Bi  Bi122  1  0.74000889  0.51953476  0.26471887  1
  Bi  Bi123  1  0.72861058  0.50355024  0.50460409  1
  Bi  Bi124  1  -0.02619337  0.48812544  -0.00754166  1
  O  O125  1  0.10162119  0.12264968  -0.00767720  1
  O  O126  1  0.10251309  0.11984552  0.25611005  1
  O  O127  1  0.14783811  0.13161367  0.50380348  1
  O  O128  1  0.14170707  0.11543516  0.74936916  1
  O  O129  1  0.12053729  0.37148142  0.00274628  1
  O  O130  1  0.12242336  0.38837282  0.25170241  1
  O  O131  1  0.12606581  0.38385455  0.49133887  1
  O  O132  1  0.10310635  0.38033296  0.75573155  1
  O  O133  1  0.16084709  0.61404942  0.00627460  1
  O  O134  1  0.11219163  0.64668150  0.25401196  1
  O  O135  1  0.13989214  0.64120368  0.49092306  1
  O  O136  1  0.11114945  0.61747716  0.74848944  1
  O  O137  1  0.13736930  0.88093277  -0.00340592  1
  O  O138  1  0.11829352  0.87801654  0.25202731  1
  O  O139  1  0.14162656  0.88355876  0.50582655  1
  O  O140  1  0.10933526  0.90086366  0.75092176  1
  O  O141  1  0.36632911  0.16158368  0.00477707  1
  O  O142  1  0.40650633  0.10215125  0.24919757  1
  O  O143  1  0.36317498  0.15934364  0.49690053  1
  O  O144  1  0.37571346  0.12719363  0.74972557  1
  O  O145  1  0.36784411  0.33562321  0.01267504  1
  O  O146  1  0.37736734  0.41237635  0.25489600  1
  O  O147  1  0.39036498  0.36725142  0.49764275  1
  O  O148  1  0.37858584  0.41261538  0.74462532  1
  O  O149  1  0.34676235  0.64584667  0.00378673  1
  O  O150  1  0.40261155  0.60837544  0.26208072  1
  O  O151  1  0.37013477  0.66143869  0.49717842  1
  O  O152  1  0.37043462  0.59795334  0.75080596  1
  O  O153  1  0.36199543  0.84084821  -0.00597195  1
  O  O154  1  0.38453592  0.92022377  0.26483247  1
  O  O155  1  0.37829484  0.84733262  0.49975434  1
  O  O156  1  0.39792163  0.88590683  0.75320452  1
  O  O157  1  0.64390914  0.08207770  0.00788190  1
  O  O158  1  0.61964999  0.13762396  0.25884964  1
  O  O159  1  0.66502327  0.12097433  0.50531751  1
  O  O160  1  0.62424470  0.12523305  0.74768296  1
  O  O161  1  0.65254029  0.36644898  0.00437903  1
  O  O162  1  0.61963709  0.35784257  0.25123113  1
  O  O163  1  0.64912412  0.38540597  0.49949894  1
  O  O164  1  0.61418296  0.35914039  0.75111227  1
  O  O165  1  0.65496530  0.62151368  0.00599570  1
  O  O166  1  0.61234379  0.59748548  0.25428212  1
  O  O167  1  0.64960312  0.61848039  0.49117732  1
  O  O168  1  0.62421066  0.61723388  0.75497242  1
  O  O169  1  0.60287278  0.88349869  0.01625610  1
  O  O170  1  0.65604771  0.88547814  0.25423847  1
  O  O171  1  0.66790848  0.85733900  0.49662041  1
  O  O172  1  0.62021953  0.86592128  0.73926620  1
  O  O173  1  0.88587142  0.10976403  -0.00994072  1
  O  O174  1  0.90337754  0.11703263  0.26233753  1
  O  O175  1  0.86449277  0.10469087  0.50490680  1
  O  O176  1  0.89776558  0.13720761  0.74786791  1
  O  O177  1  0.87998224  0.36329135  0.01117467  1
  O  O178  1  0.89130694  0.37925767  0.25315556  1
  O  O179  1  0.88500863  0.37278673  0.49302328  1
  O  O180  1  0.90941544  0.36263811  0.74140636  1
  O  O181  1  0.86677229  0.64882107  0.01151690  1
  O  O182  1  0.90773658  0.62321371  0.24589471  1
  O  O183  1  0.83888447  0.65687883  0.50231221  1
  O  O184  1  0.90968292  0.61008353  0.76056702  1
  O  O185  1  0.89271066  0.86304177  0.00021727  1
  O  O186  1  0.88227440  0.88397605  0.24788703  1
  O  O187  1  0.86145513  0.86242618  0.51140625  1
  O  O188  1  0.90169491  0.86756798  0.75716819  1
  O  O189  1  -0.00408824  0.12621200  0.13089913  1
  O  O190  1  0.00759840  0.10866805  0.40345185  1
  O  O191  1  0.00140877  0.10478993  0.60790788  1
  O  O192  1  0.00174140  0.08871211  0.86812435  1
  O  O193  1  0.00250637  0.37332792  0.13473115  1
  O  O194  1  0.00552253  0.40331127  0.37610542  1
  O  O195  1  -0.00196014  0.37460022  0.60068768  1
  O  O196  1  0.00048805  0.38614456  0.89614538  1
  O  O197  1  0.01098526  0.64754642  0.11283417  1
  O  O198  1  0.00669599  0.61498410  0.39989136  1
  O  O199  1  -0.00986609  0.63185124  0.61026939  1
  O  O200  1  -0.00111222  0.61105095  0.91480755  1
  O  O201  1  0.01269187  0.84250565  0.12054529  1
  O  O202  1  0.00527883  0.90482225  0.38527185  1
  O  O203  1  -0.00270835  0.89394084  0.61792283  1
  O  O204  1  0.00616378  0.91078176  0.88372453  1
  O  O205  1  0.24752996  0.10311868  0.11658886  1
  O  O206  1  0.24854080  0.15763111  0.36270690  1
  O  O207  1  0.24507735  0.16563720  0.62445638  1
  O  O208  1  0.23668496  0.15748660  0.89046695  1
  O  O209  1  0.24821241  0.39275498  0.13212436  1
  O  O210  1  0.25526172  0.35502318  0.35903914  1
  O  O211  1  0.25337392  0.37881916  0.61438783  1
  O  O212  1  0.24140287  0.34622175  0.87970838  1
  O  O213  1  0.24635313  0.61311721  0.16525611  1
  O  O214  1  0.25678252  0.64338542  0.35512890  1
  O  O215  1  0.24813739  0.61415211  0.62545279  1
  O  O216  1  0.24725614  0.63762712  0.86477381  1
  O  O217  1  0.24664604  0.88511440  0.14049363  1
  O  O218  1  0.25154974  0.86235708  0.36694733  1
  O  O219  1  0.23668177  0.85844229  0.64631789  1
  O  O220  1  0.25034102  0.85947234  0.84362070  1
  O  O221  1  0.50711388  0.15185762  0.11160078  1
  O  O222  1  0.49938380  0.13489381  0.38976085  1
  O  O223  1  0.50925516  0.12288186  0.60146826  1
  O  O224  1  0.51231884  0.11771554  0.87873035  1
  O  O225  1  0.50704512  0.33831856  0.11534210  1
  O  O226  1  0.50644502  0.39792199  0.38086124  1
  O  O227  1  0.49758438  0.40203395  0.62319440  1
  O  O228  1  0.49567897  0.40042367  0.87488704  1
  O  O229  1  0.49583958  0.62542553  0.12338586  1
  O  O230  1  0.50488177  0.62384664  0.39772586  1
  O  O231  1  0.49538457  0.62261105  0.61285583  1
  O  O232  1  0.48602056  0.61715118  0.90815384  1
  O  O233  1  0.49836242  0.86294304  0.15122964  1
  O  O234  1  0.52099350  0.87936384  0.39840366  1
  O  O235  1  0.51548274  0.85921433  0.60841709  1
  O  O236  1  0.49288499  0.86514654  0.88436257  1
  O  O237  1  0.74307782  0.09698969  0.16515751  1
  O  O238  1  0.75933269  0.14147380  0.36013930  1
  O  O239  1  0.75759304  0.12151711  0.65082228  1
  O  O240  1  0.75612387  0.14103642  0.86887677  1
  O  O241  1  0.75344256  0.38098533  0.14191417  1
  O  O242  1  0.75472384  0.34878603  0.36785943  1
  O  O243  1  0.76106117  0.36174200  0.64426849  1
  O  O244  1  0.75335290  0.34398473  0.86118392  1
  O  O245  1  0.75531197  0.61533782  0.15245538  1
  O  O246  1  0.75166632  0.63600182  0.33885183  1
  O  O247  1  0.76404100  0.63278392  0.66378784  1
  O  O248  1  0.76540132  0.64578843  0.86650269  1
  O  O249  1  0.75083215  0.89595864  0.09374021  1
  O  O250  1  0.76908448  0.83410194  0.37211743  1
  O  O251  1  0.75886094  0.86910147  0.65625859  1
  O  O252  1  0.76292964  0.86075435  0.88969903  1
  O  O253  1  0.10395236  -0.00646661  0.12560620  1
  O  O254  1  0.15208822  0.00684920  0.38514705  1
  O  O255  1  0.14373184  0.00618729  0.62322841  1
  O  O256  1  0.15908176  0.00505763  0.87582663  1
  O  O257  1  0.12053925  0.25250678  0.13522859  1
  O  O258  1  0.10465523  0.25248958  0.37324236  1
  O  O259  1  0.08725499  0.24476628  0.64958065  1
  O  O260  1  0.08265768  0.24589848  0.86019425  1
  O  O261  1  0.11703695  0.50433865  0.14150985  1
  O  O262  1  0.14919237  0.50725599  0.36919165  1
  O  O263  1  0.11623968  0.49842801  0.61824575  1
  O  O264  1  0.14483504  0.49597362  0.86659862  1
  O  O265  1  0.16029381  0.74659759  0.11461512  1
  O  O266  1  0.10629581  0.76261518  0.37776978  1
  O  O267  1  0.10220746  0.75710414  0.62981568  1
  O  O268  1  0.10008051  0.76064959  0.88043205  1
  O  O269  1  0.37634892  -0.00171297  0.11191435  1
  O  O270  1  0.36478587  -0.00929704  0.42201874  1
  O  O271  1  0.36579001  0.00885225  0.62664480  1
  O  O272  1  0.37625380  -0.00937276  0.88062269  1
  O  O273  1  0.35410893  0.25916452  0.17849864  1
  O  O274  1  0.39669390  0.26565552  0.35860184  1
  O  O275  1  0.38847784  0.26272656  0.65696406  1
  O  O276  1  0.37937074  0.26368002  0.85188640  1
  O  O277  1  0.39975888  0.48710468  0.10581525  1
  O  O278  1  0.36388702  0.50664085  0.40509024  1
  O  O279  1  0.36851216  0.50552810  0.59241995  1
  O  O280  1  0.35250842  0.50964524  0.91116748  1
  O  O281  1  0.36360434  0.74948194  0.16676794  1
  O  O282  1  0.40343382  0.75747179  0.35826620  1
  O  O283  1  0.35924589  0.73854979  0.64775001  1
  O  O284  1  0.37648480  0.74718040  0.84345036  1
  O  O285  1  0.59091257  0.00401894  0.15866331  1
  O  O286  1  0.66032157  -0.00519681  0.37728897  1
  O  O287  1  0.64718105  -0.00568060  0.61832367  1
  O  O288  1  0.63329052  -0.00309962  0.87637981  1
  O  O289  1  0.65781564  0.23650366  0.11349138  1
  O  O290  1  0.61750670  0.25697900  0.40497169  1
  O  O291  1  0.63557402  0.24479583  0.61184261  1
  O  O292  1  0.62346863  0.23575740  0.90194448  1
  O  O293  1  0.61707966  0.48277066  0.11462679  1
  O  O294  1  0.65388920  0.49510125  0.37682464  1
  O  O295  1  0.65403792  0.50282532  0.62773093  1
  O  O296  1  0.65251832  0.49728532  0.88385760  1
  O  O297  1  0.63316980  0.75742847  0.14110592  1
  O  O298  1  0.62356998  0.74648349  0.35228226  1
  O  O299  1  0.64509597  0.74927007  0.62710679  1
  O  O300  1  0.62245683  0.74291333  0.89487343  1
  O  O301  1  0.90329083  -0.01119178  0.12091008  1
  O  O302  1  0.86417476  -0.00541133  0.39121493  1
  O  O303  1  0.86344980  -0.00430161  0.64743484  1
  O  O304  1  0.86237138  -0.00273478  0.84940791  1
  O  O305  1  0.86737208  0.24505285  0.14386211  1
  O  O306  1  0.89795304  0.24475302  0.38627824  1
  O  O307  1  0.88084875  0.24558683  0.60443257  1
  O  O308  1  0.89972858  0.24241001  0.88135713  1
  O  O309  1  0.89058407  0.50364818  0.12184667  1
  O  O310  1  0.84682692  0.49694021  0.37335949  1
  O  O311  1  0.87150181  0.50121063  0.61164748  1
  O  O312  1  0.86713576  0.50208835  0.90166564  1
  O  O313  1  0.86778228  0.75410562  0.14558251  1
  O  O314  1  0.91673884  0.75699395  0.37085052  1
  O  O315  1  0.88355026  0.74846299  0.64458825  1
  O  O316  1  0.90438011  0.74965069  0.87462893  1
