# generated using pymatgen
data_Mg32Ti42(Bi17O64)3
_symmetry_space_group_name_H-M   'P 1'
_cell_length_a   15.97417028
_cell_length_b   15.96113704
_cell_length_c   15.93667230
_cell_angle_alpha   89.99654280
_cell_angle_beta   90.01524019
_cell_angle_gamma   89.94665564
_symmetry_Int_Tables_number   1
_chemical_formula_structural   Mg32Ti42(Bi17O64)3
_chemical_formula_sum   'Mg32 Ti42 Bi51 O192'
_cell_volume   4063.30641797
_cell_formula_units_Z   1
loop_
 _symmetry_equiv_pos_site_id
 _symmetry_equiv_pos_as_xyz
  1  'x, y, z'
loop_
 _atom_site_type_symbol
 _atom_site_label
 _atom_site_symmetry_multiplicity
 _atom_site_fract_x
 _atom_site_fract_y
 _atom_site_fract_z
 _atom_site_occupancy
  Mg  Mg0  1  0.86623232  0.63326889  0.62115050  1
  Mg  Mg1  1  0.12874051  0.62830287  0.62878446  1
  Mg  Mg2  1  0.12216947  0.87410455  0.87443087  1
  Mg  Mg3  1  0.87785994  0.62289871  0.88130659  1
  Mg  Mg4  1  0.12110531  0.62270458  0.36541700  1
  Mg  Mg5  1  0.87758614  0.37255783  0.63257441  1
  Mg  Mg6  1  0.62396102  0.61709233  0.86642111  1
  Mg  Mg7  1  0.38170122  0.37216984  0.36960100  1
  Mg  Mg8  1  0.38139366  0.87257906  0.62449809  1
  Mg  Mg9  1  0.37676444  0.12705897  0.13172804  1
  Mg  Mg10  1  0.88313598  0.12049358  0.12510486  1
  Mg  Mg11  1  0.38025324  0.87485465  0.87463998  1
  Mg  Mg12  1  0.36983578  0.62758216  0.12365677  1
  Mg  Mg13  1  0.37454179  0.12449591  0.87034218  1
  Mg  Mg14  1  0.63439023  0.61334595  0.38212257  1
  Mg  Mg15  1  0.13052329  0.12834952  0.37838150  1
  Mg  Mg16  1  0.87265225  0.37862344  0.12260185  1
  Mg  Mg17  1  0.12460965  0.13240129  0.87796714  1
  Mg  Mg18  1  0.61986213  0.12364529  0.11579754  1
  Mg  Mg19  1  0.56122451  0.19162214  0.48920825  1
  Mg  Mg20  1  -0.00070828  0.29759306  0.03843148  1
  Mg  Mg21  1  0.54788501  -0.03900349  0.75134718  1
  Mg  Mg22  1  0.25111744  0.31211497  0.47883359  1
  Mg  Mg23  1  0.48634722  0.42196461  0.50100616  1
  Mg  Mg24  1  0.02669331  0.70755719  0.49651178  1
  Mg  Mg25  1  -0.04021876  0.53689681  0.74539210  1
  Mg  Mg26  1  0.54342510  0.68626923  0.01717450  1
  Mg  Mg27  1  0.55346869  0.23770706  0.31598602  1
  Mg  Mg28  1  0.71322006  0.22803464  0.23311473  1
  Mg  Mg29  1  0.52181905  0.06604330  0.29286118  1
  Mg  Mg30  1  0.17941381  0.51019456  0.49144450  1
  Mg  Mg31  1  0.75846006  0.24560564  0.42342869  1
  Ti  Ti32  1  0.63350236  0.86435433  0.62577894  1
  Ti  Ti33  1  0.61525362  0.86719603  0.88428475  1
  Ti  Ti34  1  0.38930841  0.87204582  0.37936165  1
  Ti  Ti35  1  0.87830151  0.12502021  0.36450705  1
  Ti  Ti36  1  0.61919449  0.37934985  0.39280858  1
  Ti  Ti37  1  0.87557219  0.63577646  0.37736145  1
  Ti  Ti38  1  0.37859482  0.63244694  0.87563543  1
  Ti  Ti39  1  0.12996605  0.62836668  0.12794558  1
  Ti  Ti40  1  0.88305766  0.12898155  0.87480992  1
  Ti  Ti41  1  0.62466827  0.87610255  0.36099225  1
  Ti  Ti42  1  0.38213111  0.87981401  0.11982889  1
  Ti  Ti43  1  0.63073736  0.36314047  0.61870682  1
  Ti  Ti44  1  0.13272500  0.87566416  0.12747346  1
  Ti  Ti45  1  0.36337081  0.36356689  0.61942468  1
  Ti  Ti46  1  0.13026447  0.37811856  0.12982300  1
  Ti  Ti47  1  0.87570196  0.87963744  0.36562196  1
  Ti  Ti48  1  0.12102301  0.87703659  0.37613600  1
  Ti  Ti49  1  0.13282607  0.13499167  0.61934985  1
  Ti  Ti50  1  0.63012344  0.88485151  0.11855447  1
  Ti  Ti51  1  0.63425253  0.12586116  0.63497365  1
  Ti  Ti52  1  0.11662991  0.61753406  0.86641744  1
  Ti  Ti53  1  0.88093007  0.87978461  0.13235126  1
  Ti  Ti54  1  0.87889757  0.63651104  0.13402153  1
  Ti  Ti55  1  0.88691429  0.38325417  0.87752296  1
  Ti  Ti56  1  0.38265866  0.13345888  0.62488918  1
  Ti  Ti57  1  0.87272316  0.13486713  0.61777546  1
  Ti  Ti58  1  0.37257308  0.37788713  0.87064377  1
  Ti  Ti59  1  0.38148338  0.36808137  0.12609692  1
  Ti  Ti60  1  0.11876308  0.38321050  0.88060386  1
  Ti  Ti61  1  0.63048715  0.37923241  0.88796980  1
  Ti  Ti62  1  0.62942187  0.11524830  0.87162676  1
  Ti  Ti63  1  0.88474004  0.87709710  0.87522473  1
  Ti  Ti64  1  0.61687122  0.35677252  0.13397670  1
  Ti  Ti65  1  0.12387673  0.87908685  0.61618779  1
  Ti  Ti66  1  0.12991836  0.38319700  0.37011900  1
  Ti  Ti67  1  0.87599913  0.87708170  0.62005998  1
  Ti  Ti68  1  0.38170232  0.61949985  0.36933384  1
  Ti  Ti69  1  0.63014862  0.61390796  0.62213199  1
  Ti  Ti70  1  0.37882562  0.63658618  0.61468540  1
  Ti  Ti71  1  0.12985577  0.14084443  0.12812526  1
  Ti  Ti72  1  0.13048753  0.37967816  0.62261819  1
  Ti  Ti73  1  0.37322321  0.13454427  0.38494185  1
  Bi  Bi74  1  0.75260568  0.75726034  0.47519320  1
  Bi  Bi75  1  0.24234394  0.72819222  0.47833955  1
  Bi  Bi76  1  0.28099099  0.01367571  0.25381222  1
  Bi  Bi77  1  0.51606429  0.72310893  0.48135840  1
  Bi  Bi78  1  0.76547090  0.26148733  0.77114449  1
  Bi  Bi79  1  0.76237027  0.50154247  0.75810463  1
  Bi  Bi80  1  0.28087150  0.00684413  0.74762269  1
  Bi  Bi81  1  0.27711832  0.76382699  0.25006014  1
  Bi  Bi82  1  0.02405021  0.26412728  0.74857573  1
  Bi  Bi83  1  0.25859253  0.53381516  0.73201824  1
  Bi  Bi84  1  -0.01448614  0.50868147  0.54337356  1
  Bi  Bi85  1  0.24682011  0.26155120  0.76319250  1
  Bi  Bi86  1  0.77594317  0.46480700  0.49555539  1
  Bi  Bi87  1  0.02926007  0.00908829  -0.00099692  1
  Bi  Bi88  1  0.00863382  0.75546100  0.71800138  1
  Bi  Bi89  1  0.51746786  0.75117342  0.73431945  1
  Bi  Bi90  1  0.51920120  0.26065835  0.76525462  1
  Bi  Bi91  1  0.02609469  0.01699110  0.23747975  1
  Bi  Bi92  1  0.00741300  0.74121140  -0.00081437  1
  Bi  Bi93  1  0.03189831  0.01163321  0.75694941  1
  Bi  Bi94  1  0.52450121  -0.00737568  0.53583123  1
  Bi  Bi95  1  -0.03084265  0.26308479  0.24402534  1
  Bi  Bi96  1  0.27794015  -0.00899984  0.50204377  1
  Bi  Bi97  1  0.49833221  0.23258820  -0.00316652  1
  Bi  Bi98  1  -0.02203484  0.28338707  0.47764186  1
  Bi  Bi99  1  0.76647855  0.24398279  0.03443159  1
  Bi  Bi100  1  0.73030915  0.73037168  0.21672269  1
  Bi  Bi101  1  0.72128020  0.51664960  0.03893376  1
  Bi  Bi102  1  0.49432034  0.49521131  0.71798565  1
  Bi  Bi103  1  0.25032893  0.77927994  0.74599119  1
  Bi  Bi104  1  0.76800028  0.45225099  0.26873267  1
  Bi  Bi105  1  -0.02787569  0.49209797  0.26104074  1
  Bi  Bi106  1  0.25086741  0.74947687  -0.02815763  1
  Bi  Bi107  1  0.50778714  0.01407685  -0.00403316  1
  Bi  Bi108  1  -0.00034492  0.51226899  0.02865347  1
  Bi  Bi109  1  0.01576171  0.01885813  0.49336798  1
  Bi  Bi110  1  0.26925549  0.23541877  -0.01062797  1
  Bi  Bi111  1  0.51083681  0.74901373  0.20755327  1
  Bi  Bi112  1  0.24757902  0.25407249  0.28402134  1
  Bi  Bi113  1  0.27067745  -0.00056147  -0.00349295  1
  Bi  Bi114  1  0.48000018  0.50104050  -0.02224502  1
  Bi  Bi115  1  0.76321560  0.00383962  0.49704543  1
  Bi  Bi116  1  0.73061322  0.74356349  -0.01596308  1
  Bi  Bi117  1  0.77900834  0.74762743  0.76610292  1
  Bi  Bi118  1  0.71779860  0.03762396  0.25877693  1
  Bi  Bi119  1  0.54376828  0.53628123  0.22757027  1
  Bi  Bi120  1  0.28102019  0.49460455  0.26136451  1
  Bi  Bi121  1  0.77657860  -0.00396483  0.00396055  1
  Bi  Bi122  1  0.77499132  0.00844574  0.74984670  1
  Bi  Bi123  1  0.26122187  0.50038971  0.02191244  1
  Bi  Bi124  1  0.02092966  0.74582476  0.26247129  1
  O  O125  1  0.13615623  0.10070934  0.00728029  1
  O  O126  1  0.09765245  0.13795497  0.24673170  1
  O  O127  1  0.13081411  0.09484313  0.50538084  1
  O  O128  1  0.09392735  0.13877799  0.74073105  1
  O  O129  1  0.09494125  0.37730567  -0.00813433  1
  O  O130  1  0.13728687  0.36588130  0.24480560  1
  O  O131  1  0.13941335  0.38899904  0.49652754  1
  O  O132  1  0.13840798  0.35944566  0.74288189  1
  O  O133  1  0.08533847  0.61830244  0.00354871  1
  O  O134  1  0.13148926  0.65378279  0.24151801  1
  O  O135  1  0.12374798  0.62192308  0.49937900  1
  O  O136  1  0.14619755  0.64068789  0.75681234  1
  O  O137  1  0.11999556  0.89305469  0.00890890  1
  O  O138  1  0.12024403  0.84523134  0.25299927  1
  O  O139  1  0.11306222  0.89500116  0.49974427  1
  O  O140  1  0.12563884  0.84367174  0.74348956  1
  O  O141  1  0.34281598  0.11644264  0.00163887  1
  O  O142  1  0.40082986  0.09723641  0.25922222  1
  O  O143  1  0.35181619  0.11385280  0.49941136  1
  O  O144  1  0.37918428  0.11326796  0.74280522  1
  O  O145  1  0.37621631  0.40245185  -0.00072523  1
  O  O146  1  0.35869733  0.37000704  0.24087809  1
  O  O147  1  0.37096280  0.37791971  0.50427025  1
  O  O148  1  0.36155056  0.35396319  0.75497366  1
  O  O149  1  0.37750161  0.59169513  0.00038433  1
  O  O150  1  0.35413957  0.62362917  0.25188209  1
  O  O151  1  0.37210174  0.63705299  0.49750894  1
  O  O152  1  0.37099485  0.62746452  0.75645933  1
  O  O153  1  0.37090430  0.88937386  0.00437931  1
  O  O154  1  0.35591339  0.88175707  0.25620558  1
  O  O155  1  0.37105722  0.87960990  0.49726565  1
  O  O156  1  0.34769596  0.87960873  0.74732469  1
  O  O157  1  0.63436108  0.09032695  -0.01112941  1
  O  O158  1  0.61137832  0.14181371  0.24386698  1
  O  O159  1  0.63345063  0.09212048  0.51719407  1
  O  O160  1  0.59494119  0.14522839  0.74961634  1
  O  O161  1  0.62929506  0.40102475  0.00089998  1
  O  O162  1  0.62447270  0.32192756  0.24755744  1
  O  O163  1  0.61209258  0.41428130  0.50337969  1
  O  O164  1  0.63142757  0.34187150  0.73942940  1
  O  O165  1  0.63270840  0.60297451  -0.00456440  1
  O  O166  1  0.62833596  0.64180066  0.25483783  1
  O  O167  1  0.60129535  0.61831336  0.50574081  1
  O  O168  1  0.61279378  0.64990917  0.74335934  1
  O  O169  1  0.61923045  0.90620263  -0.00037600  1
  O  O170  1  0.62772901  0.84810276  0.24918657  1
  O  O171  1  0.62300203  0.89598282  0.51043401  1
  O  O172  1  0.62428855  0.84787141  0.75417579  1
  O  O173  1  0.85196970  0.11877258  -0.00677080  1
  O  O174  1  0.90933728  0.12901276  0.25251835  1
  O  O175  1  0.83030479  0.12829985  0.50039796  1
  O  O176  1  0.87950156  0.10687684  0.74893631  1
  O  O177  1  0.89780384  0.36659104  -0.00760440  1
  O  O178  1  0.87890976  0.36700945  0.25055152  1
  O  O179  1  0.89479681  0.39153743  0.50508890  1
  O  O180  1  0.84636442  0.38134498  0.75391444  1
  O  O181  1  0.90480584  0.62189956  0.00832438  1
  O  O182  1  0.85129648  0.65468914  0.25128567  1
  O  O183  1  0.91745282  0.63522468  0.49514461  1
  O  O184  1  0.85397431  0.61538276  0.75181110  1
  O  O185  1  0.87508095  0.88663748  -0.00209569  1
  O  O186  1  0.86048106  0.86875854  0.24979637  1
  O  O187  1  0.86828732  0.88596043  0.50379416  1
  O  O188  1  0.85319478  0.88766838  0.75359873  1
  O  O189  1  0.00773801  0.08902892  0.11331109  1
  O  O190  1  -0.00507183  0.12101571  0.40211398  1
  O  O191  1  -0.01566903  0.10257613  0.60066185  1
  O  O192  1  -0.00593845  0.10618470  0.88676403  1
  O  O193  1  0.00458619  0.39170354  0.13272685  1
  O  O194  1  0.01435990  0.35911037  0.36792980  1
  O  O195  1  0.01300325  0.39832540  0.63374148  1
  O  O196  1  -0.00284877  0.40000853  0.84356430  1
  O  O197  1  -0.00252043  0.59318980  0.14783154  1
  O  O198  1  -0.00892586  0.61856471  0.33982722  1
  O  O199  1  0.00523171  0.60338804  0.64905810  1
  O  O200  1  0.00340211  0.60085295  0.84681538  1
  O  O201  1  -0.00625860  0.90031608  0.13399065  1
  O  O202  1  -0.01158974  0.89030005  0.36477416  1
  O  O203  1  -0.00881601  0.88656577  0.64553920  1
  O  O204  1  -0.00452290  0.89376242  0.86620808  1
  O  O205  1  0.24258025  0.14202395  0.14936258  1
  O  O206  1  0.25492061  0.12329464  0.34511045  1
  O  O207  1  0.24252870  0.14028606  0.64002757  1
  O  O208  1  0.24715316  0.16252207  0.86687436  1
  O  O209  1  0.24289746  0.36863118  0.09901418  1
  O  O210  1  0.25331025  0.38214012  0.36915155  1
  O  O211  1  0.24973740  0.33845387  0.60956312  1
  O  O212  1  0.24679835  0.35148191  0.88073128  1
  O  O213  1  0.23991353  0.63418077  0.09947459  1
  O  O214  1  0.24940368  0.63603375  0.38164428  1
  O  O215  1  0.25901172  0.63434773  0.63062378  1
  O  O216  1  0.25131738  0.63398073  0.89635203  1
  O  O217  1  0.24409671  0.85003015  0.12728851  1
  O  O218  1  0.23361888  0.84160217  0.38506991  1
  O  O219  1  0.23668852  0.85022881  0.61691638  1
  O  O220  1  0.24570179  0.84513892  0.87339051  1
  O  O221  1  0.49652577  0.11656813  0.08719532  1
  O  O222  1  0.49481256  0.14902318  0.38780595  1
  O  O223  1  0.49596701  0.11996106  0.59963654  1
  O  O224  1  0.49815352  0.11713854  0.90168399  1
  O  O225  1  0.50017926  0.38495210  0.12742866  1
  O  O226  1  0.50447982  0.36046673  0.38509828  1
  O  O227  1  0.49801725  0.39073910  0.62440300  1
  O  O228  1  0.50107150  0.38196912  0.86547094  1
  O  O229  1  0.49844140  0.62731887  0.12636450  1
  O  O230  1  0.49781024  0.63286611  0.36895235  1
  O  O231  1  0.49140465  0.59768671  0.62869846  1
  O  O232  1  0.49829818  0.61631301  0.89399142  1
  O  O233  1  0.49689685  0.88253180  0.13468315  1
  O  O234  1  0.50208149  0.87411534  0.37826038  1
  O  O235  1  0.50407812  0.89796367  0.64700247  1
  O  O236  1  0.50445954  0.89355177  0.85539535  1
  O  O237  1  0.75203486  0.15458572  0.13746225  1
  O  O238  1  0.76230798  0.15927130  0.33085594  1
  O  O239  1  0.74443173  0.13676703  0.65304645  1
  O  O240  1  0.74250756  0.14160577  0.85556948  1
  O  O241  1  0.74737064  0.34614515  0.12960391  1
  O  O242  1  0.74793922  0.37303385  0.39449299  1
  O  O243  1  0.74541959  0.37471449  0.59972544  1
  O  O244  1  0.74383792  0.34273561  0.88178420  1
  O  O245  1  0.76109176  0.64125790  0.10872754  1
  O  O246  1  0.75857223  0.63246206  0.40767744  1
  O  O247  1  0.73976890  0.63545614  0.60973283  1
  O  O248  1  0.74837413  0.65765388  0.87746796  1
  O  O249  1  0.74341894  0.85470678  0.11427039  1
  O  O250  1  0.74176771  0.87307812  0.38699607  1
  O  O251  1  0.74595353  0.85504876  0.62556276  1
  O  O252  1  0.74042481  0.84587268  0.88360516  1
  O  O253  1  0.13987583  -0.00967839  0.15717481  1
  O  O254  1  0.12559151  -0.00787360  0.35628119  1
  O  O255  1  0.12750349  -0.00425642  0.64903712  1
  O  O256  1  0.13048984  0.00304112  0.85193241  1
  O  O257  1  0.10086132  0.25239702  0.10605268  1
  O  O258  1  0.15823149  0.25540526  0.39238954  1
  O  O259  1  0.09995258  0.24870033  0.61407092  1
  O  O260  1  0.09966587  0.25979046  0.86415115  1
  O  O261  1  0.13638314  0.50093429  0.11649187  1
  O  O262  1  0.13077511  0.49910828  0.37091717  1
  O  O263  1  0.16396013  0.49464144  0.62228765  1
  O  O264  1  0.14574260  0.49917274  0.87440842  1
  O  O265  1  0.09212884  0.74771180  0.10936060  1
  O  O266  1  0.08472137  0.75128669  0.39116208  1
  O  O267  1  0.08407158  0.75306538  0.60306714  1
  O  O268  1  0.11427108  0.74044655  0.90347302  1
  O  O269  1  0.34828656  -0.00353422  0.12497211  1
  O  O270  1  0.35520453  -0.00646403  0.38248562  1
  O  O271  1  0.35218491  0.00222078  0.61982947  1
  O  O272  1  0.34321625  0.00054324  0.87483426  1
  O  O273  1  0.38090638  0.25506874  0.09953750  1
  O  O274  1  0.34921112  0.24845017  0.38354802  1
  O  O275  1  0.39148159  0.24829056  0.62937265  1
  O  O276  1  0.38432321  0.25568461  0.90442093  1
  O  O277  1  0.34667709  0.49638214  0.13458514  1
  O  O278  1  0.37955989  0.50274727  0.36236358  1
  O  O279  1  0.36214635  0.48791480  0.64827708  1
  O  O280  1  0.37657160  0.49490613  0.86433989  1
  O  O281  1  0.38071748  0.75631683  0.14104547  1
  O  O282  1  0.37359225  0.75303825  0.36557733  1
  O  O283  1  0.40419866  0.74620646  0.62824043  1
  O  O284  1  0.37870859  0.74503227  0.89601964  1
  O  O285  1  0.63680748  -0.00198342  0.14776738  1
  O  O286  1  0.61644373  -0.00491509  0.34340067  1
  O  O287  1  0.62192011  0.00209475  0.65234673  1
  O  O288  1  0.63035997  0.00185359  0.84155958  1
  O  O289  1  0.62071408  0.24998680  0.08386012  1
  O  O290  1  0.63363671  0.25798377  0.41137638  1
  O  O291  1  0.61115710  0.24899879  0.59672269  1
  O  O292  1  0.59731639  0.24900774  0.88250530  1
  O  O293  1  0.64480650  0.48166752  0.14993495  1
  O  O294  1  0.63155726  0.48904973  0.34347439  1
  O  O295  1  0.62802208  0.49904875  0.65528433  1
  O  O296  1  0.64616442  0.48889669  0.85055691  1
  O  O297  1  0.60606263  0.75825467  0.10729008  1
  O  O298  1  0.62769448  0.75431408  0.40339939  1
  O  O299  1  0.59358456  0.75168390  0.61288035  1
  O  O300  1  0.60172750  0.75502627  0.92035110  1
  O  O301  1  0.84531118  -0.00442412  0.12697695  1
  O  O302  1  0.85021292  0.00635105  0.37794912  1
  O  O303  1  0.84060946  -0.00013718  0.62032691  1
  O  O304  1  0.84626224  0.00047457  0.87626316  1
  O  O305  1  0.90557286  0.24825510  0.11374571  1
  O  O306  1  0.88383837  0.24482046  0.38996476  1
  O  O307  1  0.88852982  0.24649227  0.62635753  1
  O  O308  1  0.88495238  0.24727523  0.85560363  1
  O  O309  1  0.86090041  0.50534001  0.15796179  1
  O  O310  1  0.86265044  0.51163242  0.35438622  1
  O  O311  1  0.87482530  0.50375992  0.62503229  1
  O  O312  1  0.84814794  0.49435362  0.87476179  1
  O  O313  1  0.89901636  0.75295382  0.12091361  1
  O  O314  1  0.86876047  0.75885393  0.38789043  1
  O  O315  1  0.88537120  0.75707606  0.64186470  1
  O  O316  1  0.88785514  0.75671987  0.85883653  1
