# generated using pymatgen
data_Mg32Ti42(Bi17O64)3
_symmetry_space_group_name_H-M   'P 1'
_cell_length_a   15.88844497
_cell_length_b   15.93598409
_cell_length_c   15.94556504
_cell_angle_alpha   90.01542033
_cell_angle_beta   89.90939376
_cell_angle_gamma   89.89925454
_symmetry_Int_Tables_number   1
_chemical_formula_structural   Mg32Ti42(Bi17O64)3
_chemical_formula_sum   'Mg32 Ti42 Bi51 O192'
_cell_volume   4037.37383672
_cell_formula_units_Z   1
loop_
 _symmetry_equiv_pos_site_id
 _symmetry_equiv_pos_as_xyz
  1  'x, y, z'
loop_
 _atom_site_type_symbol
 _atom_site_label
 _atom_site_symmetry_multiplicity
 _atom_site_fract_x
 _atom_site_fract_y
 _atom_site_fract_z
 _atom_site_occupancy
  Mg  Mg0  1  0.87210753  0.87026511  0.11817815  1
  Mg  Mg1  1  0.13311308  0.87675254  0.62724479  1
  Mg  Mg2  1  0.86696215  0.87060175  0.63462745  1
  Mg  Mg3  1  0.12031894  0.13085993  0.12212233  1
  Mg  Mg4  1  0.11780778  0.37360790  0.36959054  1
  Mg  Mg5  1  0.36429446  0.38191864  0.11946986  1
  Mg  Mg6  1  0.86808929  0.62397026  0.12074416  1
  Mg  Mg7  1  0.62155847  0.12304225  0.87626716  1
  Mg  Mg8  1  0.88656911  0.11801774  0.37677406  1
  Mg  Mg9  1  0.63363658  0.37027395  0.37424964  1
  Mg  Mg10  1  0.63291992  0.13377348  0.12032439  1
  Mg  Mg11  1  0.61764312  0.62692756  0.87637364  1
  Mg  Mg12  1  0.37797581  0.11766891  0.86184084  1
  Mg  Mg13  1  0.36595963  0.87143268  0.12958014  1
  Mg  Mg14  1  0.87224103  0.62570799  0.36836791  1
  Mg  Mg15  1  0.12705753  0.61755091  0.62042963  1
  Mg  Mg16  1  0.36883288  0.37156219  0.38055544  1
  Mg  Mg17  1  0.37703901  0.87374198  0.61625815  1
  Mg  Mg18  1  0.63356393  0.87485322  0.35915029  1
  Mg  Mg19  1  0.02729649  0.55656999  -0.01128213  1
  Mg  Mg20  1  0.22885038  0.79371319  0.25527448  1
  Mg  Mg21  1  0.78742310  0.20797830  0.25052051  1
  Mg  Mg22  1  0.26731251  0.74989515  0.72848983  1
  Mg  Mg23  1  0.27956527  0.04295195  0.19638871  1
  Mg  Mg24  1  0.50025419  0.75685884  0.06222743  1
  Mg  Mg25  1  0.21943961  -0.00187607  0.50858215  1
  Mg  Mg26  1  0.77356779  0.78845235  0.25182691  1
  Mg  Mg27  1  0.80605146  0.03912900  0.00589945  1
  Mg  Mg28  1  0.01785831  0.25661435  0.01060962  1
  Mg  Mg29  1  0.50013179  0.01819970  0.75518528  1
  Mg  Mg30  1  0.79934820  0.21965765  0.05257373  1
  Mg  Mg31  1  -0.04215303  0.05415128  0.18225057  1
  Ti  Ti32  1  0.11809701  0.88140140  0.37395371  1
  Ti  Ti33  1  0.37788477  0.62328542  0.61005447  1
  Ti  Ti34  1  0.62369468  0.13293724  0.62935988  1
  Ti  Ti35  1  0.62384023  0.88638586  0.63247050  1
  Ti  Ti36  1  0.63769784  0.13113309  0.35826854  1
  Ti  Ti37  1  0.61983747  0.62796546  0.36656597  1
  Ti  Ti38  1  0.12115007  0.38080183  0.62679290  1
  Ti  Ti39  1  0.12168447  0.38543480  0.11833395  1
  Ti  Ti40  1  0.87567416  0.37383016  0.88650468  1
  Ti  Ti41  1  0.37549421  0.63212064  0.87485979  1
  Ti  Ti42  1  0.13544765  0.12941765  0.86628144  1
  Ti  Ti43  1  0.62253463  0.87787809  0.13501403  1
  Ti  Ti44  1  0.86622933  0.38098320  0.11220089  1
  Ti  Ti45  1  0.37309560  0.62684208  0.37672534  1
  Ti  Ti46  1  0.86656759  0.87696613  0.87983689  1
  Ti  Ti47  1  0.62285008  0.62314645  0.13158857  1
  Ti  Ti48  1  0.87528644  0.88868459  0.37283113  1
  Ti  Ti49  1  0.37740805  0.36994902  0.61747772  1
  Ti  Ti50  1  0.12917036  0.88958427  0.86162882  1
  Ti  Ti51  1  0.13809156  0.64518275  0.13257239  1
  Ti  Ti52  1  0.63384437  0.37801096  0.87057044  1
  Ti  Ti53  1  0.87860567  0.37779820  0.36742369  1
  Ti  Ti54  1  0.12453483  0.36271414  0.89130028  1
  Ti  Ti55  1  0.35816395  0.87818087  0.38429855  1
  Ti  Ti56  1  0.11808988  0.90160454  0.13782533  1
  Ti  Ti57  1  0.12662253  0.63625617  0.36826085  1
  Ti  Ti58  1  0.11637754  0.12062424  0.63279741  1
  Ti  Ti59  1  0.87508504  0.38237532  0.62943275  1
  Ti  Ti60  1  0.61920886  0.38425270  0.62422183  1
  Ti  Ti61  1  0.35921184  0.11532995  0.38801095  1
  Ti  Ti62  1  0.12003679  0.11336769  0.37201316  1
  Ti  Ti63  1  0.63492639  0.37054222  0.13628892  1
  Ti  Ti64  1  0.37265413  0.12088536  0.62047526  1
  Ti  Ti65  1  0.87659633  0.63127792  0.88507419  1
  Ti  Ti66  1  0.86510468  0.13485023  0.86785061  1
  Ti  Ti67  1  0.60584878  0.87302379  0.88880288  1
  Ti  Ti68  1  0.62165515  0.63042760  0.61610817  1
  Ti  Ti69  1  0.37690501  0.37185237  0.87906635  1
  Ti  Ti70  1  0.37237723  0.63180574  0.13168508  1
  Ti  Ti71  1  0.87330386  0.63649105  0.63526384  1
  Ti  Ti72  1  0.86767069  0.12714233  0.62141443  1
  Ti  Ti73  1  0.37736171  0.88019299  0.87425278  1
  Bi  Bi74  1  0.73712620  0.52500285  0.74936042  1
  Bi  Bi75  1  0.00241135  0.04296214  -0.01876301  1
  Bi  Bi76  1  0.76630168  0.76025660  0.47624371  1
  Bi  Bi77  1  0.26247799  0.51201415  -0.00603798  1
  Bi  Bi78  1  0.48378369  0.02798393  0.24261894  1
  Bi  Bi79  1  0.45823774  0.24636420  0.21981456  1
  Bi  Bi80  1  0.51526902  0.78048553  0.49363337  1
  Bi  Bi81  1  0.51135403  0.00359595  0.46923765  1
  Bi  Bi82  1  0.76973212  0.01599537  0.19866617  1
  Bi  Bi83  1  0.72842479  0.00712963  0.77297742  1
  Bi  Bi84  1  -0.02736232  0.75190251  0.23885397  1
  Bi  Bi85  1  0.01852257  0.50772121  0.78446659  1
  Bi  Bi86  1  0.73184502  0.50987893  -0.00248833  1
  Bi  Bi87  1  -0.00015215  0.53478131  0.48696216  1
  Bi  Bi88  1  0.26843534  0.51906614  0.74137864  1
  Bi  Bi89  1  -0.00297342  0.26405581  0.49867909  1
  Bi  Bi90  1  0.46692897  0.76420504  0.26722626  1
  Bi  Bi91  1  0.74055929  0.75636654  0.01255593  1
  Bi  Bi92  1  0.75643591  0.49817984  0.26418179  1
  Bi  Bi93  1  0.22289223  0.23531827  0.50380201  1
  Bi  Bi94  1  0.23336171  0.23637384  0.25277670  1
  Bi  Bi95  1  0.48380555  0.23656865  0.75587525  1
  Bi  Bi96  1  0.73652158  0.00546343  0.48836278  1
  Bi  Bi97  1  0.23508905  0.73990649  0.52290797  1
  Bi  Bi98  1  0.76759978  0.24324515  0.48046414  1
  Bi  Bi99  1  0.48423579  0.46964880  0.25162804  1
  Bi  Bi100  1  0.73815263  0.26632020  0.73807303  1
  Bi  Bi101  1  0.23130854  0.73838024  -0.04025172  1
  Bi  Bi102  1  -0.00351019  -0.02843710  0.51802679  1
  Bi  Bi103  1  0.26170278  -0.00884386  -0.00079409  1
  Bi  Bi104  1  -0.00932472  0.51370866  0.21604866  1
  Bi  Bi105  1  0.51335854  0.48514966  0.47453544  1
  Bi  Bi106  1  0.73595096  0.75688319  0.77182195  1
  Bi  Bi107  1  0.01022591  0.77739209  0.00205441  1
  Bi  Bi108  1  0.48594529  0.02702381  0.03505256  1
  Bi  Bi109  1  0.50275788  0.50330053  0.02498654  1
  Bi  Bi110  1  0.05178096  0.71982617  0.76906635  1
  Bi  Bi111  1  0.00098405  0.75911842  0.51725448  1
  Bi  Bi112  1  0.50006075  0.49672314  0.76683764  1
  Bi  Bi113  1  0.29136412  0.20894972  0.01480145  1
  Bi  Bi114  1  0.25165267  0.27070968  0.74688386  1
  Bi  Bi115  1  0.49814492  0.24089881  0.46807728  1
  Bi  Bi116  1  -0.00661470  0.27189530  0.75867414  1
  Bi  Bi117  1  0.54217885  0.25764289  -0.00088238  1
  Bi  Bi118  1  0.23272443  0.48804550  0.48246851  1
  Bi  Bi119  1  0.49776724  0.75627805  0.73933782  1
  Bi  Bi120  1  0.27349181  -0.01902657  0.72664853  1
  Bi  Bi121  1  -0.02454023  0.00614108  0.74311153  1
  Bi  Bi122  1  -0.01316191  0.25556845  0.21830442  1
  Bi  Bi123  1  0.76529208  0.51805832  0.49770262  1
  Bi  Bi124  1  0.23763765  0.48702772  0.25082609  1
  O  O125  1  0.09358983  0.15217404  -0.01487901  1
  O  O126  1  0.17696592  0.10814564  0.26029572  1
  O  O127  1  0.11217920  0.14942416  0.49733778  1
  O  O128  1  0.13861823  0.10069912  0.74610186  1
  O  O129  1  0.12660977  0.33470783  0.00360527  1
  O  O130  1  0.11926371  0.40792743  0.24239539  1
  O  O131  1  0.13475051  0.34972723  0.50591075  1
  O  O132  1  0.09531079  0.38136962  0.75121628  1
  O  O133  1  0.11393259  0.64943669  0.01770775  1
  O  O134  1  0.13888635  0.59452773  0.25266123  1
  O  O135  1  0.12412229  0.65160090  0.49450275  1
  O  O136  1  0.11905784  0.60070602  0.74488660  1
  O  O137  1  0.11547791  0.86887648  0.01915616  1
  O  O138  1  0.14201281  0.88697125  0.25846779  1
  O  O139  1  0.11580967  0.84103083  0.49406330  1
  O  O140  1  0.13374861  0.90941721  0.75115653  1
  O  O141  1  0.37971596  0.10360128  -0.01103435  1
  O  O142  1  0.36258357  0.12160919  0.26622664  1
  O  O143  1  0.40916285  0.10854659  0.50429358  1
  O  O144  1  0.35961532  0.16414168  0.73846102  1
  O  O145  1  0.36575554  0.40251519  -0.00746174  1
  O  O146  1  0.38122173  0.36998112  0.25153395  1
  O  O147  1  0.35770916  0.40270935  0.50781839  1
  O  O148  1  0.37156542  0.35301940  0.74895129  1
  O  O149  1  0.38141500  0.59129152  -0.00531333  1
  O  O150  1  0.36483588  0.64057990  0.24787661  1
  O  O151  1  0.39777124  0.61156662  0.49801046  1
  O  O152  1  0.33641476  0.64413281  0.75552454  1
  O  O153  1  0.37964752  0.90872512  -0.00564252  1
  O  O154  1  0.34612028  0.84586973  0.25940671  1
  O  O155  1  0.40788897  0.87918448  0.49389282  1
  O  O156  1  0.33746445  0.85481776  0.75237524  1
  O  O157  1  0.58422563  0.12488978  -0.00244920  1
  O  O158  1  0.67318770  0.14853457  0.25109086  1
  O  O159  1  0.61448403  0.09416826  0.51535872  1
  O  O160  1  0.66418091  0.13237257  0.74633224  1
  O  O161  1  0.61927791  0.40023121  -0.01014497  1
  O  O162  1  0.63581290  0.35945042  0.24662582  1
  O  O163  1  0.63189302  0.39931126  0.50917911  1
  O  O164  1  0.61883303  0.35432217  0.74862648  1
  O  O165  1  0.61405797  0.58967269  -0.00273425  1
  O  O166  1  0.63733201  0.63323040  0.24675710  1
  O  O167  1  0.61880454  0.59274355  0.50255760  1
  O  O168  1  0.65206486  0.64221630  0.74781585  1
  O  O169  1  0.58515581  0.87723621  -0.00114159  1
  O  O170  1  0.66251342  0.84712976  0.24009872  1
  O  O171  1  0.60292813  0.89080520  0.50888268  1
  O  O172  1  0.62006990  0.83376116  0.74687837  1
  O  O173  1  0.88374594  0.14587237  -0.01513363  1
  O  O174  1  0.86155566  0.10222477  0.25237847  1
  O  O175  1  0.88879810  0.15672694  0.50512887  1
  O  O176  1  0.86138785  0.08706082  0.74893458  1
  O  O177  1  0.85025056  0.33730285  0.00295282  1
  O  O178  1  0.88165416  0.40488477  0.25264868  1
  O  O179  1  0.87279800  0.34506821  0.50701612  1
  O  O180  1  0.90009753  0.37975393  0.75322627  1
  O  O181  1  0.90626299  0.63154607  -0.00244068  1
  O  O182  1  0.86856271  0.58651234  0.24704137  1
  O  O183  1  0.86533060  0.63038595  0.50339541  1
  O  O184  1  0.86704474  0.60323216  0.75086576  1
  O  O185  1  0.88711659  0.84163280  -0.00384227  1
  O  O186  1  0.85466494  0.89195532  0.25638705  1
  O  O187  1  0.88576029  0.84759947  0.49687201  1
  O  O188  1  0.88348534  0.89754789  0.76188802  1
  O  O189  1  -0.00272922  0.15841688  0.12798281  1
  O  O190  1  0.01251694  0.12956776  0.34586514  1
  O  O191  1  0.00172469  0.13232066  0.64697457  1
  O  O192  1  -0.01062654  0.10964075  0.85477804  1
  O  O193  1  -0.00633531  0.34085752  0.11024515  1
  O  O194  1  -0.00565465  0.34524334  0.38082513  1
  O  O195  1  0.00053138  0.34134074  0.61932310  1
  O  O196  1  -0.00818908  0.32624704  0.89582736  1
  O  O197  1  0.00998206  0.64619821  0.15521216  1
  O  O198  1  0.00579939  0.63719817  0.37544161  1
  O  O199  1  -0.00585847  0.65081853  0.62509088  1
  O  O200  1  0.00071873  0.62889647  0.86432352  1
  O  O201  1  0.00387696  0.84135124  0.13913633  1
  O  O202  1  0.00010630  0.86569529  0.36622731  1
  O  O203  1  0.00240263  0.85992472  0.61530613  1
  O  O204  1  0.01565534  0.84651632  0.87567651  1
  O  O205  1  0.24087885  0.11173344  0.09813252  1
  O  O206  1  0.25332315  0.09617960  0.42123281  1
  O  O207  1  0.25891928  0.10111494  0.60115063  1
  O  O208  1  0.24724437  0.12337958  0.88587649  1
  O  O209  1  0.23787635  0.40533918  0.12454747  1
  O  O210  1  0.24535335  0.40377001  0.36871441  1
  O  O211  1  0.24237797  0.38267521  0.64845860  1
  O  O212  1  0.24026075  0.37069265  0.86655768  1
  O  O213  1  0.25275961  0.59799963  0.11254256  1
  O  O214  1  0.25600088  0.59824514  0.38793919  1
  O  O215  1  0.25597794  0.60741631  0.59805977  1
  O  O216  1  0.25035694  0.61624061  0.90003930  1
  O  O217  1  0.23920402  0.92836325  0.12588009  1
  O  O218  1  0.24971896  0.89394748  0.40914106  1
  O  O219  1  0.25653875  0.91499935  0.60473452  1
  O  O220  1  0.24794285  0.88768169  0.89754209  1
  O  O221  1  0.50696503  0.13090583  0.14784200  1
  O  O222  1  0.51347184  0.13593389  0.36860425  1
  O  O223  1  0.50772883  0.14736388  0.64717432  1
  O  O224  1  0.50185188  0.12304626  0.82816720  1
  O  O225  1  0.50891820  0.34993288  0.12984013  1
  O  O226  1  0.49979349  0.35993973  0.39469841  1
  O  O227  1  0.49844909  0.36971278  0.61784630  1
  O  O228  1  0.49463768  0.39224865  0.86825599  1
  O  O229  1  0.49994205  0.63887967  0.11568303  1
  O  O230  1  0.50338779  0.64934006  0.36459179  1
  O  O231  1  0.50033651  0.63632213  0.64332536  1
  O  O232  1  0.49141070  0.61900338  0.84916322  1
  O  O233  1  0.50306818  0.84862606  0.14799424  1
  O  O234  1  0.50733500  0.85527481  0.36208866  1
  O  O235  1  0.49878723  0.84172518  0.63315097  1
  O  O236  1  0.49224084  0.84874249  0.85621085  1
  O  O237  1  0.75066777  0.10860262  0.09456420  1
  O  O238  1  0.75144128  0.11758221  0.40508363  1
  O  O239  1  0.75535806  0.10201750  0.60323512  1
  O  O240  1  0.75149549  0.09060748  0.88944264  1
  O  O241  1  0.75081353  0.41341293  0.12375835  1
  O  O242  1  0.75809975  0.40640764  0.37512597  1
  O  O243  1  0.75539278  0.38283582  0.64538509  1
  O  O244  1  0.75197796  0.38449188  0.86276793  1
  O  O245  1  0.74223427  0.61046596  0.09801120  1
  O  O246  1  0.74414164  0.59127218  0.37832096  1
  O  O247  1  0.74722081  0.59812266  0.62043212  1
  O  O248  1  0.75871207  0.59908913  0.88702459  1
  O  O249  1  0.73807117  0.87434348  0.08982699  1
  O  O250  1  0.75304715  0.88124651  0.40202084  1
  O  O251  1  0.73871684  0.89536347  0.62507165  1
  O  O252  1  0.74818732  0.88108158  0.87142208  1
  O  O253  1  0.07264320  0.00602826  0.13872722  1
  O  O254  1  0.11615363  -0.00441673  0.40618353  1
  O  O255  1  0.11287585  0.00470058  0.59139279  1
  O  O256  1  0.11595901  0.00363826  0.89840561  1
  O  O257  1  0.13023085  0.25649081  0.16537043  1
  O  O258  1  0.15574480  0.24160629  0.36537360  1
  O  O259  1  0.15197786  0.23868261  0.63472180  1
  O  O260  1  0.12597763  0.24435395  0.84015433  1
  O  O261  1  0.08472159  0.49420879  0.09414105  1
  O  O262  1  0.10946758  0.50262147  0.40498675  1
  O  O263  1  0.10887138  0.49047931  0.60172097  1
  O  O264  1  0.09003931  0.47722578  0.90066590  1
  O  O265  1  0.16735339  0.75043524  0.15411889  1
  O  O266  1  0.15519491  0.74686128  0.34882483  1
  O  O267  1  0.16766792  0.75183523  0.64539074  1
  O  O268  1  0.16672148  0.76168602  0.83710740  1
  O  O269  1  0.39242762  -0.00459448  0.14921211  1
  O  O270  1  0.39421082  -0.00550443  0.36705719  1
  O  O271  1  0.40018494  0.01097559  0.66018988  1
  O  O272  1  0.39011619  -0.00996725  0.83624707  1
  O  O273  1  0.36246105  0.25478470  0.12303422  1
  O  O274  1  0.37040240  0.23768628  0.39708851  1
  O  O275  1  0.36589134  0.25499486  0.59908223  1
  O  O276  1  0.38777215  0.25586539  0.89258743  1
  O  O277  1  0.40155095  0.50453976  0.14001950  1
  O  O278  1  0.40433007  0.50688170  0.36217755  1
  O  O279  1  0.37826458  0.50465021  0.65441606  1
  O  O280  1  0.36284981  0.50074878  0.84495720  1
  O  O281  1  0.37273883  0.74427958  0.09737572  1
  O  O282  1  0.36633806  0.74680834  0.38881805  1
  O  O283  1  0.35183003  0.74220071  0.61731134  1
  O  O284  1  0.36030944  0.74729411  0.89610535  1
  O  O285  1  0.60546243  -0.00803458  0.14567490  1
  O  O286  1  0.62414557  0.00658698  0.37053545  1
  O  O287  1  0.59780563  -0.00578104  0.66705754  1
  O  O288  1  0.60675152  -0.01472357  0.84827803  1
  O  O289  1  0.65550693  0.26065647  0.08716275  1
  O  O290  1  0.63623947  0.24371004  0.40446617  1
  O  O291  1  0.64868401  0.24691377  0.61762016  1
  O  O292  1  0.62319685  0.25718917  0.88680483  1
  O  O293  1  0.59914507  0.49814718  0.13601442  1
  O  O294  1  0.59503612  0.50142637  0.36396321  1
  O  O295  1  0.61510252  0.49725735  0.65534491  1
  O  O296  1  0.62181453  0.49909773  0.84219365  1
  O  O297  1  0.62724948  0.73980944  0.09269447  1
  O  O298  1  0.64403182  0.74071183  0.39947243  1
  O  O299  1  0.63327466  0.74178786  0.59644925  1
  O  O300  1  0.65091481  0.75098199  0.89194529  1
  O  O301  1  0.87599026  -0.00559089  0.10852589  1
  O  O302  1  0.87815141  -0.00321158  0.41052363  1
  O  O303  1  0.90230495  0.00077822  0.61469462  1
  O  O304  1  0.88197418  -0.01212433  0.91192339  1
  O  O305  1  0.84763369  0.26630583  0.15959609  1
  O  O306  1  0.84050268  0.25447417  0.35848851  1
  O  O307  1  0.85709757  0.23939703  0.65347334  1
  O  O308  1  0.85520782  0.24296977  0.84091432  1
  O  O309  1  0.90470039  0.49262023  0.10594256  1
  O  O310  1  0.89665435  0.49290602  0.40418086  1
  O  O311  1  0.88966882  0.49187306  0.60800685  1
  O  O312  1  0.89990904  0.48293433  0.89642854  1
  O  O313  1  0.85515841  0.74748710  0.16218799  1
  O  O314  1  0.84049344  0.74935362  0.35537556  1
  O  O315  1  0.84501814  0.74478362  0.64434629  1
  O  O316  1  0.85702447  0.74288956  0.86577111  1
