# generated using pymatgen
data_Mg32Ti42(Bi17O64)3
_symmetry_space_group_name_H-M   'P 1'
_cell_length_a   15.95472755
_cell_length_b   15.99290580
_cell_length_c   15.95421504
_cell_angle_alpha   90.09229949
_cell_angle_beta   90.03467142
_cell_angle_gamma   90.24202233
_symmetry_Int_Tables_number   1
_chemical_formula_structural   Mg32Ti42(Bi17O64)3
_chemical_formula_sum   'Mg32 Ti42 Bi51 O192'
_cell_volume   4070.87431236
_cell_formula_units_Z   1
loop_
 _symmetry_equiv_pos_site_id
 _symmetry_equiv_pos_as_xyz
  1  'x, y, z'
loop_
 _atom_site_type_symbol
 _atom_site_label
 _atom_site_symmetry_multiplicity
 _atom_site_fract_x
 _atom_site_fract_y
 _atom_site_fract_z
 _atom_site_occupancy
  Mg  Mg0  1  0.87864687  0.12293056  0.62863223  1
  Mg  Mg1  1  0.12356498  0.37266593  0.87470545  1
  Mg  Mg2  1  0.13041221  0.87361658  0.38404093  1
  Mg  Mg3  1  0.37463191  0.88389653  0.12024259  1
  Mg  Mg4  1  0.13475620  0.87139952  0.12152407  1
  Mg  Mg5  1  0.37903182  0.61123529  0.11528797  1
  Mg  Mg6  1  0.12863273  0.13002169  0.12679148  1
  Mg  Mg7  1  0.62843271  0.87162790  0.63463961  1
  Mg  Mg8  1  0.87181782  0.87890579  0.12276820  1
  Mg  Mg9  1  0.62723417  0.62278215  0.37259440  1
  Mg  Mg10  1  0.12625254  0.63036306  0.88198571  1
  Mg  Mg11  1  0.87068257  0.12814881  0.11966997  1
  Mg  Mg12  1  0.37195291  0.38537220  0.63494470  1
  Mg  Mg13  1  0.60710290  0.12503324  0.64259830  1
  Mg  Mg14  1  0.36921427  0.62474929  0.36159871  1
  Mg  Mg15  1  0.62281074  0.36448099  0.88037510  1
  Mg  Mg16  1  0.37386713  0.12909375  0.37727367  1
  Mg  Mg17  1  0.37146750  0.87891778  0.37184453  1
  Mg  Mg18  1  0.61349358  0.36744133  0.12884373  1
  Mg  Mg19  1  0.00331544  0.48490065  0.03857797  1
  Mg  Mg20  1  0.48298234  0.25267441  -0.04842609  1
  Mg  Mg21  1  0.70561368  0.24751272  0.01108295  1
  Mg  Mg22  1  0.29178859  0.74618011  0.03610443  1
  Mg  Mg23  1  0.50188909  0.70032769  0.22058161  1
  Mg  Mg24  1  0.26552921  0.50061013  0.20206362  1
  Mg  Mg25  1  0.49748079  0.54311118  0.79547366  1
  Mg  Mg26  1  0.51231290  -0.01732269  0.72477726  1
  Mg  Mg27  1  0.24594774  0.26184463  -0.01628296  1
  Mg  Mg28  1  0.30012705  -0.00826504  0.48379473  1
  Mg  Mg29  1  0.46658836  0.28835420  0.74611392  1
  Mg  Mg30  1  0.73406148  0.73021563  0.77062427  1
  Mg  Mg31  1  0.70026615  0.00881067  0.54533425  1
  Ti  Ti32  1  0.12772395  0.12888631  0.86953180  1
  Ti  Ti33  1  0.87680779  0.11806387  0.88156202  1
  Ti  Ti34  1  0.62356546  0.13414453  0.12568563  1
  Ti  Ti35  1  0.64432648  0.87881367  0.86600986  1
  Ti  Ti36  1  0.37054350  0.13907400  0.11930499  1
  Ti  Ti37  1  0.87459182  0.37368685  0.63112515  1
  Ti  Ti38  1  0.36870405  0.63624575  0.88158608  1
  Ti  Ti39  1  0.87600142  0.12501652  0.37584394  1
  Ti  Ti40  1  0.13182120  0.61318616  0.36520345  1
  Ti  Ti41  1  0.39323194  0.61622536  0.62617830  1
  Ti  Ti42  1  0.87214752  0.86273208  0.87195667  1
  Ti  Ti43  1  0.87679981  0.87907795  0.37846913  1
  Ti  Ti44  1  0.62912165  0.11500244  0.38036377  1
  Ti  Ti45  1  0.37628925  0.11581385  0.63015886  1
  Ti  Ti46  1  0.86901477  0.88664879  0.62255477  1
  Ti  Ti47  1  0.62898947  0.37594530  0.38440368  1
  Ti  Ti48  1  0.12357835  0.88280730  0.61933738  1
  Ti  Ti49  1  0.87428294  0.62497367  0.87256321  1
  Ti  Ti50  1  0.12307089  0.12263575  0.62556148  1
  Ti  Ti51  1  0.13167569  0.36251568  0.63218116  1
  Ti  Ti52  1  0.87830908  0.36348996  0.13038745  1
  Ti  Ti53  1  0.13214922  0.86962954  0.87517179  1
  Ti  Ti54  1  0.62328642  0.64091930  0.62952622  1
  Ti  Ti55  1  0.87726765  0.38429466  0.88825161  1
  Ti  Ti56  1  0.37051812  0.87904361  0.88194254  1
  Ti  Ti57  1  0.36922473  0.36689535  0.10300186  1
  Ti  Ti58  1  0.38155084  0.87889205  0.62701247  1
  Ti  Ti59  1  0.12778739  0.13778428  0.35942871  1
  Ti  Ti60  1  0.37156028  0.39175941  0.87656063  1
  Ti  Ti61  1  0.62729994  0.36814218  0.64146569  1
  Ti  Ti62  1  0.62471845  0.61874919  0.12562567  1
  Ti  Ti63  1  0.11523723  0.36829800  0.12644040  1
  Ti  Ti64  1  0.63570566  0.87588589  0.38156047  1
  Ti  Ti65  1  0.86613369  0.65289368  0.63920661  1
  Ti  Ti66  1  0.13078961  0.62722077  0.11685857  1
  Ti  Ti67  1  0.37673710  0.12115158  0.86667654  1
  Ti  Ti68  1  0.87939744  0.61425790  0.11008861  1
  Ti  Ti69  1  0.62376754  0.86955691  0.14493389  1
  Ti  Ti70  1  0.11223148  0.36983299  0.36264555  1
  Ti  Ti71  1  0.86999371  0.37416697  0.39271416  1
  Ti  Ti72  1  0.62273568  0.62889591  0.88762170  1
  Ti  Ti73  1  0.61294463  0.11497993  0.87637129  1
  Bi  Bi74  1  0.47741563  0.01818092  0.26011549  1
  Bi  Bi75  1  0.47474243  0.47268743  0.48566101  1
  Bi  Bi76  1  0.27871079  0.27731875  0.27561895  1
  Bi  Bi77  1  -0.00732019  0.21749488  0.23474228  1
  Bi  Bi78  1  0.76925950  -0.01402941  0.25071967  1
  Bi  Bi79  1  0.02004295  0.71703044  0.50680727  1
  Bi  Bi80  1  0.28293268  0.75674176  0.22741698  1
  Bi  Bi81  1  0.50983510  0.77867355  0.01119586  1
  Bi  Bi82  1  0.74709457  0.24584085  0.27713575  1
  Bi  Bi83  1  0.21690477  0.53703998  0.73764989  1
  Bi  Bi84  1  0.50564118  0.25679183  0.27801144  1
  Bi  Bi85  1  -0.00020549  0.50056528  0.76903838  1
  Bi  Bi86  1  0.01136644  -0.01040334  -0.00050351  1
  Bi  Bi87  1  0.25175437  0.47051617  0.46071594  1
  Bi  Bi88  1  0.74425406  0.01766501  0.73098123  1
  Bi  Bi89  1  0.00341649  -0.01140927  0.49865067  1
  Bi  Bi90  1  -0.01073374  -0.02478538  0.75357173  1
  Bi  Bi91  1  0.25851288  -0.01435574  0.74008613  1
  Bi  Bi92  1  0.02696531  0.50063189  0.53984834  1
  Bi  Bi93  1  0.02946203  0.73340445  0.73978791  1
  Bi  Bi94  1  0.76424674  0.71767644  0.24939069  1
  Bi  Bi95  1  0.24861248  0.25126570  0.74270883  1
  Bi  Bi96  1  0.00191001  0.76840640  0.01708317  1
  Bi  Bi97  1  0.23931467  -0.01971638  0.26629231  1
  Bi  Bi98  1  0.74274721  0.23191885  0.53331679  1
  Bi  Bi99  1  0.72538170  0.51389553  0.75025747  1
  Bi  Bi100  1  0.72986274  0.49068558  0.25881705  1
  Bi  Bi101  1  0.76532929  0.72219660  0.47133007  1
  Bi  Bi102  1  0.26247124  0.74566020  0.72944719  1
  Bi  Bi103  1  0.48407859  0.01764478  0.01026068  1
  Bi  Bi104  1  0.49246882  0.74088910  0.45151080  1
  Bi  Bi105  1  0.01557890  -0.02440722  0.25465388  1
  Bi  Bi106  1  0.24140054  0.22071024  0.50346219  1
  Bi  Bi107  1  0.76131836  0.76241772  0.01711443  1
  Bi  Bi108  1  0.00191312  0.72748477  0.28075065  1
  Bi  Bi109  1  0.49221943  0.26485361  0.53420304  1
  Bi  Bi110  1  0.75176412  0.24453144  0.79161578  1
  Bi  Bi111  1  0.74744735  0.46690660  0.01941567  1
  Bi  Bi112  1  0.74014944  0.01780101  0.02071110  1
  Bi  Bi113  1  -0.02300229  0.25575756  0.76742685  1
  Bi  Bi114  1  0.45037086  0.47997551  0.25917503  1
  Bi  Bi115  1  0.21954077  0.48198340  0.00420531  1
  Bi  Bi116  1  0.51313956  0.47578217  -0.00790337  1
  Bi  Bi117  1  -0.01407237  0.22716837  0.50533885  1
  Bi  Bi118  1  0.75613823  0.51147928  0.53056120  1
  Bi  Bi119  1  -0.04023247  0.51117420  0.27596248  1
  Bi  Bi120  1  0.23741715  0.02142242  0.01509080  1
  Bi  Bi121  1  0.27326711  0.72474676  0.49584236  1
  Bi  Bi122  1  0.49997011  -0.02695310  0.49285092  1
  Bi  Bi123  1  0.00949197  0.22618711  -0.00594857  1
  Bi  Bi124  1  0.50610653  0.76272715  0.77674424  1
  O  O125  1  0.10402170  0.10710476  -0.00185424  1
  O  O126  1  0.13544676  0.16387254  0.24912049  1
  O  O127  1  0.13930533  0.11806506  0.50460072  1
  O  O128  1  0.14121512  0.15773254  0.75336152  1
  O  O129  1  0.09852164  0.41088912  0.00384961  1
  O  O130  1  0.13440283  0.36268565  0.24654122  1
  O  O131  1  0.12121316  0.40802237  0.49876602  1
  O  O132  1  0.13583440  0.33732059  0.74729411  1
  O  O133  1  0.12219818  0.60144488  0.00330344  1
  O  O134  1  0.12062374  0.64081216  0.25058075  1
  O  O135  1  0.10343171  0.60961631  0.49389774  1
  O  O136  1  0.13823949  0.65080209  0.75049241  1
  O  O137  1  0.12918078  0.90419168  -0.00854509  1
  O  O138  1  0.12854588  0.88416743  0.25099126  1
  O  O139  1  0.12103384  0.90155840  0.50733936  1
  O  O140  1  0.10102458  0.86745591  0.75321279  1
  O  O141  1  0.42246981  0.14365005  -0.00490018  1
  O  O142  1  0.36690532  0.10151676  0.23394370  1
  O  O143  1  0.35543447  0.12562364  0.50766840  1
  O  O144  1  0.34858009  0.09767105  0.75341799  1
  O  O145  1  0.37676760  0.32338416  -0.00721000  1
  O  O146  1  0.33717923  0.39868587  0.22942821  1
  O  O147  1  0.39812191  0.36402248  0.50953173  1
  O  O148  1  0.37684923  0.37625740  0.76320533  1
  O  O149  1  0.36947166  0.65618752  -0.00622933  1
  O  O150  1  0.35129245  0.58366440  0.24137042  1
  O  O151  1  0.38083935  0.64503804  0.50066060  1
  O  O152  1  0.39979883  0.60215744  0.74220482  1
  O  O153  1  0.36819127  0.84000052  -0.00633220  1
  O  O154  1  0.35254026  0.88511586  0.24614877  1
  O  O155  1  0.37517119  0.88805070  0.50801838  1
  O  O156  1  0.38875882  0.91252319  0.75030222  1
  O  O157  1  0.61254078  0.08899120  -0.00148228  1
  O  O158  1  0.65415468  0.13492887  0.23709864  1
  O  O159  1  0.62095637  0.10159119  0.49409419  1
  O  O160  1  0.65533852  0.13790636  0.76430998  1
  O  O161  1  0.62256499  0.39418922  0.00473972  1
  O  O162  1  0.65250369  0.37104316  0.25028339  1
  O  O163  1  0.59320165  0.36840660  0.49642150  1
  O  O164  1  0.63821139  0.36017530  0.75531728  1
  O  O165  1  0.62765586  0.63618446  0.00160185  1
  O  O166  1  0.64896886  0.62698788  0.24474727  1
  O  O167  1  0.66065499  0.62704522  0.50999067  1
  O  O168  1  0.60651299  0.59567115  0.74380264  1
  O  O169  1  0.63556660  0.84878194  -0.01535563  1
  O  O170  1  0.62154223  0.87043017  0.25627982  1
  O  O171  1  0.63236433  0.91062940  0.49984773  1
  O  O172  1  0.58920331  0.88296036  0.76081207  1
  O  O173  1  0.90810845  0.11437065  -0.00517298  1
  O  O174  1  0.86055852  0.15598576  0.25114406  1
  O  O175  1  0.89698842  0.11273788  0.49233232  1
  O  O176  1  0.86471544  0.16109321  0.75806297  1
  O  O177  1  0.90104813  0.41435313  -0.00401709  1
  O  O178  1  0.85447941  0.35782058  0.24125359  1
  O  O179  1  0.88317092  0.39894301  0.50163805  1
  O  O180  1  0.86243555  0.34398879  0.74554433  1
  O  O181  1  0.86399329  0.60820776  -0.01241327  1
  O  O182  1  0.88450315  0.64443154  0.23203706  1
  O  O183  1  0.84769236  0.61942379  0.51960008  1
  O  O184  1  0.85357135  0.67171287  0.75466643  1
  O  O185  1  0.84347179  0.88423252  -0.01340404  1
  O  O186  1  0.87648493  0.88281047  0.25185366  1
  O  O187  1  0.88359959  0.90952226  0.50090642  1
  O  O188  1  0.90398230  0.86612814  0.74890588  1
  O  O189  1  -0.00030242  0.10825199  0.15516146  1
  O  O190  1  -0.00152366  0.13130857  0.35766254  1
  O  O191  1  0.00751814  0.12909032  0.62538395  1
  O  O192  1  0.00688415  0.13792607  0.85770981  1
  O  O193  1  -0.00156787  0.40353276  0.13737310  1
  O  O194  1  -0.00349908  0.40148940  0.36168374  1
  O  O195  1  -0.00617835  0.37932559  0.63552175  1
  O  O196  1  -0.00310126  0.38493598  0.84487408  1
  O  O197  1  -0.00667859  0.58997617  0.11048176  1
  O  O198  1  0.00209148  0.61246584  0.36092898  1
  O  O199  1  -0.01964340  0.62831115  0.63841389  1
  O  O200  1  -0.00866734  0.61903721  0.85166585  1
  O  O201  1  -0.00097163  0.88890443  0.10106510  1
  O  O202  1  0.00024131  0.90543061  0.37867594  1
  O  O203  1  0.00144423  0.90914164  0.61879955  1
  O  O204  1  -0.00515247  0.89462706  0.88962319  1
  O  O205  1  0.26012497  0.15179500  0.07941173  1
  O  O206  1  0.24648482  0.15193574  0.37556574  1
  O  O207  1  0.24673588  0.16107163  0.63242076  1
  O  O208  1  0.26645110  0.14921978  0.89551193  1
  O  O209  1  0.23559063  0.35471345  0.08115183  1
  O  O210  1  0.23889406  0.35708440  0.38767545  1
  O  O211  1  0.24962352  0.35366535  0.62805373  1
  O  O212  1  0.25588572  0.37317907  0.89490954  1
  O  O213  1  0.24477284  0.65651632  0.11663649  1
  O  O214  1  0.24437507  0.63102316  0.39895232  1
  O  O215  1  0.27010327  0.64446942  0.62752550  1
  O  O216  1  0.25733445  0.61573333  0.86197606  1
  O  O217  1  0.25378464  0.83256004  0.11839436  1
  O  O218  1  0.24909567  0.91549993  0.38946265  1
  O  O219  1  0.24188097  0.86182655  0.64717957  1
  O  O220  1  0.24946569  0.87236751  0.85700643  1
  O  O221  1  0.50531967  0.09600922  0.13642543  1
  O  O222  1  0.50807760  0.12745655  0.34053574  1
  O  O223  1  0.48500472  0.08266837  0.64258025  1
  O  O224  1  0.51119885  0.07453624  0.84700695  1
  O  O225  1  0.48382910  0.39251575  0.12446079  1
  O  O226  1  0.51016054  0.38126896  0.35025642  1
  O  O227  1  0.50582623  0.35724895  0.64344468  1
  O  O228  1  0.49479943  0.37045622  0.89536231  1
  O  O229  1  0.50918152  0.59850125  0.13955944  1
  O  O230  1  0.50052827  0.65498443  0.34325211  1
  O  O231  1  0.50999608  0.64059597  0.60608122  1
  O  O232  1  0.49969182  0.64740513  0.87300967  1
  O  O233  1  0.50592547  0.88724351  0.10150669  1
  O  O234  1  0.50470897  0.87114103  0.39327552  1
  O  O235  1  0.49698946  0.89778913  0.61947011  1
  O  O236  1  0.49422063  0.85405994  0.88726523  1
  O  O237  1  0.74322948  0.14417864  0.08334080  1
  O  O238  1  0.75026440  0.13840040  0.38023645  1
  O  O239  1  0.75115808  0.11019977  0.60992825  1
  O  O240  1  0.76311575  0.15048366  0.90020121  1
  O  O241  1  0.76267747  0.34871104  0.08525636  1
  O  O242  1  0.74964420  0.35131222  0.39322524  1
  O  O243  1  0.74655004  0.35143889  0.60656179  1
  O  O244  1  0.75838211  0.36366915  0.89815438  1
  O  O245  1  0.75235249  0.65565775  0.12025250  1
  O  O246  1  0.75585387  0.64297090  0.36544850  1
  O  O247  1  0.74597211  0.60969930  0.65075470  1
  O  O248  1  0.73928617  0.62185291  0.85507067  1
  O  O249  1  0.74225446  0.84127093  0.12791775  1
  O  O250  1  0.75515501  0.88027804  0.37281365  1
  O  O251  1  0.75537033  0.90536249  0.62664824  1
  O  O252  1  0.75400750  0.84877646  0.83247923  1
  O  O253  1  0.16364108  0.00465072  0.13024573  1
  O  O254  1  0.12026140  0.02154808  0.34458215  1
  O  O255  1  0.13796324  0.00857408  0.64848329  1
  O  O256  1  0.13804114  0.01422925  0.85739793  1
  O  O257  1  0.09340833  0.25695349  0.11097308  1
  O  O258  1  0.10198433  0.25944284  0.39333166  1
  O  O259  1  0.11188451  0.25507039  0.59453816  1
  O  O260  1  0.13225764  0.24940848  0.91511502  1
  O  O261  1  0.16086620  0.50348883  0.13610721  1
  O  O262  1  0.15498553  0.49877578  0.35969080  1
  O  O263  1  0.12019362  0.48844663  0.64518406  1
  O  O264  1  0.12556139  0.50105547  0.83472874  1
  O  O265  1  0.09195183  0.74213108  0.11526365  1
  O  O266  1  0.10068981  0.74714995  0.39213535  1
  O  O267  1  0.09734440  0.76393447  0.61385351  1
  O  O268  1  0.11267094  0.75886692  0.88800734  1
  O  O269  1  0.35990909  0.00860922  0.08975778  1
  O  O270  1  0.39465654  0.00633212  0.38388771  1
  O  O271  1  0.32704630  0.00005444  0.61461329  1
  O  O272  1  0.37022310  -0.00602754  0.90397313  1
  O  O273  1  0.37952027  0.25192811  0.15219830  1
  O  O274  1  0.39041405  0.25018086  0.34886990  1
  O  O275  1  0.40182185  0.23313493  0.64778214  1
  O  O276  1  0.42199947  0.22445058  0.84288185  1
  O  O277  1  0.34421193  0.48734846  0.09019786  1
  O  O278  1  0.38254367  0.50004408  0.38653677  1
  O  O279  1  0.38520386  0.50466173  0.59705951  1
  O  O280  1  0.39791803  0.50582384  0.88630730  1
  O  O281  1  0.39791725  0.73833345  0.15605428  1
  O  O282  1  0.36301930  0.75465387  0.38354241  1
  O  O283  1  0.38023613  0.76388765  0.64592618  1
  O  O284  1  0.36814075  0.75030246  0.83873237  1
  O  O285  1  0.65402466  -0.01347935  0.12694802  1
  O  O286  1  0.61823794  0.00267405  0.35392538  1
  O  O287  1  0.62936351  0.00311793  0.65475024  1
  O  O288  1  0.66376822  -0.00679003  0.87015003  1
  O  O289  1  0.60891613  0.24337904  0.10156847  1
  O  O290  1  0.61690636  0.24663265  0.36702763  1
  O  O291  1  0.62090385  0.24277535  0.60956644  1
  O  O292  1  0.60915100  0.23289450  0.91121532  1
  O  O293  1  0.65625828  0.50293702  0.12611481  1
  O  O294  1  0.64347911  0.49419336  0.37572644  1
  O  O295  1  0.64443134  0.48357173  0.62486950  1
  O  O296  1  0.59452137  0.50837355  0.87907622  1
  O  O297  1  0.59192030  0.74659476  0.13664833  1
  O  O298  1  0.63151462  0.76000083  0.39917601  1
  O  O299  1  0.64903739  0.74772064  0.66078741  1
  O  O300  1  0.62923719  0.74305423  0.84592349  1
  O  O301  1  0.83801995  0.00332016  0.13166651  1
  O  O302  1  0.87137270  0.01176345  0.34763818  1
  O  O303  1  0.87996294  0.00332975  0.66259652  1
  O  O304  1  0.87276188  0.00669457  0.85516331  1
  O  O305  1  0.90815038  0.25460474  0.10989901  1
  O  O306  1  0.88748118  0.25494233  0.39422756  1
  O  O307  1  0.87636603  0.24936467  0.59378508  1
  O  O308  1  0.90127852  0.26301581  0.88819392  1
  O  O309  1  0.84300595  0.50251050  0.13258921  1
  O  O310  1  0.85193928  0.48720889  0.35288312  1
  O  O311  1  0.84947841  0.48860085  0.64303297  1
  O  O312  1  0.86965864  0.50242187  0.84176536  1
  O  O313  1  0.88938006  0.74704573  0.09288431  1
  O  O314  1  0.89535648  0.76622525  0.38383666  1
  O  O315  1  0.87140928  0.76471155  0.60758056  1
  O  O316  1  0.88369237  0.75086695  0.89536346  1
