# generated using pymatgen
data_Mg32Ti42(Bi17O64)3
_symmetry_space_group_name_H-M   'P 1'
_cell_length_a   15.94730033
_cell_length_b   15.93918860
_cell_length_c   15.91814813
_cell_angle_alpha   90.15059084
_cell_angle_beta   90.37204086
_cell_angle_gamma   89.97156352
_symmetry_Int_Tables_number   1
_chemical_formula_structural   Mg32Ti42(Bi17O64)3
_chemical_formula_sum   'Mg32 Ti42 Bi51 O192'
_cell_volume   4046.08701717
_cell_formula_units_Z   1
loop_
 _symmetry_equiv_pos_site_id
 _symmetry_equiv_pos_as_xyz
  1  'x, y, z'
loop_
 _atom_site_type_symbol
 _atom_site_label
 _atom_site_symmetry_multiplicity
 _atom_site_fract_x
 _atom_site_fract_y
 _atom_site_fract_z
 _atom_site_occupancy
  Mg  Mg0  1  0.63171934  0.37759785  0.36708797  1
  Mg  Mg1  1  0.62140765  0.13408829  0.12958030  1
  Mg  Mg2  1  0.88393437  0.12568413  0.88920395  1
  Mg  Mg3  1  0.36977350  0.36812661  0.37336849  1
  Mg  Mg4  1  0.37639295  0.12263284  0.37395079  1
  Mg  Mg5  1  0.88270212  0.37271771  0.62023637  1
  Mg  Mg6  1  0.62429365  0.87826192  0.63180565  1
  Mg  Mg7  1  0.36644357  0.37419451  0.62679883  1
  Mg  Mg8  1  0.37011043  0.87645498  0.37598035  1
  Mg  Mg9  1  0.13002039  0.62504875  0.87294623  1
  Mg  Mg10  1  0.87465425  0.12479665  0.60651033  1
  Mg  Mg11  1  0.12864207  0.87330907  0.87709752  1
  Mg  Mg12  1  0.62100239  0.12647669  0.87301291  1
  Mg  Mg13  1  0.87291174  0.63467161  0.37977460  1
  Mg  Mg14  1  0.11595001  0.11764497  0.36184497  1
  Mg  Mg15  1  0.12829101  0.63766583  0.38368006  1
  Mg  Mg16  1  0.61913113  0.88304205  0.88779387  1
  Mg  Mg17  1  0.37860773  0.62548838  0.12850628  1
  Mg  Mg18  1  0.12731621  0.60962854  0.13376961  1
  Mg  Mg19  1  0.21036371  -0.02354892  0.25154779  1
  Mg  Mg20  1  0.27517416  0.53783042  0.24752908  1
  Mg  Mg21  1  -0.00181780  0.25221200  0.49703380  1
  Mg  Mg22  1  0.70855493  -0.00844894  0.79391595  1
  Mg  Mg23  1  0.53821763  0.72597349  -0.05544205  1
  Mg  Mg24  1  -0.00884464  0.72628013  0.55199145  1
  Mg  Mg25  1  0.73728478  0.27469182  0.56552308  1
  Mg  Mg26  1  0.25247976  0.77068259  0.52688660  1
  Mg  Mg27  1  0.71839370  0.73666232  0.27626414  1
  Mg  Mg28  1  0.50577137  0.01646992  -0.00085490  1
  Mg  Mg29  1  -0.03686317  0.01930041  0.24455851  1
  Mg  Mg30  1  -0.06977067  0.26913343  0.04887148  1
  Mg  Mg31  1  0.70001735  0.03404103  0.00800991  1
  Ti  Ti32  1  0.37926351  0.10779698  0.11963554  1
  Ti  Ti33  1  0.87348298  0.87637949  0.62723964  1
  Ti  Ti34  1  0.12752191  0.11586909  0.62036488  1
  Ti  Ti35  1  0.37339947  0.61915513  0.88530495  1
  Ti  Ti36  1  0.37691921  0.13109612  0.62062859  1
  Ti  Ti37  1  0.11040577  0.11432318  0.12847260  1
  Ti  Ti38  1  0.37876046  0.87520232  0.89268900  1
  Ti  Ti39  1  0.34926025  0.63806174  0.39460185  1
  Ti  Ti40  1  0.37410627  0.88661870  0.61658800  1
  Ti  Ti41  1  0.86651485  0.13095620  0.37250030  1
  Ti  Ti42  1  0.60547020  0.87464261  0.11301666  1
  Ti  Ti43  1  0.36301468  0.62064631  0.62736491  1
  Ti  Ti44  1  0.61954887  0.62829284  0.13694044  1
  Ti  Ti45  1  0.37067173  0.38198367  0.12671091  1
  Ti  Ti46  1  0.85971520  0.87002734  0.87130737  1
  Ti  Ti47  1  0.62102756  0.62461707  0.62044668  1
  Ti  Ti48  1  0.86334165  0.11185526  0.12111630  1
  Ti  Ti49  1  0.61019919  0.37133455  0.12124097  1
  Ti  Ti50  1  0.11937234  0.87676466  0.38486296  1
  Ti  Ti51  1  0.86889575  0.62386876  0.62782042  1
  Ti  Ti52  1  0.11987657  0.36691511  0.87326639  1
  Ti  Ti53  1  0.37417788  0.36624683  0.87691989  1
  Ti  Ti54  1  0.11989963  0.12086563  0.88137458  1
  Ti  Ti55  1  0.63188365  0.13559240  0.37090272  1
  Ti  Ti56  1  0.12617966  0.37166441  0.61915239  1
  Ti  Ti57  1  0.63682144  0.62065667  0.38374065  1
  Ti  Ti58  1  0.86828738  0.86846599  0.36816382  1
  Ti  Ti59  1  0.37485145  0.87493058  0.13765373  1
  Ti  Ti60  1  0.63359026  0.11389726  0.62449952  1
  Ti  Ti61  1  0.12997830  0.63074943  0.62593057  1
  Ti  Ti62  1  0.88180848  0.62565311  0.88048636  1
  Ti  Ti63  1  0.36970759  0.11705808  0.87140800  1
  Ti  Ti64  1  0.61085733  0.37589729  0.88245923  1
  Ti  Ti65  1  0.87525977  0.62665299  0.12846897  1
  Ti  Ti66  1  0.86777300  0.87707115  0.13106525  1
  Ti  Ti67  1  0.13103460  0.36922003  0.13446409  1
  Ti  Ti68  1  0.11774680  0.37095864  0.36819099  1
  Ti  Ti69  1  0.11262799  0.87939195  0.13286770  1
  Ti  Ti70  1  0.12008167  0.87844163  0.61889799  1
  Ti  Ti71  1  0.87244605  0.37141562  0.38117995  1
  Ti  Ti72  1  0.88044580  0.36914394  0.86454546  1
  Ti  Ti73  1  0.62827998  0.87152439  0.37069721  1
  Bi  Bi74  1  0.24441684  0.22690372  0.01005305  1
  Bi  Bi75  1  0.71127663  0.71335745  0.77965764  1
  Bi  Bi76  1  0.00202569  0.52391734  0.49699424  1
  Bi  Bi77  1  0.48318503  0.75302123  0.75111154  1
  Bi  Bi78  1  0.48936305  0.49694983  0.75515229  1
  Bi  Bi79  1  0.24438956  0.47177521  0.47479333  1
  Bi  Bi80  1  0.25253285  -0.00591420  0.47122518  1
  Bi  Bi81  1  0.73716363  0.48752340  0.22496289  1
  Bi  Bi82  1  0.23576890  -0.01956843  0.76080278  1
  Bi  Bi83  1  0.75348191  0.26590851  0.23565494  1
  Bi  Bi84  1  0.48293444  0.47944618  0.51508720  1
  Bi  Bi85  1  0.74636009  0.75232899  0.52651906  1
  Bi  Bi86  1  0.50713479  0.26395131  0.70915741  1
  Bi  Bi87  1  0.23311426  0.48353243  0.75819803  1
  Bi  Bi88  1  -0.00342681  0.24941245  0.71866368  1
  Bi  Bi89  1  0.52694065  0.52936875  -0.00837552  1
  Bi  Bi90  1  -0.00248637  0.75833531  0.77630946  1
  Bi  Bi91  1  0.49132448  0.48801615  0.27071779  1
  Bi  Bi92  1  0.23743559  0.23226709  0.75713517  1
  Bi  Bi93  1  0.75532033  0.50956175  -0.01839997  1
  Bi  Bi94  1  0.72852100  0.46636593  0.51907380  1
  Bi  Bi95  1  0.49595463  -0.01090851  0.76929542  1
  Bi  Bi96  1  0.73398070  0.47048156  0.74518466  1
  Bi  Bi97  1  0.73257594  0.24507907  -0.02570871  1
  Bi  Bi98  1  0.22743713  0.22868806  0.47667225  1
  Bi  Bi99  1  0.23760230  0.48148768  0.00020151  1
  Bi  Bi100  1  0.24060138  0.73006245  0.23713754  1
  Bi  Bi101  1  -0.02177270  0.45884707  0.01510015  1
  Bi  Bi102  1  0.48440093  0.74069884  0.51716542  1
  Bi  Bi103  1  -0.02612982  0.51044077  0.25957095  1
  Bi  Bi104  1  0.73494918  -0.00527616  0.25302991  1
  Bi  Bi105  1  0.25053841  0.72702127  0.01708183  1
  Bi  Bi106  1  0.50213403  -0.00588638  0.26134429  1
  Bi  Bi107  1  0.01476307  0.72852138  0.01492148  1
  Bi  Bi108  1  0.46856305  0.24492041  0.25058577  1
  Bi  Bi109  1  0.74216459  0.75523208  0.04061693  1
  Bi  Bi110  1  0.54281703  0.26733496  0.50278146  1
  Bi  Bi111  1  0.76979880  0.20328452  0.75262536  1
  Bi  Bi112  1  0.23677437  0.21866454  0.24128278  1
  Bi  Bi113  1  0.00143590  0.74275015  0.26377500  1
  Bi  Bi114  1  0.48712465  0.22424424  0.00114875  1
  Bi  Bi115  1  0.49248677  0.02214559  0.48680258  1
  Bi  Bi116  1  -0.01124066  0.01197935  0.46503368  1
  Bi  Bi117  1  0.23854348  -0.02547874  0.01616819  1
  Bi  Bi118  1  0.48349644  0.72737560  0.27168542  1
  Bi  Bi119  1  -0.02017272  0.27031825  0.24363405  1
  Bi  Bi120  1  -0.02112263  -0.03811825  -0.01289047  1
  Bi  Bi121  1  0.74623088  -0.01884753  0.50291263  1
  Bi  Bi122  1  0.24064406  0.74495712  0.76223240  1
  Bi  Bi123  1  -0.00675449  0.51222167  0.73188095  1
  Bi  Bi124  1  -0.03472409  0.01501722  0.74881353  1
  O  O125  1  0.12360235  0.14541644  -0.00138836  1
  O  O126  1  0.15823645  0.09362090  0.24070661  1
  O  O127  1  0.10480164  0.16782517  0.50675507  1
  O  O128  1  0.15565515  0.11044635  0.74273028  1
  O  O129  1  0.15863750  0.36424069  -0.00896244  1
  O  O130  1  0.10308256  0.38159832  0.24962138  1
  O  O131  1  0.14321210  0.35576902  0.50439624  1
  O  O132  1  0.11279899  0.40404023  0.75187978  1
  O  O133  1  0.12799287  0.64653238  0.00177184  1
  O  O134  1  0.17221734  0.61069277  0.26301563  1
  O  O135  1  0.08745929  0.64061199  0.50845369  1
  O  O136  1  0.15199493  0.60825847  0.74350671  1
  O  O137  1  0.15470519  0.86450261  0.00414891  1
  O  O138  1  0.09975527  0.91395408  0.24331257  1
  O  O139  1  0.15550802  0.85428912  0.49621968  1
  O  O140  1  0.11622631  0.90299473  0.73593615  1
  O  O141  1  0.36766009  0.14927237  -0.00230211  1
  O  O142  1  0.38879144  0.11457251  0.23746910  1
  O  O143  1  0.40814123  0.13709067  0.50848487  1
  O  O144  1  0.36129778  0.11650777  0.75485744  1
  O  O145  1  0.34719111  0.37856388  0.00028050  1
  O  O146  1  0.40158711  0.37229740  0.24737387  1
  O  O147  1  0.36490879  0.39981949  0.49898051  1
  O  O148  1  0.40755235  0.38709023  0.75747347  1
  O  O149  1  0.37104930  0.63235347  0.00151003  1
  O  O150  1  0.35721271  0.64180352  0.26567381  1
  O  O151  1  0.39962258  0.61165289  0.50069669  1
  O  O152  1  0.37856614  0.64011430  0.74821116  1
  O  O153  1  0.34443294  0.86614950  0.00001331  1
  O  O154  1  0.39351632  0.89066834  0.25081235  1
  O  O155  1  0.34176031  0.86559861  0.50448607  1
  O  O156  1  0.40927199  0.87868587  0.74955394  1
  O  O157  1  0.63487784  0.15671894  0.00286007  1
  O  O158  1  0.63227978  0.09489049  0.25032226  1
  O  O159  1  0.60506466  0.13426176  0.49135067  1
  O  O160  1  0.65566243  0.09853378  0.74308023  1
  O  O161  1  0.63380397  0.35354200  0.00503737  1
  O  O162  1  0.61088077  0.41887830  0.24636158  1
  O  O163  1  0.65982052  0.34680405  0.48783416  1
  O  O164  1  0.60896259  0.41026041  0.76451944  1
  O  O165  1  0.60078264  0.64768632  0.01879728  1
  O  O166  1  0.65743492  0.61400553  0.25387829  1
  O  O167  1  0.61863569  0.66222544  0.49790641  1
  O  O168  1  0.64141981  0.60223232  0.73809657  1
  O  O169  1  0.61842684  0.82401065  0.00243768  1
  O  O170  1  0.61674737  0.90741411  0.23805957  1
  O  O171  1  0.65679056  0.86111262  0.48620099  1
  O  O172  1  0.60737333  0.91652572  0.75299941  1
  O  O173  1  0.89190044  0.15592219  0.01340232  1
  O  O174  1  0.85626822  0.09420869  0.24701615  1
  O  O175  1  0.90989141  0.15402392  0.48357741  1
  O  O176  1  0.85476222  0.09557343  0.74507701  1
  O  O177  1  0.87659792  0.36429861  -0.00930517  1
  O  O178  1  0.90948875  0.38517309  0.25497945  1
  O  O179  1  0.84696007  0.34967724  0.49196265  1
  O  O180  1  0.89766008  0.40622460  0.75218569  1
  O  O181  1  0.89895600  0.64973995  -0.00046577  1
  O  O182  1  0.86659504  0.60378309  0.24511941  1
  O  O183  1  0.90961799  0.63596349  0.50599263  1
  O  O184  1  0.86905812  0.60300077  0.74800951  1
  O  O185  1  0.87286272  0.86869977  -0.00859755  1
  O  O186  1  0.89323174  0.90771256  0.24371183  1
  O  O187  1  0.84347744  0.86181500  0.48420507  1
  O  O188  1  0.89411358  0.88396615  0.74306795  1
  O  O189  1  0.00236840  0.11452175  0.15741247  1
  O  O190  1  -0.00880343  0.09197691  0.34746307  1
  O  O191  1  0.00820010  0.12943026  0.64802779  1
  O  O192  1  0.00893464  0.11611354  0.85522067  1
  O  O193  1  0.01718761  0.34481346  0.09885385  1
  O  O194  1  0.00345156  0.33713479  0.39836765  1
  O  O195  1  0.00439323  0.33260539  0.60314969  1
  O  O196  1  0.00712992  0.37701081  0.88832111  1
  O  O197  1  0.00379975  0.64921062  0.13491458  1
  O  O198  1  0.00471008  0.62885759  0.34105435  1
  O  O199  1  0.01284710  0.64841359  0.65537876  1
  O  O200  1  0.00232051  0.64122552  0.86020167  1
  O  O201  1  0.00040249  0.86226445  0.10209474  1
  O  O202  1  -0.00415352  0.89101088  0.39129739  1
  O  O203  1  0.01106952  0.84526646  0.60046884  1
  O  O204  1  0.00315380  0.85985354  0.88474309  1
  O  O205  1  0.25823361  0.12647054  0.11321473  1
  O  O206  1  0.24894934  0.11606888  0.39573178  1
  O  O207  1  0.25379419  0.12876982  0.59627752  1
  O  O208  1  0.25051184  0.15405082  0.88372544  1
  O  O209  1  0.25160803  0.34998948  0.14608513  1
  O  O210  1  0.24125229  0.37303635  0.37710002  1
  O  O211  1  0.24218122  0.39293120  0.64150228  1
  O  O212  1  0.25809519  0.36193372  0.84158607  1
  O  O213  1  0.25002843  0.63739952  0.12611529  1
  O  O214  1  0.25040062  0.67773035  0.43032832  1
  O  O215  1  0.25258439  0.59747193  0.61106815  1
  O  O216  1  0.26084387  0.66340681  0.87771983  1
  O  O217  1  0.25153790  0.91359281  0.14762653  1
  O  O218  1  0.23863746  0.90588943  0.35361094  1
  O  O219  1  0.25825098  0.88414260  0.65073033  1
  O  O220  1  0.26177032  0.86293131  0.84400902  1
  O  O221  1  0.50000069  0.12101346  0.09315381  1
  O  O222  1  0.51011550  0.09246185  0.36570474  1
  O  O223  1  0.50429234  0.13149856  0.65237354  1
  O  O224  1  0.49282671  0.11155620  0.90192974  1
  O  O225  1  0.49458333  0.39398067  0.10723362  1
  O  O226  1  0.49938717  0.40749709  0.38396852  1
  O  O227  1  0.49715631  0.36144471  0.60327954  1
  O  O228  1  0.49818952  0.39793055  0.89832067  1
  O  O229  1  0.50528781  0.62744122  0.15889138  1
  O  O230  1  0.51299592  0.61670288  0.35211207  1
  O  O231  1  0.50678089  0.64659515  0.62785493  1
  O  O232  1  0.49532825  0.61128175  0.88265983  1
  O  O233  1  0.49500331  0.85472814  0.12164807  1
  O  O234  1  0.51599766  0.90818250  0.37809275  1
  O  O235  1  0.49510572  0.85181128  0.60573895  1
  O  O236  1  0.49056885  0.92524254  0.90039692  1
  O  O237  1  0.74962567  0.09472309  0.10831606  1
  O  O238  1  0.75012961  0.14386090  0.38161997  1
  O  O239  1  0.74649273  0.14334575  0.59874968  1
  O  O240  1  0.75737448  0.13929412  0.88514935  1
  O  O241  1  0.73785577  0.37202539  0.14643494  1
  O  O242  1  0.75944235  0.37699746  0.33161187  1
  O  O243  1  0.75506657  0.38524319  0.63592834  1
  O  O244  1  0.75783164  0.39367943  0.86375013  1
  O  O245  1  0.75972921  0.61876571  0.09935233  1
  O  O246  1  0.74829232  0.66471174  0.38481507  1
  O  O247  1  0.75782303  0.61157087  0.60423202  1
  O  O248  1  0.76139554  0.62153359  0.89422963  1
  O  O249  1  0.75274800  0.88741579  0.11454163  1
  O  O250  1  0.75198809  0.85393695  0.32840453  1
  O  O251  1  0.75875977  0.88034710  0.62400514  1
  O  O252  1  0.74973565  0.88049933  0.85029274  1
  O  O253  1  0.11735620  0.00130196  0.09197742  1
  O  O254  1  0.11937951  0.00017287  0.40758962  1
  O  O255  1  0.12042833  0.00125726  0.59722179  1
  O  O256  1  0.14898595  0.00500451  0.88355908  1
  O  O257  1  0.13440736  0.23678460  0.14911794  1
  O  O258  1  0.14384203  0.24254940  0.35165690  1
  O  O259  1  0.13548141  0.25343941  0.65764610  1
  O  O260  1  0.12522971  0.25114197  0.84663771  1
  O  O261  1  0.13426451  0.48443940  0.10872287  1
  O  O262  1  0.11633677  0.48716030  0.39433141  1
  O  O263  1  0.09313690  0.49585461  0.61233456  1
  O  O264  1  0.15531934  0.49568286  0.88537542  1
  O  O265  1  0.13815552  0.76434059  0.14305673  1
  O  O266  1  0.11416897  0.76507812  0.34540796  1
  O  O267  1  0.15904984  0.74746888  0.62634545  1
  O  O268  1  0.12686471  0.75286819  0.83538913  1
  O  O269  1  0.39516063  -0.00336773  0.09138169  1
  O  O270  1  0.37666552  0.00009146  0.40554365  1
  O  O271  1  0.38984648  0.00077724  0.61533616  1
  O  O272  1  0.34681380  0.00364144  0.88128850  1
  O  O273  1  0.39535668  0.25201341  0.12733514  1
  O  O274  1  0.38046765  0.24487443  0.35615381  1
  O  O275  1  0.37810855  0.24741131  0.64604747  1
  O  O276  1  0.39538908  0.25518282  0.87336313  1
  O  O277  1  0.34942278  0.49682370  0.14911669  1
  O  O278  1  0.32465411  0.52111030  0.36636388  1
  O  O279  1  0.40606316  0.50545966  0.63708458  1
  O  O280  1  0.35243149  0.50681886  0.87362561  1
  O  O281  1  0.35126456  0.76171022  0.13719346  1
  O  O282  1  0.40251153  0.75150591  0.38509411  1
  O  O283  1  0.36071444  0.73917770  0.60395874  1
  O  O284  1  0.42376058  0.76303281  0.88080215  1
  O  O285  1  0.60433334  -0.01529336  0.07642977  1
  O  O286  1  0.66798412  -0.00559148  0.38234809  1
  O  O287  1  0.62741395  0.00162343  0.59238873  1
  O  O288  1  0.64609117  0.00613892  0.90180417  1
  O  O289  1  0.61321274  0.26037867  0.15588538  1
  O  O290  1  0.60865841  0.24669515  0.35165230  1
  O  O291  1  0.61945769  0.24402839  0.62149077  1
  O  O292  1  0.63288819  0.26047273  0.86413744  1
  O  O293  1  0.63742665  0.50787707  0.10911996  1
  O  O294  1  0.64809801  0.50908529  0.40239490  1
  O  O295  1  0.61956364  0.50919723  0.59200655  1
  O  O296  1  0.63394467  0.49589925  0.91410016  1
  O  O297  1  0.65873005  0.74839892  0.15385319  1
  O  O298  1  0.60909465  0.75838037  0.34263373  1
  O  O299  1  0.65298592  0.74699806  0.64660860  1
  O  O300  1  0.59923739  0.76035251  0.84126537  1
  O  O301  1  0.89576654  -0.00257504  0.10261334  1
  O  O302  1  0.85755347  0.00291875  0.39707996  1
  O  O303  1  0.89581317  -0.00923765  0.60728664  1
  O  O304  1  0.89070123  -0.00701119  0.87889579  1
  O  O305  1  0.87040556  0.23791896  0.15531431  1
  O  O306  1  0.87500485  0.24743667  0.33567728  1
  O  O307  1  0.87049085  0.24659382  0.65345191  1
  O  O308  1  0.87780892  0.25622658  0.84477915  1
  O  O309  1  0.89532030  0.50965998  0.11345223  1
  O  O310  1  0.89650011  0.49074630  0.38127583  1
  O  O311  1  0.91132534  0.50518937  0.61339425  1
  O  O312  1  0.88753628  0.50693597  0.90368539  1
  O  O313  1  0.86138656  0.75662677  0.13876076  1
  O  O314  1  0.89356504  0.75819351  0.34983937  1
  O  O315  1  0.87412697  0.74674571  0.62134534  1
  O  O316  1  0.87243069  0.74998370  0.85186565  1
