# generated using pymatgen
data_Mg32Ti42(Bi17O64)3
_symmetry_space_group_name_H-M   'P 1'
_cell_length_a   15.93809895
_cell_length_b   15.93055591
_cell_length_c   15.94233665
_cell_angle_alpha   89.92581228
_cell_angle_beta   89.97651150
_cell_angle_gamma   89.98342005
_symmetry_Int_Tables_number   1
_chemical_formula_structural   Mg32Ti42(Bi17O64)3
_chemical_formula_sum   'Mg32 Ti42 Bi51 O192'
_cell_volume   4047.79963813
_cell_formula_units_Z   1
loop_
 _symmetry_equiv_pos_site_id
 _symmetry_equiv_pos_as_xyz
  1  'x, y, z'
loop_
 _atom_site_type_symbol
 _atom_site_label
 _atom_site_symmetry_multiplicity
 _atom_site_fract_x
 _atom_site_fract_y
 _atom_site_fract_z
 _atom_site_occupancy
  Mg  Mg0  1  0.36345685  0.11939633  0.63838972  1
  Mg  Mg1  1  0.36524393  0.86713612  0.12894564  1
  Mg  Mg2  1  0.62288713  0.37431654  0.87993445  1
  Mg  Mg3  1  0.87145629  0.62140918  0.11944052  1
  Mg  Mg4  1  0.86419761  0.37560263  0.12499521  1
  Mg  Mg5  1  0.62630258  0.62713907  0.62625821  1
  Mg  Mg6  1  0.62781140  0.62625803  0.87942285  1
  Mg  Mg7  1  0.62340255  0.12414223  0.12664538  1
  Mg  Mg8  1  0.12999155  0.11488803  0.13198783  1
  Mg  Mg9  1  0.87548232  0.11769679  0.12956552  1
  Mg  Mg10  1  0.86622224  0.86927618  0.37332870  1
  Mg  Mg11  1  0.87965346  0.61413027  0.62314058  1
  Mg  Mg12  1  0.12497394  0.62808941  0.37760797  1
  Mg  Mg13  1  0.36812098  0.88444055  0.38284730  1
  Mg  Mg14  1  0.12868075  0.38121351  0.12303912  1
  Mg  Mg15  1  0.36970415  0.86802784  0.87879104  1
  Mg  Mg16  1  0.37028771  0.38554444  0.88545991  1
  Mg  Mg17  1  0.87374196  0.86625349  0.12266672  1
  Mg  Mg18  1  0.12022105  0.62090884  0.86681653  1
  Mg  Mg19  1  0.48798927  -0.00032482  0.55821041  1
  Mg  Mg20  1  0.23177851  0.73565905  -0.05081205  1
  Mg  Mg21  1  0.21302686  0.01089723  0.72961775  1
  Mg  Mg22  1  0.26928129  0.73842755  0.32432567  1
  Mg  Mg23  1  0.06587991  0.47581608  0.27750758  1
  Mg  Mg24  1  0.21897226  0.71108727  0.73935526  1
  Mg  Mg25  1  0.02230440  0.43538255  0.45823962  1
  Mg  Mg26  1  0.00021076  0.24891612  0.68460720  1
  Mg  Mg27  1  0.76898940  0.71053921  0.74483350  1
  Mg  Mg28  1  0.49265856  0.50742066  -0.01295308  1
  Mg  Mg29  1  0.21118131  0.76563624  0.51520823  1
  Mg  Mg30  1  0.26788085  0.03959731  0.26030552  1
  Mg  Mg31  1  0.73555223  0.74642976  0.29533575  1
  Ti  Ti32  1  0.88425775  0.36937412  0.88164860  1
  Ti  Ti33  1  0.63201370  0.87553329  0.63064598  1
  Ti  Ti34  1  0.87002960  0.37638695  0.62634750  1
  Ti  Ti35  1  0.36665081  0.63973016  0.62324488  1
  Ti  Ti36  1  0.88707931  0.12308736  0.87330437  1
  Ti  Ti37  1  0.62777213  0.87088904  0.88733490  1
  Ti  Ti38  1  0.88543775  0.60753785  0.86999624  1
  Ti  Ti39  1  0.35774340  0.88288262  0.63540375  1
  Ti  Ti40  1  0.62010665  0.37456879  0.11778290  1
  Ti  Ti41  1  0.35747549  0.12200574  0.87238798  1
  Ti  Ti42  1  0.87098730  0.11696735  0.36625598  1
  Ti  Ti43  1  0.61760512  0.62786652  0.38851425  1
  Ti  Ti44  1  0.36547568  0.62910542  0.12746381  1
  Ti  Ti45  1  0.87395366  0.87825638  0.87621113  1
  Ti  Ti46  1  0.36964208  0.11623652  0.12607730  1
  Ti  Ti47  1  0.37742304  0.61838787  0.39665691  1
  Ti  Ti48  1  0.62320329  0.12695577  0.63036686  1
  Ti  Ti49  1  0.87125992  0.88396818  0.63117156  1
  Ti  Ti50  1  0.62249835  0.36579841  0.37692024  1
  Ti  Ti51  1  0.11633784  0.87276680  0.62476611  1
  Ti  Ti52  1  0.62681366  0.87222648  0.12907425  1
  Ti  Ti53  1  0.12484776  0.37248802  0.88481761  1
  Ti  Ti54  1  0.87183584  0.62555907  0.37227219  1
  Ti  Ti55  1  0.38150910  0.12735484  0.36989974  1
  Ti  Ti56  1  0.13271647  0.86426335  0.13514802  1
  Ti  Ti57  1  0.11866890  0.11205836  0.61948614  1
  Ti  Ti58  1  0.36514457  0.63353471  0.86052774  1
  Ti  Ti59  1  0.37607699  0.37918816  0.11788888  1
  Ti  Ti60  1  0.12972950  0.62216372  0.12975724  1
  Ti  Ti61  1  0.86459348  0.39207365  0.37190575  1
  Ti  Ti62  1  0.62360588  0.87300775  0.37710576  1
  Ti  Ti63  1  0.12196717  0.11073896  0.36745333  1
  Ti  Ti64  1  0.13127431  0.86662463  0.87151948  1
  Ti  Ti65  1  0.62269298  0.12879157  0.87640939  1
  Ti  Ti66  1  0.12324476  0.13427222  0.86952405  1
  Ti  Ti67  1  0.61701648  0.64048280  0.11960235  1
  Ti  Ti68  1  0.63563256  0.36741697  0.62596669  1
  Ti  Ti69  1  0.13762710  0.86346085  0.36525806  1
  Ti  Ti70  1  0.39006353  0.36732372  0.37699208  1
  Ti  Ti71  1  0.87538478  0.12065944  0.62732293  1
  Ti  Ti72  1  0.61667836  0.11867918  0.36889742  1
  Ti  Ti73  1  0.12100795  0.62354832  0.61749840  1
  Bi  Bi74  1  -0.01857118  -0.02406981  0.48380458  1
  Bi  Bi75  1  0.20660662  0.25619493  0.48691956  1
  Bi  Bi76  1  -0.00201822  0.73054185  0.49646464  1
  Bi  Bi77  1  0.48383586  -0.03328369  0.24590709  1
  Bi  Bi78  1  0.27129632  0.49638200  0.26100087  1
  Bi  Bi79  1  -0.02786252  0.72512286  0.24770566  1
  Bi  Bi80  1  0.73455391  0.53122201  0.25454051  1
  Bi  Bi81  1  0.73655109  0.50342862  0.00840087  1
  Bi  Bi82  1  -0.00309503  -0.02047564  0.24863394  1
  Bi  Bi83  1  0.73850032  0.48167219  0.76873671  1
  Bi  Bi84  1  0.51011310  0.50032498  0.24636892  1
  Bi  Bi85  1  0.48324544  -0.01129727  -0.00616699  1
  Bi  Bi86  1  0.22835588  0.27849675  0.27268436  1
  Bi  Bi87  1  0.25566634  -0.02503715  0.01064515  1
  Bi  Bi88  1  0.46900042  0.22955239  0.51811367  1
  Bi  Bi89  1  0.74148034  0.00293476  0.01131754  1
  Bi  Bi90  1  0.74257465  0.24664818  0.24569494  1
  Bi  Bi91  1  0.22434543  0.24727621  0.02434572  1
  Bi  Bi92  1  0.25679202  0.02410896  0.48216276  1
  Bi  Bi93  1  0.48527438  0.47462920  0.53885812  1
  Bi  Bi94  1  0.77171649  0.72913592  -0.01816971  1
  Bi  Bi95  1  0.47760781  0.79294307  0.50254450  1
  Bi  Bi96  1  0.76282451  -0.02650133  0.23670848  1
  Bi  Bi97  1  0.73638126  0.23522899  0.49073230  1
  Bi  Bi98  1  0.01339222  0.73402452  0.01520794  1
  Bi  Bi99  1  0.72689977  0.00141233  0.50412021  1
  Bi  Bi100  1  0.53717630  0.74143295  0.74762354  1
  Bi  Bi101  1  0.00197139  0.22579879  0.03226671  1
  Bi  Bi102  1  -0.02980186  0.74508220  0.75669632  1
  Bi  Bi103  1  0.23478971  0.50345834  -0.01382272  1
  Bi  Bi104  1  0.76279345  0.74343698  0.52886144  1
  Bi  Bi105  1  0.75426903  0.23314942  0.00810531  1
  Bi  Bi106  1  0.47568375  -0.01142164  0.76192819  1
  Bi  Bi107  1  -0.01682886  0.29214075  0.25114852  1
  Bi  Bi108  1  0.27434898  0.47376522  0.71074476  1
  Bi  Bi109  1  0.20279525  0.46481509  0.49623345  1
  Bi  Bi110  1  0.73691430  -0.00375891  0.76819096  1
  Bi  Bi111  1  0.47945044  0.72918908  -0.00240237  1
  Bi  Bi112  1  0.01468545  -0.00965233  0.76968137  1
  Bi  Bi113  1  0.50092164  0.24301202  0.21698086  1
  Bi  Bi114  1  0.01868029  -0.01634586  0.01577724  1
  Bi  Bi115  1  -0.02571926  0.23737899  0.48991602  1
  Bi  Bi116  1  -0.00609990  0.48718339  0.03736347  1
  Bi  Bi117  1  0.03222973  0.46302018  0.73666471  1
  Bi  Bi118  1  0.75048923  0.23982310  0.76773502  1
  Bi  Bi119  1  0.47189672  0.73799175  0.26163200  1
  Bi  Bi120  1  0.22350950  0.27566753  0.71805342  1
  Bi  Bi121  1  0.74020700  0.50307868  0.52517002  1
  Bi  Bi122  1  0.48250133  0.26153288  -0.02658722  1
  Bi  Bi123  1  0.45797029  0.28159039  0.73249118  1
  Bi  Bi124  1  0.50142724  0.51905656  0.76417249  1
  O  O125  1  0.13560853  0.14208208  -0.01220450  1
  O  O126  1  0.15133597  0.09473547  0.25575791  1
  O  O127  1  0.13571535  0.12137562  0.50151447  1
  O  O128  1  0.11130029  0.09445791  0.75117494  1
  O  O129  1  0.09924319  0.34854111  -0.00445685  1
  O  O130  1  0.16118985  0.39589449  0.24607432  1
  O  O131  1  0.11473395  0.36044417  0.49658836  1
  O  O132  1  0.14921572  0.39201655  0.75796999  1
  O  O133  1  0.13056800  0.66491061  -0.00734634  1
  O  O134  1  0.12039704  0.58916082  0.24039777  1
  O  O135  1  0.12704844  0.67009219  0.50189581  1
  O  O136  1  0.13836214  0.61349115  0.73593406  1
  O  O137  1  0.09613641  0.85617232  -0.01156261  1
  O  O138  1  0.14335766  0.89478689  0.24725203  1
  O  O139  1  0.11874897  0.85658317  0.50636147  1
  O  O140  1  0.13429085  0.90995790  0.75514167  1
  O  O141  1  0.37769661  0.09444699  0.00802247  1
  O  O142  1  0.35503138  0.14096475  0.25506635  1
  O  O143  1  0.38937282  0.11363146  0.49719147  1
  O  O144  1  0.39662376  0.13097692  0.76372798  1
  O  O145  1  0.41084543  0.40590315  0.00893206  1
  O  O146  1  0.34329801  0.37182516  0.25320985  1
  O  O147  1  0.40364058  0.37805228  0.49333828  1
  O  O148  1  0.35629414  0.36974967  0.76096883  1
  O  O149  1  0.40916925  0.60751518  0.01321801  1
  O  O150  1  0.35518266  0.66342515  0.24973400  1
  O  O151  1  0.40126724  0.61449245  0.50814451  1
  O  O152  1  0.33927040  0.66100221  0.75119960  1
  O  O153  1  0.37984408  0.90321785  0.00617460  1
  O  O154  1  0.38976519  0.86227732  0.25462042  1
  O  O155  1  0.39123991  0.90163859  0.51251899  1
  O  O156  1  0.39266965  0.87107108  0.75107013  1
  O  O157  1  0.65501629  0.12468308  -0.00482442  1
  O  O158  1  0.62792490  0.15670633  0.25520309  1
  O  O159  1  0.64457202  0.12081213  0.49330306  1
  O  O160  1  0.62586857  0.13667269  0.74613073  1
  O  O161  1  0.59678031  0.40703835  0.00779720  1
  O  O162  1  0.64054167  0.34759270  0.25621295  1
  O  O163  1  0.60607895  0.39971858  0.49871340  1
  O  O164  1  0.66270139  0.36366960  0.74348173  1
  O  O165  1  0.58798855  0.59972782  0.00550251  1
  O  O166  1  0.66804449  0.65144124  0.23252128  1
  O  O167  1  0.60837649  0.60694199  0.49685044  1
  O  O168  1  0.65168537  0.66097157  0.75275788  1
  O  O169  1  0.64366775  0.89357592  0.00413444  1
  O  O170  1  0.59345458  0.87856084  0.24785993  1
  O  O171  1  0.64433686  0.88561776  0.49311337  1
  O  O172  1  0.63537011  0.87839350  0.74990572  1
  O  O173  1  0.86285284  0.14059126  -0.00793136  1
  O  O174  1  0.87961584  0.08971736  0.25446950  1
  O  O175  1  0.86951383  0.14730696  0.49514235  1
  O  O176  1  0.89095296  0.12459347  0.74344683  1
  O  O177  1  0.90268943  0.35578097  -0.00764849  1
  O  O178  1  0.85550844  0.36439098  0.25406936  1
  O  O179  1  0.91244484  0.36729139  0.48651872  1
  O  O180  1  0.84036933  0.38023482  0.73980445  1
  O  O181  1  0.88541408  0.65068930  -0.01454613  1
  O  O182  1  0.88341367  0.61059756  0.25120273  1
  O  O183  1  0.87426849  0.65829921  0.49549523  1
  O  O184  1  0.85980123  0.62072223  0.75155565  1
  O  O185  1  0.87629080  0.85768105  -0.01069509  1
  O  O186  1  0.88420621  0.90304399  0.25024483  1
  O  O187  1  0.89140958  0.86192088  0.50323341  1
  O  O188  1  0.86579981  0.90801207  0.74483246  1
  O  O189  1  0.00285844  0.10239290  0.10703647  1
  O  O190  1  0.00723337  0.09513883  0.38130050  1
  O  O191  1  -0.00126658  0.13927659  0.61189181  1
  O  O192  1  0.00190159  0.14753757  0.88079617  1
  O  O193  1  0.00564443  0.41339518  0.15562626  1
  O  O194  1  -0.01470275  0.40411623  0.34247853  1
  O  O195  1  -0.01035963  0.37128020  0.65176727  1
  O  O196  1  0.00273288  0.36951256  0.83811641  1
  O  O197  1  0.00674239  0.61226880  0.10479085  1
  O  O198  1  -0.00825363  0.64070258  0.38383629  1
  O  O199  1  0.00346003  0.65328029  0.62021585  1
  O  O200  1  -0.00345707  0.65228028  0.85988587  1
  O  O201  1  0.00550993  0.89508325  0.13267081  1
  O  O202  1  0.01287682  0.89173329  0.36629721  1
  O  O203  1  0.00052468  0.85369681  0.64252719  1
  O  O204  1  -0.00539072  0.85518435  0.84623969  1
  O  O205  1  0.25497373  0.15194412  0.11803148  1
  O  O206  1  0.25671784  0.13950104  0.39702572  1
  O  O207  1  0.23892603  0.10099367  0.64163625  1
  O  O208  1  0.24733646  0.09540227  0.85319965  1
  O  O209  1  0.26018538  0.37495057  0.09702110  1
  O  O210  1  0.26301243  0.34721428  0.39229250  1
  O  O211  1  0.24838921  0.38084863  0.61935870  1
  O  O212  1  0.24429720  0.38740499  0.90623623  1
  O  O213  1  0.25247341  0.63115124  0.11162489  1
  O  O214  1  0.26209085  0.63036013  0.38805049  1
  O  O215  1  0.25525121  0.62112934  0.60889664  1
  O  O216  1  0.25498014  0.61486693  0.89221947  1
  O  O217  1  0.24211422  0.85985053  0.09486234  1
  O  O218  1  0.25039855  0.83777653  0.40388779  1
  O  O219  1  0.24985814  0.91217508  0.63386639  1
  O  O220  1  0.24329143  0.88003356  0.90380540  1
  O  O221  1  0.49134491  0.11634361  0.14556290  1
  O  O222  1  0.50198861  0.10629447  0.36479195  1
  O  O223  1  0.50894042  0.12252457  0.60998711  1
  O  O224  1  0.51114021  0.14479228  0.89561905  1
  O  O225  1  0.49874024  0.38591563  0.16053650  1
  O  O226  1  0.50507508  0.38543225  0.35156646  1
  O  O227  1  0.51528396  0.38459941  0.64668016  1
  O  O228  1  0.49786168  0.34765460  0.86432727  1
  O  O229  1  0.50650615  0.62093469  0.16298805  1
  O  O230  1  0.50098552  0.62017485  0.35095877  1
  O  O231  1  0.50064550  0.64075683  0.66151922  1
  O  O232  1  0.49767125  0.64570045  0.84250939  1
  O  O233  1  0.50217839  0.91316324  0.11916915  1
  O  O234  1  0.50401439  0.88681581  0.39036584  1
  O  O235  1  0.51479680  0.87999245  0.61597438  1
  O  O236  1  0.51033692  0.87561000  0.88963483  1
  O  O237  1  0.75106985  0.16302678  0.12925238  1
  O  O238  1  0.75641424  0.15001104  0.36605878  1
  O  O239  1  0.75497977  0.12145164  0.62468001  1
  O  O240  1  0.75983817  0.11195415  0.85105121  1
  O  O241  1  0.73749958  0.35567460  0.10509765  1
  O  O242  1  0.74938923  0.35846104  0.39562663  1
  O  O243  1  0.75213516  0.36609365  0.58466246  1
  O  O244  1  0.76165027  0.40701318  0.89075704  1
  O  O245  1  0.74012118  0.63237977  0.08283651  1
  O  O246  1  0.74381287  0.63640241  0.37571205  1
  O  O247  1  0.75064284  0.62716208  0.60022673  1
  O  O248  1  0.75486722  0.60962761  0.90199623  1
  O  O249  1  0.73804386  0.85119174  0.16231627  1
  O  O250  1  0.74039401  0.86367359  0.34643149  1
  O  O251  1  0.75432453  0.90148767  0.61393850  1
  O  O252  1  0.75333864  0.90748002  0.87403721  1
  O  O253  1  0.13450292  -0.01084953  0.09283009  1
  O  O254  1  0.15902907  -0.00685135  0.38979749  1
  O  O255  1  0.09877394  -0.00544187  0.61599747  1
  O  O256  1  0.09549643  -0.00320920  0.88874108  1
  O  O257  1  0.11637924  0.24918223  0.12634190  1
  O  O258  1  0.12464078  0.23473903  0.36979156  1
  O  O259  1  0.11923629  0.23602310  0.64423766  1
  O  O260  1  0.14563932  0.24825959  0.84794572  1
  O  O261  1  0.13459885  0.50727410  0.08636375  1
  O  O262  1  0.11227349  0.50460813  0.39867241  1
  O  O263  1  0.10956617  0.51208225  0.59200844  1
  O  O264  1  0.11836016  0.49484094  0.90102045  1
  O  O265  1  0.10275722  0.74787378  0.13777151  1
  O  O266  1  0.13368075  0.75131850  0.33807739  1
  O  O267  1  0.16473601  0.76400915  0.64019308  1
  O  O268  1  0.15837277  0.75447787  0.84333834  1
  O  O269  1  0.33848418  0.00598998  0.15625823  1
  O  O270  1  0.34248295  0.00700832  0.36118823  1
  O  O271  1  0.39747752  -0.00081522  0.64665234  1
  O  O272  1  0.39505077  0.00186959  0.87126667  1
  O  O273  1  0.39589901  0.25987928  0.11481196  1
  O  O274  1  0.40365789  0.24815805  0.38141863  1
  O  O275  1  0.37920943  0.24395093  0.62072723  1
  O  O276  1  0.36322753  0.23859461  0.90811259  1
  O  O277  1  0.37164313  0.50760939  0.15921226  1
  O  O278  1  0.37204212  0.49871012  0.36479696  1
  O  O279  1  0.39052922  0.51826505  0.64766065  1
  O  O280  1  0.40515670  0.51447429  0.86732242  1
  O  O281  1  0.40186217  0.74606788  0.11065718  1
  O  O282  1  0.39298265  0.74511054  0.38785060  1
  O  O283  1  0.36707747  0.76155348  0.60033898  1
  O  O284  1  0.35964165  0.74317749  0.91241234  1
  O  O285  1  0.65792338  -0.00078553  0.12744161  1
  O  O286  1  0.64655636  0.00576851  0.36956603  1
  O  O287  1  0.62221082  0.00527169  0.61157036  1
  O  O288  1  0.62230844  0.00894728  0.86187967  1
  O  O289  1  0.59308214  0.25626859  0.11260837  1
  O  O290  1  0.61522151  0.25271664  0.40323087  1
  O  O291  1  0.62920261  0.24998639  0.60659430  1
  O  O292  1  0.66061700  0.24933825  0.87685970  1
  O  O293  1  0.63321995  0.49864173  0.15803944  1
  O  O294  1  0.63269809  0.50714306  0.34526135  1
  O  O295  1  0.65096512  0.49540261  0.63768268  1
  O  O296  1  0.61480770  0.50056911  0.84804477  1
  O  O297  1  0.60008967  0.75527334  0.10265707  1
  O  O298  1  0.61869609  0.75042161  0.37563805  1
  O  O299  1  0.63951033  0.76020255  0.61355131  1
  O  O300  1  0.63976383  0.75723967  0.89530774  1
  O  O301  1  0.83753694  -0.00709192  0.11280257  1
  O  O302  1  0.86669402  0.00108392  0.40542234  1
  O  O303  1  0.89057522  0.00381777  0.60082658  1
  O  O304  1  0.89956524  0.00462141  0.88078629  1
  O  O305  1  0.90751059  0.25047825  0.13744703  1
  O  O306  1  0.90663155  0.23878002  0.36122151  1
  O  O307  1  0.88600275  0.25243022  0.62042392  1
  O  O308  1  0.85477067  0.25467112  0.86163557  1
  O  O309  1  0.85679284  0.49839990  0.08751271  1
  O  O310  1  0.84859581  0.50468069  0.38590918  1
  O  O311  1  0.86174670  0.49244286  0.60169018  1
  O  O312  1  0.90360212  0.49818904  0.87798616  1
  O  O313  1  0.89632965  0.74461552  0.13572928  1
  O  O314  1  0.86369178  0.74698052  0.33773303  1
  O  O315  1  0.84145503  0.76170197  0.64551975  1
  O  O316  1  0.84599621  0.76206648  0.84095254  1
