# generated using pymatgen
data_Mg32Ti42(Bi17O64)3
_symmetry_space_group_name_H-M   'P 1'
_cell_length_a   15.93347661
_cell_length_b   16.00402380
_cell_length_c   15.92985083
_cell_angle_alpha   89.87178870
_cell_angle_beta   89.92119227
_cell_angle_gamma   89.74757445
_symmetry_Int_Tables_number   1
_chemical_formula_structural   Mg32Ti42(Bi17O64)3
_chemical_formula_sum   'Mg32 Ti42 Bi51 O192'
_cell_volume   4062.05442155
_cell_formula_units_Z   1
loop_
 _symmetry_equiv_pos_site_id
 _symmetry_equiv_pos_as_xyz
  1  'x, y, z'
loop_
 _atom_site_type_symbol
 _atom_site_label
 _atom_site_symmetry_multiplicity
 _atom_site_fract_x
 _atom_site_fract_y
 _atom_site_fract_z
 _atom_site_occupancy
  Mg  Mg0  1  0.62023449  0.11080839  0.87680311  1
  Mg  Mg1  1  0.87768880  0.62385580  0.37242690  1
  Mg  Mg2  1  0.87690977  0.62869881  0.62377266  1
  Mg  Mg3  1  0.37166715  0.36851423  0.13453102  1
  Mg  Mg4  1  0.13139965  0.62688814  0.36640218  1
  Mg  Mg5  1  0.86311856  0.88290840  0.87044513  1
  Mg  Mg6  1  0.39146065  0.87281010  0.37692674  1
  Mg  Mg7  1  0.37047654  0.37370974  0.62239288  1
  Mg  Mg8  1  0.87015555  0.87153101  0.36688564  1
  Mg  Mg9  1  0.12973553  0.62951475  0.61844038  1
  Mg  Mg10  1  0.38210324  0.86978899  0.62347066  1
  Mg  Mg11  1  0.12300245  0.10545398  0.36697610  1
  Mg  Mg12  1  0.63038847  0.13000112  0.13598734  1
  Mg  Mg13  1  0.39224935  0.12306862  0.37738821  1
  Mg  Mg14  1  0.87479994  0.87484366  0.12888098  1
  Mg  Mg15  1  0.87434658  0.12312739  0.37571613  1
  Mg  Mg16  1  0.12782893  0.62814942  0.88729706  1
  Mg  Mg17  1  0.87371657  0.62441465  0.87363669  1
  Mg  Mg18  1  0.37414872  0.12103204  0.62817876  1
  Mg  Mg19  1  0.74101544  -0.01805503  0.42391188  1
  Mg  Mg20  1  -0.04934654  0.75482489  0.24518888  1
  Mg  Mg21  1  0.30823621  0.81253370  0.22320543  1
  Mg  Mg22  1  0.68529116  -0.02175669  0.21917474  1
  Mg  Mg23  1  0.47574672  0.70445826  0.23978876  1
  Mg  Mg24  1  0.78004963  0.52665042  0.49762246  1
  Mg  Mg25  1  0.50504170  -0.07362099  0.21351518  1
  Mg  Mg26  1  0.76810223  0.24658714  0.28082575  1
  Mg  Mg27  1  0.23390506  0.44118162  0.24709903  1
  Mg  Mg28  1  0.55237317  0.26578439  0.20494761  1
  Mg  Mg29  1  0.54188537  0.05563567  0.71584592  1
  Mg  Mg30  1  0.73532789  0.20469885  -0.02757410  1
  Mg  Mg31  1  0.47441053  0.44108564  0.00937885  1
  Ti  Ti32  1  0.36977277  0.37610985  0.87709527  1
  Ti  Ti33  1  0.39223705  0.13641731  0.13956939  1
  Ti  Ti34  1  0.36690944  0.62813140  0.36591055  1
  Ti  Ti35  1  0.11635785  0.11962108  0.11679879  1
  Ti  Ti36  1  0.61175628  0.62129055  0.87209453  1
  Ti  Ti37  1  0.37535445  0.35863160  0.37651512  1
  Ti  Ti38  1  0.62772902  0.37037996  0.37606515  1
  Ti  Ti39  1  0.86839445  0.38053112  0.12357968  1
  Ti  Ti40  1  0.87079208  0.37535832  0.86842741  1
  Ti  Ti41  1  0.61838478  0.89154325  0.86060051  1
  Ti  Ti42  1  0.87628594  0.36957855  0.60969722  1
  Ti  Ti43  1  0.62106223  0.86494844  0.62675746  1
  Ti  Ti44  1  0.38541279  0.88490056  0.87031462  1
  Ti  Ti45  1  0.85116827  0.12255287  0.13264565  1
  Ti  Ti46  1  0.88751229  0.37475744  0.37285013  1
  Ti  Ti47  1  0.12881660  0.12019565  0.63661227  1
  Ti  Ti48  1  0.12206480  0.63562971  0.12682413  1
  Ti  Ti49  1  0.63035186  0.13014537  0.35741023  1
  Ti  Ti50  1  0.12263221  0.88204383  0.87574706  1
  Ti  Ti51  1  0.87738990  0.12357049  0.62860152  1
  Ti  Ti52  1  0.63060785  0.38528202  0.60476344  1
  Ti  Ti53  1  0.11731826  0.37238218  0.87580342  1
  Ti  Ti54  1  0.36625432  0.63173326  0.62186925  1
  Ti  Ti55  1  0.62856277  0.62213669  0.36051769  1
  Ti  Ti56  1  0.62300859  0.86289395  0.38000858  1
  Ti  Ti57  1  0.63457201  0.38869796  0.11505747  1
  Ti  Ti58  1  0.38543167  0.12109613  0.87482281  1
  Ti  Ti59  1  0.12113268  0.36666462  0.37053308  1
  Ti  Ti60  1  0.12809897  0.86381423  0.61895609  1
  Ti  Ti61  1  0.11414522  0.36897516  0.12271456  1
  Ti  Ti62  1  0.13262522  0.13295427  0.87294665  1
  Ti  Ti63  1  0.61716311  0.38011228  0.87120342  1
  Ti  Ti64  1  0.37537104  0.61275669  0.89449302  1
  Ti  Ti65  1  0.61393529  0.62157185  0.12288055  1
  Ti  Ti66  1  0.36787636  0.61033464  0.12975073  1
  Ti  Ti67  1  0.12683126  0.87137639  0.35036360  1
  Ti  Ti68  1  0.86329714  0.62579669  0.12907490  1
  Ti  Ti69  1  0.12759690  0.37511656  0.62089567  1
  Ti  Ti70  1  0.86871085  0.12602539  0.86439276  1
  Ti  Ti71  1  0.11355529  0.87971772  0.12776443  1
  Ti  Ti72  1  0.63513304  0.62707340  0.61686157  1
  Ti  Ti73  1  0.87181987  0.86928846  0.62453190  1
  Bi  Bi74  1  -0.01350104  0.52810750  -0.00403456  1
  Bi  Bi75  1  0.27026261  -0.01807368  0.73514616  1
  Bi  Bi76  1  0.47714225  0.73380791  0.76239582  1
  Bi  Bi77  1  0.72770070  0.73249878  -0.00527866  1
  Bi  Bi78  1  0.28989882  0.00108923  0.26496884  1
  Bi  Bi79  1  0.00729012  0.53136792  0.24650295  1
  Bi  Bi80  1  0.22637605  0.22173901  0.23780256  1
  Bi  Bi81  1  0.27476980  -0.00484280  0.49910377  1
  Bi  Bi82  1  -0.00633804  0.76428996  0.47407146  1
  Bi  Bi83  1  0.26317242  0.26101431  0.01263791  1
  Bi  Bi84  1  0.25187095  0.22149194  0.47291001  1
  Bi  Bi85  1  0.25800738  0.25516525  0.73927762  1
  Bi  Bi86  1  0.72747298  0.74835085  0.76490466  1
  Bi  Bi87  1  0.45957291  0.76796470  0.03338705  1
  Bi  Bi88  1  -0.02891146  0.75009585  0.76071473  1
  Bi  Bi89  1  0.24134031  0.75592087  0.77715667  1
  Bi  Bi90  1  0.24141287  0.76708893  0.46846928  1
  Bi  Bi91  1  0.01198610  0.52857739  0.74141416  1
  Bi  Bi92  1  -0.03442138  0.76893122  -0.00121912  1
  Bi  Bi93  1  0.52793709  0.20456470  0.51697479  1
  Bi  Bi94  1  0.52066197  -0.01214349  0.03262117  1
  Bi  Bi95  1  0.00015779  0.00665625  -0.02348875  1
  Bi  Bi96  1  0.23997658  0.48763702  0.46989618  1
  Bi  Bi97  1  0.48540538  0.49652942  0.72030760  1
  Bi  Bi98  1  0.53728045  0.23614111  -0.00002263  1
  Bi  Bi99  1  0.27784392  0.01944945  0.02058400  1
  Bi  Bi100  1  0.74698584  0.50509136  -0.03449484  1
  Bi  Bi101  1  0.01709940  0.21126072  0.49769447  1
  Bi  Bi102  1  0.74456720  0.21250529  0.50459861  1
  Bi  Bi103  1  -0.02235242  0.23531375  0.23452890  1
  Bi  Bi104  1  0.47503242  0.48493903  0.49162404  1
  Bi  Bi105  1  0.00240141  0.26511447  0.73205273  1
  Bi  Bi106  1  0.22859456  0.52348724  0.75694693  1
  Bi  Bi107  1  0.75736543  -0.02981452  0.02220775  1
  Bi  Bi108  1  0.75063970  0.72918220  0.47930412  1
  Bi  Bi109  1  0.76228990  0.49568317  0.71946298  1
  Bi  Bi110  1  0.76170766  0.48266818  0.26755649  1
  Bi  Bi111  1  -0.03462430  -0.00767857  0.48698010  1
  Bi  Bi112  1  0.23038772  0.49381961  0.03303513  1
  Bi  Bi113  1  0.48195722  0.24940376  0.75173821  1
  Bi  Bi114  1  0.49012642  0.72785779  0.48721123  1
  Bi  Bi115  1  0.01626249  0.51516473  0.49941479  1
  Bi  Bi116  1  0.00995846  -0.01839820  0.73048051  1
  Bi  Bi117  1  0.71088390  0.77791960  0.21957826  1
  Bi  Bi118  1  -0.03010443  0.24689872  -0.01026265  1
  Bi  Bi119  1  -0.02084516  -0.00485570  0.23699423  1
  Bi  Bi120  1  0.70750686  0.23860009  0.73082636  1
  Bi  Bi121  1  0.49811591  0.46633266  0.24301024  1
  Bi  Bi122  1  0.23747700  0.78230984  0.01655755  1
  Bi  Bi123  1  0.53163110  -0.00759877  0.50531939  1
  Bi  Bi124  1  0.74500516  -0.00371063  0.72363883  1
  O  O125  1  0.14012217  0.10112082  0.00126255  1
  O  O126  1  0.10810838  0.14351249  0.24332715  1
  O  O127  1  0.13969403  0.13151213  0.51194205  1
  O  O128  1  0.09640020  0.14549277  0.75646039  1
  O  O129  1  0.13049682  0.38952186  0.00475873  1
  O  O130  1  0.13619147  0.35008277  0.25302475  1
  O  O131  1  0.12602955  0.39699053  0.50230088  1
  O  O132  1  0.11791830  0.34695114  0.75682033  1
  O  O133  1  0.13649940  0.59451161  0.00973382  1
  O  O134  1  0.10156682  0.63259355  0.24379012  1
  O  O135  1  0.13610614  0.58655957  0.49551036  1
  O  O136  1  0.12072478  0.61992141  0.75293493  1
  O  O137  1  0.15200253  0.89009213  -0.00083109  1
  O  O138  1  0.08645601  0.85346486  0.24288716  1
  O  O139  1  0.15936953  0.87993093  0.50688776  1
  O  O140  1  0.09315661  0.87004736  0.75803076  1
  O  O141  1  0.34049607  0.14323728  -0.00342305  1
  O  O142  1  0.38265738  0.10826222  0.24973638  1
  O  O143  1  0.34647357  0.12640857  0.50278056  1
  O  O144  1  0.42098274  0.11417645  0.76042058  1
  O  O145  1  0.37386140  0.35555051  -0.00095439  1
  O  O146  1  0.36253417  0.39807445  0.26075095  1
  O  O147  1  0.37883765  0.38115206  0.49723862  1
  O  O148  1  0.39134505  0.39941276  0.75612343  1
  O  O149  1  0.36089239  0.64627076  0.00467917  1
  O  O150  1  0.39604150  0.60620648  0.25126352  1
  O  O151  1  0.36987592  0.65180263  0.50259454  1
  O  O152  1  0.40217204  0.61214975  0.75112855  1
  O  O153  1  0.35349115  0.85865274  -0.00958084  1
  O  O154  1  0.38990088  0.90115704  0.25225998  1
  O  O155  1  0.34318381  0.86387621  0.49722527  1
  O  O156  1  0.38836565  0.90166836  0.75423646  1
  O  O157  1  0.63482384  0.12999509  0.00598007  1
  O  O158  1  0.63456776  0.18399854  0.25403758  1
  O  O159  1  0.64361207  0.12120829  0.49350910  1
  O  O160  1  0.59896055  0.15841734  0.76029767  1
  O  O161  1  0.61310476  0.42097870  0.00765665  1
  O  O162  1  0.60317090  0.36835378  0.25432293  1
  O  O163  1  0.64588589  0.41011749  0.49402530  1
  O  O164  1  0.61495271  0.36058108  0.75845503  1
  O  O165  1  0.63807070  0.61903476  0.00393660  1
  O  O166  1  0.59953460  0.66431540  0.25378212  1
  O  O167  1  0.67722465  0.60795034  0.50516569  1
  O  O168  1  0.61195744  0.65036765  0.75577891  1
  O  O169  1  0.64149268  0.91222131  -0.02306129  1
  O  O170  1  0.60993529  0.86776364  0.25857485  1
  O  O171  1  0.65281347  0.91751779  0.49201753  1
  O  O172  1  0.60855262  0.83483976  0.74020008  1
  O  O173  1  0.84508577  0.15890971  0.01896438  1
  O  O174  1  0.90110286  0.11524309  0.25024109  1
  O  O175  1  0.86441665  0.13609180  0.50927219  1
  O  O176  1  0.89585721  0.12055212  0.75465355  1
  O  O177  1  0.86744324  0.35348028  0.01245604  1
  O  O178  1  0.88149434  0.40072718  0.25409909  1
  O  O179  1  0.87174652  0.35800620  0.49622690  1
  O  O180  1  0.88148167  0.38704692  0.75695797  1
  O  O181  1  0.87008627  0.62435829  0.00698738  1
  O  O182  1  0.90171917  0.62273416  0.24637943  1
  O  O183  1  0.85259653  0.63477523  0.49892095  1
  O  O184  1  0.90546799  0.61813472  0.75041185  1
  O  O185  1  0.84268828  0.86003878  -0.00111252  1
  O  O186  1  0.90768496  0.87766850  0.24788733  1
  O  O187  1  0.87410020  0.86259051  0.50742245  1
  O  O188  1  0.90817747  0.88331162  0.74954087  1
  O  O189  1  0.00015039  0.15431856  0.11087502  1
  O  O190  1  0.00220370  0.10553636  0.40306527  1
  O  O191  1  0.00093499  0.11213954  0.60932491  1
  O  O192  1  -0.00883522  0.13109623  0.90839027  1
  O  O193  1  -0.00188206  0.34924152  0.12923818  1
  O  O194  1  0.00414629  0.39435667  0.37555668  1
  O  O195  1  -0.00584157  0.38561550  0.63109670  1
  O  O196  1  0.00023422  0.36916063  0.88811457  1
  O  O197  1  0.00530394  0.61230447  0.11280755  1
  O  O198  1  0.00413497  0.58757656  0.38242591  1
  O  O199  1  0.00359246  0.59671040  0.61428634  1
  O  O200  1  0.00237239  0.62086298  0.89460091  1
  O  O201  1  0.00028033  0.86599972  0.08811525  1
  O  O202  1  0.01153086  0.88778124  0.40444939  1
  O  O203  1  0.00734870  0.89876640  0.61312388  1
  O  O204  1  0.00071364  0.87199218  0.90838884  1
  O  O205  1  0.24132155  0.10190057  0.14392991  1
  O  O206  1  0.24519488  0.14077550  0.36176461  1
  O  O207  1  0.24288376  0.14301348  0.65691855  1
  O  O208  1  0.24496044  0.12441631  0.85069826  1
  O  O209  1  0.24713380  0.38678705  0.12857904  1
  O  O210  1  0.25115423  0.35963335  0.38628613  1
  O  O211  1  0.24232953  0.35103571  0.63216785  1
  O  O212  1  0.25467333  0.37151862  0.87019126  1
  O  O213  1  0.25181717  0.60088200  0.13527364  1
  O  O214  1  0.25813879  0.64989568  0.36554158  1
  O  O215  1  0.25564566  0.62797363  0.64573621  1
  O  O216  1  0.25985277  0.62012447  0.85907318  1
  O  O217  1  0.23303936  0.86624777  0.13871025  1
  O  O218  1  0.24692258  0.83669325  0.34253557  1
  O  O219  1  0.24210131  0.86538385  0.66608297  1
  O  O220  1  0.24325000  0.88424348  0.84606262  1
  O  O221  1  0.50087246  0.17380616  0.13361223  1
  O  O222  1  0.51621874  0.11760463  0.39661033  1
  O  O223  1  0.49894771  0.10616200  0.60764815  1
  O  O224  1  0.49387218  0.12826790  0.91337307  1
  O  O225  1  0.50018182  0.36902230  0.13295939  1
  O  O226  1  0.49948870  0.39713213  0.37821735  1
  O  O227  1  0.51176040  0.39395460  0.61588077  1
  O  O228  1  0.50125318  0.37369886  0.89401738  1
  O  O229  1  0.50215210  0.64377120  0.12056249  1
  O  O230  1  0.51657046  0.61597028  0.41003958  1
  O  O231  1  0.51862959  0.62075498  0.60497731  1
  O  O232  1  0.49632923  0.64500825  0.88769958  1
  O  O233  1  0.50105262  0.87483039  0.10074795  1
  O  O234  1  0.51223268  0.89808476  0.39997344  1
  O  O235  1  0.51041450  0.87771858  0.59345539  1
  O  O236  1  0.49872162  0.86491136  0.88751262  1
  O  O237  1  0.74697643  0.08133811  0.15231645  1
  O  O238  1  0.75262765  0.15912716  0.37285827  1
  O  O239  1  0.75769452  0.13839380  0.64535004  1
  O  O240  1  0.75084300  0.13141585  0.86426842  1
  O  O241  1  0.74926484  0.40003850  0.13615062  1
  O  O242  1  0.74384834  0.36000491  0.34031228  1
  O  O243  1  0.75120076  0.36656575  0.64395591  1
  O  O244  1  0.74914733  0.39637152  0.87643408  1
  O  O245  1  0.75033674  0.62086026  0.14431492  1
  O  O246  1  0.74551288  0.65502242  0.35798618  1
  O  O247  1  0.75103126  0.62937596  0.66468173  1
  O  O248  1  0.74434590  0.61866329  0.87659763  1
  O  O249  1  0.74873917  0.89752931  0.14534324  1
  O  O250  1  0.74411552  0.86619933  0.36218256  1
  O  O251  1  0.75568773  0.87127894  0.65158592  1
  O  O252  1  0.73817060  0.88996967  0.83269961  1
  O  O253  1  0.09560293  -0.00244789  0.13618567  1
  O  O254  1  0.15002424  -0.01682095  0.35120193  1
  O  O255  1  0.13796038  0.00503533  0.65037466  1
  O  O256  1  0.09874183  0.00275341  0.86764462  1
  O  O257  1  0.14942527  0.24517615  0.11218699  1
  O  O258  1  0.11289624  0.25382257  0.39696586  1
  O  O259  1  0.09467165  0.25164037  0.62174379  1
  O  O260  1  0.12548285  0.24596350  0.90132072  1
  O  O261  1  0.12579864  0.48488643  0.14498416  1
  O  O262  1  0.16697346  0.48913533  0.35028160  1
  O  O263  1  0.13557237  0.48759260  0.65207363  1
  O  O264  1  0.13076717  0.48865435  0.85683399  1
  O  O265  1  0.12066438  0.74669345  0.10273057  1
  O  O266  1  0.11027921  0.75221245  0.39781278  1
  O  O267  1  0.11473162  0.75322805  0.61306000  1
  O  O268  1  0.14568468  0.75812213  0.88795496  1
  O  O269  1  0.39517830  0.02343550  0.09828269  1
  O  O270  1  0.35675161  -0.00126721  0.38726855  1
  O  O271  1  0.34935328  -0.00490891  0.61607877  1
  O  O272  1  0.36858961  0.00426482  0.89806182  1
  O  O273  1  0.33991828  0.24404409  0.13255841  1
  O  O274  1  0.38449970  0.24941170  0.37786402  1
  O  O275  1  0.37848262  0.24961923  0.65674196  1
  O  O276  1  0.37696673  0.25079138  0.85158320  1
  O  O277  1  0.39993285  0.50238063  0.10292177  1
  O  O278  1  0.36921365  0.51410663  0.39860709  1
  O  O279  1  0.38698180  0.50902823  0.61763711  1
  O  O280  1  0.38646604  0.49974047  0.90784938  1
  O  O281  1  0.38069556  0.74015640  0.15095694  1
  O  O282  1  0.41892075  0.74281527  0.35453513  1
  O  O283  1  0.39333158  0.74495828  0.64654066  1
  O  O284  1  0.36370818  0.75780915  0.84889038  1
  O  O285  1  0.58157753  0.01255235  0.15377132  1
  O  O286  1  0.65849757  0.02011347  0.33627797  1
  O  O287  1  0.62870969  -0.01557734  0.65098622  1
  O  O288  1  0.59882666  -0.00187955  0.82379183  1
  O  O289  1  0.63728354  0.27157453  0.10256124  1
  O  O290  1  0.61752666  0.26316763  0.40801736  1
  O  O291  1  0.62825023  0.26314340  0.61017593  1
  O  O292  1  0.64288071  0.26892832  0.91022761  1
  O  O293  1  0.61189473  0.50912354  0.15435359  1
  O  O294  1  0.63823892  0.50912007  0.34642413  1
  O  O295  1  0.64330300  0.50235453  0.64651436  1
  O  O296  1  0.62108956  0.50723702  0.86453132  1
  O  O297  1  0.64241019  0.74747299  0.10573938  1
  O  O298  1  0.61578776  0.75195269  0.40732534  1
  O  O299  1  0.64136738  0.74852210  0.59437267  1
  O  O300  1  0.64365439  0.75387112  0.88817992  1
  O  O301  1  0.89937879  0.00897016  0.11962260  1
  O  O302  1  0.86070516  -0.00255116  0.39538238  1
  O  O303  1  0.86382406  0.00203104  0.63107783  1
  O  O304  1  0.87781146  0.00969365  0.90137859  1
  O  O305  1  0.84763409  0.24766476  0.17287435  1
  O  O306  1  0.88690986  0.25861893  0.35288358  1
  O  O307  1  0.89022819  0.25094604  0.63551449  1
  O  O308  1  0.87598517  0.25186559  0.87640306  1
  O  O309  1  0.88725854  0.49603113  0.11457455  1
  O  O310  1  0.83771528  0.49393432  0.38925595  1
  O  O311  1  0.84462801  0.49395322  0.60574370  1
  O  O312  1  0.87678879  0.49393726  0.90052718  1
  O  O313  1  0.88277080  0.74443382  0.13499209  1
  O  O314  1  0.91334590  0.74870059  0.36587546  1
  O  O315  1  0.89339229  0.75535040  0.64375414  1
  O  O316  1  0.87090725  0.75299919  0.85809208  1
