# generated using pymatgen
data_Mg32Ti42(Bi17O64)3
_symmetry_space_group_name_H-M   'P 1'
_cell_length_a   15.95038208
_cell_length_b   15.96787619
_cell_length_c   15.98403312
_cell_angle_alpha   90.08698387
_cell_angle_beta   89.74048924
_cell_angle_gamma   89.94631734
_symmetry_Int_Tables_number   1
_chemical_formula_structural   Mg32Ti42(Bi17O64)3
_chemical_formula_sum   'Mg32 Ti42 Bi51 O192'
_cell_volume   4070.98469384
_cell_formula_units_Z   1
loop_
 _symmetry_equiv_pos_site_id
 _symmetry_equiv_pos_as_xyz
  1  'x, y, z'
loop_
 _atom_site_type_symbol
 _atom_site_label
 _atom_site_symmetry_multiplicity
 _atom_site_fract_x
 _atom_site_fract_y
 _atom_site_fract_z
 _atom_site_occupancy
  Mg  Mg0  1  0.62617857  0.12463195  0.88111056  1
  Mg  Mg1  1  0.37532726  0.87714296  0.62941907  1
  Mg  Mg2  1  0.12760401  0.38115459  0.60769520  1
  Mg  Mg3  1  0.61424730  0.12690900  0.62489947  1
  Mg  Mg4  1  0.12632105  0.87899782  0.36127603  1
  Mg  Mg5  1  0.86981488  0.87209626  0.37420774  1
  Mg  Mg6  1  0.88032936  0.87721975  0.87510342  1
  Mg  Mg7  1  0.62239439  0.38828816  0.12166985  1
  Mg  Mg8  1  0.87546527  0.13490197  0.62593815  1
  Mg  Mg9  1  0.61681015  0.87330839  0.88018173  1
  Mg  Mg10  1  0.37725594  0.13202623  0.12755774  1
  Mg  Mg11  1  0.12247596  0.37536271  0.86896877  1
  Mg  Mg12  1  0.86000366  0.13382520  0.37254188  1
  Mg  Mg13  1  0.13301200  0.86970059  0.61679758  1
  Mg  Mg14  1  0.12281332  0.61427019  0.36576933  1
  Mg  Mg15  1  0.63707916  0.37834917  0.37229003  1
  Mg  Mg16  1  0.87355961  0.38348116  0.63268475  1
  Mg  Mg17  1  0.37555314  0.36438415  0.87157062  1
  Mg  Mg18  1  0.36443058  0.61713539  0.61813704  1
  Mg  Mg19  1  0.42510035  0.48096640  0.25703579  1
  Mg  Mg20  1  0.74854352  0.25426462  0.68263265  1
  Mg  Mg21  1  -0.02271266  0.75476108  0.45766009  1
  Mg  Mg22  1  0.23468755  0.46696349  0.23365206  1
  Mg  Mg23  1  0.79206916  0.27370107  -0.00121864  1
  Mg  Mg24  1  0.25473402  0.45751509  0.78845901  1
  Mg  Mg25  1  -0.00621195  0.26341413  0.68675343  1
  Mg  Mg26  1  0.18646104  0.75321307  0.44704731  1
  Mg  Mg27  1  0.21179789  0.73647577  0.23459967  1
  Mg  Mg28  1  -0.05713844  0.54548557  0.01406620  1
  Mg  Mg29  1  0.20846373  0.25682962  -0.03419279  1
  Mg  Mg30  1  0.79298456  0.28195926  0.49963617  1
  Mg  Mg31  1  0.22948712  0.28652733  0.70566987  1
  Ti  Ti32  1  0.13283549  0.88022244  0.88292099  1
  Ti  Ti33  1  0.12027990  0.13362557  0.12032498  1
  Ti  Ti34  1  0.62209413  0.87666806  0.12851363  1
  Ti  Ti35  1  0.61752486  0.88305142  0.62596000  1
  Ti  Ti36  1  0.35530753  0.86866273  0.13442842  1
  Ti  Ti37  1  0.64549455  0.36833645  0.87918136  1
  Ti  Ti38  1  0.36316243  0.61965283  0.12440809  1
  Ti  Ti39  1  0.87634900  0.62403108  0.37926120  1
  Ti  Ti40  1  0.36251134  0.62600923  0.87965279  1
  Ti  Ti41  1  0.63048182  0.62176487  0.36412953  1
  Ti  Ti42  1  0.12347488  0.60560640  0.11936869  1
  Ti  Ti43  1  0.37289233  0.37038132  0.12204342  1
  Ti  Ti44  1  0.86537987  0.37867896  0.36914769  1
  Ti  Ti45  1  0.86134683  0.12419107  0.11974447  1
  Ti  Ti46  1  0.37321342  0.12701872  0.63991197  1
  Ti  Ti47  1  0.88852786  0.37180236  0.11833975  1
  Ti  Ti48  1  0.86578397  0.12799404  0.87091854  1
  Ti  Ti49  1  0.12395280  0.61438966  0.88044312  1
  Ti  Ti50  1  0.61510849  0.11453395  0.12826647  1
  Ti  Ti51  1  0.62467248  0.36614397  0.60540971  1
  Ti  Ti52  1  0.87372607  0.88343889  0.12833805  1
  Ti  Ti53  1  0.11548802  0.36440394  0.36695166  1
  Ti  Ti54  1  0.37152862  0.38141960  0.63059622  1
  Ti  Ti55  1  0.12701701  0.36396219  0.11842962  1
  Ti  Ti56  1  0.12511606  0.88098338  0.12202511  1
  Ti  Ti57  1  0.61839152  0.62266389  0.12194625  1
  Ti  Ti58  1  0.37352721  0.13586028  0.88283031  1
  Ti  Ti59  1  0.12546566  0.11969527  0.37634796  1
  Ti  Ti60  1  0.35345445  0.63936442  0.37131621  1
  Ti  Ti61  1  0.89047624  0.63408589  0.86588535  1
  Ti  Ti62  1  0.89311934  0.62799823  0.61510265  1
  Ti  Ti63  1  0.87956541  0.87320503  0.61815560  1
  Ti  Ti64  1  0.87654013  0.38354947  0.86291342  1
  Ti  Ti65  1  0.12330829  0.13950704  0.62786400  1
  Ti  Ti66  1  0.62075002  0.13578768  0.37599028  1
  Ti  Ti67  1  0.62932723  0.86153227  0.37907886  1
  Ti  Ti68  1  0.36070563  0.86676322  0.37159326  1
  Ti  Ti69  1  0.36767341  0.87218683  0.87498647  1
  Ti  Ti70  1  0.61811953  0.63578856  0.87488694  1
  Ti  Ti71  1  0.12544747  0.12655988  0.86477265  1
  Ti  Ti72  1  0.37590094  0.11779220  0.37150002  1
  Ti  Ti73  1  0.13485315  0.62752705  0.60636911  1
  Bi  Bi74  1  -0.02819479  0.00492064  0.27866191  1
  Bi  Bi75  1  0.48140826  0.26019648  0.49061515  1
  Bi  Bi76  1  0.25667825  0.46338147  0.45475976  1
  Bi  Bi77  1  -0.01717089  0.47837597  0.49090031  1
  Bi  Bi78  1  0.50799243  0.00746378  -0.00856122  1
  Bi  Bi79  1  0.75678978  0.75124825  0.23196092  1
  Bi  Bi80  1  0.01231131  0.75451402  0.72150437  1
  Bi  Bi81  1  0.76664012  0.51980795  0.20778288  1
  Bi  Bi82  1  0.25478829  0.02477099  -0.01039838  1
  Bi  Bi83  1  0.26703354  0.26984386  0.27160327  1
  Bi  Bi84  1  -0.00069652  0.25861487  -0.04361664  1
  Bi  Bi85  1  0.25926113  0.47168173  -0.01349341  1
  Bi  Bi86  1  0.73347073  -0.00288751  0.27988529  1
  Bi  Bi87  1  -0.01807939  -0.00419378  0.72219281  1
  Bi  Bi88  1  -0.01103549  0.00768250  -0.00678691  1
  Bi  Bi89  1  0.73981877  -0.03281628  -0.01424509  1
  Bi  Bi90  1  0.49758193  0.00118039  0.25432892  1
  Bi  Bi91  1  0.51392609  0.24888220  -0.00466042  1
  Bi  Bi92  1  0.75019400  0.52669797  -0.01816967  1
  Bi  Bi93  1  0.47734731  0.77429615  0.00616009  1
  Bi  Bi94  1  0.00293750  0.76507927  0.00104108  1
  Bi  Bi95  1  0.25360984  0.74284820  0.72465870  1
  Bi  Bi96  1  0.72435262  0.74238447  0.53718559  1
  Bi  Bi97  1  0.48623954  0.48148659  0.45308703  1
  Bi  Bi98  1  0.49180666  -0.01961539  0.49323293  1
  Bi  Bi99  1  0.52498578  0.52257507  0.70668560  1
  Bi  Bi100  1  0.74183155  0.03081853  0.74424270  1
  Bi  Bi101  1  0.03838526  0.48668534  0.73138579  1
  Bi  Bi102  1  0.47693395  0.73789741  0.73232912  1
  Bi  Bi103  1  -0.01592097  0.22882344  0.47805737  1
  Bi  Bi104  1  0.75727699  0.53986043  0.73915905  1
  Bi  Bi105  1  0.23123808  -0.01367998  0.73102887  1
  Bi  Bi106  1  -0.01159279  0.22944866  0.24008792  1
  Bi  Bi107  1  0.51219120  0.29708800  0.25097803  1
  Bi  Bi108  1  0.50676227  0.48172271  -0.03329308  1
  Bi  Bi109  1  0.48109452  0.74033558  0.24583332  1
  Bi  Bi110  1  0.02175358  -0.03693931  0.49370119  1
  Bi  Bi111  1  0.49690453  0.02130263  0.75373818  1
  Bi  Bi112  1  0.22694707  0.74088214  0.00216221  1
  Bi  Bi113  1  -0.01177478  0.50433312  0.24939706  1
  Bi  Bi114  1  0.77385106  0.73938965  0.02607585  1
  Bi  Bi115  1  0.73191049  0.79098213  0.75706026  1
  Bi  Bi116  1  0.73673686  0.03791086  0.50504299  1
  Bi  Bi117  1  0.26586238  -0.00660999  0.50102817  1
  Bi  Bi118  1  0.72789604  0.53054059  0.50651141  1
  Bi  Bi119  1  0.73348973  0.26224421  0.21870335  1
  Bi  Bi120  1  0.52554394  0.28281111  0.75517369  1
  Bi  Bi121  1  0.26327141  0.23185861  0.50785215  1
  Bi  Bi122  1  0.01202926  0.74766353  0.25270061  1
  Bi  Bi123  1  0.24769488  0.02950538  0.23339008  1
  Bi  Bi124  1  0.49534839  0.70687113  0.49867557  1
  O  O125  1  0.14481646  0.14387500  0.00811478  1
  O  O126  1  0.11142108  0.11645658  0.26078523  1
  O  O127  1  0.14111362  0.15087817  0.50914340  1
  O  O128  1  0.12805618  0.10751157  0.75364283  1
  O  O129  1  0.11051691  0.35057893  0.00435945  1
  O  O130  1  0.15838877  0.36181111  0.25029556  1
  O  O131  1  0.11185903  0.39279920  0.48257845  1
  O  O132  1  0.15265828  0.39902243  0.74537394  1
  O  O133  1  0.16007360  0.61315667  0.00684958  1
  O  O134  1  0.11235286  0.64904810  0.23810599  1
  O  O135  1  0.14572484  0.64353909  0.49550624  1
  O  O136  1  0.10974316  0.62757531  0.76918604  1
  O  O137  1  0.16656304  0.88320695  0.01031273  1
  O  O138  1  0.11483237  0.84239452  0.24056867  1
  O  O139  1  0.12650596  0.86289632  0.49315070  1
  O  O140  1  0.11683031  0.89028806  0.76967997  1
  O  O141  1  0.37916508  0.11134457  0.00103203  1
  O  O142  1  0.37344769  0.11087855  0.25640122  1
  O  O143  1  0.35309177  0.10653252  0.50124829  1
  O  O144  1  0.38342968  0.11879396  0.75734369  1
  O  O145  1  0.39224144  0.39577767  0.00596355  1
  O  O146  1  0.33568876  0.38477895  0.24510631  1
  O  O147  1  0.40389444  0.37398299  0.50187042  1
  O  O148  1  0.33212379  0.35794594  0.74355477  1
  O  O149  1  0.36482817  0.61374368  0.00726404  1
  O  O150  1  0.39821740  0.62742022  0.25749209  1
  O  O151  1  0.37631074  0.63449273  0.49174618  1
  O  O152  1  0.38796531  0.63689038  0.76311680  1
  O  O153  1  0.36438920  0.85841511  0.01472277  1
  O  O154  1  0.39606714  0.86287635  0.25481843  1
  O  O155  1  0.37248364  0.89443033  0.49835512  1
  O  O156  1  0.39949261  0.86571771  0.76375567  1
  O  O157  1  0.60393584  0.13857429  0.01149544  1
  O  O158  1  0.60987566  0.08725832  0.25839203  1
  O  O159  1  0.63365881  0.13254321  0.49564966  1
  O  O160  1  0.61332647  0.09378804  0.75395525  1
  O  O161  1  0.59118837  0.36595959  0.00086678  1
  O  O162  1  0.64001621  0.36763742  0.24588939  1
  O  O163  1  0.58986640  0.36473679  0.49689690  1
  O  O164  1  0.64394027  0.36108233  0.76307802  1
  O  O165  1  0.64865634  0.63929034  -0.00152439  1
  O  O166  1  0.63214179  0.60810010  0.25125965  1
  O  O167  1  0.63698089  0.64200411  0.50106973  1
  O  O168  1  0.62678226  0.60164351  0.76028392  1
  O  O169  1  0.65301276  0.85646823  0.01182833  1
  O  O170  1  0.61187116  0.90548521  0.25253322  1
  O  O171  1  0.63381520  0.84905062  0.49897070  1
  O  O172  1  0.62863845  0.89012821  0.74543774  1
  O  O173  1  0.85012336  0.15913052  0.00868490  1
  O  O174  1  0.89467910  0.12162608  0.24628575  1
  O  O175  1  0.85408357  0.17069358  0.49789675  1
  O  O176  1  0.88141066  0.09336249  0.75879287  1
  O  O177  1  0.89480497  0.34777810  0.00675218  1
  O  O178  1  0.86735960  0.40707624  0.25295925  1
  O  O179  1  0.90143516  0.35517492  0.49394887  1
  O  O180  1  0.84804346  0.40801421  0.75840609  1
  O  O181  1  0.85918622  0.63668867  -0.01029795  1
  O  O182  1  0.87628844  0.59271008  0.26186942  1
  O  O183  1  0.90471347  0.65410946  0.49937626  1
  O  O184  1  0.88835069  0.59961823  0.75144792  1
  O  O185  1  0.85807300  0.85737962  0.00536526  1
  O  O186  1  0.90138855  0.89051516  0.24191668  1
  O  O187  1  0.90630673  0.85599058  0.50124354  1
  O  O188  1  0.89259406  0.89956370  0.75037884  1
  O  O189  1  0.00234813  0.12298815  0.11441720  1
  O  O190  1  0.00210138  0.10601487  0.40283500  1
  O  O191  1  0.00544965  0.14195287  0.62768933  1
  O  O192  1  0.00870562  0.11450275  0.89345871  1
  O  O193  1  0.00307761  0.38165277  0.14575275  1
  O  O194  1  0.00360284  0.40566390  0.35359135  1
  O  O195  1  0.00155836  0.38383655  0.64689879  1
  O  O196  1  -0.00496619  0.36923124  0.86054744  1
  O  O197  1  0.01276740  0.59268361  0.10389355  1
  O  O198  1  -0.00131828  0.57820853  0.37409799  1
  O  O199  1  0.00962038  0.64133168  0.63431933  1
  O  O200  1  0.00340819  0.60889336  0.90903052  1
  O  O201  1  0.00578661  0.87999550  0.09812379  1
  O  O202  1  0.00057013  0.90381896  0.37401099  1
  O  O203  1  0.00868850  0.87671490  0.63465452  1
  O  O204  1  0.01159176  0.88585710  0.91603078  1
  O  O205  1  0.24546623  0.13247433  0.14731090  1
  O  O206  1  0.24668484  0.14389385  0.37111960  1
  O  O207  1  0.25377470  0.16937723  0.64259521  1
  O  O208  1  0.25394963  0.14283490  0.89120764  1
  O  O209  1  0.24826730  0.35821834  0.09594694  1
  O  O210  1  0.24132976  0.33856278  0.39316848  1
  O  O211  1  0.25559636  0.35457015  0.59561144  1
  O  O212  1  0.25111361  0.35968766  0.90340532  1
  O  O213  1  0.25445076  0.65497231  0.14432677  1
  O  O214  1  0.24599026  0.67212347  0.35368710  1
  O  O215  1  0.24475818  0.62866305  0.64369298  1
  O  O216  1  0.25056444  0.65391091  0.87417885  1
  O  O217  1  0.24786940  0.83844099  0.15458103  1
  O  O218  1  0.25061097  0.84082279  0.37090001  1
  O  O219  1  0.25106984  0.87005308  0.65639372  1
  O  O220  1  0.25140535  0.84775154  0.86780649  1
  O  O221  1  0.50029778  0.09033826  0.13714200  1
  O  O222  1  0.49434372  0.08748789  0.38311076  1
  O  O223  1  0.48933254  0.09716190  0.63027970  1
  O  O224  1  0.49229300  0.08963422  0.87707730  1
  O  O225  1  0.48632524  0.40269302  0.16025074  1
  O  O226  1  0.50318172  0.41485069  0.33878877  1
  O  O227  1  0.50084348  0.37566782  0.65244611  1
  O  O228  1  0.49771147  0.40136516  0.85466225  1
  O  O229  1  0.50618147  0.62240645  0.12049722  1
  O  O230  1  0.51385985  0.61781165  0.39099593  1
  O  O231  1  0.49465958  0.63055908  0.62592191  1
  O  O232  1  0.50674623  0.60983376  0.88806287  1
  O  O233  1  0.50679444  0.88019658  0.11192481  1
  O  O234  1  0.50848351  0.89723710  0.38798778  1
  O  O235  1  0.50370580  0.89332653  0.61537443  1
  O  O236  1  0.49327474  0.88491145  0.91243270  1
  O  O237  1  0.74675484  0.13057372  0.14718937  1
  O  O238  1  0.73580070  0.13537923  0.35412654  1
  O  O239  1  0.74735005  0.12885853  0.64655753  1
  O  O240  1  0.75106745  0.12155399  0.85661222  1
  O  O241  1  0.75252395  0.33781286  0.10627197  1
  O  O242  1  0.75921616  0.34292716  0.39365315  1
  O  O243  1  0.74240906  0.34817550  0.59414979  1
  O  O244  1  0.75508088  0.35132529  0.90672135  1
  O  O245  1  0.74980906  0.64047999  0.13907628  1
  O  O246  1  0.75856739  0.63009863  0.39166270  1
  O  O247  1  0.76894591  0.63123448  0.62690851  1
  O  O248  1  0.75851598  0.61378279  0.86091716  1
  O  O249  1  0.75518411  0.87655977  0.15535100  1
  O  O250  1  0.74640767  0.86432885  0.34933908  1
  O  O251  1  0.76257002  0.87137350  0.63058296  1
  O  O252  1  0.75074078  0.88276941  0.86343023  1
  O  O253  1  0.14016558  -0.00219307  0.13454312  1
  O  O254  1  0.14042888  0.00541132  0.39510514  1
  O  O255  1  0.14893996  0.00969257  0.62094524  1
  O  O256  1  0.14841039  0.00319704  0.89506084  1
  O  O257  1  0.11436983  0.24839328  0.14183345  1
  O  O258  1  0.09219865  0.25088710  0.37120243  1
  O  O259  1  0.11690772  0.25613848  0.65367909  1
  O  O260  1  0.11939863  0.24469703  0.86977730  1
  O  O261  1  0.14927740  0.49186247  0.14305441  1
  O  O262  1  0.17687416  0.49620822  0.34999601  1
  O  O263  1  0.11266768  0.51083281  0.61737342  1
  O  O264  1  0.15733664  0.50128338  0.87818431  1
  O  O265  1  0.11045758  0.74851516  0.09335063  1
  O  O266  1  0.07641133  0.74502495  0.37712531  1
  O  O267  1  0.13216796  0.74828569  0.64667495  1
  O  O268  1  0.11355630  0.75277959  0.91024303  1
  O  O269  1  0.34270613  -0.01438199  0.13722430  1
  O  O270  1  0.34532583  -0.00967808  0.37233713  1
  O  O271  1  0.33660901  0.00808821  0.63227667  1
  O  O272  1  0.34421408  -0.01091405  0.88437318  1
  O  O273  1  0.39458161  0.25835355  0.13452898  1
  O  O274  1  0.39343333  0.23382921  0.38219827  1
  O  O275  1  0.39469627  0.24170251  0.60263529  1
  O  O276  1  0.40785287  0.24367138  0.88828368  1
  O  O277  1  0.34740949  0.50691148  0.15002400  1
  O  O278  1  0.36238507  0.51487601  0.37406526  1
  O  O279  1  0.37389822  0.49235482  0.63290573  1
  O  O280  1  0.34085511  0.50379697  0.86945784  1
  O  O281  1  0.39928908  0.74686145  0.13147355  1
  O  O282  1  0.40731615  0.75218993  0.37684236  1
  O  O283  1  0.37672363  0.75085820  0.63968443  1
  O  O284  1  0.39606921  0.74673232  0.89330166  1
  O  O285  1  0.64070440  -0.00270323  0.10311068  1
  O  O286  1  0.65478694  -0.00680854  0.39965594  1
  O  O287  1  0.64478575  -0.00281928  0.60029740  1
  O  O288  1  0.62657437  -0.00220840  0.91154077  1
  O  O289  1  0.60840220  0.23578619  0.15324667  1
  O  O290  1  0.59384359  0.24566655  0.36438535  1
  O  O291  1  0.61771434  0.25045687  0.64787205  1
  O  O292  1  0.59836965  0.25066483  0.88221068  1
  O  O293  1  0.65028262  0.50906236  0.10844132  1
  O  O294  1  0.64351738  0.50386569  0.40049714  1
  O  O295  1  0.63304710  0.48436294  0.62284771  1
  O  O296  1  0.64009628  0.48919197  0.89702315  1
  O  O297  1  0.63271133  0.75458281  0.15357331  1
  O  O298  1  0.61919095  0.74771299  0.35709021  1
  O  O299  1  0.63731311  0.76241780  0.64149802  1
  O  O300  1  0.62099611  0.74823018  0.85085976  1
  O  O301  1  0.87371249  0.00628370  0.10209708  1
  O  O302  1  0.85861826  0.00396666  0.36552281  1
  O  O303  1  0.89289986  -0.00100349  0.61073286  1
  O  O304  1  0.87900702  0.00960704  0.91300986  1
  O  O305  1  0.88206312  0.25227532  0.15341036  1
  O  O306  1  0.90826636  0.25774539  0.35773706  1
  O  O307  1  0.87274502  0.25792623  0.65984235  1
  O  O308  1  0.88499451  0.24464388  0.86844767  1
  O  O309  1  0.85857164  0.48761503  0.10270935  1
  O  O310  1  0.85855352  0.49279842  0.41238218  1
  O  O311  1  0.88177488  0.51057653  0.59846643  1
  O  O312  1  0.87536698  0.49205852  0.91002859  1
  O  O313  1  0.86791911  0.76051295  0.13769820  1
  O  O314  1  0.89804189  0.73992486  0.35760522  1
  O  O315  1  0.88738314  0.75395803  0.64948807  1
  O  O316  1  0.89559975  0.74545196  0.85735562  1
