# generated using pymatgen
data_Mg32Ti42(Bi17O64)3
_symmetry_space_group_name_H-M   'P 1'
_cell_length_a   15.96819298
_cell_length_b   15.93354853
_cell_length_c   15.97561822
_cell_angle_alpha   89.95648630
_cell_angle_beta   90.00553046
_cell_angle_gamma   89.90831002
_symmetry_Int_Tables_number   1
_chemical_formula_structural   Mg32Ti42(Bi17O64)3
_chemical_formula_sum   'Mg32 Ti42 Bi51 O192'
_cell_volume   4064.66979186
_cell_formula_units_Z   1
loop_
 _symmetry_equiv_pos_site_id
 _symmetry_equiv_pos_as_xyz
  1  'x, y, z'
loop_
 _atom_site_type_symbol
 _atom_site_label
 _atom_site_symmetry_multiplicity
 _atom_site_fract_x
 _atom_site_fract_y
 _atom_site_fract_z
 _atom_site_occupancy
  Mg  Mg0  1  0.62807178  0.62111544  0.38259492  1
  Mg  Mg1  1  0.86955495  0.37510946  0.38041585  1
  Mg  Mg2  1  0.87021310  0.87696242  0.62121189  1
  Mg  Mg3  1  0.87843713  0.37890773  0.63327173  1
  Mg  Mg4  1  0.12594539  0.62339285  0.11920967  1
  Mg  Mg5  1  0.62840173  0.87399139  0.11810962  1
  Mg  Mg6  1  0.87029731  0.13539689  0.87341242  1
  Mg  Mg7  1  0.12974158  0.37022372  0.38230318  1
  Mg  Mg8  1  0.88289218  0.87466307  0.88222364  1
  Mg  Mg9  1  0.37364275  0.63630971  0.38365083  1
  Mg  Mg10  1  0.87087584  0.62625438  0.11761569  1
  Mg  Mg11  1  0.61859623  0.37265980  0.11817686  1
  Mg  Mg12  1  0.36857926  0.36729130  0.61957396  1
  Mg  Mg13  1  0.37182900  0.13037467  0.87226393  1
  Mg  Mg14  1  0.11249357  0.85948144  0.61854499  1
  Mg  Mg15  1  0.12902769  0.62831004  0.38747679  1
  Mg  Mg16  1  0.62734271  0.87481469  0.36487043  1
  Mg  Mg17  1  0.36364983  0.36986751  0.87166528  1
  Mg  Mg18  1  0.37913975  0.87677392  0.88646046  1
  Mg  Mg19  1  0.45006413  0.70192792  -0.00186886  1
  Mg  Mg20  1  0.30005775  0.56566748  0.77781431  1
  Mg  Mg21  1  0.19036617  -0.03496148  0.50791619  1
  Mg  Mg22  1  0.75671047  0.79305797  0.80008740  1
  Mg  Mg23  1  0.68842307  0.49149321  -0.00962666  1
  Mg  Mg24  1  -0.00972409  0.53355433  0.72024064  1
  Mg  Mg25  1  0.26123890  0.18005632  0.49498227  1
  Mg  Mg26  1  0.45570958  0.44974294  0.74811154  1
  Mg  Mg27  1  0.72597098  0.25269274  0.49080689  1
  Mg  Mg28  1  -0.01859997  0.01790536  -0.05165493  1
  Mg  Mg29  1  0.68221631  0.74811234  -0.00198039  1
  Mg  Mg30  1  0.30128866  0.81825974  0.50671027  1
  Mg  Mg31  1  0.76969318  0.48038165  0.75744415  1
  Ti  Ti32  1  0.38113702  0.12329524  0.12459412  1
  Ti  Ti33  1  0.62160338  0.37882850  0.62548157  1
  Ti  Ti34  1  0.63934901  0.87829279  0.64229181  1
  Ti  Ti35  1  0.62475693  0.37480293  0.37486212  1
  Ti  Ti36  1  0.85040006  0.62309000  0.62507132  1
  Ti  Ti37  1  0.62925397  0.12113478  0.11158816  1
  Ti  Ti38  1  0.88491849  0.37928241  0.12569504  1
  Ti  Ti39  1  0.62192170  0.62404992  0.11022042  1
  Ti  Ti40  1  0.12676995  0.62622613  0.62739956  1
  Ti  Ti41  1  0.12685557  0.11415123  0.88083612  1
  Ti  Ti42  1  0.64341267  0.62537510  0.85973851  1
  Ti  Ti43  1  0.61928455  0.62321055  0.62719917  1
  Ti  Ti44  1  0.11940073  0.12085638  0.12268759  1
  Ti  Ti45  1  0.87129627  0.13251716  0.37572437  1
  Ti  Ti46  1  0.38058666  0.86306550  0.12370067  1
  Ti  Ti47  1  0.37591186  0.36952463  0.13563295  1
  Ti  Ti48  1  0.63139775  0.12768549  0.37826312  1
  Ti  Ti49  1  0.13053246  0.37719342  0.63297575  1
  Ti  Ti50  1  0.88110869  0.38422396  0.86681609  1
  Ti  Ti51  1  0.63830413  0.12912007  0.86682768  1
  Ti  Ti52  1  0.12273616  0.86942847  0.11273275  1
  Ti  Ti53  1  0.62204944  0.11685731  0.62375522  1
  Ti  Ti54  1  0.62852731  0.38642839  0.86129508  1
  Ti  Ti55  1  0.12147911  0.37446213  0.86570171  1
  Ti  Ti56  1  0.13356990  0.86755189  0.37793065  1
  Ti  Ti57  1  0.87006003  0.86852389  0.37039163  1
  Ti  Ti58  1  0.38340333  0.12546703  0.62548579  1
  Ti  Ti59  1  0.87117867  0.61697187  0.86647576  1
  Ti  Ti60  1  0.11531833  0.61489766  0.85832831  1
  Ti  Ti61  1  0.86871162  0.61145820  0.37295232  1
  Ti  Ti62  1  0.37670825  0.62939392  0.62660331  1
  Ti  Ti63  1  0.88083871  0.87198246  0.11514250  1
  Ti  Ti64  1  0.37286221  0.36753911  0.38501455  1
  Ti  Ti65  1  0.89004303  0.12065548  0.12742970  1
  Ti  Ti66  1  0.12236583  0.12235830  0.37248539  1
  Ti  Ti67  1  0.86832925  0.12473929  0.61213969  1
  Ti  Ti68  1  0.37210281  0.12815784  0.36471501  1
  Ti  Ti69  1  0.38101179  0.87067525  0.36237645  1
  Ti  Ti70  1  0.12224306  0.86895183  0.87315477  1
  Ti  Ti71  1  0.12422356  0.37222267  0.13170063  1
  Ti  Ti72  1  0.62934121  0.88684726  0.88352426  1
  Ti  Ti73  1  0.37185792  0.60719089  0.13030562  1
  Bi  Bi74  1  0.48484561  0.50508698  0.52394296  1
  Bi  Bi75  1  0.74658387  0.72486358  0.24814055  1
  Bi  Bi76  1  0.03408578  0.23909118  0.50660452  1
  Bi  Bi77  1  0.02720854  -0.00238899  0.72298719  1
  Bi  Bi78  1  0.00759910  0.25092050  -0.02857173  1
  Bi  Bi79  1  0.25359450  0.48818033  0.28497185  1
  Bi  Bi80  1  0.49349080  0.01922806  -0.03029777  1
  Bi  Bi81  1  0.74716294  0.49147653  0.21271946  1
  Bi  Bi82  1  0.46982602  0.51527505  -0.04883140  1
  Bi  Bi83  1  0.78720665  -0.00164489  0.75925224  1
  Bi  Bi84  1  0.74837498  0.24150439  0.71866086  1
  Bi  Bi85  1  0.26507584  -0.01357263  -0.00499738  1
  Bi  Bi86  1  0.25651631  0.48269380  0.00155198  1
  Bi  Bi87  1  0.25466261  0.24679865  0.72752947  1
  Bi  Bi88  1  0.02458499  0.50379848  0.27924027  1
  Bi  Bi89  1  0.02095575  0.49543041  0.00326451  1
  Bi  Bi90  1  0.49814722  0.51962092  0.27856715  1
  Bi  Bi91  1  0.00328506  0.72558584  0.24005326  1
  Bi  Bi92  1  0.23111094  0.01362144  0.70380044  1
  Bi  Bi93  1  0.75905853  0.25550195  0.22290621  1
  Bi  Bi94  1  0.76440905  0.47006829  0.51081373  1
  Bi  Bi95  1  0.76234309  -0.01310568  0.22915962  1
  Bi  Bi96  1  -0.03765862  0.76228686  0.74997745  1
  Bi  Bi97  1  0.25458872  -0.01228039  0.23069563  1
  Bi  Bi98  1  0.25401466  0.72793338  -0.04636163  1
  Bi  Bi99  1  0.50118221  0.25368845  0.47934039  1
  Bi  Bi100  1  -0.00852904  0.22649108  0.72989006  1
  Bi  Bi101  1  0.26945030  0.78880067  0.70566730  1
  Bi  Bi102  1  -0.01000634  0.26964595  0.27599514  1
  Bi  Bi103  1  0.51940166  -0.01831736  0.23290421  1
  Bi  Bi104  1  -0.00641625  -0.01319078  0.46952773  1
  Bi  Bi105  1  0.51905637  0.73075758  0.26311221  1
  Bi  Bi106  1  0.74852333  -0.01197751  0.48625569  1
  Bi  Bi107  1  0.49887961  0.78589732  0.53506616  1
  Bi  Bi108  1  0.48148958  0.01137809  0.47548440  1
  Bi  Bi109  1  0.46532890  -0.03466664  0.73824875  1
  Bi  Bi110  1  -0.03291335  0.74252584  0.50303814  1
  Bi  Bi111  1  0.51776508  0.25830892  -0.03775765  1
  Bi  Bi112  1  0.71402830  0.75397048  0.50777613  1
  Bi  Bi113  1  0.00734393  0.48505924  0.52023722  1
  Bi  Bi114  1  0.76279811  0.28791990  -0.01016058  1
  Bi  Bi115  1  0.47961891  0.73413796  0.79704957  1
  Bi  Bi116  1  -0.00926025  0.71880166  -0.00535374  1
  Bi  Bi117  1  0.24606306  0.23140387  0.22826004  1
  Bi  Bi118  1  0.25195120  0.24724054  -0.01619619  1
  Bi  Bi119  1  0.78063350  0.00137400  -0.00785021  1
  Bi  Bi120  1  0.48945931  0.24932992  0.72896273  1
  Bi  Bi121  1  0.23242385  0.71683374  0.25038835  1
  Bi  Bi122  1  0.24866332  0.51851187  0.52077697  1
  Bi  Bi123  1  0.52486601  0.24673726  0.23310372  1
  Bi  Bi124  1  0.01666319  -0.01645581  0.23923105  1
  O  O125  1  0.10831701  0.13717716  0.01014711  1
  O  O126  1  0.13945214  0.11971360  0.25405444  1
  O  O127  1  0.13834485  0.15451576  0.49132547  1
  O  O128  1  0.13921765  0.10927521  0.76488687  1
  O  O129  1  0.09207607  0.37011596  0.00304258  1
  O  O130  1  0.14121832  0.38351931  0.24507445  1
  O  O131  1  0.09586437  0.36335922  0.50784297  1
  O  O132  1  0.13976897  0.37731787  0.75433999  1
  O  O133  1  0.10159063  0.62715095  -0.00765805  1
  O  O134  1  0.11367966  0.63298070  0.24803879  1
  O  O135  1  0.16035754  0.62407253  0.50978160  1
  O  O136  1  0.10487758  0.58852857  0.74653481  1
  O  O137  1  0.10811900  0.85766533  0.00319973  1
  O  O138  1  0.14074804  0.90119975  0.25930637  1
  O  O139  1  0.09492771  0.87269032  0.49349746  1
  O  O140  1  0.15107871  0.89911568  0.76049879  1
  O  O141  1  0.38305922  0.10141273  0.01040223  1
  O  O142  1  0.37284054  0.15618172  0.25348608  1
  O  O143  1  0.38056830  0.10714156  0.50567712  1
  O  O144  1  0.36312133  0.15616995  0.74893597  1
  O  O145  1  0.37700837  0.41287089  0.00105625  1
  O  O146  1  0.35394827  0.35425206  0.24921910  1
  O  O147  1  0.39700041  0.39437316  0.49917129  1
  O  O148  1  0.36348733  0.34049238  0.74725468  1
  O  O149  1  0.36707167  0.59974997  0.00498021  1
  O  O150  1  0.40076733  0.63993582  0.23898689  1
  O  O151  1  0.36996558  0.59692148  0.50577979  1
  O  O152  1  0.37087144  0.66070365  0.74309048  1
  O  O153  1  0.38639508  0.91345170  0.01346773  1
  O  O154  1  0.33918483  0.86742836  0.24732457  1
  O  O155  1  0.40721418  0.89105693  0.48724440  1
  O  O156  1  0.37621113  0.86070278  0.75758091  1
  O  O157  1  0.61125101  0.14053890  0.00155653  1
  O  O158  1  0.62916510  0.12812086  0.26339968  1
  O  O159  1  0.60235306  0.13438475  0.51329416  1
  O  O160  1  0.65887897  0.12714837  0.75260520  1
  O  O161  1  0.62343648  0.37045425  -0.00798500  1
  O  O162  1  0.63866325  0.36212229  0.26063851  1
  O  O163  1  0.58724949  0.37488493  0.51283538  1
  O  O164  1  0.66835206  0.39973325  0.75246229  1
  O  O165  1  0.66981713  0.62133599  -0.00222839  1
  O  O166  1  0.60257710  0.61758078  0.23485832  1
  O  O167  1  0.62622202  0.63808306  0.50647353  1
  O  O168  1  0.61037190  0.63012166  0.75072999  1
  O  O169  1  0.62159367  0.86008856  -0.00608422  1
  O  O170  1  0.64068318  0.90669808  0.24260374  1
  O  O171  1  0.60789153  0.85140778  0.48745732  1
  O  O172  1  0.66238175  0.87091360  0.75253638  1
  O  O173  1  0.89460027  0.09512978  0.01197170  1
  O  O174  1  0.85485113  0.13700159  0.25867560  1
  O  O175  1  0.89346368  0.11938425  0.50317794  1
  O  O176  1  0.84371139  0.13518004  0.74779308  1
  O  O177  1  0.88739161  0.37277675  0.00837877  1
  O  O178  1  0.86054552  0.34822796  0.24969723  1
  O  O179  1  0.88588255  0.40610766  0.50652096  1
  O  O180  1  0.84706608  0.37651279  0.75882422  1
  O  O181  1  0.88802044  0.62096565  -0.01481363  1
  O  O182  1  0.88655949  0.64788292  0.25409147  1
  O  O183  1  0.86874109  0.61995956  0.50131679  1
  O  O184  1  0.89862932  0.62144646  0.73658652  1
  O  O185  1  0.90286454  0.91222272  0.00534115  1
  O  O186  1  0.85134579  0.86870384  0.25404616  1
  O  O187  1  0.90618327  0.87305260  0.49727072  1
  O  O188  1  0.84977705  0.86457917  0.74814937  1
  O  O189  1  0.00120210  0.13995913  0.14796309  1
  O  O190  1  -0.00116590  0.10474843  0.36861898  1
  O  O191  1  -0.01414111  0.11233663  0.65237538  1
  O  O192  1  0.00150875  0.13562569  0.87932405  1
  O  O193  1  -0.00110325  0.35902732  0.14820398  1
  O  O194  1  -0.00211247  0.38679832  0.35116587  1
  O  O195  1  -0.00375085  0.42774092  0.64671355  1
  O  O196  1  -0.00149642  0.35119772  0.86439983  1
  O  O197  1  -0.00292223  0.65319738  0.12156939  1
  O  O198  1  -0.00308679  0.60547992  0.37803486  1
  O  O199  1  0.01073230  0.60550654  0.60843897  1
  O  O200  1  0.00113637  0.65443252  0.86466107  1
  O  O201  1  0.00311099  0.86818093  0.15475525  1
  O  O202  1  -0.00151258  0.89753763  0.35646750  1
  O  O203  1  -0.00443001  0.88285020  0.65528240  1
  O  O204  1  0.00672018  0.85753577  0.85663882  1
  O  O205  1  0.24864713  0.11406284  0.13336573  1
  O  O206  1  0.25574304  0.12668161  0.37839089  1
  O  O207  1  0.26522151  0.15048274  0.61932126  1
  O  O208  1  0.24424275  0.12512131  0.90451766  1
  O  O209  1  0.24463492  0.38969346  0.10303672  1
  O  O210  1  0.25625968  0.38955352  0.38784693  1
  O  O211  1  0.24196938  0.34373434  0.61814135  1
  O  O212  1  0.23830210  0.37921160  0.90467818  1
  O  O213  1  0.25571147  0.61956372  0.14195832  1
  O  O214  1  0.25436909  0.61680091  0.34777224  1
  O  O215  1  0.25817384  0.59106735  0.64749360  1
  O  O216  1  0.23531980  0.61251597  0.87231543  1
  O  O217  1  0.24706550  0.90484449  0.11311956  1
  O  O218  1  0.24545337  0.88833362  0.41490541  1
  O  O219  1  0.24052620  0.88033958  0.60160606  1
  O  O220  1  0.24931805  0.87740953  0.91040485  1
  O  O221  1  0.49584174  0.14800630  0.13658167  1
  O  O222  1  0.49986342  0.13551698  0.38183328  1
  O  O223  1  0.50829412  0.11276749  0.65743051  1
  O  O224  1  0.50733147  0.14140309  0.87930849  1
  O  O225  1  0.49164905  0.34917583  0.13657081  1
  O  O226  1  0.49640975  0.34872078  0.36389422  1
  O  O227  1  0.51206392  0.37782086  0.66880272  1
  O  O228  1  0.50847826  0.37118459  0.85615932  1
  O  O229  1  0.50651958  0.62966381  0.08830044  1
  O  O230  1  0.50013532  0.63180201  0.36580964  1
  O  O231  1  0.49717143  0.63434088  0.61799663  1
  O  O232  1  0.52142059  0.65005888  0.90088058  1
  O  O233  1  0.49286281  0.87046714  0.15157964  1
  O  O234  1  0.49427713  0.86995645  0.33688393  1
  O  O235  1  0.51805591  0.88340096  0.63377984  1
  O  O236  1  0.51485955  0.86458066  0.85641213  1
  O  O237  1  0.74408412  0.09387146  0.11937779  1
  O  O238  1  0.75102147  0.14256540  0.40741885  1
  O  O239  1  0.74871360  0.16408998  0.60031871  1
  O  O240  1  0.74690131  0.11730400  0.90369556  1
  O  O241  1  0.75414099  0.36883060  0.12547172  1
  O  O242  1  0.74009307  0.36455158  0.41381076  1
  O  O243  1  0.74031147  0.35404713  0.58919058  1
  O  O244  1  0.75708130  0.40418371  0.90605631  1
  O  O245  1  0.75056237  0.61750705  0.15543985  1
  O  O246  1  0.75190038  0.63661840  0.35739357  1
  O  O247  1  0.74236762  0.65144696  0.63105741  1
  O  O248  1  0.75956554  0.58420474  0.83981703  1
  O  O249  1  0.76063617  0.90788176  0.11354878  1
  O  O250  1  0.75456664  0.87406963  0.40119665  1
  O  O251  1  0.74654893  0.86981212  0.58678356  1
  O  O252  1  0.75393931  0.89159330  0.89122125  1
  O  O253  1  0.11064363  0.00193602  0.12524883  1
  O  O254  1  0.12752465  0.00763904  0.40562639  1
  O  O255  1  0.12504475  -0.00074439  0.61813880  1
  O  O256  1  0.10240905  -0.00093888  0.90284493  1
  O  O257  1  0.14254311  0.25067297  0.13187971  1
  O  O258  1  0.09963571  0.24788148  0.36687703  1
  O  O259  1  0.08445676  0.26256156  0.63813002  1
  O  O260  1  0.12793497  0.25071866  0.88641728  1
  O  O261  1  0.10614930  0.49603290  0.11163335  1
  O  O262  1  0.13094222  0.49983436  0.36614919  1
  O  O263  1  0.13746098  0.49009916  0.60259899  1
  O  O264  1  0.10526853  0.49569131  0.89004222  1
  O  O265  1  0.14027083  0.75866249  0.14156141  1
  O  O266  1  0.13170586  0.75517951  0.35944376  1
  O  O267  1  0.12766934  0.73759382  0.64651309  1
  O  O268  1  0.14767816  0.75028351  0.86294698  1
  O  O269  1  0.38326728  0.00993500  0.15954405  1
  O  O270  1  0.39181783  0.00656943  0.36367857  1
  O  O271  1  0.37324468  0.00966384  0.64730380  1
  O  O272  1  0.39545919  0.00354298  0.86915935  1
  O  O273  1  0.34313177  0.25113120  0.11354976  1
  O  O274  1  0.36244511  0.24770008  0.41215630  1
  O  O275  1  0.41543152  0.24558400  0.61113382  1
  O  O276  1  0.37023059  0.25197483  0.91386185  1
  O  O277  1  0.38209850  0.49437945  0.15154329  1
  O  O278  1  0.38462633  0.49283892  0.35710943  1
  O  O279  1  0.40069268  0.49879646  0.64197820  1
  O  O280  1  0.38693480  0.49641877  0.83964008  1
  O  O281  1  0.37458400  0.75422829  0.09228241  1
  O  O282  1  0.36107269  0.76289825  0.39736349  1
  O  O283  1  0.34592875  0.74210501  0.59669366  1
  O  O284  1  0.38256350  0.75223872  0.90275517  1
  O  O285  1  0.59138514  0.00826562  0.11499644  1
  O  O286  1  0.63277567  0.00806900  0.39962794  1
  O  O287  1  0.64759630  0.00266499  0.62013969  1
  O  O288  1  0.61522083  0.00470146  0.87893850  1
  O  O289  1  0.63223906  0.24317667  0.13896934  1
  O  O290  1  0.62629168  0.25001315  0.40302333  1
  O  O291  1  0.61614304  0.25405774  0.64919088  1
  O  O292  1  0.63622185  0.25596410  0.87134692  1
  O  O293  1  0.64383110  0.49797082  0.11271013  1
  O  O294  1  0.60400460  0.49192518  0.37661089  1
  O  O295  1  0.62405059  0.50544799  0.61758557  1
  O  O296  1  0.61512542  0.50330740  0.88585739  1
  O  O297  1  0.64622513  0.74416457  0.11999198  1
  O  O298  1  0.63176128  0.74888111  0.33957677  1
  O  O299  1  0.62209781  0.75838409  0.62023356  1
  O  O300  1  0.66909761  0.74141246  0.87338144  1
  O  O301  1  0.89171985  0.00259576  0.15951341  1
  O  O302  1  0.86123941  0.00027577  0.38814247  1
  O  O303  1  0.84788119  0.00773668  0.63068899  1
  O  O304  1  0.88418769  0.00431442  0.86293149  1
  O  O305  1  0.85150389  0.23620298  0.11581622  1
  O  O306  1  0.89686703  0.24689187  0.38570068  1
  O  O307  1  0.89434555  0.25142552  0.63587933  1
  O  O308  1  0.86293735  0.25981934  0.89326471  1
  O  O309  1  0.87346370  0.49426900  0.14148595  1
  O  O310  1  0.85262934  0.50124997  0.36034363  1
  O  O311  1  0.82618875  0.50401202  0.64171352  1
  O  O312  1  0.90971771  0.49970831  0.85646949  1
  O  O313  1  0.86576217  0.76241492  0.10033324  1
  O  O314  1  0.88795732  0.75248662  0.38788756  1
  O  O315  1  0.88927971  0.74437574  0.61656617  1
  O  O316  1  0.85934829  0.74003706  0.85495583  1
