# generated using pymatgen
data_Mg32Ti42(Bi17O64)3
_symmetry_space_group_name_H-M   'P 1'
_cell_length_a   15.98625921
_cell_length_b   15.91194974
_cell_length_c   15.93490701
_cell_angle_alpha   89.80573536
_cell_angle_beta   89.69383931
_cell_angle_gamma   89.83421032
_symmetry_Int_Tables_number   1
_chemical_formula_structural   Mg32Ti42(Bi17O64)3
_chemical_formula_sum   'Mg32 Ti42 Bi51 O192'
_cell_volume   4053.30505439
_cell_formula_units_Z   1
loop_
 _symmetry_equiv_pos_site_id
 _symmetry_equiv_pos_as_xyz
  1  'x, y, z'
loop_
 _atom_site_type_symbol
 _atom_site_label
 _atom_site_symmetry_multiplicity
 _atom_site_fract_x
 _atom_site_fract_y
 _atom_site_fract_z
 _atom_site_occupancy
  Mg  Mg0  1  0.86760679  0.88391129  0.87626510  1
  Mg  Mg1  1  0.36955688  0.37970845  0.87481343  1
  Mg  Mg2  1  0.86971388  0.12728625  0.61338329  1
  Mg  Mg3  1  0.86557227  0.88249523  0.12175244  1
  Mg  Mg4  1  0.62417425  0.38166976  0.37071017  1
  Mg  Mg5  1  0.37621457  0.12916895  0.86467511  1
  Mg  Mg6  1  0.86660988  0.36752451  0.37953672  1
  Mg  Mg7  1  0.36969531  0.37289438  0.12411106  1
  Mg  Mg8  1  0.86790832  0.63034470  0.86460811  1
  Mg  Mg9  1  0.86190301  0.87947606  0.64258252  1
  Mg  Mg10  1  0.37446955  0.86618820  0.88354159  1
  Mg  Mg11  1  0.11874319  0.87240408  0.88300613  1
  Mg  Mg12  1  0.87356155  0.11946099  0.88128746  1
  Mg  Mg13  1  0.62521098  0.11856926  0.38000156  1
  Mg  Mg14  1  0.12873115  0.37741928  0.37025611  1
  Mg  Mg15  1  0.37798002  0.86508887  0.62365570  1
  Mg  Mg16  1  0.62033117  0.11717123  0.11701170  1
  Mg  Mg17  1  0.12343589  0.12070271  0.87669075  1
  Mg  Mg18  1  0.86959993  0.62472002  0.36393349  1
  Mg  Mg19  1  0.49969297  0.21770725  0.72075835  1
  Mg  Mg20  1  0.73844704  0.01272799  -0.05465326  1
  Mg  Mg21  1  0.22667772  0.74021290  0.20870221  1
  Mg  Mg22  1  0.19824652  0.80156347  0.51716182  1
  Mg  Mg23  1  0.50945753  0.72665713  0.20732801  1
  Mg  Mg24  1  0.69530369  0.70343417  0.73374393  1
  Mg  Mg25  1  -0.04420239  0.78999060  0.24629672  1
  Mg  Mg26  1  0.68991167  0.26534336  0.48362365  1
  Mg  Mg27  1  0.50902767  0.24659693  0.32283210  1
  Mg  Mg28  1  -0.03292332  -0.00606585  -0.02479877  1
  Mg  Mg29  1  0.21842537  0.47793052  -0.01458353  1
  Mg  Mg30  1  0.78979915  0.03351947  0.75170335  1
  Mg  Mg31  1  0.46870103  0.72660415  -0.01233904  1
  Ti  Ti32  1  0.12259083  0.36740383  0.88108836  1
  Ti  Ti33  1  0.61873802  0.87468317  0.37932444  1
  Ti  Ti34  1  0.35763885  0.37880580  0.63253459  1
  Ti  Ti35  1  0.38020835  0.12130899  0.37284158  1
  Ti  Ti36  1  0.86688273  0.11524692  0.12404268  1
  Ti  Ti37  1  0.13189656  0.11781365  0.11974465  1
  Ti  Ti38  1  0.11559512  0.62032939  0.12044955  1
  Ti  Ti39  1  0.12456791  0.87371059  0.11798746  1
  Ti  Ti40  1  0.87994324  0.62132309  0.62506565  1
  Ti  Ti41  1  0.11906509  0.37481897  0.61428818  1
  Ti  Ti42  1  0.87513496  0.63494329  0.13041296  1
  Ti  Ti43  1  0.36621944  0.62299037  0.87298909  1
  Ti  Ti44  1  0.63205468  0.12466964  0.61178553  1
  Ti  Ti45  1  0.87107103  0.11901977  0.37286127  1
  Ti  Ti46  1  0.62888010  0.63105779  0.37309515  1
  Ti  Ti47  1  0.62555162  0.88392421  0.86893241  1
  Ti  Ti48  1  0.12609349  0.61736681  0.61052138  1
  Ti  Ti49  1  0.37370673  0.37445087  0.37669802  1
  Ti  Ti50  1  0.62167585  0.62588934  0.87813689  1
  Ti  Ti51  1  0.11856128  0.12759201  0.62014999  1
  Ti  Ti52  1  0.62364225  0.62513285  0.10699569  1
  Ti  Ti53  1  0.13078374  0.63076864  0.35746087  1
  Ti  Ti54  1  0.61260938  0.36183963  0.62617131  1
  Ti  Ti55  1  0.86888686  0.36971752  0.86865589  1
  Ti  Ti56  1  0.62314615  0.37565520  0.86684702  1
  Ti  Ti57  1  0.86957099  0.37356029  0.62230306  1
  Ti  Ti58  1  0.12297131  0.12462604  0.36825965  1
  Ti  Ti59  1  0.11995386  0.62192896  0.87514028  1
  Ti  Ti60  1  0.61682021  0.86931513  0.10641367  1
  Ti  Ti61  1  0.13174823  0.36894244  0.11967458  1
  Ti  Ti62  1  0.86709153  0.87281378  0.37688770  1
  Ti  Ti63  1  0.36729369  0.63195981  0.12703423  1
  Ti  Ti64  1  0.38003665  0.13434908  0.12801468  1
  Ti  Ti65  1  0.61630357  0.37087549  0.12008778  1
  Ti  Ti66  1  0.12804635  0.86234670  0.36399740  1
  Ti  Ti67  1  0.37881402  0.86190455  0.11870391  1
  Ti  Ti68  1  0.36692749  0.12331443  0.62560317  1
  Ti  Ti69  1  0.38472923  0.63391737  0.36157720  1
  Ti  Ti70  1  0.37600915  0.86179311  0.38375569  1
  Ti  Ti71  1  0.62766672  0.88981092  0.64080718  1
  Ti  Ti72  1  0.36501152  0.62491758  0.61586913  1
  Ti  Ti73  1  0.62344624  0.12931879  0.87314271  1
  Bi  Bi74  1  -0.01590518  0.23500982  0.47617678  1
  Bi  Bi75  1  0.48872822  -0.01742839  0.49647883  1
  Bi  Bi76  1  0.75766784  0.77497424  0.00191463  1
  Bi  Bi77  1  0.73908272  0.24039275  0.00719552  1
  Bi  Bi78  1  -0.01250408  0.48847289  0.47226944  1
  Bi  Bi79  1  0.25080758  -0.01798361  0.23454991  1
  Bi  Bi80  1  0.23564178  -0.01067219  0.48313697  1
  Bi  Bi81  1  0.48161314  0.47441411  0.24493259  1
  Bi  Bi82  1  0.71612963  0.23501954  0.25338579  1
  Bi  Bi83  1  -0.01080305  -0.01992218  0.75748773  1
  Bi  Bi84  1  -0.02352370  0.74230495  -0.02114893  1
  Bi  Bi85  1  0.47453556  0.49904013  0.00195146  1
  Bi  Bi86  1  0.23869375  -0.01487055  -0.02550344  1
  Bi  Bi87  1  0.74791547  0.48815413  0.48545857  1
  Bi  Bi88  1  0.72003777  0.51632595  0.74077163  1
  Bi  Bi89  1  0.23666789  0.73792059  -0.01486048  1
  Bi  Bi90  1  0.52523711  0.52537124  0.50462173  1
  Bi  Bi91  1  0.47001334  0.25614167  0.51823768  1
  Bi  Bi92  1  0.23810569  0.24055965  0.47993999  1
  Bi  Bi93  1  0.76061643  0.47195554  0.21584085  1
  Bi  Bi94  1  -0.02927225  0.24643155  0.22755189  1
  Bi  Bi95  1  0.25980688  0.23862558  -0.02641601  1
  Bi  Bi96  1  0.76168699  -0.01043555  0.50022978  1
  Bi  Bi97  1  0.23187371  0.48563871  0.74322865  1
  Bi  Bi98  1  -0.02152773  0.22770874  0.73779798  1
  Bi  Bi99  1  0.73763143  0.23135621  0.74014979  1
  Bi  Bi100  1  -0.00049332  -0.03519654  0.53323011  1
  Bi  Bi101  1  0.49313839  0.26955115  -0.02435121  1
  Bi  Bi102  1  -0.00611456  0.73792649  0.73535743  1
  Bi  Bi103  1  -0.02250225  0.48461136  -0.00969251  1
  Bi  Bi104  1  0.25737236  0.51999219  0.46081020  1
  Bi  Bi105  1  -0.01331694  0.22625050  -0.00804195  1
  Bi  Bi106  1  -0.01204283  0.48422990  0.74242577  1
  Bi  Bi107  1  0.49803869  0.51954363  0.72202391  1
  Bi  Bi108  1  0.53778140  0.74149672  0.52308970  1
  Bi  Bi109  1  0.75378505  0.74399941  0.54262728  1
  Bi  Bi110  1  0.24166822  0.23688013  0.23823140  1
  Bi  Bi111  1  0.22061945  -0.03615202  0.72676465  1
  Bi  Bi112  1  0.71209284  0.00248624  0.24550958  1
  Bi  Bi113  1  0.49399230  0.75352996  0.76305402  1
  Bi  Bi114  1  0.48360328  -0.02077347  0.23696091  1
  Bi  Bi115  1  0.24021724  0.48671374  0.23099462  1
  Bi  Bi116  1  -0.01323504  0.72930182  0.47600708  1
  Bi  Bi117  1  -0.01214264  -0.01281089  0.23241212  1
  Bi  Bi118  1  0.23273063  0.23594513  0.74117208  1
  Bi  Bi119  1  -0.01993582  0.47224096  0.23837312  1
  Bi  Bi120  1  0.72897370  0.73771674  0.23981491  1
  Bi  Bi121  1  0.46161836  -0.02097423  0.75556049  1
  Bi  Bi122  1  0.77046295  0.48163852  -0.00568626  1
  Bi  Bi123  1  0.23267080  0.75647099  0.71456739  1
  Bi  Bi124  1  0.47421989  0.02588413  -0.00351332  1
  O  O125  1  0.15444937  0.10842573  0.00925294  1
  O  O126  1  0.12234622  0.15153811  0.25418071  1
  O  O127  1  0.15158487  0.11884769  0.50194261  1
  O  O128  1  0.11656949  0.15729545  0.74473912  1
  O  O129  1  0.10959708  0.40278252  0.00423023  1
  O  O130  1  0.16196661  0.36689713  0.24307050  1
  O  O131  1  0.10224582  0.39366796  0.50480217  1
  O  O132  1  0.15177202  0.36371977  0.76257239  1
  O  O133  1  0.15781904  0.59973007  0.01118796  1
  O  O134  1  0.12667634  0.66126804  0.24788891  1
  O  O135  1  0.14057405  0.59996001  0.50059150  1
  O  O136  1  0.10634316  0.64704888  0.76059839  1
  O  O137  1  0.11271423  0.91077459  0.01086721  1
  O  O138  1  0.17881450  0.85370404  0.25488426  1
  O  O139  1  0.12006758  0.89598319  0.48593177  1
  O  O140  1  0.14344239  0.85598750  0.75782217  1
  O  O141  1  0.35976089  0.11062539  0.01063021  1
  O  O142  1  0.38983920  0.10497460  0.25219035  1
  O  O143  1  0.36778982  0.14523352  0.50230466  1
  O  O144  1  0.40178204  0.14071195  0.74020672  1
  O  O145  1  0.40945779  0.37748614  0.00521104  1
  O  O146  1  0.36063371  0.39642766  0.24991888  1
  O  O147  1  0.39331681  0.37497506  0.49778674  1
  O  O148  1  0.34751890  0.38094275  0.74898231  1
  O  O149  1  0.36812036  0.64701259  0.00982008  1
  O  O150  1  0.41573042  0.63348967  0.24835363  1
  O  O151  1  0.35340923  0.62325334  0.50336359  1
  O  O152  1  0.39154721  0.60669998  0.76034619  1
  O  O153  1  0.40561763  0.83943582  0.01193029  1
  O  O154  1  0.36715533  0.89957699  0.26743297  1
  O  O155  1  0.41177783  0.87091819  0.50228978  1
  O  O156  1  0.35558857  0.89336007  0.75251692  1
  O  O157  1  0.67150807  0.11745576  -0.00442279  1
  O  O158  1  0.62839200  0.12103072  0.24715681  1
  O  O159  1  0.65774338  0.13945779  0.50149684  1
  O  O160  1  0.60775402  0.16133591  0.75732720  1
  O  O161  1  0.59880643  0.38183207  0.00424671  1
  O  O162  1  0.66034096  0.37778467  0.24540779  1
  O  O163  1  0.59893143  0.35433743  0.50900147  1
  O  O164  1  0.64770958  0.36066637  0.75284497  1
  O  O165  1  0.65356547  0.62552522  -0.00608336  1
  O  O166  1  0.60546193  0.65568209  0.25915909  1
  O  O167  1  0.62379974  0.62674729  0.50528446  1
  O  O168  1  0.60849153  0.60641973  0.74997930  1
  O  O169  1  0.59298049  0.85533705  -0.00319267  1
  O  O170  1  0.64710190  0.86393764  0.26644838  1
  O  O171  1  0.59378043  0.87883278  0.51134359  1
  O  O172  1  0.65433334  0.89488028  0.75233206  1
  O  O173  1  0.86105243  0.15595218  0.00855013  1
  O  O174  1  0.90542016  0.10702479  0.24826991  1
  O  O175  1  0.87012714  0.15203236  0.48849435  1
  O  O176  1  0.90041251  0.10891719  0.75069150  1
  O  O177  1  0.88384196  0.37676618  -0.01117331  1
  O  O178  1  0.86517298  0.39269031  0.25352242  1
  O  O179  1  0.90922678  0.36424211  0.50932954  1
  O  O180  1  0.86774118  0.40378794  0.75008045  1
  O  O181  1  0.86148165  0.66515404  -0.00082515  1
  O  O182  1  0.88559215  0.59602569  0.24054848  1
  O  O183  1  0.87303155  0.64814937  0.50246387  1
  O  O184  1  0.91541213  0.62216367  0.74233977  1
  O  O185  1  0.87769668  0.84199286  0.00270064  1
  O  O186  1  0.87242426  0.89919070  0.25424574  1
  O  O187  1  0.91536055  0.86076731  0.48714894  1
  O  O188  1  0.85911932  0.93018078  0.75684820  1
  O  O189  1  0.01513142  0.15300481  0.11167260  1
  O  O190  1  0.01173943  0.11192584  0.39218681  1
  O  O191  1  0.00396050  0.15276940  0.61042495  1
  O  O192  1  0.00120414  0.11134226  0.91805082  1
  O  O193  1  0.01438768  0.36695342  0.14750692  1
  O  O194  1  0.00239936  0.40344015  0.36039479  1
  O  O195  1  0.00725683  0.36559287  0.65794145  1
  O  O196  1  0.00415960  0.39759561  0.86612228  1
  O  O197  1  0.00168475  0.63536004  0.10668576  1
  O  O198  1  0.01186603  0.61739824  0.38581401  1
  O  O199  1  0.00752328  0.64639238  0.60677564  1
  O  O200  1  0.00916918  0.60967250  0.90530182  1
  O  O201  1  0.01571251  0.86119008  0.15789899  1
  O  O202  1  0.01977043  0.87192221  0.33502142  1
  O  O203  1  -0.01089063  0.88832251  0.64606829  1
  O  O204  1  -0.00251138  0.91056168  0.87746568  1
  O  O205  1  0.25270769  0.11556049  0.15378271  1
  O  O206  1  0.25644535  0.14927787  0.36790704  1
  O  O207  1  0.25330205  0.12096935  0.64513613  1
  O  O208  1  0.24908345  0.15765569  0.86117665  1
  O  O209  1  0.24640134  0.41808220  0.10076706  1
  O  O210  1  0.25644795  0.36514971  0.39562776  1
  O  O211  1  0.24527043  0.40165846  0.61554413  1
  O  O212  1  0.24407292  0.36819907  0.91131865  1
  O  O213  1  0.25586746  0.62023171  0.15123404  1
  O  O214  1  0.25989243  0.62812797  0.36459559  1
  O  O215  1  0.24820403  0.60499619  0.64878766  1
  O  O216  1  0.25397864  0.64745798  0.86717470  1
  O  O217  1  0.25760428  0.90022448  0.11331744  1
  O  O218  1  0.26204325  0.86386830  0.41799611  1
  O  O219  1  0.25218493  0.86711071  0.61581567  1
  O  O220  1  0.25103693  0.85990789  0.91249945  1
  O  O221  1  0.49552337  0.13114382  0.09964493  1
  O  O222  1  0.49823289  0.13166468  0.38450484  1
  O  O223  1  0.51479412  0.15220645  0.61196729  1
  O  O224  1  0.50705134  0.12962595  0.90026674  1
  O  O225  1  0.50500925  0.37041954  0.15601320  1
  O  O226  1  0.49950622  0.37428046  0.34624614  1
  O  O227  1  0.50441485  0.32885850  0.65243094  1
  O  O228  1  0.50821651  0.35828862  0.86308591  1
  O  O229  1  0.50709789  0.66222849  0.09737995  1
  O  O230  1  0.49696158  0.62097636  0.40380404  1
  O  O231  1  0.49032073  0.61480505  0.61830544  1
  O  O232  1  0.50814443  0.62316473  0.90305102  1
  O  O233  1  0.49705320  0.84987642  0.16416590  1
  O  O234  1  0.50355050  0.90009625  0.36849835  1
  O  O235  1  0.50632299  0.87027442  0.66471228  1
  O  O236  1  0.50415566  0.87173375  0.84094101  1
  O  O237  1  0.75846143  0.09352179  0.14016322  1
  O  O238  1  0.76107955  0.12534730  0.34873465  1
  O  O239  1  0.74760110  0.11212404  0.66109327  1
  O  O240  1  0.74495293  0.10761191  0.84434071  1
  O  O241  1  0.73958845  0.39636942  0.10259031  1
  O  O242  1  0.74619430  0.36612402  0.42204693  1
  O  O243  1  0.76017058  0.39774079  0.60493608  1
  O  O244  1  0.75337359  0.36992932  0.89203218  1
  O  O245  1  0.74627312  0.63221398  0.14253766  1
  O  O246  1  0.74272841  0.64231129  0.36075177  1
  O  O247  1  0.76143802  0.62021812  0.64452955  1
  O  O248  1  0.74610641  0.62724066  0.82687158  1
  O  O249  1  0.73765738  0.88016290  0.10112227  1
  O  O250  1  0.75756603  0.86604262  0.40996633  1
  O  O251  1  0.74485103  0.88187001  0.59337271  1
  O  O252  1  0.73849270  0.87533621  0.90394518  1
  O  O253  1  0.12205927  0.00233404  0.15708850  1
  O  O254  1  0.16162844  0.00217304  0.36221084  1
  O  O255  1  0.11265889  0.01439191  0.63673431  1
  O  O256  1  0.16042416  -0.00109516  0.85985483  1
  O  O257  1  0.15708100  0.25470766  0.11669311  1
  O  O258  1  0.12228865  0.24766600  0.39750950  1
  O  O259  1  0.14909679  0.25921255  0.61071778  1
  O  O260  1  0.11049389  0.25495486  0.90423865  1
  O  O261  1  0.11431709  0.50983337  0.15645165  1
  O  O262  1  0.15054692  0.50936594  0.35682770  1
  O  O263  1  0.11405634  0.49951386  0.65746187  1
  O  O264  1  0.15154986  0.50417197  0.86767978  1
  O  O265  1  0.14902440  0.75652764  0.10674704  1
  O  O266  1  0.13045373  0.74996329  0.40419492  1
  O  O267  1  0.14803969  0.73490305  0.60952738  1
  O  O268  1  0.11958354  0.74225384  0.91019104  1
  O  O269  1  0.40083105  -0.01297513  0.12285336  1
  O  O270  1  0.36596355  0.00711674  0.40487492  1
  O  O271  1  0.39582090  0.00859376  0.61654366  1
  O  O272  1  0.38493991  -0.00084206  0.88542181  1
  O  O273  1  0.35540064  0.24648089  0.13223142  1
  O  O274  1  0.38899580  0.25418226  0.36198413  1
  O  O275  1  0.36238023  0.25684237  0.61680680  1
  O  O276  1  0.37842266  0.25256713  0.89905504  1
  O  O277  1  0.40031237  0.51421457  0.12254508  1
  O  O278  1  0.37262720  0.50375344  0.37460196  1
  O  O279  1  0.39309603  0.49206602  0.62505668  1
  O  O280  1  0.36509551  0.50758609  0.91022840  1
  O  O281  1  0.34596600  0.75484959  0.15611978  1
  O  O282  1  0.39187513  0.75181400  0.37030781  1
  O  O283  1  0.37159485  0.73790555  0.64212014  1
  O  O284  1  0.40190675  0.74201553  0.87166282  1
  O  O285  1  0.60750922  -0.01364017  0.14269294  1
  O  O286  1  0.64438785  -0.00651712  0.37829093  1
  O  O287  1  0.61568022  0.00763944  0.61717695  1
  O  O288  1  0.62079741  -0.00059953  0.88842402  1
  O  O289  1  0.64389977  0.25184594  0.11996010  1
  O  O290  1  0.62832974  0.24991571  0.36368096  1
  O  O291  1  0.66917740  0.25205163  0.61919092  1
  O  O292  1  0.63903762  0.24862958  0.90102303  1
  O  O293  1  0.60783656  0.51328135  0.13112302  1
  O  O294  1  0.63113649  0.50779877  0.39196487  1
  O  O295  1  0.60739713  0.48062800  0.63029197  1
  O  O296  1  0.63535314  0.49495229  0.86821764  1
  O  O297  1  0.63510367  0.75259157  0.13474474  1
  O  O298  1  0.61367093  0.75434204  0.40376685  1
  O  O299  1  0.63886942  0.76001756  0.63305843  1
  O  O300  1  0.62080463  0.74410061  0.84054653  1
  O  O301  1  0.91940283  0.00264999  0.10442927  1
  O  O302  1  0.86985453  -0.00201840  0.39772182  1
  O  O303  1  0.86897634  0.00182413  0.58963474  1
  O  O304  1  0.85679275  0.00295087  0.92093011  1
  O  O305  1  0.86232095  0.23476464  0.15082373  1
  O  O306  1  0.90184489  0.24484695  0.35836391  1
  O  O307  1  0.86515683  0.25663530  0.65247139  1
  O  O308  1  0.89014548  0.25353903  0.85903115  1
  O  O309  1  0.86761154  0.51696590  0.09044960  1
  O  O310  1  0.86196723  0.50000561  0.40508154  1
  O  O311  1  0.90333971  0.50374899  0.61696204  1
  O  O312  1  0.87290097  0.50434190  0.89254599  1
  O  O313  1  0.87034508  0.75143500  0.16030090  1
  O  O314  1  0.89784585  0.75502189  0.35549858  1
  O  O315  1  0.85867017  0.75209505  0.63720394  1
  O  O316  1  0.91313540  0.75373156  0.85434534  1
