# generated using pymatgen
data_Mg32Ti42(Bi17O64)3
_symmetry_space_group_name_H-M   'P 1'
_cell_length_a   15.89429065
_cell_length_b   15.95923312
_cell_length_c   15.99052229
_cell_angle_alpha   89.88589869
_cell_angle_beta   90.02635600
_cell_angle_gamma   89.83501834
_symmetry_Int_Tables_number   1
_chemical_formula_structural   Mg32Ti42(Bi17O64)3
_chemical_formula_sum   'Mg32 Ti42 Bi51 O192'
_cell_volume   4056.14161546
_cell_formula_units_Z   1
loop_
 _symmetry_equiv_pos_site_id
 _symmetry_equiv_pos_as_xyz
  1  'x, y, z'
loop_
 _atom_site_type_symbol
 _atom_site_label
 _atom_site_symmetry_multiplicity
 _atom_site_fract_x
 _atom_site_fract_y
 _atom_site_fract_z
 _atom_site_occupancy
  Mg  Mg0  1  0.62197629  0.86482188  0.88154867  1
  Mg  Mg1  1  0.12512508  0.37007338  0.62133471  1
  Mg  Mg2  1  0.87106410  0.38509457  0.37390924  1
  Mg  Mg3  1  0.63090762  0.87965651  0.36935657  1
  Mg  Mg4  1  0.37088539  0.12001600  0.87495403  1
  Mg  Mg5  1  0.64886942  0.37241912  0.13886948  1
  Mg  Mg6  1  0.13069368  0.88752120  0.87847655  1
  Mg  Mg7  1  0.12663858  0.36630906  0.36807062  1
  Mg  Mg8  1  0.37424676  0.37482206  0.61997929  1
  Mg  Mg9  1  0.87996310  0.87563361  0.37555947  1
  Mg  Mg10  1  0.37394883  0.37704166  0.87353323  1
  Mg  Mg11  1  0.13011279  0.12785262  0.36882463  1
  Mg  Mg12  1  0.62414095  0.37873884  0.37325912  1
  Mg  Mg13  1  0.36996683  0.39030727  0.37267914  1
  Mg  Mg14  1  0.12139723  0.88236340  0.12538793  1
  Mg  Mg15  1  0.11793569  0.37367667  0.87883639  1
  Mg  Mg16  1  0.87310787  0.86715263  0.88706019  1
  Mg  Mg17  1  0.87778605  0.62668241  0.62774851  1
  Mg  Mg18  1  0.12329139  0.62426588  0.87971601  1
  Mg  Mg19  1  -0.03636943  0.24602696  0.78781415  1
  Mg  Mg20  1  0.46951960  0.46038011  0.49694947  1
  Mg  Mg21  1  0.72246727  0.78005062  0.01272010  1
  Mg  Mg22  1  0.76324425  0.52318874  0.28563631  1
  Mg  Mg23  1  0.00179780  -0.02435292  -0.01861130  1
  Mg  Mg24  1  0.48626745  0.27700780  0.43853719  1
  Mg  Mg25  1  0.52445345  -0.07118397  0.70816776  1
  Mg  Mg26  1  0.29949808  0.25775615  0.27964079  1
  Mg  Mg27  1  0.03744376  0.77751596  0.00274895  1
  Mg  Mg28  1  -0.01777360  0.00946516  0.28989695  1
  Mg  Mg29  1  0.75748149  0.27346658  0.29001003  1
  Mg  Mg30  1  -0.01618381  0.47068712  0.03746786  1
  Mg  Mg31  1  0.68533272  0.76608617  0.71763356  1
  Ti  Ti32  1  0.85598992  0.12739216  0.63694645  1
  Ti  Ti33  1  0.37881425  0.86887325  0.13725038  1
  Ti  Ti34  1  0.37247233  0.61573581  0.88413058  1
  Ti  Ti35  1  0.37355631  0.87326001  0.88616222  1
  Ti  Ti36  1  0.11886131  0.62440966  0.37745071  1
  Ti  Ti37  1  0.10588748  0.62695554  0.12063877  1
  Ti  Ti38  1  0.37811966  0.11991793  0.38247252  1
  Ti  Ti39  1  0.88732347  0.87886590  0.64548390  1
  Ti  Ti40  1  0.64447986  0.62482199  0.12882321  1
  Ti  Ti41  1  0.62072974  0.13334995  0.36800123  1
  Ti  Ti42  1  0.87461687  0.62374518  0.14880450  1
  Ti  Ti43  1  0.61780802  0.12737322  0.86298104  1
  Ti  Ti44  1  0.62209743  0.39385039  0.86447893  1
  Ti  Ti45  1  0.12610005  0.13146707  0.88952138  1
  Ti  Ti46  1  0.10464915  0.09932882  0.12509710  1
  Ti  Ti47  1  0.87126674  0.09097936  0.11117269  1
  Ti  Ti48  1  0.13510583  0.63008950  0.63276664  1
  Ti  Ti49  1  0.63615192  0.12568791  0.11795300  1
  Ti  Ti50  1  0.85918207  0.37669773  0.15981147  1
  Ti  Ti51  1  0.87492076  0.63866384  0.38847434  1
  Ti  Ti52  1  0.61409130  0.13010020  0.62896050  1
  Ti  Ti53  1  0.11745884  0.12875001  0.61732301  1
  Ti  Ti54  1  0.62502240  0.61695013  0.60493505  1
  Ti  Ti55  1  0.64331398  0.62849682  0.87456223  1
  Ti  Ti56  1  0.37144057  0.87481627  0.62678002  1
  Ti  Ti57  1  0.12367678  0.88231404  0.62415477  1
  Ti  Ti58  1  0.37692952  0.87231820  0.38237498  1
  Ti  Ti59  1  0.88064188  0.37580854  0.86563109  1
  Ti  Ti60  1  0.36435079  0.63217944  0.12204652  1
  Ti  Ti61  1  0.61270149  0.88725108  0.12792693  1
  Ti  Ti62  1  0.12398314  0.89071199  0.37579795  1
  Ti  Ti63  1  0.63819149  0.62447723  0.37633293  1
  Ti  Ti64  1  0.39634848  0.12226649  0.12372796  1
  Ti  Ti65  1  0.87994714  0.62816234  0.86596083  1
  Ti  Ti66  1  0.38003003  0.63186319  0.59937843  1
  Ti  Ti67  1  0.86446602  0.13075568  0.88776067  1
  Ti  Ti68  1  0.88264258  0.36726397  0.62416379  1
  Ti  Ti69  1  0.37731737  0.12544534  0.63514130  1
  Ti  Ti70  1  0.37199574  0.62117315  0.37696402  1
  Ti  Ti71  1  0.10942165  0.37182906  0.12665261  1
  Ti  Ti72  1  0.87104289  0.86857636  0.11273100  1
  Ti  Ti73  1  0.61448451  0.37907622  0.61238392  1
  Bi  Bi74  1  0.50087497  -0.00434362  -0.02181429  1
  Bi  Bi75  1  -0.01338508  0.78091610  0.23833934  1
  Bi  Bi76  1  0.51161823  0.00206267  0.52400054  1
  Bi  Bi77  1  0.79212674  0.51014755  0.00546252  1
  Bi  Bi78  1  -0.01750946  0.22950458  0.45968960  1
  Bi  Bi79  1  -0.00368945  0.47547440  0.50104474  1
  Bi  Bi80  1  0.50506530  0.74273715  0.26538191  1
  Bi  Bi81  1  0.27076157  0.27045167  0.49966260  1
  Bi  Bi82  1  0.22658529  0.74588413  0.00512066  1
  Bi  Bi83  1  -0.00310842  0.03150686  0.78045538  1
  Bi  Bi84  1  0.24726629  0.02145535  0.75326520  1
  Bi  Bi85  1  0.73800734  0.27876721  0.73742455  1
  Bi  Bi86  1  0.51292144  0.00923932  0.26792824  1
  Bi  Bi87  1  0.75742824  0.77802713  0.52988911  1
  Bi  Bi88  1  0.46810349  0.72988231  0.75474314  1
  Bi  Bi89  1  0.49582335  0.52105324  0.23592892  1
  Bi  Bi90  1  0.47455357  0.27801684  0.74874801  1
  Bi  Bi91  1  0.22200512  0.49777001  0.51139087  1
  Bi  Bi92  1  0.53592944  0.78128163  0.50276654  1
  Bi  Bi93  1  0.24235013  0.01768314  0.51152973  1
  Bi  Bi94  1  0.71730907  -0.03818752  0.74289445  1
  Bi  Bi95  1  0.00400963  0.49956672  0.75975022  1
  Bi  Bi96  1  0.21614713  0.75122246  0.25443797  1
  Bi  Bi97  1  0.73644037  -0.00477589  -0.03311609  1
  Bi  Bi98  1  0.48407817  0.50391881  0.71997007  1
  Bi  Bi99  1  0.00705547  0.25643486  0.01963082  1
  Bi  Bi100  1  0.26150292  0.01825105  0.26248808  1
  Bi  Bi101  1  0.76855943  0.02069348  0.27792567  1
  Bi  Bi102  1  0.73951515  0.77874544  0.24653834  1
  Bi  Bi103  1  0.75550878  -0.00142997  0.48810919  1
  Bi  Bi104  1  0.50766167  0.29146923  0.23633415  1
  Bi  Bi105  1  0.27720747  0.47423591  0.21373599  1
  Bi  Bi106  1  -0.03619320  0.21268882  0.24819928  1
  Bi  Bi107  1  0.75117083  0.47474565  0.48458660  1
  Bi  Bi108  1  0.28123845  0.47700405  -0.00311936  1
  Bi  Bi109  1  0.23739106  0.76365899  0.48369125  1
  Bi  Bi110  1  0.52929744  0.47710834  0.02938574  1
  Bi  Bi111  1  0.23026622  0.49423180  0.77072434  1
  Bi  Bi112  1  0.26126615  -0.01475784  0.02371928  1
  Bi  Bi113  1  -0.00137185  0.73735654  0.53322295  1
  Bi  Bi114  1  0.23613473  0.77232126  0.76402764  1
  Bi  Bi115  1  0.51877355  0.72647704  -0.00681322  1
  Bi  Bi116  1  0.72959420  0.27551088  -0.00874716  1
  Bi  Bi117  1  0.26915990  0.25579477  0.04624386  1
  Bi  Bi118  1  0.47909744  0.25097165  -0.02805298  1
  Bi  Bi119  1  0.73404503  0.23197076  0.49486088  1
  Bi  Bi120  1  0.22892478  0.25812901  0.75010937  1
  Bi  Bi121  1  0.00251908  0.76814637  0.79244191  1
  Bi  Bi122  1  0.02661586  0.50032039  0.27018885  1
  Bi  Bi123  1  -0.03097977  0.01767780  0.49998872  1
  Bi  Bi124  1  0.76471951  0.52011154  0.72865701  1
  O  O125  1  0.11564192  0.15359733  0.00011881  1
  O  O126  1  0.08400165  0.08484947  0.23890565  1
  O  O127  1  0.15550322  0.12820347  0.50026110  1
  O  O128  1  0.12366589  0.09962848  0.74036273  1
  O  O129  1  0.08244999  0.37887695  0.00230199  1
  O  O130  1  0.11422151  0.39066341  0.24093627  1
  O  O131  1  0.11468662  0.40235657  0.49396270  1
  O  O132  1  0.16155640  0.37556618  0.74315147  1
  O  O133  1  0.10205159  0.66456711  0.00252785  1
  O  O134  1  0.12754948  0.63846279  0.24424109  1
  O  O135  1  0.12239207  0.61196656  0.49446168  1
  O  O136  1  0.16245270  0.63582078  0.74337586  1
  O  O137  1  0.15070365  0.86024070  0.00074317  1
  O  O138  1  0.12087632  0.86423598  0.25507421  1
  O  O139  1  0.15192767  0.87427389  0.49415966  1
  O  O140  1  0.11579506  0.87116110  0.74166959  1
  O  O141  1  0.36410222  0.15727262  0.00766839  1
  O  O142  1  0.39599247  0.08343694  0.24055874  1
  O  O143  1  0.35227643  0.12993242  0.49276346  1
  O  O144  1  0.37499874  0.09821667  0.74673352  1
  O  O145  1  0.36169246  0.34935418  0.00334036  1
  O  O146  1  0.35746657  0.37529477  0.25042227  1
  O  O147  1  0.39780902  0.34767932  0.49285173  1
  O  O148  1  0.38049376  0.38671002  0.74817296  1
  O  O149  1  0.38894775  0.65086632  0.00791208  1
  O  O150  1  0.36973548  0.59447855  0.25384481  1
  O  O151  1  0.40193621  0.65550078  0.49278832  1
  O  O152  1  0.38304713  0.61000825  0.76311728  1
  O  O153  1  0.34329745  0.85793039  -0.00231442  1
  O  O154  1  0.39805337  0.89293494  0.24724510  1
  O  O155  1  0.35484699  0.85418544  0.49780528  1
  O  O156  1  0.41011522  0.88660920  0.74008458  1
  O  O157  1  0.63927898  0.09505572  0.00618352  1
  O  O158  1  0.59248015  0.13018960  0.25336094  1
  O  O159  1  0.64729960  0.11007278  0.51040513  1
  O  O160  1  0.60587158  0.15056015  0.75211384  1
  O  O161  1  0.63715589  0.38924222  -0.01333306  1
  O  O162  1  0.64400654  0.33006010  0.25610940  1
  O  O163  1  0.58954969  0.40445654  0.50212576  1
  O  O164  1  0.61807850  0.35295236  0.75079572  1
  O  O165  1  0.60074446  0.60749011  0.00617605  1
  O  O166  1  0.66408924  0.61863101  0.24497211  1
  O  O167  1  0.60715603  0.61070701  0.49201573  1
  O  O168  1  0.64805983  0.65600466  0.76356003  1
  O  O169  1  0.65044692  0.89019707  0.01020894  1
  O  O170  1  0.60799275  0.85987966  0.24371131  1
  O  O171  1  0.64977705  0.86269593  0.49403363  1
  O  O172  1  0.61741792  0.86327836  0.75601284  1
  O  O173  1  0.85021474  0.13824218  0.00366844  1
  O  O174  1  0.89552181  0.08744040  0.23406774  1
  O  O175  1  0.85162277  0.10027829  0.51510749  1
  O  O176  1  0.89461204  0.14145391  0.74884115  1
  O  O177  1  0.89346386  0.40127889  -0.02455197  1
  O  O178  1  0.81975452  0.41193706  0.26021381  1
  O  O179  1  0.87867455  0.39181150  0.50393074  1
  O  O180  1  0.87155582  0.33152936  0.73846920  1
  O  O181  1  0.90569138  0.57841490  -0.02519117  1
  O  O182  1  0.85522585  0.60783352  0.25689907  1
  O  O183  1  0.89795724  0.63352801  0.50105811  1
  O  O184  1  0.84662436  0.62831857  0.74879474  1
  O  O185  1  0.83223734  0.84145797  0.00923453  1
  O  O186  1  0.91748962  0.89967513  0.24455983  1
  O  O187  1  0.84879547  0.88387134  0.50904692  1
  O  O188  1  0.91119118  0.87199843  0.75820979  1
  O  O189  1  -0.01998305  0.14736777  0.10934856  1
  O  O190  1  0.00249771  0.10283473  0.39830382  1
  O  O191  1  0.00248988  0.12336680  0.59981926  1
  O  O192  1  0.00546040  0.14804393  0.86049946  1
  O  O193  1  -0.02465898  0.36298349  0.12704569  1
  O  O194  1  -0.00572916  0.41539337  0.37221010  1
  O  O195  1  -0.00201255  0.37901807  0.62018127  1
  O  O196  1  -0.00288138  0.36303446  0.83385335  1
  O  O197  1  -0.00886084  0.64868106  0.13902516  1
  O  O198  1  0.00129051  0.60748813  0.36600436  1
  O  O199  1  0.01568103  0.63583774  0.63294859  1
  O  O200  1  -0.00052177  0.62176956  0.83375789  1
  O  O201  1  -0.00727726  0.83801643  0.10297075  1
  O  O202  1  0.01155838  0.91814901  0.38479535  1
  O  O203  1  0.00540118  0.87051862  0.60209409  1
  O  O204  1  0.00369404  0.85492261  0.90908550  1
  O  O205  1  0.22408418  0.08714523  0.12583508  1
  O  O206  1  0.25970816  0.14204034  0.33014500  1
  O  O207  1  0.25570250  0.10257640  0.63177983  1
  O  O208  1  0.24244990  0.10081972  0.86909499  1
  O  O209  1  0.22739866  0.38858540  0.11029475  1
  O  O210  1  0.25195981  0.33580219  0.37971720  1
  O  O211  1  0.25373556  0.37905394  0.58597067  1
  O  O212  1  0.24836028  0.40375258  0.88469551  1
  O  O213  1  0.25026371  0.61589648  0.11173785  1
  O  O214  1  0.25923536  0.64159016  0.38084387  1
  O  O215  1  0.26471314  0.61924382  0.59668716  1
  O  O216  1  0.25644213  0.60219301  0.89777737  1
  O  O217  1  0.25980369  0.90509344  0.13693279  1
  O  O218  1  0.25773564  0.84858003  0.36318386  1
  O  O219  1  0.25518886  0.88647057  0.63959879  1
  O  O220  1  0.25794476  0.88988970  0.84459328  1
  O  O221  1  0.50453055  0.14628344  0.10914757  1
  O  O222  1  0.49725797  0.09189127  0.39020648  1
  O  O223  1  0.49812718  0.13284131  0.60301630  1
  O  O224  1  0.50306284  0.12205078  0.90054674  1
  O  O225  1  0.52040847  0.37192267  0.12771753  1
  O  O226  1  0.49962773  0.37541236  0.35053546  1
  O  O227  1  0.50068531  0.36989447  0.63892995  1
  O  O228  1  0.50599660  0.36239573  0.87543171  1
  O  O229  1  0.50762243  0.63213157  0.15302286  1
  O  O230  1  0.51327272  0.61435164  0.33710695  1
  O  O231  1  0.50419654  0.63132898  0.64992384  1
  O  O232  1  0.50072892  0.65402134  0.87660126  1
  O  O233  1  0.49887301  0.86504087  0.10419730  1
  O  O234  1  0.49878056  0.88974818  0.40442881  1
  O  O235  1  0.49784577  0.87496678  0.59679851  1
  O  O236  1  0.49462704  0.86261046  0.90475812  1
  O  O237  1  0.75183898  0.09666897  0.13925887  1
  O  O238  1  0.73543245  0.15615481  0.34488719  1
  O  O239  1  0.74344161  0.11933226  0.65351935  1
  O  O240  1  0.75209545  0.11236298  0.86446245  1
  O  O241  1  0.76589831  0.37665494  0.09309209  1
  O  O242  1  0.74402723  0.35205570  0.40998859  1
  O  O243  1  0.74176394  0.38095874  0.63407571  1
  O  O244  1  0.74882133  0.36733114  0.85612921  1
  O  O245  1  0.76204524  0.62143014  0.09581626  1
  O  O246  1  0.75167249  0.65809412  0.39222562  1
  O  O247  1  0.74271417  0.60504404  0.61202205  1
  O  O248  1  0.75531945  0.60613602  0.89578601  1
  O  O249  1  0.75425680  0.88566955  0.15668522  1
  O  O250  1  0.75631089  0.87175435  0.34277945  1
  O  O251  1  0.76360478  0.84982531  0.65892261  1
  O  O252  1  0.75262552  0.89618147  0.86083211  1
  O  O253  1  0.08172352  -0.00249841  0.08163218  1
  O  O254  1  0.16525769  -0.00039221  0.37500301  1
  O  O255  1  0.12611292  -0.00340232  0.60404140  1
  O  O256  1  0.09040274  0.00839285  0.88903500  1
  O  O257  1  0.10630799  0.25543394  0.12411467  1
  O  O258  1  0.08343684  0.24768585  0.37334051  1
  O  O259  1  0.14109525  0.24197666  0.63927421  1
  O  O260  1  0.14301219  0.24613691  0.85604636  1
  O  O261  1  0.08882321  0.51229424  0.10876954  1
  O  O262  1  0.14194362  0.50988784  0.35240177  1
  O  O263  1  0.14396463  0.50723672  0.62991659  1
  O  O264  1  0.11462429  0.50104504  0.84767329  1
  O  O265  1  0.15130100  0.75339446  0.12718657  1
  O  O266  1  0.12618622  0.74867100  0.37943161  1
  O  O267  1  0.13915454  0.75208001  0.60616070  1
  O  O268  1  0.14579966  0.75298389  0.86639310  1
  O  O269  1  0.38882765  0.00289160  0.08601875  1
  O  O270  1  0.35099591  -0.00637708  0.37935951  1
  O  O271  1  0.38979330  -0.00332223  0.59789344  1
  O  O272  1  0.38517111  -0.00669681  0.90186798  1
  O  O273  1  0.33903793  0.22369865  0.16047038  1
  O  O274  1  0.40092918  0.23101104  0.35630269  1
  O  O275  1  0.36681874  0.24183375  0.64353528  1
  O  O276  1  0.38680261  0.24693953  0.86103433  1
  O  O277  1  0.38223866  0.50859714  0.11876466  1
  O  O278  1  0.38260783  0.50909060  0.41129616  1
  O  O279  1  0.40716882  0.50688032  0.60129741  1
  O  O280  1  0.39408126  0.50361677  0.90949162  1
  O  O281  1  0.36426425  0.75298233  0.14972702  1
  O  O282  1  0.39939420  0.75098278  0.35434867  1
  O  O283  1  0.37485494  0.74801938  0.64328007  1
  O  O284  1  0.35754698  0.75136903  0.85066192  1
  O  O285  1  0.59872703  0.00053648  0.14320899  1
  O  O286  1  0.64949494  0.00926485  0.37012424  1
  O  O287  1  0.59929478  0.01010570  0.64733738  1
  O  O288  1  0.62481749  0.00225618  0.86920587  1
  O  O289  1  0.65132471  0.23983505  0.09986965  1
  O  O290  1  0.60258954  0.24115496  0.41355065  1
  O  O291  1  0.63907427  0.25431339  0.60422925  1
  O  O292  1  0.62756362  0.23977875  0.90155245  1
  O  O293  1  0.62132868  0.50165659  0.13080557  1
  O  O294  1  0.66579933  0.50461362  0.36735419  1
  O  O295  1  0.61114060  0.49982273  0.64571952  1
  O  O296  1  0.61364867  0.50631709  0.85400196  1
  O  O297  1  0.64549169  0.74680546  0.11036968  1
  O  O298  1  0.60499611  0.74475747  0.36704216  1
  O  O299  1  0.63387274  0.73613349  0.60777970  1
  O  O300  1  0.64518684  0.74388718  0.91765300  1
  O  O301  1  0.89622216  -0.01438078  0.07743539  1
  O  O302  1  0.85258035  0.00142552  0.38579832  1
  O  O303  1  0.87454844  -0.00350552  0.64546255  1
  O  O304  1  0.90569493  0.01252168  0.89407580  1
  O  O305  1  0.84647427  0.26184187  0.19359315  1
  O  O306  1  0.89018143  0.25838778  0.36211227  1
  O  O307  1  0.85597390  0.24419765  0.59924179  1
  O  O308  1  0.87664120  0.25008234  0.88443052  1
  O  O309  1  0.88463783  0.50458665  0.12189358  1
  O  O310  1  0.84146059  0.51459301  0.39121436  1
  O  O311  1  0.87289132  0.49066656  0.64426973  1
  O  O312  1  0.87843885  0.48871101  0.82631516  1
  O  O313  1  0.86129017  0.75265741  0.16414741  1
  O  O314  1  0.90170652  0.75078641  0.36623889  1
  O  O315  1  0.88987473  0.75466790  0.61562941  1
  O  O316  1  0.88637995  0.74022486  0.87302659  1
