# generated using pymatgen
data_Mg32Ti42(Bi17O64)3
_symmetry_space_group_name_H-M   'P 1'
_cell_length_a   15.95336543
_cell_length_b   15.98935086
_cell_length_c   15.91576443
_cell_angle_alpha   89.95914737
_cell_angle_beta   89.96061257
_cell_angle_gamma   89.94837162
_symmetry_Int_Tables_number   1
_chemical_formula_structural   Mg32Ti42(Bi17O64)3
_chemical_formula_sum   'Mg32 Ti42 Bi51 O192'
_cell_volume   4059.85253258
_cell_formula_units_Z   1
loop_
 _symmetry_equiv_pos_site_id
 _symmetry_equiv_pos_as_xyz
  1  'x, y, z'
loop_
 _atom_site_type_symbol
 _atom_site_label
 _atom_site_symmetry_multiplicity
 _atom_site_fract_x
 _atom_site_fract_y
 _atom_site_fract_z
 _atom_site_occupancy
  Mg  Mg0  1  0.38683458  0.62120230  0.13130529  1
  Mg  Mg1  1  0.87125802  0.36696620  0.86892307  1
  Mg  Mg2  1  0.36696004  0.36246336  0.63454691  1
  Mg  Mg3  1  0.12707450  0.87547508  0.37329160  1
  Mg  Mg4  1  0.12489627  0.62003556  0.37335285  1
  Mg  Mg5  1  0.13152459  0.38395886  0.86956340  1
  Mg  Mg6  1  0.62750048  0.37400213  0.64407179  1
  Mg  Mg7  1  0.12580582  0.12417237  0.87316884  1
  Mg  Mg8  1  0.12633837  0.86684103  0.63155529  1
  Mg  Mg9  1  0.11711817  0.37010641  0.36956667  1
  Mg  Mg10  1  0.12401400  0.87322517  0.12057575  1
  Mg  Mg11  1  0.37302950  0.38026971  0.35459685  1
  Mg  Mg12  1  0.62678989  0.63234625  0.37435949  1
  Mg  Mg13  1  0.87392561  0.62235428  0.87487482  1
  Mg  Mg14  1  0.61277572  0.63471499  0.12635971  1
  Mg  Mg15  1  0.87712863  0.63414339  0.11636883  1
  Mg  Mg16  1  0.11708323  0.38219452  0.10887629  1
  Mg  Mg17  1  0.60672034  0.63753036  0.88128799  1
  Mg  Mg18  1  0.87073832  0.13150903  0.62614624  1
  Mg  Mg19  1  -0.00732063  0.28413952  0.21121300  1
  Mg  Mg20  1  0.47235740  0.28337853  0.75889747  1
  Mg  Mg21  1  0.28122711  0.53682986  0.02302079  1
  Mg  Mg22  1  0.57266706  0.48279115  0.26656370  1
  Mg  Mg23  1  0.70905957  0.55208174  0.75960391  1
  Mg  Mg24  1  0.43548886  0.74008198  0.01484955  1
  Mg  Mg25  1  0.48451202  0.28571885  -0.02987681  1
  Mg  Mg26  1  0.75536832  -0.01492871  0.28324536  1
  Mg  Mg27  1  0.22491271  0.24682721  0.75807576  1
  Mg  Mg28  1  0.01135508  0.28906216  0.75487100  1
  Mg  Mg29  1  0.72138246  0.24650776  0.75613489  1
  Mg  Mg30  1  0.73347917  0.69428146  -0.00762514  1
  Mg  Mg31  1  0.24342170  0.72973604  -0.03968384  1
  Ti  Ti32  1  0.12569650  0.61819029  0.87734597  1
  Ti  Ti33  1  0.36561125  0.39391414  0.87531900  1
  Ti  Ti34  1  0.62535862  0.88415101  0.12284809  1
  Ti  Ti35  1  0.63419968  0.87600191  0.61816392  1
  Ti  Ti36  1  0.36851451  0.12423167  0.35984706  1
  Ti  Ti37  1  0.86825215  0.88120925  0.87298798  1
  Ti  Ti38  1  0.62464350  0.88178246  0.89027277  1
  Ti  Ti39  1  0.87379774  0.12588385  0.14452612  1
  Ti  Ti40  1  0.86826390  0.38455645  0.11631060  1
  Ti  Ti41  1  0.36903288  0.38614058  0.11090828  1
  Ti  Ti42  1  0.61027305  0.12768004  0.88462191  1
  Ti  Ti43  1  0.61598024  0.36627522  0.86430497  1
  Ti  Ti44  1  0.87757553  0.87512120  0.11967014  1
  Ti  Ti45  1  0.12541637  0.12990730  0.62311845  1
  Ti  Ti46  1  0.37585389  0.87596438  0.37254071  1
  Ti  Ti47  1  0.38559552  0.61597860  0.36868154  1
  Ti  Ti48  1  0.11273174  0.12733915  0.11276441  1
  Ti  Ti49  1  0.36223016  0.13434748  0.12308247  1
  Ti  Ti50  1  0.11283604  0.87058135  0.87275658  1
  Ti  Ti51  1  0.36728408  0.13838182  0.63685437  1
  Ti  Ti52  1  0.88151281  0.12703187  0.37913248  1
  Ti  Ti53  1  0.87078734  0.87799307  0.37029040  1
  Ti  Ti54  1  0.38411232  0.87685219  0.87969856  1
  Ti  Ti55  1  0.13969270  0.37830446  0.63787275  1
  Ti  Ti56  1  0.11954478  0.62800445  0.11076176  1
  Ti  Ti57  1  0.37449802  0.87945926  0.12577397  1
  Ti  Ti58  1  0.37700947  0.88159393  0.61812461  1
  Ti  Ti59  1  0.62911934  0.13014957  0.12875564  1
  Ti  Ti60  1  0.12398885  0.62401909  0.61088558  1
  Ti  Ti61  1  0.86145820  0.36109033  0.64663919  1
  Ti  Ti62  1  0.88545352  0.35713957  0.36534339  1
  Ti  Ti63  1  0.87418263  0.88642200  0.63420435  1
  Ti  Ti64  1  0.88045298  0.13540395  0.86954879  1
  Ti  Ti65  1  0.62729682  0.13806924  0.61953862  1
  Ti  Ti66  1  0.11923923  0.12243206  0.37748934  1
  Ti  Ti67  1  0.38233367  0.63049848  0.87971342  1
  Ti  Ti68  1  0.62751105  0.11857093  0.37096815  1
  Ti  Ti69  1  0.87586413  0.64151920  0.36377755  1
  Ti  Ti70  1  0.62069912  0.37599495  0.10972986  1
  Ti  Ti71  1  0.62890053  0.86920655  0.38302372  1
  Ti  Ti72  1  0.62753121  0.62515081  0.62523110  1
  Ti  Ti73  1  0.37566262  0.13190669  0.87257091  1
  Bi  Bi74  1  0.50719713  0.77856954  0.74027769  1
  Bi  Bi75  1  0.51513537  0.52031927  0.01136949  1
  Bi  Bi76  1  0.25037212  0.25661377  -0.02314594  1
  Bi  Bi77  1  0.76124470  0.02560648  0.00937321  1
  Bi  Bi78  1  -0.00993872  0.73147267  0.74817460  1
  Bi  Bi79  1  0.47385272  0.71205580  0.52347883  1
  Bi  Bi80  1  0.75302690  0.53869044  0.22914444  1
  Bi  Bi81  1  0.47977199  0.02175215  0.49355485  1
  Bi  Bi82  1  0.21605872  0.25972977  0.24901451  1
  Bi  Bi83  1  0.48603047  0.50451686  0.70443957  1
  Bi  Bi84  1  0.28196735  0.49972000  0.50508381  1
  Bi  Bi85  1  0.49163179  0.25574959  0.46847551  1
  Bi  Bi86  1  0.78399866  0.71714519  0.55262049  1
  Bi  Bi87  1  0.25674744  0.73455100  0.46869151  1
  Bi  Bi88  1  -0.02400961  0.73862157  -0.01578930  1
  Bi  Bi89  1  0.03027538  0.73629399  0.25358846  1
  Bi  Bi90  1  0.52466337  -0.00851198  0.25769654  1
  Bi  Bi91  1  -0.00016520  0.01355586  0.73491042  1
  Bi  Bi92  1  0.72936657  0.74858656  0.78331996  1
  Bi  Bi93  1  -0.01446855  -0.00036325  -0.00630810  1
  Bi  Bi94  1  0.50010603  0.01533506  0.73365739  1
  Bi  Bi95  1  0.22991237  0.00320567  0.75026850  1
  Bi  Bi96  1  0.22631429  0.00228782  0.22425323  1
  Bi  Bi97  1  0.52965656  0.47230845  0.48165582  1
  Bi  Bi98  1  0.25337902  0.72014668  0.22832437  1
  Bi  Bi99  1  0.23999283  -0.03569417  -0.01002164  1
  Bi  Bi100  1  0.74696769  0.76208200  0.21802296  1
  Bi  Bi101  1  0.73917386  0.49325120  0.46065855  1
  Bi  Bi102  1  0.23066492  -0.02797958  0.50367907  1
  Bi  Bi103  1  0.73681199  0.03606427  0.75547537  1
  Bi  Bi104  1  0.00441943  -0.02427495  0.49381708  1
  Bi  Bi105  1  0.26322777  0.52581315  0.73043615  1
  Bi  Bi106  1  0.27941889  0.74085475  0.73715094  1
  Bi  Bi107  1  -0.00781733  0.51373763  0.73725256  1
  Bi  Bi108  1  0.48889280  0.26987963  0.21214540  1
  Bi  Bi109  1  0.73195048  0.29870483  0.25499480  1
  Bi  Bi110  1  0.25136140  0.27034717  0.47189802  1
  Bi  Bi111  1  0.71875491  0.27497608  0.49208147  1
  Bi  Bi112  1  0.00327240  -0.01846080  0.24782809  1
  Bi  Bi113  1  0.49229386  0.76446753  0.24296110  1
  Bi  Bi114  1  0.00740906  0.26672991  0.53328632  1
  Bi  Bi115  1  -0.01471530  0.49469241  -0.01687766  1
  Bi  Bi116  1  -0.03701397  0.49031180  0.51617550  1
  Bi  Bi117  1  0.21329002  0.49408904  0.23397406  1
  Bi  Bi118  1  0.74163920  0.50067818  -0.03975501  1
  Bi  Bi119  1  0.48857551  0.02567696  0.02409998  1
  Bi  Bi120  1  -0.00559093  0.75031220  0.51049404  1
  Bi  Bi121  1  -0.00871912  0.49952145  0.27297604  1
  Bi  Bi122  1  0.76229432  0.01651261  0.49325400  1
  Bi  Bi123  1  0.01988205  0.25817381  -0.03820919  1
  Bi  Bi124  1  0.74437215  0.25715709  -0.01832868  1
  O  O125  1  0.13348123  0.15388970  0.00241880  1
  O  O126  1  0.11889472  0.08948598  0.26022787  1
  O  O127  1  0.13892485  0.14377487  0.50837416  1
  O  O128  1  0.11979958  0.09232980  0.75023568  1
  O  O129  1  0.13817583  0.33755777  -0.00568506  1
  O  O130  1  0.14330567  0.37382847  0.23239482  1
  O  O131  1  0.14207218  0.35103177  0.50657565  1
  O  O132  1  0.09751467  0.38912661  0.74670826  1
  O  O133  1  0.15730878  0.64597326  -0.00026345  1
  O  O134  1  0.12825491  0.63195091  0.24150630  1
  O  O135  1  0.14522788  0.62612248  0.49918639  1
  O  O136  1  0.09200336  0.61586571  0.75778466  1
  O  O137  1  0.12542562  0.87851747  -0.00636370  1
  O  O138  1  0.12817068  0.90757011  0.24957826  1
  O  O139  1  0.11417115  0.87881380  0.50458879  1
  O  O140  1  0.15311813  0.88225883  0.75646021  1
  O  O141  1  0.36885764  0.12107722  0.00101051  1
  O  O142  1  0.38737356  0.12338994  0.24765769  1
  O  O143  1  0.37212047  0.12107027  0.51947614  1
  O  O144  1  0.39482930  0.10718118  0.75822905  1
  O  O145  1  0.36883051  0.34832061  -0.00958047  1
  O  O146  1  0.40242648  0.38102868  0.22734147  1
  O  O147  1  0.34103175  0.37202048  0.50760885  1
  O  O148  1  0.39720383  0.38776544  0.76219756  1
  O  O149  1  0.33917472  0.64986720  -0.00604285  1
  O  O150  1  0.39261896  0.63453268  0.25513176  1
  O  O151  1  0.35170008  0.63134343  0.49677333  1
  O  O152  1  0.36675528  0.62834933  0.76011179  1
  O  O153  1  0.40625683  0.86534355  0.01092838  1
  O  O154  1  0.36407858  0.86798171  0.25775007  1
  O  O155  1  0.40133672  0.88759036  0.50494979  1
  O  O156  1  0.37517562  0.86119120  0.76170067  1
  O  O157  1  0.63865818  0.11076281  0.00378757  1
  O  O158  1  0.60690945  0.12434910  0.25467742  1
  O  O159  1  0.65039615  0.11280845  0.50816896  1
  O  O160  1  0.61227780  0.11997095  0.75990408  1
  O  O161  1  0.64507738  0.38145578  -0.00694069  1
  O  O162  1  0.60261133  0.36341631  0.23893634  1
  O  O163  1  0.65045954  0.39676210  0.51892166  1
  O  O164  1  0.59640991  0.32124481  0.75808180  1
  O  O165  1  0.64451195  0.60044290  -0.00145132  1
  O  O166  1  0.62220827  0.59877695  0.24842539  1
  O  O167  1  0.66056416  0.61271292  0.51168151  1
  O  O168  1  0.62022571  0.65391863  0.75846588  1
  O  O169  1  0.61190894  0.88748743  0.00798767  1
  O  O170  1  0.64697004  0.91528402  0.25781036  1
  O  O171  1  0.62069129  0.87987604  0.50283563  1
  O  O172  1  0.63616424  0.84774100  0.75717574  1
  O  O173  1  0.84132486  0.14080656  -0.00618219  1
  O  O174  1  0.88143647  0.09386216  0.25449158  1
  O  O175  1  0.84214614  0.13539331  0.49455849  1
  O  O176  1  0.88693623  0.09817243  0.75593135  1
  O  O177  1  0.84991925  0.34647168  0.00299407  1
  O  O178  1  0.84927506  0.38231338  0.24296723  1
  O  O179  1  0.90165811  0.34998931  0.48143568  1
  O  O180  1  0.90792221  0.37772281  0.74878963  1
  O  O181  1  0.85597444  0.66730397  -0.00453640  1
  O  O182  1  0.87679564  0.60494027  0.24213881  1
  O  O183  1  0.89081969  0.63939166  0.48424584  1
  O  O184  1  0.91018085  0.62254033  0.75569263  1
  O  O185  1  0.89176880  0.86148188  0.00156135  1
  O  O186  1  0.85706647  0.91002436  0.25363369  1
  O  O187  1  0.90249185  0.86107487  0.49593126  1
  O  O188  1  0.86989041  0.89363262  0.75100479  1
  O  O189  1  -0.00406817  0.10597361  0.10893711  1
  O  O190  1  -0.00120452  0.12195048  0.39335788  1
  O  O191  1  0.00917353  0.09250439  0.61828046  1
  O  O192  1  -0.00401946  0.10600212  0.90242149  1
  O  O193  1  -0.01349532  0.37540812  0.12346262  1
  O  O194  1  -0.00402838  0.35363910  0.32077595  1
  O  O195  1  0.01209907  0.38797565  0.60188768  1
  O  O196  1  0.00215210  0.38489738  0.90217735  1
  O  O197  1  0.00483275  0.63787376  0.09973204  1
  O  O198  1  -0.00420526  0.62639623  0.34914734  1
  O  O199  1  0.01261299  0.57929354  0.61439463  1
  O  O200  1  0.00330468  0.61621155  0.91081379  1
  O  O201  1  -0.00565690  0.88668556  0.14142562  1
  O  O202  1  -0.00540566  0.89396033  0.36015363  1
  O  O203  1  -0.00327625  0.90445152  0.63292738  1
  O  O204  1  0.00442521  0.90682133  0.86850305  1
  O  O205  1  0.24667158  0.12557027  0.13824250  1
  O  O206  1  0.25373529  0.12473370  0.36550695  1
  O  O207  1  0.25287862  0.15202904  0.66281345  1
  O  O208  1  0.25925473  0.16172975  0.85811652  1
  O  O209  1  0.25816670  0.41440300  0.11013758  1
  O  O210  1  0.24911454  0.35301017  0.35849030  1
  O  O211  1  0.24271547  0.33748180  0.66707108  1
  O  O212  1  0.25765528  0.34067213  0.86004746  1
  O  O213  1  0.25765320  0.61007746  0.13943727  1
  O  O214  1  0.25356982  0.64966900  0.35892753  1
  O  O215  1  0.23604965  0.63909234  0.65409498  1
  O  O216  1  0.23805768  0.66130317  0.85299444  1
  O  O217  1  0.25836111  0.88319419  0.12097676  1
  O  O218  1  0.25694871  0.87196444  0.39684692  1
  O  O219  1  0.26083114  0.86103209  0.60514699  1
  O  O220  1  0.26786276  0.84411155  0.90998030  1
  O  O221  1  0.49982761  0.13501326  0.10883174  1
  O  O222  1  0.49822529  0.13107271  0.40140962  1
  O  O223  1  0.51158457  0.09946446  0.62345776  1
  O  O224  1  0.50079991  0.09368941  0.89282605  1
  O  O225  1  0.50305982  0.33887718  0.08960536  1
  O  O226  1  0.49312603  0.37505358  0.39622776  1
  O  O227  1  0.49963265  0.40244138  0.61794488  1
  O  O228  1  0.50202571  0.38611454  0.89216415  1
  O  O229  1  0.49758765  0.64137870  0.07365025  1
  O  O230  1  0.49830904  0.62105508  0.40137231  1
  O  O231  1  0.50807424  0.60337054  0.60503805  1
  O  O232  1  0.49026676  0.59316447  0.88641460  1
  O  O233  1  0.50262962  0.87893913  0.16302924  1
  O  O234  1  0.50580132  0.87061750  0.34818771  1
  O  O235  1  0.51040449  0.88764755  0.65023838  1
  O  O236  1  0.51095542  0.88259896  0.86317244  1
  O  O237  1  0.74881942  0.10711259  0.13521848  1
  O  O238  1  0.74210349  0.08834700  0.35956226  1
  O  O239  1  0.74269657  0.14744117  0.66459096  1
  O  O240  1  0.75040088  0.14807760  0.85041946  1
  O  O241  1  0.73837885  0.37430225  0.13414770  1
  O  O242  1  0.75673315  0.36720156  0.38168790  1
  O  O243  1  0.75292058  0.33541174  0.66590644  1
  O  O244  1  0.74291924  0.32498625  0.85926025  1
  O  O245  1  0.74405636  0.64884093  0.13215140  1
  O  O246  1  0.75983797  0.60533339  0.35851782  1
  O  O247  1  0.74757053  0.63973804  0.65774973  1
  O  O248  1  0.74960386  0.61310995  0.86463389  1
  O  O249  1  0.74555121  0.86757478  0.12041915  1
  O  O250  1  0.75105050  0.89724573  0.38575181  1
  O  O251  1  0.75517000  0.84435167  0.61903318  1
  O  O252  1  0.75778066  0.87039580  0.88034223  1
  O  O253  1  0.14018582  0.00625262  0.11099084  1
  O  O254  1  0.12896127  0.00537823  0.40881791  1
  O  O255  1  0.16054596  0.00388511  0.62187635  1
  O  O256  1  0.16116792  -0.00250001  0.88090555  1
  O  O257  1  0.10131729  0.23535800  0.16208227  1
  O  O258  1  0.13006155  0.23951180  0.35693080  1
  O  O259  1  0.09446081  0.24347406  0.65372273  1
  O  O260  1  0.09735197  0.24854259  0.84654814  1
  O  O261  1  0.11845950  0.50922918  0.12825825  1
  O  O262  1  0.11216940  0.49525049  0.35062533  1
  O  O263  1  0.16610886  0.49494399  0.62611401  1
  O  O264  1  0.13596467  0.50836797  0.89496340  1
  O  O265  1  0.13247029  0.75099026  0.14437185  1
  O  O266  1  0.10939456  0.75242159  0.36296599  1
  O  O267  1  0.09234432  0.73890498  0.62257994  1
  O  O268  1  0.09339199  0.75582182  0.87045502  1
  O  O269  1  0.38365929  0.00195856  0.12357824  1
  O  O270  1  0.38804016  0.00260196  0.38219782  1
  O  O271  1  0.37593763  -0.00322058  0.64300118  1
  O  O272  1  0.35817283  -0.01028006  0.88460400  1
  O  O273  1  0.36163464  0.25119757  0.13081208  1
  O  O274  1  0.38255592  0.24535151  0.37948646  1
  O  O275  1  0.40883984  0.24382792  0.65335858  1
  O  O276  1  0.41597075  0.23971559  0.86716003  1
  O  O277  1  0.39330474  0.49993602  0.08595678  1
  O  O278  1  0.35863097  0.50369130  0.38094948  1
  O  O279  1  0.34993070  0.49384624  0.63083897  1
  O  O280  1  0.33598366  0.50223567  0.90157253  1
  O  O281  1  0.38848891  0.75548753  0.13617013  1
  O  O282  1  0.38043246  0.75647101  0.39484968  1
  O  O283  1  0.39834116  0.75856206  0.63486605  1
  O  O284  1  0.41234620  0.74357778  0.88583878  1
  O  O285  1  0.60146771  0.00348943  0.12862263  1
  O  O286  1  0.59576564  0.00395584  0.38754747  1
  O  O287  1  0.64992451  -0.01104979  0.64306587  1
  O  O288  1  0.64822336  -0.00298732  0.87266260  1
  O  O289  1  0.63586557  0.24407318  0.12684653  1
  O  O290  1  0.62430103  0.24008920  0.39909153  1
  O  O291  1  0.61440526  0.24796314  0.59649324  1
  O  O292  1  0.59575740  0.24104059  0.91062537  1
  O  O293  1  0.59223009  0.48735431  0.13124424  1
  O  O294  1  0.62576272  0.49806755  0.38181933  1
  O  O295  1  0.63128801  0.50889376  0.66961990  1
  O  O296  1  0.65634341  0.47648454  0.84964487  1
  O  O297  1  0.61547934  0.76362388  0.15602095  1
  O  O298  1  0.63526125  0.75911064  0.36264461  1
  O  O299  1  0.59688590  0.74613907  0.61743208  1
  O  O300  1  0.65338338  0.75333930  0.90464344  1
  O  O301  1  0.87191518  0.00006730  0.09430193  1
  O  O302  1  0.87723759  0.00003736  0.40497229  1
  O  O303  1  0.85109911  -0.00269041  0.60946855  1
  O  O304  1  0.86783426  0.00082575  0.90635548  1
  O  O305  1  0.88466544  0.23825621  0.15352290  1
  O  O306  1  0.86397611  0.23803184  0.35191115  1
  O  O307  1  0.91112797  0.25119634  0.63234986  1
  O  O308  1  0.91371242  0.24375029  0.85476557  1
  O  O309  1  0.86337452  0.49806276  0.09686640  1
  O  O310  1  0.89569276  0.48533163  0.37405953  1
  O  O311  1  0.85717434  0.47029217  0.59733130  1
  O  O312  1  0.87519690  0.49502925  0.89803212  1
  O  O313  1  0.87478191  0.76279334  0.15367622  1
  O  O314  1  0.86952169  0.75671318  0.35414098  1
  O  O315  1  0.90428099  0.75671319  0.62093073  1
  O  O316  1  0.90213588  0.76178725  0.86087178  1
