# generated using pymatgen
data_Mg32Ti42(Bi17O64)3
_symmetry_space_group_name_H-M   'P 1'
_cell_length_a   15.90495954
_cell_length_b   15.91004577
_cell_length_c   15.91693963
_cell_angle_alpha   90.07619382
_cell_angle_beta   89.89444561
_cell_angle_gamma   90.29401181
_symmetry_Int_Tables_number   1
_chemical_formula_structural   Mg32Ti42(Bi17O64)3
_chemical_formula_sum   'Mg32 Ti42 Bi51 O192'
_cell_volume   4027.69645928
_cell_formula_units_Z   1
loop_
 _symmetry_equiv_pos_site_id
 _symmetry_equiv_pos_as_xyz
  1  'x, y, z'
loop_
 _atom_site_type_symbol
 _atom_site_label
 _atom_site_symmetry_multiplicity
 _atom_site_fract_x
 _atom_site_fract_y
 _atom_site_fract_z
 _atom_site_occupancy
  Mg  Mg0  1  0.62231598  0.87851174  0.62173844  1
  Mg  Mg1  1  0.37994809  0.38574486  0.86825508  1
  Mg  Mg2  1  0.88199769  0.62692099  0.88171970  1
  Mg  Mg3  1  0.37396544  0.88098486  0.63140097  1
  Mg  Mg4  1  0.61876839  0.63419179  0.37623995  1
  Mg  Mg5  1  0.61933897  0.12370256  0.12939569  1
  Mg  Mg6  1  0.89295846  0.87982683  0.88479773  1
  Mg  Mg7  1  0.87391119  0.13331539  0.62586402  1
  Mg  Mg8  1  0.11659313  0.13048430  0.37989403  1
  Mg  Mg9  1  0.11456847  0.37927260  0.37690161  1
  Mg  Mg10  1  0.12304823  0.87635753  0.37230955  1
  Mg  Mg11  1  0.62975725  0.86805758  0.87825089  1
  Mg  Mg12  1  0.87536609  0.12723083  0.36918422  1
  Mg  Mg13  1  0.62197056  0.63336710  0.12784523  1
  Mg  Mg14  1  0.12510291  0.37976120  0.87055199  1
  Mg  Mg15  1  0.13553372  0.13961634  0.61097353  1
  Mg  Mg16  1  0.36460693  0.37449468  0.38159017  1
  Mg  Mg17  1  0.88518365  0.87853713  0.12614570  1
  Mg  Mg18  1  0.63651131  0.13270092  0.87080345  1
  Mg  Mg19  1  0.02193576  -0.00205742  0.28689702  1
  Mg  Mg20  1  0.22434454  0.50641025  0.70374715  1
  Mg  Mg21  1  0.70900664  0.75194295  0.25828828  1
  Mg  Mg22  1  0.28573623  0.18290256  0.44650866  1
  Mg  Mg23  1  0.25478807  0.78717655  0.23172543  1
  Mg  Mg24  1  0.01744153  0.21600604  0.74644105  1
  Mg  Mg25  1  0.26046287  0.75670434  0.01588850  1
  Mg  Mg26  1  0.49929955  0.50578010  0.73672250  1
  Mg  Mg27  1  0.19191746  0.00862900  0.49605313  1
  Mg  Mg28  1  -0.03064736  0.01630452  0.47273255  1
  Mg  Mg29  1  0.26901935  0.46031746  0.18683360  1
  Mg  Mg30  1  0.22013698  0.74648309  0.44401277  1
  Mg  Mg31  1  0.04344975  0.00555728  -0.02808455  1
  Ti  Ti32  1  0.87490295  0.63815361  0.36965883  1
  Ti  Ti33  1  0.11134076  0.37163194  0.62842638  1
  Ti  Ti34  1  0.37002407  0.87824165  0.12759059  1
  Ti  Ti35  1  0.35450610  0.86972958  0.37304659  1
  Ti  Ti36  1  0.38163544  0.12773658  0.86992348  1
  Ti  Ti37  1  0.13589318  0.12439372  0.86498127  1
  Ti  Ti38  1  0.62679452  0.12675851  0.63192812  1
  Ti  Ti39  1  0.87137113  0.87668934  0.36566616  1
  Ti  Ti40  1  0.61443594  0.61428738  0.62096873  1
  Ti  Ti41  1  0.36830277  0.64128743  0.12952801  1
  Ti  Ti42  1  0.87337116  0.37204622  0.87440363  1
  Ti  Ti43  1  0.87456391  0.37348912  0.11512062  1
  Ti  Ti44  1  0.37327090  0.87195573  0.87014396  1
  Ti  Ti45  1  0.61327180  0.62251467  0.88322604  1
  Ti  Ti46  1  0.13714293  0.62408832  0.13424672  1
  Ti  Ti47  1  0.37190319  0.13128789  0.63403151  1
  Ti  Ti48  1  0.87379403  0.61697302  0.62161985  1
  Ti  Ti49  1  0.86372104  0.37244482  0.37043967  1
  Ti  Ti50  1  0.37737306  0.11701275  0.11404848  1
  Ti  Ti51  1  0.11303872  0.62586056  0.37038567  1
  Ti  Ti52  1  0.12952430  0.12165324  0.12028291  1
  Ti  Ti53  1  0.61095343  0.38488469  0.87678356  1
  Ti  Ti54  1  0.14295515  0.86290315  0.61383384  1
  Ti  Ti55  1  0.12982038  0.89040245  0.12238680  1
  Ti  Ti56  1  0.88721213  0.12677994  0.12135148  1
  Ti  Ti57  1  0.87116816  0.36851978  0.63261576  1
  Ti  Ti58  1  0.88146430  0.12126188  0.86115565  1
  Ti  Ti59  1  0.37629613  0.60806006  0.62944466  1
  Ti  Ti60  1  0.12091429  0.62374529  0.61329907  1
  Ti  Ti61  1  0.61983062  0.38069312  0.61530242  1
  Ti  Ti62  1  0.36064929  0.37572892  0.62050548  1
  Ti  Ti63  1  0.38171443  0.62304944  0.87674344  1
  Ti  Ti64  1  0.12111747  0.36471224  0.11609767  1
  Ti  Ti65  1  0.13103075  0.87123780  0.86160178  1
  Ti  Ti66  1  0.88103950  0.63640955  0.12293556  1
  Ti  Ti67  1  0.12793339  0.62405334  0.85880377  1
  Ti  Ti68  1  0.36705006  0.63195190  0.36773803  1
  Ti  Ti69  1  0.63299989  0.87881383  0.12824998  1
  Ti  Ti70  1  0.62516599  0.37309065  0.36853839  1
  Ti  Ti71  1  0.62717566  0.37543445  0.12652936  1
  Ti  Ti72  1  0.63273828  0.11677896  0.36799546  1
  Ti  Ti73  1  0.62086940  0.87601248  0.37716706  1
  Bi  Bi74  1  0.24034776  0.03093807  0.27071168  1
  Bi  Bi75  1  0.50751045  0.76890414  0.73380609  1
  Bi  Bi76  1  0.76187309  0.73775640  0.76095629  1
  Bi  Bi77  1  -0.01952355  0.78756698  0.49786169  1
  Bi  Bi78  1  0.26130614  0.73984867  0.72881793  1
  Bi  Bi79  1  0.51115067  0.76641332  0.23595813  1
  Bi  Bi80  1  0.26160401  -0.00583457  -0.01602814  1
  Bi  Bi81  1  0.28942851  0.28146947  0.00259882  1
  Bi  Bi82  1  0.77141116  0.00229473  -0.00562157  1
  Bi  Bi83  1  -0.01072630  0.25438881  0.50217833  1
  Bi  Bi84  1  0.22743830  0.27732732  0.27313873  1
  Bi  Bi85  1  0.75939512  0.00978767  0.50382511  1
  Bi  Bi86  1  0.24758032  0.00667985  0.72418288  1
  Bi  Bi87  1  0.24754224  0.53545368  -0.00959905  1
  Bi  Bi88  1  0.72859846  0.50957493  0.75891640  1
  Bi  Bi89  1  0.50698615  0.76220734  -0.01526072  1
  Bi  Bi90  1  0.24296728  0.49936213  0.47507988  1
  Bi  Bi91  1  -0.02142156  0.50580907  0.75730302  1
  Bi  Bi92  1  0.53958862  0.00446217  0.75883176  1
  Bi  Bi93  1  0.46503283  0.27041760  0.22220743  1
  Bi  Bi94  1  0.52364447  0.23559861  -0.00404816  1
  Bi  Bi95  1  0.75806646  0.23109940  0.00880062  1
  Bi  Bi96  1  0.75637707  0.77043161  0.53096148  1
  Bi  Bi97  1  0.46911301  0.47573153  0.02199906  1
  Bi  Bi98  1  0.02299308  0.76674476  0.23224783  1
  Bi  Bi99  1  0.47593214  0.02663107  0.27618446  1
  Bi  Bi100  1  0.46906297  0.77688276  0.50398310  1
  Bi  Bi101  1  0.00505931  0.00817930  0.69251119  1
  Bi  Bi102  1  0.78305481  -0.04549201  0.72702894  1
  Bi  Bi103  1  0.77768011  0.76529515  -0.01274352  1
  Bi  Bi104  1  0.48966742  0.23039647  0.47097115  1
  Bi  Bi105  1  -0.02117157  0.76765211  0.71954008  1
  Bi  Bi106  1  0.74900329  0.24565386  0.24273688  1
  Bi  Bi107  1  0.74395303  0.52509917  0.47848529  1
  Bi  Bi108  1  0.48193093  0.50478995  0.47163426  1
  Bi  Bi109  1  0.77207534  -0.01656530  0.24392326  1
  Bi  Bi110  1  0.74402296  0.52416051  0.01404241  1
  Bi  Bi111  1  0.73793471  0.26785957  0.76286061  1
  Bi  Bi112  1  0.02755384  0.76105665  -0.01067356  1
  Bi  Bi113  1  0.74477383  0.23287230  0.50882231  1
  Bi  Bi114  1  0.01246362  0.49129995  -0.01799318  1
  Bi  Bi115  1  0.52985993  0.00407318  -0.00705671  1
  Bi  Bi116  1  0.74124574  0.52712959  0.23985911  1
  Bi  Bi117  1  -0.00828084  0.48804235  0.47599399  1
  Bi  Bi118  1  0.24264347  0.28287603  0.75710621  1
  Bi  Bi119  1  0.00792010  0.49436680  0.22605333  1
  Bi  Bi120  1  -0.01300857  0.25072387  0.25229849  1
  Bi  Bi121  1  0.49279015  0.26962747  0.72985265  1
  Bi  Bi122  1  0.46096494  0.48710669  0.24801161  1
  Bi  Bi123  1  0.46003820  0.01262905  0.50364349  1
  Bi  Bi124  1  0.01516961  0.22928317  -0.02444783  1
  O  O125  1  0.13682155  0.14295346  -0.01064708  1
  O  O126  1  0.10819531  0.08270892  0.23053110  1
  O  O127  1  0.17672318  0.13384870  0.49394500  1
  O  O128  1  0.09739196  0.10552872  0.74647863  1
  O  O129  1  0.08872889  0.36489477  0.00028787  1
  O  O130  1  0.15037145  0.40250362  0.23338337  1
  O  O131  1  0.08160068  0.36495173  0.50863540  1
  O  O132  1  0.16140517  0.40046093  0.74320617  1
  O  O133  1  0.15751596  0.65370960  0.02074182  1
  O  O134  1  0.11291241  0.59909206  0.26088166  1
  O  O135  1  0.13051662  0.65799130  0.50664880  1
  O  O136  1  0.12861779  0.59125621  0.75084188  1
  O  O137  1  0.15650540  0.83545950  0.01900337  1
  O  O138  1  0.08853083  0.89289924  0.24668700  1
  O  O139  1  0.16776312  0.85755244  0.50206691  1
  O  O140  1  0.10748167  0.89012408  0.75398901  1
  O  O141  1  0.34726702  0.10811081  -0.00390987  1
  O  O142  1  0.40560111  0.13293256  0.23592708  1
  O  O143  1  0.36715074  0.11590523  0.51264694  1
  O  O144  1  0.40756183  0.13440275  0.75295424  1
  O  O145  1  0.40069751  0.36346658  -0.00571202  1
  O  O146  1  0.36180187  0.38973340  0.24986784  1
  O  O147  1  0.39061789  0.39789354  0.50899019  1
  O  O148  1  0.36633773  0.34753795  0.74774458  1
  O  O149  1  0.34192724  0.64718510  0.01337583  1
  O  O150  1  0.36379545  0.65166428  0.25750342  1
  O  O151  1  0.37408264  0.59708213  0.51607875  1
  O  O152  1  0.40547061  0.60678540  0.76705590  1
  O  O153  1  0.34239180  0.87275992  0.01113382  1
  O  O154  1  0.38559740  0.85087521  0.25837528  1
  O  O155  1  0.36973334  0.87465098  0.50113483  1
  O  O156  1  0.40055612  0.86987681  0.75995525  1
  O  O157  1  0.63797993  0.14768227  -0.00277636  1
  O  O158  1  0.59942515  0.11026934  0.25640453  1
  O  O159  1  0.65234186  0.12403418  0.50157982  1
  O  O160  1  0.60503647  0.13222870  0.74854595  1
  O  O161  1  0.60070695  0.37214559  0.00296762  1
  O  O162  1  0.64588045  0.36699430  0.25196442  1
  O  O163  1  0.60836298  0.37864678  0.50185306  1
  O  O164  1  0.65268210  0.38608370  0.75691328  1
  O  O165  1  0.65036800  0.62814339  0.00044487  1
  O  O166  1  0.65198147  0.62661494  0.25443754  1
  O  O167  1  0.62569547  0.61784511  0.50648282  1
  O  O168  1  0.60436720  0.58672598  0.76262020  1
  O  O169  1  0.62925999  0.85141731  0.00959676  1
  O  O170  1  0.59117007  0.89083106  0.24909891  1
  O  O171  1  0.65701345  0.86437137  0.49326555  1
  O  O172  1  0.59788214  0.87521075  0.75354458  1
  O  O173  1  0.84965229  0.12128561  -0.00362235  1
  O  O174  1  0.88016255  0.14431629  0.23987623  1
  O  O175  1  0.84340168  0.13020436  0.49869147  1
  O  O176  1  0.92043883  0.12707501  0.74823502  1
  O  O177  1  0.88775467  0.39114566  -0.00099396  1
  O  O178  1  0.86141524  0.34457741  0.25174419  1
  O  O179  1  0.89916919  0.36768597  0.50240061  1
  O  O180  1  0.85665023  0.35283096  0.75089685  1
  O  O181  1  0.87148113  0.60344375  0.00869531  1
  O  O182  1  0.86417769  0.62060134  0.25679137  1
  O  O183  1  0.87268903  0.60969857  0.50674726  1
  O  O184  1  0.88622383  0.66065897  0.75245982  1
  O  O185  1  0.84625440  0.88754624  0.00573816  1
  O  O186  1  0.90311797  0.92061102  0.25620971  1
  O  O187  1  0.85532612  0.85779481  0.48921119  1
  O  O188  1  0.89269322  0.86889203  0.75762515  1
  O  O189  1  -0.00116900  0.11946856  0.09926165  1
  O  O190  1  -0.00273081  0.08855695  0.37600149  1
  O  O191  1  0.00574250  0.08545658  0.57928175  1
  O  O192  1  -0.00254437  0.10260169  0.90495333  1
  O  O193  1  -0.00268758  0.36799210  0.15372431  1
  O  O194  1  -0.00972233  0.40978870  0.35762537  1
  O  O195  1  0.00358424  0.40177328  0.65824306  1
  O  O196  1  -0.00077714  0.40798181  0.85889629  1
  O  O197  1  0.00225828  0.64097374  0.13826015  1
  O  O198  1  -0.00778827  0.60491034  0.38569675  1
  O  O199  1  0.00550720  0.61494953  0.62836543  1
  O  O200  1  0.01073379  0.60788520  0.88488939  1
  O  O201  1  0.00967249  0.84490656  0.11042189  1
  O  O202  1  -0.00383106  0.90286506  0.41098981  1
  O  O203  1  0.02106856  0.86941858  0.60676907  1
  O  O204  1  0.01947035  0.88791149  0.92094084  1
  O  O205  1  0.24611138  0.11149194  0.13329095  1
  O  O206  1  0.23970329  0.15094516  0.33539393  1
  O  O207  1  0.25807571  0.13703995  0.65907587  1
  O  O208  1  0.24816575  0.13515536  0.84679490  1
  O  O209  1  0.23666574  0.38277381  0.09090312  1
  O  O210  1  0.23882927  0.36136776  0.38841019  1
  O  O211  1  0.25023142  0.34874393  0.61259611  1
  O  O212  1  0.25023529  0.35060511  0.88482125  1
  O  O213  1  0.24387830  0.58391540  0.15227540  1
  O  O214  1  0.24187263  0.62542400  0.39286791  1
  O  O215  1  0.25508136  0.62457606  0.64994697  1
  O  O216  1  0.25277302  0.62534978  0.87231944  1
  O  O217  1  0.24137807  0.89502658  0.16167274  1
  O  O218  1  0.24547893  0.83858179  0.34945660  1
  O  O219  1  0.25458858  0.86515672  0.66442495  1
  O  O220  1  0.24950121  0.85843937  0.86625898  1
  O  O221  1  0.49413628  0.11282035  0.08518600  1
  O  O222  1  0.50823084  0.09976883  0.40157123  1
  O  O223  1  0.50671582  0.10471671  0.60380489  1
  O  O224  1  0.49634412  0.10679807  0.89856827  1
  O  O225  1  0.50656787  0.39832869  0.15001586  1
  O  O226  1  0.50562405  0.40045028  0.35922528  1
  O  O227  1  0.50815786  0.39803300  0.65678968  1
  O  O228  1  0.50621530  0.41782637  0.84293493  1
  O  O229  1  0.48601825  0.65249807  0.12936015  1
  O  O230  1  0.48987996  0.61911273  0.37833555  1
  O  O231  1  0.49961796  0.58300860  0.62897347  1
  O  O232  1  0.49922956  0.61158222  0.91674875  1
  O  O233  1  0.48559297  0.84901187  0.11628704  1
  O  O234  1  0.50558178  0.87663932  0.40326096  1
  O  O235  1  0.49815067  0.86399991  0.61363541  1
  O  O236  1  0.49009536  0.88119236  0.91053600  1
  O  O237  1  0.74489252  0.15643140  0.13224816  1
  O  O238  1  0.74557455  0.15294617  0.35495246  1
  O  O239  1  0.74501504  0.16132626  0.63687427  1
  O  O240  1  0.76443815  0.15649111  0.85613305  1
  O  O241  1  0.74998661  0.35385353  0.11313011  1
  O  O242  1  0.75051016  0.34519499  0.38992618  1
  O  O243  1  0.75684352  0.35207761  0.61333996  1
  O  O244  1  0.75844798  0.34786445  0.88700232  1
  O  O245  1  0.75872810  0.61028489  0.12787784  1
  O  O246  1  0.75734353  0.64015066  0.39716779  1
  O  O247  1  0.75467546  0.63463019  0.64058014  1
  O  O248  1  0.74531115  0.64364247  0.85956302  1
  O  O249  1  0.74646776  0.87728000  0.15872442  1
  O  O250  1  0.75828952  0.85959578  0.32935856  1
  O  O251  1  0.74407674  0.85193460  0.64100848  1
  O  O252  1  0.75234033  0.83922975  0.86773266  1
  O  O253  1  0.11401973  -0.00435179  0.07773417  1
  O  O254  1  0.15555329  -0.00124330  0.37885343  1
  O  O255  1  0.15586459  -0.00985395  0.61550912  1
  O  O256  1  0.14397405  -0.00147852  0.88999854  1
  O  O257  1  0.12319117  0.24516684  0.14072601  1
  O  O258  1  0.10336685  0.25623418  0.33852285  1
  O  O259  1  0.09788809  0.25630298  0.65128223  1
  O  O260  1  0.09407812  0.24124507  0.85040892  1
  O  O261  1  0.09588066  0.50316185  0.10816741  1
  O  O262  1  0.12248043  0.50479330  0.41099738  1
  O  O263  1  0.14970588  0.50363088  0.59896280  1
  O  O264  1  0.13501627  0.50755115  0.90722343  1
  O  O265  1  0.14636636  0.74098128  0.17708285  1
  O  O266  1  0.10548280  0.74475521  0.36657628  1
  O  O267  1  0.13899945  0.74530361  0.65381561  1
  O  O268  1  0.11052377  0.74788804  0.86227571  1
  O  O269  1  0.38337147  -0.00646163  0.14240587  1
  O  O270  1  0.36211953  -0.01271403  0.36663664  1
  O  O271  1  0.36224636  0.00683031  0.64278534  1
  O  O272  1  0.35205414  -0.00610626  0.87521354  1
  O  O273  1  0.38236400  0.23809992  0.11636650  1
  O  O274  1  0.38403770  0.25127269  0.39248625  1
  O  O275  1  0.40538519  0.25087166  0.61904032  1
  O  O276  1  0.38745183  0.23974949  0.89040507  1
  O  O277  1  0.38075319  0.51371278  0.12551279  1
  O  O278  1  0.36936220  0.50646886  0.37829573  1
  O  O279  1  0.34581301  0.48939777  0.65732910  1
  O  O280  1  0.36653957  0.50690634  0.91365891  1
  O  O281  1  0.32419541  0.75525263  0.13057224  1
  O  O282  1  0.36250743  0.74376200  0.41219943  1
  O  O283  1  0.38261527  0.73235048  0.63946479  1
  O  O284  1  0.39132966  0.74809531  0.88602435  1
  O  O285  1  0.63031060  -0.00390268  0.10346446  1
  O  O286  1  0.65610230  -0.00100009  0.38038192  1
  O  O287  1  0.64118672  0.00563689  0.64720096  1
  O  O288  1  0.62576737  -0.00001308  0.87682753  1
  O  O289  1  0.58441185  0.25449918  0.13329300  1
  O  O290  1  0.59789856  0.24837165  0.37881820  1
  O  O291  1  0.60285263  0.25661571  0.63056645  1
  O  O292  1  0.60346925  0.26425769  0.86972262  1
  O  O293  1  0.64405908  0.49485709  0.12421126  1
  O  O294  1  0.65278757  0.49320630  0.37699843  1
  O  O295  1  0.65612061  0.49607886  0.62738486  1
  O  O296  1  0.65879113  0.49815537  0.89059824  1
  O  O297  1  0.63021814  0.75746650  0.15655137  1
  O  O298  1  0.62171080  0.76058923  0.35182189  1
  O  O299  1  0.60909045  0.73091888  0.64199497  1
  O  O300  1  0.59397125  0.73990493  0.86906364  1
  O  O301  1  0.84674967  0.01089654  0.12162503  1
  O  O302  1  0.85029207  -0.00339296  0.39819452  1
  O  O303  1  0.85467017  0.00550942  0.62516353  1
  O  O304  1  0.85287164  0.00536781  0.87187868  1
  O  O305  1  0.88483453  0.25020246  0.10024543  1
  O  O306  1  0.91240383  0.25421944  0.37791263  1
  O  O307  1  0.91339568  0.25538760  0.62371992  1
  O  O308  1  0.91054343  0.25209163  0.87917592  1
  O  O309  1  0.88191536  0.48849723  0.14576946  1
  O  O310  1  0.84873112  0.49150911  0.38444417  1
  O  O311  1  0.86906691  0.49792886  0.64837201  1
  O  O312  1  0.86235364  0.49588934  0.84885132  1
  O  O313  1  0.86469961  0.74852115  0.11719557  1
  O  O314  1  0.89821803  0.75423856  0.36651162  1
  O  O315  1  0.89461876  0.74324635  0.60982222  1
  O  O316  1  0.89621738  0.75244551  0.91472128  1
