# generated using pymatgen
data_Mg32Ti42(Bi17O64)3
_symmetry_space_group_name_H-M   'P 1'
_cell_length_a   15.94090026
_cell_length_b   15.92870716
_cell_length_c   15.92308415
_cell_angle_alpha   89.84055945
_cell_angle_beta   90.08991288
_cell_angle_gamma   90.02264578
_symmetry_Int_Tables_number   1
_chemical_formula_structural   Mg32Ti42(Bi17O64)3
_chemical_formula_sum   'Mg32 Ti42 Bi51 O192'
_cell_volume   4043.13565858
_cell_formula_units_Z   1
loop_
 _symmetry_equiv_pos_site_id
 _symmetry_equiv_pos_as_xyz
  1  'x, y, z'
loop_
 _atom_site_type_symbol
 _atom_site_label
 _atom_site_symmetry_multiplicity
 _atom_site_fract_x
 _atom_site_fract_y
 _atom_site_fract_z
 _atom_site_occupancy
  Mg  Mg0  1  0.37706604  0.87098487  0.87196704  1
  Mg  Mg1  1  0.37055955  0.86638637  0.63477000  1
  Mg  Mg2  1  0.62165499  0.12832182  0.86426850  1
  Mg  Mg3  1  0.62232566  0.38466904  0.87970238  1
  Mg  Mg4  1  0.36185264  0.12801356  0.87030027  1
  Mg  Mg5  1  0.87122969  0.12536697  0.87830727  1
  Mg  Mg6  1  0.62841661  0.86219462  0.88015801  1
  Mg  Mg7  1  0.61349389  0.12271075  0.12966677  1
  Mg  Mg8  1  0.87000773  0.87528779  0.13529830  1
  Mg  Mg9  1  0.87691074  0.86297792  0.61558596  1
  Mg  Mg10  1  0.61730986  0.87204205  0.12767799  1
  Mg  Mg11  1  0.86852848  0.11777392  0.62801022  1
  Mg  Mg12  1  0.87502869  0.62730274  0.13521479  1
  Mg  Mg13  1  0.38291257  0.61747177  0.12571893  1
  Mg  Mg14  1  0.37695861  0.38003665  0.62693895  1
  Mg  Mg15  1  0.87461103  0.37847096  0.61516121  1
  Mg  Mg16  1  0.87111467  0.87089453  0.88109023  1
  Mg  Mg17  1  0.36937133  0.13427415  0.63943230  1
  Mg  Mg18  1  0.12892314  0.62217117  0.63668358  1
  Mg  Mg19  1  0.46711488  -0.00809686  0.18739367  1
  Mg  Mg20  1  0.26006920  0.24840618  0.75452207  1
  Mg  Mg21  1  0.27470382  0.28054536  0.23563905  1
  Mg  Mg22  1  0.52113819  0.49550639  -0.00005445  1
  Mg  Mg23  1  0.70521793  0.79354375  0.55024175  1
  Mg  Mg24  1  0.49107307  0.49358738  0.23584548  1
  Mg  Mg25  1  0.29163046  0.78381575  0.19355211  1
  Mg  Mg26  1  0.25368632  0.75697984  0.00877499  1
  Mg  Mg27  1  0.75521180  0.73571998  0.76745765  1
  Mg  Mg28  1  0.03780486  0.53807274  0.25383259  1
  Mg  Mg29  1  0.53099383  -0.06320505  0.54525625  1
  Mg  Mg30  1  0.73600799  0.77716543  0.24867646  1
  Mg  Mg31  1  -0.05052330  0.03434155  0.50022925  1
  Ti  Ti32  1  0.61882263  0.63066715  0.15214902  1
  Ti  Ti33  1  0.12579369  0.10513198  0.87261249  1
  Ti  Ti34  1  0.12899070  0.87900128  0.63308887  1
  Ti  Ti35  1  0.14111723  0.63237729  0.36988417  1
  Ti  Ti36  1  0.37315658  0.36245479  0.37349392  1
  Ti  Ti37  1  0.38762283  0.38443255  0.11170831  1
  Ti  Ti38  1  0.86080449  0.11256435  0.12984638  1
  Ti  Ti39  1  0.14448935  0.87171890  0.37332014  1
  Ti  Ti40  1  0.86411310  0.36543166  0.13376854  1
  Ti  Ti41  1  0.11903448  0.37754846  0.63971732  1
  Ti  Ti42  1  0.61436300  0.11612082  0.37453942  1
  Ti  Ti43  1  0.89452652  0.62793730  0.37303595  1
  Ti  Ti44  1  0.62701345  0.62861673  0.87860609  1
  Ti  Ti45  1  0.87180193  0.63065485  0.61695835  1
  Ti  Ti46  1  0.12372203  0.11378858  0.63561470  1
  Ti  Ti47  1  0.61402918  0.12672079  0.62073001  1
  Ti  Ti48  1  0.62297171  0.85496973  0.38241361  1
  Ti  Ti49  1  0.12896001  0.12424582  0.12919112  1
  Ti  Ti50  1  0.37750743  0.62480447  0.35440823  1
  Ti  Ti51  1  0.89184702  0.38135998  0.37281546  1
  Ti  Ti52  1  0.38265005  0.86683896  0.38516319  1
  Ti  Ti53  1  0.13934592  0.11622743  0.39181543  1
  Ti  Ti54  1  0.61986170  0.37635413  0.36138890  1
  Ti  Ti55  1  0.12537370  0.87150634  0.89113504  1
  Ti  Ti56  1  0.39565914  0.62407781  0.89261939  1
  Ti  Ti57  1  0.10571862  0.38057511  0.88614124  1
  Ti  Ti58  1  0.37714670  0.38870659  0.88088420  1
  Ti  Ti59  1  0.13066026  0.63223473  0.12607232  1
  Ti  Ti60  1  0.86783799  0.61972743  0.88412791  1
  Ti  Ti61  1  0.10834546  0.62450646  0.87516970  1
  Ti  Ti62  1  0.13791270  0.88114853  0.13019733  1
  Ti  Ti63  1  0.62431118  0.37507654  0.12635274  1
  Ti  Ti64  1  0.64459421  0.62646295  0.61604857  1
  Ti  Ti65  1  0.37809402  0.11968904  0.36325839  1
  Ti  Ti66  1  0.62020510  0.62143879  0.37370566  1
  Ti  Ti67  1  0.37242935  0.62431183  0.64798917  1
  Ti  Ti68  1  0.86564804  0.37580468  0.88604117  1
  Ti  Ti69  1  0.62156567  0.37021624  0.61309934  1
  Ti  Ti70  1  0.35868116  0.13848172  0.12239106  1
  Ti  Ti71  1  0.12962334  0.36773669  0.12754886  1
  Ti  Ti72  1  0.85365194  0.85460082  0.38293344  1
  Ti  Ti73  1  0.13586129  0.37689404  0.37449045  1
  Bi  Bi74  1  -0.02880540  0.25245921  0.75292072  1
  Bi  Bi75  1  0.71641751  0.24466377  -0.01411716  1
  Bi  Bi76  1  -0.00981679  0.76565516  0.25205223  1
  Bi  Bi77  1  0.49154031  0.77936639  0.24665117  1
  Bi  Bi78  1  0.74450821  0.75222016  0.03542082  1
  Bi  Bi79  1  0.23758112  0.52046175  -0.01230708  1
  Bi  Bi80  1  0.24995247  0.73817775  0.79837957  1
  Bi  Bi81  1  0.49693273  0.48009900  0.48612382  1
  Bi  Bi82  1  -0.01534466  0.24452290  0.02094141  1
  Bi  Bi83  1  0.26330317  -0.01080518  0.26493186  1
  Bi  Bi84  1  0.25394216  0.74780463  0.52191015  1
  Bi  Bi85  1  0.28122939  -0.02545761  0.00827257  1
  Bi  Bi86  1  0.02220826  0.24168168  0.27712389  1
  Bi  Bi87  1  -0.00876120  0.50117565  0.04834342  1
  Bi  Bi88  1  -0.02935959  0.49191991  0.74209755  1
  Bi  Bi89  1  0.52264705  -0.02337686  0.73976502  1
  Bi  Bi90  1  0.24239461  0.47916380  0.76073393  1
  Bi  Bi91  1  -0.02687369  -0.00897398  0.77523122  1
  Bi  Bi92  1  0.26370034  0.49748216  0.23754147  1
  Bi  Bi93  1  0.70363223  0.00357064  0.24450933  1
  Bi  Bi94  1  0.75657662  -0.01394619  0.49761187  1
  Bi  Bi95  1  0.28891137  -0.00348476  0.51977536  1
  Bi  Bi96  1  0.23923120  0.25409482  0.54052735  1
  Bi  Bi97  1  -0.01077375  0.22588766  0.51541380  1
  Bi  Bi98  1  0.54204612  0.75478365  0.72757694  1
  Bi  Bi99  1  0.22078377  0.23700693  -0.02087716  1
  Bi  Bi100  1  0.48731428  0.24108852  0.23421186  1
  Bi  Bi101  1  0.26401750  -0.02048044  0.75541494  1
  Bi  Bi102  1  0.73180935  0.50939987  0.03015078  1
  Bi  Bi103  1  0.72721824  0.00787802  -0.01844725  1
  Bi  Bi104  1  0.48307362  0.25124933  0.76205362  1
  Bi  Bi105  1  0.02390466  0.76862961  0.51610854  1
  Bi  Bi106  1  0.46460610  0.78010963  0.02442343  1
  Bi  Bi107  1  0.77078383  0.51909471  0.26699967  1
  Bi  Bi108  1  0.51233949  -0.00746213  -0.03271991  1
  Bi  Bi109  1  0.74071178  0.46497690  0.74250721  1
  Bi  Bi110  1  0.47906967  0.22246047  0.50493689  1
  Bi  Bi111  1  0.48759955  0.70694536  0.50561920  1
  Bi  Bi112  1  0.75833156  0.21798280  0.49160788  1
  Bi  Bi113  1  0.49126695  0.21849207  -0.01100585  1
  Bi  Bi114  1  -0.00733128  0.00544797  0.29947987  1
  Bi  Bi115  1  0.51554588  0.48820724  0.75877156  1
  Bi  Bi116  1  0.74607419  -0.06778086  0.74183893  1
  Bi  Bi117  1  -0.01689475  0.77305531  0.01258348  1
  Bi  Bi118  1  0.75302494  0.48860215  0.48995643  1
  Bi  Bi119  1  0.26419626  0.51789742  0.51602620  1
  Bi  Bi120  1  0.74693785  0.22557135  0.74421885  1
  Bi  Bi121  1  -0.02047580  0.00902979  0.01891408  1
  Bi  Bi122  1  0.01335618  0.51345225  0.51358607  1
  Bi  Bi123  1  0.77250489  0.22392050  0.28068059  1
  Bi  Bi124  1  -0.02844471  0.75219036  0.76005072  1
  O  O125  1  0.15293991  0.11562671  -0.00694736  1
  O  O126  1  0.10484376  0.13253031  0.24304304  1
  O  O127  1  0.16030073  0.11735416  0.50220829  1
  O  O128  1  0.10114457  0.12262869  0.74897316  1
  O  O129  1  0.14416147  0.39744004  0.00198809  1
  O  O130  1  0.12180750  0.32643469  0.24115464  1
  O  O131  1  0.15001202  0.38289298  0.48702868  1
  O  O132  1  0.10607886  0.38001363  0.75605674  1
  O  O133  1  0.11103667  0.59436655  0.00185734  1
  O  O134  1  0.13467615  0.62658103  0.24648205  1
  O  O135  1  0.11204867  0.61418824  0.48753335  1
  O  O136  1  0.15554662  0.62866512  0.76437639  1
  O  O137  1  0.10066869  0.88151511  0.00219358  1
  O  O138  1  0.18045257  0.85490540  0.23719554  1
  O  O139  1  0.12298367  0.87556054  0.48280512  1
  O  O140  1  0.14437614  0.86557555  0.74635394  1
  O  O141  1  0.35653383  0.14013836  0.00306750  1
  O  O142  1  0.36378053  0.17985237  0.25011361  1
  O  O143  1  0.38532267  0.10867433  0.48244886  1
  O  O144  1  0.36951845  0.18057273  0.75479755  1
  O  O145  1  0.35600495  0.39650640  -0.00045437  1
  O  O146  1  0.39195673  0.35111973  0.24969083  1
  O  O147  1  0.36147142  0.41245749  0.48370822  1
  O  O148  1  0.41128832  0.37141484  0.75359198  1
  O  O149  1  0.42073435  0.58614421  -0.00179999  1
  O  O150  1  0.34831051  0.67026513  0.25118493  1
  O  O151  1  0.38776856  0.60071118  0.48633993  1
  O  O152  1  0.35423009  0.64571998  0.75811532  1
  O  O153  1  0.39971362  0.90321517  -0.00496227  1
  O  O154  1  0.36817627  0.85511317  0.26474576  1
  O  O155  1  0.40529545  0.92079223  0.49647111  1
  O  O156  1  0.33562722  0.86127449  0.75497218  1
  O  O157  1  0.64035576  0.11783978  0.00232191  1
  O  O158  1  0.64549094  0.13285197  0.25449746  1
  O  O159  1  0.61665945  0.12779668  0.49421947  1
  O  O160  1  0.62683005  0.15227154  0.74094887  1
  O  O161  1  0.63278428  0.41005171  0.00543606  1
  O  O162  1  0.59201444  0.37987067  0.24326581  1
  O  O163  1  0.63031223  0.41009400  0.48991921  1
  O  O164  1  0.61138919  0.37499842  0.73870876  1
  O  O165  1  0.61578163  0.58602279  -0.01242907  1
  O  O166  1  0.65553263  0.66511477  0.25806987  1
  O  O167  1  0.60077867  0.60561555  0.49690438  1
  O  O168  1  0.65279928  0.66311451  0.73501286  1
  O  O169  1  0.62905589  0.90503655  0.00263066  1
  O  O170  1  0.61984818  0.84043089  0.25779112  1
  O  O171  1  0.63896156  0.89473746  0.49788682  1
  O  O172  1  0.61735779  0.87645629  0.75178786  1
  O  O173  1  0.87356450  0.09830649  0.00325357  1
  O  O174  1  0.87628326  0.13625799  0.24563248  1
  O  O175  1  0.87128172  0.13769146  0.50235555  1
  O  O176  1  0.87503493  0.14996348  0.74968797  1
  O  O177  1  0.85496411  0.38555290  -0.00149611  1
  O  O178  1  0.87441566  0.34877274  0.24760144  1
  O  O179  1  0.87423079  0.40700240  0.48789612  1
  O  O180  1  0.89212195  0.36816146  0.74983453  1
  O  O181  1  0.88757620  0.60118142  -0.00615343  1
  O  O182  1  0.84956778  0.64569164  0.26277495  1
  O  O183  1  0.89367662  0.59493517  0.49524081  1
  O  O184  1  0.86129371  0.66553220  0.74027125  1
  O  O185  1  0.89856583  0.88496902  0.00487216  1
  O  O186  1  0.87335291  0.83806577  0.25954620  1
  O  O187  1  0.80930131  0.85564578  0.50037696  1
  O  O188  1  0.89833189  0.87151663  0.74287577  1
  O  O189  1  0.00891572  0.12774540  0.10243259  1
  O  O190  1  0.01659094  0.09235188  0.40359089  1
  O  O191  1  0.00755877  0.10809958  0.59206342  1
  O  O192  1  0.00655575  0.09297477  0.88563875  1
  O  O193  1  -0.01097676  0.35700018  0.10634307  1
  O  O194  1  0.00417312  0.35610072  0.37395683  1
  O  O195  1  0.00400468  0.40731887  0.61829471  1
  O  O196  1  -0.00294024  0.40659740  0.89294085  1
  O  O197  1  0.00418680  0.61435916  0.14247225  1
  O  O198  1  0.00569887  0.62079453  0.34991099  1
  O  O199  1  0.00185166  0.59243773  0.63040090  1
  O  O200  1  -0.00077333  0.61017716  0.84799321  1
  O  O201  1  0.01819071  0.84826142  0.14385357  1
  O  O202  1  0.02679633  0.86859529  0.33450349  1
  O  O203  1  0.01279692  0.87864043  0.60480283  1
  O  O204  1  0.00914496  0.89046487  0.86069239  1
  O  O205  1  0.24431745  0.16897705  0.14004124  1
  O  O206  1  0.25700148  0.10197916  0.35833458  1
  O  O207  1  0.23846595  0.16115185  0.64617115  1
  O  O208  1  0.23477855  0.16457673  0.85475751  1
  O  O209  1  0.24985888  0.37594347  0.14857082  1
  O  O210  1  0.25268685  0.36901019  0.33811370  1
  O  O211  1  0.24357060  0.34160622  0.65303436  1
  O  O212  1  0.26281345  0.35700614  0.84170241  1
  O  O213  1  0.24022837  0.58483280  0.11846864  1
  O  O214  1  0.25310128  0.60438979  0.38355935  1
  O  O215  1  0.25295341  0.63380966  0.60323665  1
  O  O216  1  0.25775583  0.65209849  0.92179843  1
  O  O217  1  0.25017051  0.86705299  0.09016878  1
  O  O218  1  0.26560145  0.90980968  0.38781238  1
  O  O219  1  0.24988541  0.87122666  0.59261887  1
  O  O220  1  0.24589194  0.84828861  0.91303435  1
  O  O221  1  0.48381293  0.12121687  0.14355588  1
  O  O222  1  0.50075249  0.15185382  0.35693791  1
  O  O223  1  0.49602882  0.14458610  0.62694815  1
  O  O224  1  0.49405883  0.11752321  0.88531052  1
  O  O225  1  0.50067867  0.41427125  0.10407456  1
  O  O226  1  0.49749033  0.37008841  0.39191212  1
  O  O227  1  0.50284711  0.40240780  0.60248894  1
  O  O228  1  0.49604879  0.42828171  0.88936703  1
  O  O229  1  0.50776224  0.60882879  0.17063459  1
  O  O230  1  0.49588337  0.65714257  0.36365166  1
  O  O231  1  0.49022718  0.62427691  0.63745424  1
  O  O232  1  0.50299191  0.60896091  0.84520972  1
  O  O233  1  0.48883157  0.86870737  0.13944408  1
  O  O234  1  0.50270666  0.85655916  0.37339449  1
  O  O235  1  0.49045367  0.87995048  0.64968029  1
  O  O236  1  0.50099850  0.90402361  0.86407697  1
  O  O237  1  0.74917479  0.08770592  0.12867530  1
  O  O238  1  0.74217035  0.13072563  0.38438632  1
  O  O239  1  0.74178837  0.14354099  0.62307056  1
  O  O240  1  0.74765729  0.16370037  0.87314000  1
  O  O241  1  0.74342799  0.37466555  0.13307004  1
  O  O242  1  0.74002407  0.41594087  0.36494774  1
  O  O243  1  0.74552500  0.37023402  0.62617160  1
  O  O244  1  0.75088489  0.35951509  0.85999745  1
  O  O245  1  0.74767141  0.63619686  0.10785704  1
  O  O246  1  0.74141712  0.59068460  0.38735018  1
  O  O247  1  0.75554802  0.65078276  0.58664175  1
  O  O248  1  0.75239136  0.64677516  0.88139672  1
  O  O249  1  0.74464657  0.84573353  0.13772911  1
  O  O250  1  0.74530711  0.86684563  0.34808051  1
  O  O251  1  0.75903021  0.82218030  0.66354595  1
  O  O252  1  0.75294049  0.84340656  0.84751026  1
  O  O253  1  0.13953026  0.00087241  0.13158379  1
  O  O254  1  0.12965931  -0.00627221  0.34214836  1
  O  O255  1  0.14633875  0.00019844  0.63095569  1
  O  O256  1  0.15227848  -0.00704273  0.86947679  1
  O  O257  1  0.11636675  0.25086305  0.08684428  1
  O  O258  1  0.11735613  0.23353245  0.38056284  1
  O  O259  1  0.10107705  0.25622348  0.60598307  1
  O  O260  1  0.10404559  0.26339818  0.89915919  1
  O  O261  1  0.09505242  0.47767580  0.15339540  1
  O  O262  1  0.11552318  0.48651560  0.34652075  1
  O  O263  1  0.15121038  0.49112352  0.62429621  1
  O  O264  1  0.15212638  0.50184157  0.86957412  1
  O  O265  1  0.15350708  0.73876013  0.09943347  1
  O  O266  1  0.14504527  0.74719968  0.37627917  1
  O  O267  1  0.12370430  0.75176515  0.61008071  1
  O  O268  1  0.10996303  0.74608689  0.88189861  1
  O  O269  1  0.35043910  0.02116576  0.13418220  1
  O  O270  1  0.39886691  0.01544897  0.31395826  1
  O  O271  1  0.35356217  0.00792857  0.64576167  1
  O  O272  1  0.34388660  0.00280372  0.86479098  1
  O  O273  1  0.40227116  0.26547653  0.10969436  1
  O  O274  1  0.36601574  0.25405247  0.40199627  1
  O  O275  1  0.37555408  0.25774363  0.58907584  1
  O  O276  1  0.41316959  0.27134653  0.88994316  1
  O  O277  1  0.37605804  0.49488272  0.15995282  1
  O  O278  1  0.39284663  0.51284400  0.32559580  1
  O  O279  1  0.34824467  0.50558909  0.63699776  1
  O  O280  1  0.34352029  0.50760981  0.86036132  1
  O  O281  1  0.35336329  0.73516470  0.08840512  1
  O  O282  1  0.36301305  0.75935167  0.41523686  1
  O  O283  1  0.37317384  0.74282817  0.59975959  1
  O  O284  1  0.39472539  0.74388134  0.90095718  1
  O  O285  1  0.59858035  -0.00451819  0.16111152  1
  O  O286  1  0.62015264  0.00158769  0.36185237  1
  O  O287  1  0.60598817  0.01086512  0.62381882  1
  O  O288  1  0.64642122  0.00312112  0.86852083  1
  O  O289  1  0.61596503  0.25970016  0.10558115  1
  O  O290  1  0.64307482  0.26705080  0.37115806  1
  O  O291  1  0.61084451  0.26096176  0.59601257  1
  O  O292  1  0.60421929  0.25945033  0.90457544  1
  O  O293  1  0.64736539  0.51155988  0.14055638  1
  O  O294  1  0.58763490  0.51622660  0.34144310  1
  O  O295  1  0.64549411  0.51238402  0.63977304  1
  O  O296  1  0.63808297  0.51038866  0.83317142  1
  O  O297  1  0.61340341  0.73736369  0.09639321  1
  O  O298  1  0.63898655  0.74853138  0.41580792  1
  O  O299  1  0.60149594  0.74296659  0.60123430  1
  O  O300  1  0.60222995  0.74051375  0.88358001  1
  O  O301  1  0.90121673  -0.00117461  0.13980899  1
  O  O302  1  0.89865813  -0.03704750  0.40402849  1
  O  O303  1  0.85954918  -0.00804142  0.59356907  1
  O  O304  1  0.86018869  -0.00260729  0.85068304  1
  O  O305  1  0.86187905  0.24011335  0.10199772  1
  O  O306  1  0.84812694  0.26965856  0.38897353  1
  O  O307  1  0.90786257  0.25496866  0.62107838  1
  O  O308  1  0.90125045  0.26020685  0.88012347  1
  O  O309  1  0.87599587  0.49033024  0.13580155  1
  O  O310  1  0.89111442  0.49957088  0.33736446  1
  O  O311  1  0.85942943  0.51233619  0.65269394  1
  O  O312  1  0.86004022  0.50429977  0.84643501  1
  O  O313  1  0.87849118  0.74787489  0.09739569  1
  O  O314  1  0.89764007  0.74511521  0.39846976  1
  O  O315  1  0.92021501  0.74002206  0.60763478  1
  O  O316  1  0.90493354  0.74455964  0.88627172  1
