# generated using pymatgen
data_Mg32Ti42(Bi17O64)3
_symmetry_space_group_name_H-M   'P 1'
_cell_length_a   15.98003969
_cell_length_b   15.97495346
_cell_length_c   15.95294338
_cell_angle_alpha   89.80875822
_cell_angle_beta   90.06044092
_cell_angle_gamma   89.87592854
_symmetry_Int_Tables_number   1
_chemical_formula_structural   Mg32Ti42(Bi17O64)3
_chemical_formula_sum   'Mg32 Ti42 Bi51 O192'
_cell_volume   4072.43908301
_cell_formula_units_Z   1
loop_
 _symmetry_equiv_pos_site_id
 _symmetry_equiv_pos_as_xyz
  1  'x, y, z'
loop_
 _atom_site_type_symbol
 _atom_site_label
 _atom_site_symmetry_multiplicity
 _atom_site_fract_x
 _atom_site_fract_y
 _atom_site_fract_z
 _atom_site_occupancy
  Mg  Mg0  1  0.88134710  0.38668101  0.87319045  1
  Mg  Mg1  1  0.86977706  0.35858448  0.39451468  1
  Mg  Mg2  1  0.37501599  0.86465430  0.37527168  1
  Mg  Mg3  1  0.12698802  0.38041353  0.87779420  1
  Mg  Mg4  1  0.87824943  0.63415585  0.12257264  1
  Mg  Mg5  1  0.61816648  0.38826592  0.63095769  1
  Mg  Mg6  1  0.62182110  0.14426632  0.86909021  1
  Mg  Mg7  1  0.87571980  0.13199412  0.86415524  1
  Mg  Mg8  1  0.12479028  0.87660592  0.62385569  1
  Mg  Mg9  1  0.86888078  0.88667229  0.37585253  1
  Mg  Mg10  1  0.86450442  0.37056661  0.62830332  1
  Mg  Mg11  1  0.37352402  0.86113696  0.87976981  1
  Mg  Mg12  1  0.37576596  0.12705581  0.87089868  1
  Mg  Mg13  1  0.88177408  0.61543834  0.36285684  1
  Mg  Mg14  1  0.86920151  0.88239319  0.63250607  1
  Mg  Mg15  1  0.62348350  0.11687689  0.37808965  1
  Mg  Mg16  1  0.12643543  0.12669972  0.86991101  1
  Mg  Mg17  1  0.38531376  0.85336197  0.12719569  1
  Mg  Mg18  1  0.61377066  0.63537879  0.11360355  1
  Mg  Mg19  1  0.80679387  0.75919531  -0.02233965  1
  Mg  Mg20  1  0.44156913  0.71810095  -0.00639288  1
  Mg  Mg21  1  0.51405593  0.51493883  0.76935323  1
  Mg  Mg22  1  0.75462410  0.25067881  0.53983473  1
  Mg  Mg23  1  0.25353161  -0.00008404  -0.05930647  1
  Mg  Mg24  1  0.75654889  0.28318254  0.75651340  1
  Mg  Mg25  1  0.70646629  0.67648431  0.25453929  1
  Mg  Mg26  1  0.73965562  0.70585876  0.42865478  1
  Mg  Mg27  1  0.05019605  0.72536359  -0.01941255  1
  Mg  Mg28  1  -0.00883443  0.54032215  0.00693506  1
  Mg  Mg29  1  0.20742513  0.48496598  0.75832151  1
  Mg  Mg30  1  0.29632380  0.73925079  0.51726679  1
  Mg  Mg31  1  0.25137606  0.06281496  0.75545519  1
  Ti  Ti32  1  0.86144461  0.13163135  0.38409955  1
  Ti  Ti33  1  0.36756081  0.61517329  0.39402781  1
  Ti  Ti34  1  0.61931892  0.12809984  0.11682976  1
  Ti  Ti35  1  0.63991821  0.87996786  0.36831261  1
  Ti  Ti36  1  0.64229439  0.63604699  0.63072466  1
  Ti  Ti37  1  0.63182889  0.85554966  0.13001237  1
  Ti  Ti38  1  0.11563684  0.63965688  0.62234958  1
  Ti  Ti39  1  0.11744578  0.62305804  0.12400289  1
  Ti  Ti40  1  0.87110371  0.62731259  0.61908742  1
  Ti  Ti41  1  0.11764006  0.62532579  0.39092077  1
  Ti  Ti42  1  0.62575821  0.87011505  0.90062351  1
  Ti  Ti43  1  0.88034190  0.13566062  0.12630293  1
  Ti  Ti44  1  0.36448926  0.61457819  0.86191137  1
  Ti  Ti45  1  0.13039383  0.11057599  0.36941644  1
  Ti  Ti46  1  0.11760661  0.36446962  0.11588631  1
  Ti  Ti47  1  0.36936124  0.37210274  0.13425651  1
  Ti  Ti48  1  0.37938819  0.87934735  0.62058411  1
  Ti  Ti49  1  0.36765785  0.12288016  0.12530401  1
  Ti  Ti50  1  0.63703655  0.88063236  0.63839281  1
  Ti  Ti51  1  0.12737628  0.87542274  0.87560168  1
  Ti  Ti52  1  0.65619301  0.35667477  0.40044251  1
  Ti  Ti53  1  0.61683988  0.36553547  0.10091778  1
  Ti  Ti54  1  0.88205337  0.38364621  0.11466879  1
  Ti  Ti55  1  0.38187724  0.37922703  0.38236247  1
  Ti  Ti56  1  0.86864221  0.87507990  0.11678426  1
  Ti  Ti57  1  0.37267574  0.38901243  0.87259265  1
  Ti  Ti58  1  0.11956077  0.85798260  0.11968348  1
  Ti  Ti59  1  0.39341200  0.38903930  0.63338834  1
  Ti  Ti60  1  0.62586859  0.39210853  0.86739988  1
  Ti  Ti61  1  0.13909941  0.11405270  0.62290319  1
  Ti  Ti62  1  0.13216386  0.62229100  0.85971496  1
  Ti  Ti63  1  0.40309973  0.62212146  0.62419016  1
  Ti  Ti64  1  0.38188984  0.11834513  0.62399666  1
  Ti  Ti65  1  0.13173974  0.12791181  0.13222575  1
  Ti  Ti66  1  0.88354828  0.88818229  0.88071687  1
  Ti  Ti67  1  0.37080771  0.61988857  0.13567921  1
  Ti  Ti68  1  0.88903726  0.62140611  0.87543983  1
  Ti  Ti69  1  0.63483671  0.62231365  0.88401921  1
  Ti  Ti70  1  0.61965160  0.12093825  0.62644535  1
  Ti  Ti71  1  0.12434472  0.86728335  0.37705719  1
  Ti  Ti72  1  0.37425293  0.11266796  0.37779055  1
  Ti  Ti73  1  0.87488141  0.13580053  0.63338665  1
  Bi  Bi74  1  0.76405744  -0.00020567  0.24025284  1
  Bi  Bi75  1  0.24603176  0.76231326  -0.00097458  1
  Bi  Bi76  1  0.23652014  0.23807969  -0.02226263  1
  Bi  Bi77  1  -0.00392289  0.50240094  0.73257033  1
  Bi  Bi78  1  0.00645972  0.24999099  0.28362260  1
  Bi  Bi79  1  0.77011018  0.51790527  0.47844173  1
  Bi  Bi80  1  0.51295729  0.27402961  0.76485652  1
  Bi  Bi81  1  0.51548647  0.73301990  0.28440465  1
  Bi  Bi82  1  -0.00993005  -0.01000298  0.22459838  1
  Bi  Bi83  1  0.74149075  0.02473492  0.75945696  1
  Bi  Bi84  1  0.46926209  -0.01527504  0.00653783  1
  Bi  Bi85  1  0.51495142  0.73756029  0.77541082  1
  Bi  Bi86  1  0.74473444  0.03250417  -0.01328809  1
  Bi  Bi87  1  -0.01170123  -0.01672680  0.49803815  1
  Bi  Bi88  1  0.27356254  0.24986207  0.50868612  1
  Bi  Bi89  1  0.75674410  0.77124106  0.78044691  1
  Bi  Bi90  1  0.47548959  -0.01825138  0.77267234  1
  Bi  Bi91  1  0.51992099  -0.01499426  0.23421264  1
  Bi  Bi92  1  0.47256144  0.50614927  0.01195094  1
  Bi  Bi93  1  0.02383013  -0.00536835  0.74296037  1
  Bi  Bi94  1  0.21889363  0.47541071  0.54176038  1
  Bi  Bi95  1  0.76492055  0.25486832  -0.03365341  1
  Bi  Bi96  1  0.27117236  0.75415208  0.72162116  1
  Bi  Bi97  1  -0.00360206  0.76257545  0.73284856  1
  Bi  Bi98  1  0.55282272  0.52514044  0.48967484  1
  Bi  Bi99  1  0.24351741  0.26366976  0.28353388  1
  Bi  Bi100  1  0.52913888  0.49918520  0.26789247  1
  Bi  Bi101  1  0.03312508  0.28390432  0.72710812  1
  Bi  Bi102  1  0.23408596  0.49841623  0.01867642  1
  Bi  Bi103  1  0.75265053  0.47869166  0.23106040  1
  Bi  Bi104  1  0.00334024  0.44785183  0.50667144  1
  Bi  Bi105  1  0.52515257  -0.01190123  0.49962432  1
  Bi  Bi106  1  -0.04415919  0.74991466  0.25365631  1
  Bi  Bi107  1  -0.04012513  0.75507204  0.48030099  1
  Bi  Bi108  1  0.03520971  0.24227302  0.50208845  1
  Bi  Bi109  1  0.46829222  0.24173357  -0.01181208  1
  Bi  Bi110  1  0.49745513  0.22003335  0.25524846  1
  Bi  Bi111  1  0.00020744  0.47718949  0.27900847  1
  Bi  Bi112  1  0.25301410  -0.04203187  0.23238037  1
  Bi  Bi113  1  0.76841901  0.52870540  0.01215296  1
  Bi  Bi114  1  0.25686412  0.73116580  0.27580721  1
  Bi  Bi115  1  0.52337865  0.26107298  0.50122783  1
  Bi  Bi116  1  0.76270670  0.49150835  0.73753287  1
  Bi  Bi117  1  0.21675478  0.48934426  0.27185341  1
  Bi  Bi118  1  0.75089116  0.23274449  0.24468913  1
  Bi  Bi119  1  0.53767607  0.76076939  0.50812911  1
  Bi  Bi120  1  0.25658344  -0.02895745  0.48863478  1
  Bi  Bi121  1  -0.00241138  0.25952613  -0.02399051  1
  Bi  Bi122  1  0.02039765  0.03305563  -0.00223977  1
  Bi  Bi123  1  0.24354274  0.28987494  0.73998028  1
  Bi  Bi124  1  0.76218931  0.01152131  0.51285307  1
  O  O125  1  0.12392084  0.14109453  0.01031879  1
  O  O126  1  0.09946161  0.12198599  0.24963179  1
  O  O127  1  0.13348633  0.12974553  0.49803357  1
  O  O128  1  0.12874670  0.09978408  0.74664839  1
  O  O129  1  0.15397611  0.35881558  -0.00069390  1
  O  O130  1  0.10943519  0.40469119  0.22891512  1
  O  O131  1  0.12722606  0.38397684  0.51559884  1
  O  O132  1  0.13126046  0.37440547  0.74980032  1
  O  O133  1  0.15969613  0.64542740  -0.02050777  1
  O  O134  1  0.10899064  0.60761986  0.23456136  1
  O  O135  1  0.12784923  0.61066625  0.50337518  1
  O  O136  1  0.09544006  0.64122384  0.74621332  1
  O  O137  1  0.09923653  0.84188959  0.00400632  1
  O  O138  1  0.13746448  0.88117539  0.24860467  1
  O  O139  1  0.14160749  0.88570487  0.49575537  1
  O  O140  1  0.13122105  0.90955972  0.76249124  1
  O  O141  1  0.37952168  0.11818729  0.00618437  1
  O  O142  1  0.38639377  0.13408638  0.25031127  1
  O  O143  1  0.35041724  0.13120213  0.49802840  1
  O  O144  1  0.37561775  0.09428550  0.74302159  1
  O  O145  1  0.36658647  0.40847546  -0.00866673  1
  O  O146  1  0.38303040  0.36412696  0.24662271  1
  O  O147  1  0.36222685  0.36777148  0.50584038  1
  O  O148  1  0.39360516  0.35390351  0.74994748  1
  O  O149  1  0.36179298  0.58986018  -0.01944179  1
  O  O150  1  0.37949021  0.64243199  0.24761228  1
  O  O151  1  0.35168720  0.61628125  0.51047264  1
  O  O152  1  0.39883587  0.63723417  0.74356112  1
  O  O153  1  0.40831241  0.86219561  0.00362355  1
  O  O154  1  0.34432431  0.85375436  0.24729356  1
  O  O155  1  0.34346034  0.86169221  0.50336100  1
  O  O156  1  0.38458077  0.87935362  0.74589234  1
  O  O157  1  0.63924679  0.13898701  0.00136858  1
  O  O158  1  0.60051798  0.12785551  0.24948122  1
  O  O159  1  0.62699249  0.08374189  0.50309997  1
  O  O160  1  0.62298265  0.11107330  0.74420649  1
  O  O161  1  0.63571757  0.37843639  -0.01140113  1
  O  O162  1  0.70056568  0.35713423  0.29057102  1
  O  O163  1  0.59630241  0.38622047  0.50471396  1
  O  O164  1  0.57724138  0.40411109  0.75218822  1
  O  O165  1  0.64718736  0.62010734  -0.00355249  1
  O  O166  1  0.59311492  0.61497915  0.24042493  1
  O  O167  1  0.64521724  0.64870334  0.50278254  1
  O  O168  1  0.59114635  0.61802214  0.74251740  1
  O  O169  1  0.60869492  0.85486690  0.01220169  1
  O  O170  1  0.63929706  0.90756337  0.24578722  1
  O  O171  1  0.61976987  0.87639838  0.49381493  1
  O  O172  1  0.65288738  0.87972715  0.75278293  1
  O  O173  1  0.84549567  0.14515512  0.00448652  1
  O  O174  1  0.88304072  0.10116183  0.24485157  1
  O  O175  1  0.83124497  0.15573866  0.49562033  1
  O  O176  1  0.87097488  0.09808807  0.74252159  1
  O  O177  1  0.87330802  0.33699144  -0.00452048  1
  O  O178  1  0.88214779  0.40071975  0.23185585  1
  O  O179  1  0.91803569  0.34026355  0.51167681  1
  O  O180  1  0.87995106  0.42102258  0.75142704  1
  O  O181  1  0.84480563  0.64475148  -0.00126686  1
  O  O182  1  0.91081944  0.62222212  0.24159241  1
  O  O183  1  0.84345748  0.64603255  0.50369931  1
  O  O184  1  0.89190912  0.60132529  0.75654965  1
  O  O185  1  0.88358832  0.85346863  0.00301786  1
  O  O186  1  0.87523549  0.90365461  0.24958748  1
  O  O187  1  0.89473587  0.87499168  0.50543507  1
  O  O188  1  0.84434197  0.88525364  0.76507898  1
  O  O189  1  -0.00768286  0.14638739  0.10885805  1
  O  O190  1  -0.00687344  0.15999683  0.39246363  1
  O  O191  1  -0.01246581  0.16305282  0.61244175  1
  O  O192  1  -0.00138777  0.13830382  0.89235227  1
  O  O193  1  0.00299233  0.35500388  0.10141945  1
  O  O194  1  -0.00425856  0.36663043  0.36360387  1
  O  O195  1  -0.00500191  0.39108562  0.64347018  1
  O  O196  1  0.00418170  0.34516902  0.86800530  1
  O  O197  1  0.01092115  0.65002420  0.07915527  1
  O  O198  1  0.00440168  0.64890681  0.38508633  1
  O  O199  1  -0.01157661  0.59291249  0.61552514  1
  O  O200  1  0.00490380  0.63391274  0.90372447  1
  O  O201  1  0.00018820  0.86929730  0.14618502  1
  O  O202  1  0.00677680  0.85442895  0.38306804  1
  O  O203  1  -0.00769300  0.88450885  0.66463378  1
  O  O204  1  -0.00389762  0.88816053  0.86111864  1
  O  O205  1  0.24847914  0.11391656  0.13507361  1
  O  O206  1  0.24494734  0.11053593  0.35424023  1
  O  O207  1  0.24835983  0.08804035  0.63190162  1
  O  O208  1  0.25315738  0.10236514  0.87390831  1
  O  O209  1  0.25288760  0.40512049  0.13019120  1
  O  O210  1  0.25494243  0.38428233  0.35326937  1
  O  O211  1  0.27159817  0.40202513  0.64976378  1
  O  O212  1  0.26129360  0.40465966  0.84409636  1
  O  O213  1  0.25171804  0.59286878  0.12476547  1
  O  O214  1  0.24640965  0.60697025  0.35641344  1
  O  O215  1  0.22638819  0.68013813  0.61691849  1
  O  O216  1  0.25090804  0.60237135  0.82620240  1
  O  O217  1  0.23533025  0.89221016  0.10771141  1
  O  O218  1  0.24459098  0.90637503  0.36923754  1
  O  O219  1  0.25150834  0.86008850  0.64098635  1
  O  O220  1  0.24625032  0.88227627  0.90043156  1
  O  O221  1  0.49658211  0.15704867  0.12298196  1
  O  O222  1  0.48710623  0.14843865  0.38159698  1
  O  O223  1  0.49505647  0.13651516  0.61195923  1
  O  O224  1  0.49821787  0.15969265  0.87747635  1
  O  O225  1  0.50014709  0.36475896  0.09831668  1
  O  O226  1  0.49228741  0.34993375  0.37645970  1
  O  O227  1  0.49631846  0.33499797  0.62244267  1
  O  O228  1  0.49862832  0.34614883  0.88583788  1
  O  O229  1  0.48776482  0.63492657  0.08481680  1
  O  O230  1  0.48301450  0.64398544  0.38807227  1
  O  O231  1  0.50772468  0.63908276  0.59592295  1
  O  O232  1  0.49299299  0.65871568  0.88753997  1
  O  O233  1  0.51217722  0.86230774  0.15889818  1
  O  O234  1  0.50021846  0.83733074  0.37714211  1
  O  O235  1  0.49420880  0.85834548  0.60574572  1
  O  O236  1  0.51103030  0.86751000  0.85713492  1
  O  O237  1  0.74003882  0.10841783  0.14073076  1
  O  O238  1  0.75069129  0.10676744  0.35131793  1
  O  O239  1  0.74115962  0.09092259  0.62908188  1
  O  O240  1  0.74569955  0.11316474  0.87174471  1
  O  O241  1  0.75858685  0.40240925  0.11365260  1
  O  O242  1  0.75647824  0.35618734  0.45883761  1
  O  O243  1  0.73610206  0.37450223  0.66985618  1
  O  O244  1  0.74073229  0.40989219  0.85345021  1
  O  O245  1  0.74798387  0.59434632  0.14008271  1
  O  O246  1  0.75864388  0.61332725  0.35044943  1
  O  O247  1  0.75272679  0.63949929  0.65545519  1
  O  O248  1  0.74755602  0.61651216  0.85835297  1
  O  O249  1  0.75120528  0.90105712  0.11774195  1
  O  O250  1  0.74695663  0.90970262  0.38014061  1
  O  O251  1  0.74592716  0.90383462  0.61109790  1
  O  O252  1  0.74748257  0.84387568  0.90197981  1
  O  O253  1  0.09892048  0.00969736  0.11734496  1
  O  O254  1  0.09771907  0.00125345  0.37500198  1
  O  O255  1  0.08988543  0.00584917  0.61810460  1
  O  O256  1  0.12518050  -0.00443138  0.91635987  1
  O  O257  1  0.14002856  0.25439232  0.14344395  1
  O  O258  1  0.13085584  0.24315404  0.36000356  1
  O  O259  1  0.14194614  0.23776892  0.64129483  1
  O  O260  1  0.16068254  0.25097742  0.86515996  1
  O  O261  1  0.10286612  0.50812313  0.07646548  1
  O  O262  1  0.11172400  0.50827094  0.36862140  1
  O  O263  1  0.15286518  0.52403493  0.64960657  1
  O  O264  1  0.12040006  0.50839330  0.86168959  1
  O  O265  1  0.14781265  0.74414150  0.12909073  1
  O  O266  1  0.14922904  0.74945975  0.37200027  1
  O  O267  1  0.07728227  0.75311700  0.62145828  1
  O  O268  1  0.12368838  0.75785213  0.86502109  1
  O  O269  1  0.39458473  0.00387412  0.12800960  1
  O  O270  1  0.38513339  0.00016639  0.38738280  1
  O  O271  1  0.38612089  -0.00602663  0.60476437  1
  O  O272  1  0.39036354  -0.00688684  0.88557106  1
  O  O273  1  0.35753008  0.25719423  0.10944186  1
  O  O274  1  0.34211129  0.25194632  0.38207704  1
  O  O275  1  0.34477197  0.23502343  0.62699645  1
  O  O276  1  0.35436380  0.26164119  0.89747783  1
  O  O277  1  0.40371512  0.50015257  0.13245410  1
  O  O278  1  0.39003608  0.49797359  0.37819045  1
  O  O279  1  0.42355170  0.49933335  0.64257382  1
  O  O280  1  0.41311254  0.50121428  0.84702676  1
  O  O281  1  0.35551704  0.73202646  0.09315372  1
  O  O282  1  0.33534200  0.73780985  0.38976717  1
  O  O283  1  0.37301782  0.74314889  0.62287160  1
  O  O284  1  0.34905898  0.73470497  0.89432580  1
  O  O285  1  0.59441897  0.01264693  0.11708950  1
  O  O286  1  0.58628955  -0.00922526  0.37079506  1
  O  O287  1  0.59079506  -0.01007467  0.63051523  1
  O  O288  1  0.63684542  -0.01410961  0.89684099  1
  O  O289  1  0.64146752  0.25884897  0.13612069  1
  O  O290  1  0.63416106  0.24382256  0.40728181  1
  O  O291  1  0.63920965  0.23276119  0.59291171  1
  O  O292  1  0.64874309  0.27124623  0.83327537  1
  O  O293  1  0.61791552  0.46322463  0.17121096  1
  O  O294  1  0.62064196  0.48140228  0.37204599  1
  O  O295  1  0.63317552  0.51635919  0.60329376  1
  O  O296  1  0.59446072  0.50927068  0.87366561  1
  O  O297  1  0.65277348  0.74898422  0.15642152  1
  O  O298  1  0.65192079  0.75868917  0.34582403  1
  O  O299  1  0.62392227  0.75853571  0.63063728  1
  O  O300  1  0.62975046  0.74407356  0.85569621  1
  O  O301  1  0.89567172  0.00267789  0.11432661  1
  O  O302  1  0.89366433  0.01569155  0.40005173  1
  O  O303  1  0.88648968  0.01748106  0.59019267  1
  O  O304  1  0.86370596  -0.00159971  0.90241251  1
  O  O305  1  0.85332977  0.25010619  0.14756374  1
  O  O306  1  0.86247101  0.24633772  0.33813488  1
  O  O307  1  0.82911759  0.24449124  0.64613803  1
  O  O308  1  0.83817134  0.25880568  0.85046768  1
  O  O309  1  0.89710624  0.49737822  0.08554268  1
  O  O310  1  0.88077998  0.49004990  0.40351324  1
  O  O311  1  0.84275537  0.50298203  0.60010002  1
  O  O312  1  0.89649317  0.50927412  0.91293047  1
  O  O313  1  0.86246704  0.76097966  0.14872140  1
  O  O314  1  0.86616673  0.75547989  0.37272567  1
  O  O315  1  0.89105563  0.74359417  0.64124759  1
  O  O316  1  0.87196525  0.74506607  0.86581721  1
