# generated using pymatgen
data_Mg32Ti42(Bi17O64)3
_symmetry_space_group_name_H-M   'P 1'
_cell_length_a   15.96152364
_cell_length_b   15.98205064
_cell_length_c   15.98431253
_cell_angle_alpha   89.94099734
_cell_angle_beta   89.86816853
_cell_angle_gamma   89.99546796
_symmetry_Int_Tables_number   1
_chemical_formula_structural   Mg32Ti42(Bi17O64)3
_chemical_formula_sum   'Mg32 Ti42 Bi51 O192'
_cell_volume   4077.55126034
_cell_formula_units_Z   1
loop_
 _symmetry_equiv_pos_site_id
 _symmetry_equiv_pos_as_xyz
  1  'x, y, z'
loop_
 _atom_site_type_symbol
 _atom_site_label
 _atom_site_symmetry_multiplicity
 _atom_site_fract_x
 _atom_site_fract_y
 _atom_site_fract_z
 _atom_site_occupancy
  Mg  Mg0  1  0.37593089  0.37772329  0.62986472  1
  Mg  Mg1  1  0.37154568  0.38448976  0.36691122  1
  Mg  Mg2  1  0.62545105  0.13094815  0.12529340  1
  Mg  Mg3  1  0.62301414  0.37234311  0.86358709  1
  Mg  Mg4  1  0.61919799  0.87555907  0.87130865  1
  Mg  Mg5  1  0.37319776  0.13563124  0.13103050  1
  Mg  Mg6  1  0.11761724  0.38438277  0.36852634  1
  Mg  Mg7  1  0.12653018  0.13331737  0.87120984  1
  Mg  Mg8  1  0.87795261  0.86685053  0.62835854  1
  Mg  Mg9  1  0.38177592  0.62707520  0.87952213  1
  Mg  Mg10  1  0.13297596  0.88109685  0.11549707  1
  Mg  Mg11  1  0.12184430  0.36940938  0.12883579  1
  Mg  Mg12  1  0.12240312  0.61099453  0.86877264  1
  Mg  Mg13  1  0.62057459  0.88416371  0.37522362  1
  Mg  Mg14  1  0.11274007  0.62793174  0.63075621  1
  Mg  Mg15  1  0.13292289  0.11528856  0.61265757  1
  Mg  Mg16  1  0.12047969  0.86688561  0.37841574  1
  Mg  Mg17  1  0.11372327  0.36565356  0.88393464  1
  Mg  Mg18  1  0.62139487  0.87138333  0.12325119  1
  Mg  Mg19  1  0.77298400  0.22790025  0.45010564  1
  Mg  Mg20  1  -0.01041338  0.66233433  0.76358245  1
  Mg  Mg21  1  -0.01998165  0.46513254  0.68161438  1
  Mg  Mg22  1  0.41725856  0.51186467  0.74851065  1
  Mg  Mg23  1  0.23661681  -0.04219042  0.49064633  1
  Mg  Mg24  1  0.42184533  0.75971759  0.74627005  1
  Mg  Mg25  1  0.05636225  0.29857063  0.51473988  1
  Mg  Mg26  1  0.78115173  0.73970726  0.51203083  1
  Mg  Mg27  1  0.16611597  0.44894385  0.73765381  1
  Mg  Mg28  1  0.26363781  0.24631525  -0.06947943  1
  Mg  Mg29  1  0.74282847  0.46948930  -0.04233662  1
  Mg  Mg30  1  0.20310060  -0.03616334  0.25620743  1
  Mg  Mg31  1  0.24022896  0.66254390  0.75129878  1
  Ti  Ti32  1  0.88107642  0.88791597  0.87051924  1
  Ti  Ti33  1  0.86769681  0.63651822  0.12492766  1
  Ti  Ti34  1  0.14294690  0.87095361  0.87229021  1
  Ti  Ti35  1  0.38881719  0.13363919  0.87209556  1
  Ti  Ti36  1  0.38996254  0.37940130  0.86573605  1
  Ti  Ti37  1  0.62305451  0.12661034  0.86836898  1
  Ti  Ti38  1  0.61844847  0.12096014  0.61310662  1
  Ti  Ti39  1  0.87814195  0.12736823  0.60631469  1
  Ti  Ti40  1  0.63677010  0.61919652  0.63850666  1
  Ti  Ti41  1  0.87790918  0.12770549  0.87479881  1
  Ti  Ti42  1  0.39206624  0.62751003  0.61625250  1
  Ti  Ti43  1  0.37144542  0.61837269  0.37861878  1
  Ti  Ti44  1  0.13480065  0.62736852  0.38571171  1
  Ti  Ti45  1  0.63233615  0.63174768  0.11741007  1
  Ti  Ti46  1  0.63236366  0.38532749  0.61881306  1
  Ti  Ti47  1  0.38197374  0.88101860  0.12872076  1
  Ti  Ti48  1  0.61908871  0.86529050  0.63564748  1
  Ti  Ti49  1  0.36101150  0.38215058  0.13165069  1
  Ti  Ti50  1  0.87975000  0.11240947  0.11533666  1
  Ti  Ti51  1  0.37591156  0.87770246  0.89170478  1
  Ti  Ti52  1  0.88166774  0.63276565  0.37390670  1
  Ti  Ti53  1  0.13598914  0.12236812  0.13463770  1
  Ti  Ti54  1  0.37103558  0.88690396  0.62743900  1
  Ti  Ti55  1  0.87220455  0.62373435  0.89606812  1
  Ti  Ti56  1  0.62570831  0.62363403  0.86396368  1
  Ti  Ti57  1  0.87163266  0.36487443  0.11472050  1
  Ti  Ti58  1  0.87537766  0.86562608  0.11060624  1
  Ti  Ti59  1  0.86091353  0.35923828  0.59423487  1
  Ti  Ti60  1  0.64119412  0.36776290  0.12656570  1
  Ti  Ti61  1  0.12466557  0.11532914  0.38301025  1
  Ti  Ti62  1  0.88335277  0.10769084  0.37460419  1
  Ti  Ti63  1  0.87337866  0.36566508  0.36874597  1
  Ti  Ti64  1  0.36649580  0.88353458  0.37336140  1
  Ti  Ti65  1  0.12906368  0.87228361  0.64045172  1
  Ti  Ti66  1  0.62673930  0.12591667  0.37435791  1
  Ti  Ti67  1  0.37364911  0.12528974  0.61456630  1
  Ti  Ti68  1  0.87225050  0.86788510  0.37985902  1
  Ti  Ti69  1  0.88208256  0.36510803  0.88019577  1
  Ti  Ti70  1  0.35975498  0.12539209  0.36927519  1
  Ti  Ti71  1  0.38692649  0.61542514  0.12750548  1
  Ti  Ti72  1  0.87478846  0.62331996  0.61748275  1
  Ti  Ti73  1  0.63726313  0.36511812  0.37858356  1
  Bi  Bi74  1  0.49235734  0.73468831  -0.01006372  1
  Bi  Bi75  1  0.21731695  0.48973044  0.55459252  1
  Bi  Bi76  1  0.27235493  0.02631883  0.01084776  1
  Bi  Bi77  1  0.23880797  0.70935176  -0.00568689  1
  Bi  Bi78  1  -0.01689428  0.50420828  0.24305165  1
  Bi  Bi79  1  0.49201477  0.27403124  0.23777663  1
  Bi  Bi80  1  0.22686795  0.26728672  0.24933124  1
  Bi  Bi81  1  0.74414247  -0.03366367  0.25118706  1
  Bi  Bi82  1  0.75824242  0.49809225  0.23522528  1
  Bi  Bi83  1  0.01815406  0.01986531  0.75677515  1
  Bi  Bi84  1  0.26093990  0.75689289  0.22893704  1
  Bi  Bi85  1  0.24726491  0.28150103  0.47497363  1
  Bi  Bi86  1  0.54090871  0.49934387  -0.00842758  1
  Bi  Bi87  1  0.77951190  0.00341867  0.73599701  1
  Bi  Bi88  1  0.53289765  0.51795133  0.26593242  1
  Bi  Bi89  1  0.23260878  0.26260244  0.70842940  1
  Bi  Bi90  1  0.02872964  -0.00573024  -0.02117581  1
  Bi  Bi91  1  0.03373525  0.23102826  0.01062308  1
  Bi  Bi92  1  0.24729177  0.48054077  -0.04665301  1
  Bi  Bi93  1  0.50804048  0.01294315  0.02617721  1
  Bi  Bi94  1  0.73268809  0.23396447  -0.01935495  1
  Bi  Bi95  1  0.76820355  0.74586936  0.75771135  1
  Bi  Bi96  1  0.72021372  0.72594438  0.28340398  1
  Bi  Bi97  1  0.54776055  0.73425058  0.49260556  1
  Bi  Bi98  1  0.00693371  -0.03186541  0.24073296  1
  Bi  Bi99  1  0.02040915  0.48455027  0.01696488  1
  Bi  Bi100  1  0.73747052  0.23858266  0.72792267  1
  Bi  Bi101  1  0.51265442  -0.01402652  0.76386560  1
  Bi  Bi102  1  0.51486748  0.26465693  0.71572481  1
  Bi  Bi103  1  0.03205244  0.71994872  0.00218375  1
  Bi  Bi104  1  -0.00389420  0.22568079  0.25333454  1
  Bi  Bi105  1  0.02085846  0.75591835  0.50792304  1
  Bi  Bi106  1  0.47409700  0.24513848  0.48116506  1
  Bi  Bi107  1  0.27117963  0.02995685  0.76418304  1
  Bi  Bi108  1  0.49650132  0.74297405  0.27886505  1
  Bi  Bi109  1  0.78710049  0.48233217  0.75797681  1
  Bi  Bi110  1  0.49038335  0.01575024  0.26300153  1
  Bi  Bi111  1  0.73410653  -0.00205837  0.02195746  1
  Bi  Bi112  1  0.01658128  0.25239203  0.70898683  1
  Bi  Bi113  1  0.73055925  0.76916846  -0.01734682  1
  Bi  Bi114  1  -0.00794289  0.49920115  0.48083371  1
  Bi  Bi115  1  0.03038633  0.74089831  0.21317326  1
  Bi  Bi116  1  0.49865163  -0.03181185  0.49998836  1
  Bi  Bi117  1  0.20213690  0.53538719  0.22637484  1
  Bi  Bi118  1  0.72249775  0.53237783  0.46338572  1
  Bi  Bi119  1  0.02424402  -0.01681629  0.51717922  1
  Bi  Bi120  1  0.75003811  -0.03226278  0.50913724  1
  Bi  Bi121  1  0.47321898  0.26713941  0.01141035  1
  Bi  Bi122  1  0.25768681  0.73741254  0.53383107  1
  Bi  Bi123  1  0.75800023  0.20978681  0.24149088  1
  Bi  Bi124  1  0.48545983  0.46489221  0.49921508  1
  O  O125  1  0.11753688  0.10319474  0.01252427  1
  O  O126  1  0.12011350  0.15798350  0.25486173  1
  O  O127  1  0.14531057  0.06932502  0.49102969  1
  O  O128  1  0.09420627  0.13422829  0.74502540  1
  O  O129  1  0.13619071  0.41140268  0.00655903  1
  O  O130  1  0.10799173  0.33441741  0.25368250  1
  O  O131  1  0.14843099  0.38577226  0.49525947  1
  O  O132  1  0.10911923  0.34004322  0.76041637  1
  O  O133  1  0.12995994  0.61987085  -0.00342164  1
  O  O134  1  0.12365073  0.64726965  0.25992283  1
  O  O135  1  0.13742178  0.59566618  0.50045909  1
  O  O136  1  0.11377146  0.64804699  0.75248776  1
  O  O137  1  0.13591626  0.90729855  -0.00721014  1
  O  O138  1  0.10596544  0.86134968  0.25399215  1
  O  O139  1  0.12840791  0.89655550  0.49938816  1
  O  O140  1  0.11816032  0.86458937  0.75153398  1
  O  O141  1  0.33654303  0.14898627  -0.01048246  1
  O  O142  1  0.39514997  0.12173351  0.25636446  1
  O  O143  1  0.36874382  0.13192675  0.49948736  1
  O  O144  1  0.38952329  0.10870888  0.75482839  1
  O  O145  1  0.36646334  0.36618791  0.01340953  1
  O  O146  1  0.40949904  0.38331084  0.24722682  1
  O  O147  1  0.36758933  0.38785693  0.50041502  1
  O  O148  1  0.41377646  0.38599171  0.75385880  1
  O  O149  1  0.37034864  0.64706851  0.00915970  1
  O  O150  1  0.40895498  0.62867752  0.25167819  1
  O  O151  1  0.36012685  0.63850207  0.49855648  1
  O  O152  1  0.38555539  0.63621945  0.74495289  1
  O  O153  1  0.35298794  0.86826024  0.00351477  1
  O  O154  1  0.40354292  0.90664300  0.24853724  1
  O  O155  1  0.35138267  0.89301261  0.49298602  1
  O  O156  1  0.39013090  0.88289597  0.74386632  1
  O  O157  1  0.65463312  0.11636890  -0.00727526  1
  O  O158  1  0.62418162  0.14492717  0.25495586  1
  O  O159  1  0.63996351  0.11474412  0.50260377  1
  O  O160  1  0.60680375  0.15720317  0.75477827  1
  O  O161  1  0.65109985  0.40451317  0.01618266  1
  O  O162  1  0.60994168  0.35672722  0.25963347  1
  O  O163  1  0.64470758  0.39398505  0.50202200  1
  O  O164  1  0.60884187  0.36455964  0.74064748  1
  O  O165  1  0.65569371  0.58910831  0.01201191  1
  O  O166  1  0.59984370  0.64539082  0.24462421  1
  O  O167  1  0.66244507  0.64686290  0.51417324  1
  O  O168  1  0.60564851  0.63484341  0.75406518  1
  O  O169  1  0.65453107  0.88657685  -0.00731479  1
  O  O170  1  0.63691373  0.87796023  0.24823874  1
  O  O171  1  0.62884212  0.89429331  0.50867224  1
  O  O172  1  0.58714744  0.86918410  0.74857747  1
  O  O173  1  0.85872207  0.13331406  0.00078442  1
  O  O174  1  0.88354710  0.11898685  0.25255327  1
  O  O175  1  0.85199843  0.13991871  0.49414570  1
  O  O176  1  0.88794933  0.10798800  0.75501945  1
  O  O177  1  0.84000403  0.38105649  0.00413685  1
  O  O178  1  0.90592014  0.38346704  0.25580484  1
  O  O179  1  0.83159621  0.33582061  0.49106222  1
  O  O180  1  0.89939437  0.39771494  0.76331127  1
  O  O181  1  0.85430533  0.64497464  0.00712152  1
  O  O182  1  0.89663153  0.62837460  0.25770740  1
  O  O183  1  0.84308876  0.62795285  0.50005751  1
  O  O184  1  0.90936114  0.57014726  0.72397410  1
  O  O185  1  0.86370257  0.85425106  -0.00353539  1
  O  O186  1  0.86596701  0.88552559  0.26227675  1
  O  O187  1  0.83572868  0.85929265  0.50566340  1
  O  O188  1  0.87899421  0.89590307  0.75204843  1
  O  O189  1  -0.00165518  0.14304127  0.13094305  1
  O  O190  1  -0.00033149  0.13724131  0.37538356  1
  O  O191  1  -0.00924185  0.13222914  0.60116787  1
  O  O192  1  -0.00573744  0.11365694  0.89156510  1
  O  O193  1  -0.00832333  0.36938713  0.09487818  1
  O  O194  1  -0.00899753  0.36966035  0.41830312  1
  O  O195  1  -0.01662891  0.35043471  0.60679162  1
  O  O196  1  -0.00865564  0.39033059  0.91407856  1
  O  O197  1  -0.01254475  0.63977761  0.11393993  1
  O  O198  1  -0.00342303  0.63613225  0.40184783  1
  O  O199  1  -0.01074689  0.64837107  0.60844514  1
  O  O200  1  -0.00908034  0.61794369  0.89018128  1
  O  O201  1  -0.00613091  0.86949534  0.13026381  1
  O  O202  1  -0.01317310  0.85929699  0.39988138  1
  O  O203  1  0.00219718  0.86656875  0.60183005  1
  O  O204  1  -0.00466602  0.88477044  0.88518092  1
  O  O205  1  0.24768408  0.11150801  0.13575123  1
  O  O206  1  0.24797111  0.11758461  0.35854240  1
  O  O207  1  0.25663412  0.11067761  0.64771552  1
  O  O208  1  0.25052812  0.14105613  0.84383332  1
  O  O209  1  0.24985831  0.38167349  0.15865428  1
  O  O210  1  0.24573271  0.35762875  0.35742569  1
  O  O211  1  0.25363502  0.39432213  0.66602564  1
  O  O212  1  0.26649674  0.36434970  0.87845655  1
  O  O213  1  0.26557612  0.63420390  0.14368910  1
  O  O214  1  0.25297566  0.62029311  0.36017643  1
  O  O215  1  0.25099137  0.63136298  0.62948235  1
  O  O216  1  0.25528917  0.64009632  0.87407033  1
  O  O217  1  0.25568870  0.88750212  0.16375500  1
  O  O218  1  0.25080725  0.91405091  0.36365356  1
  O  O219  1  0.24669020  0.89577240  0.62058530  1
  O  O220  1  0.25504761  0.87321384  0.85931796  1
  O  O221  1  0.50034579  0.13498273  0.09845586  1
  O  O222  1  0.51228623  0.15979315  0.38389929  1
  O  O223  1  0.49858605  0.15327398  0.61334301  1
  O  O224  1  0.50088035  0.11651677  0.89597104  1
  O  O225  1  0.51898261  0.35148423  0.11715139  1
  O  O226  1  0.50983463  0.36230518  0.40156369  1
  O  O227  1  0.50814198  0.36589050  0.60307576  1
  O  O228  1  0.50149535  0.38135737  0.91096650  1
  O  O229  1  0.50790844  0.62938641  0.10002010  1
  O  O230  1  0.48712349  0.66110991  0.39009432  1
  O  O231  1  0.50484832  0.64336165  0.60301534  1
  O  O232  1  0.50893217  0.61832871  0.90963014  1
  O  O233  1  0.49600154  0.88283066  0.10090345  1
  O  O234  1  0.49151098  0.86558185  0.39970776  1
  O  O235  1  0.49214897  0.86592575  0.59963617  1
  O  O236  1  0.49120941  0.90762683  0.88794438  1
  O  O237  1  0.75968814  0.10931185  0.14181378  1
  O  O238  1  0.75452574  0.12037072  0.36135521  1
  O  O239  1  0.73944060  0.11923038  0.65195248  1
  O  O240  1  0.75045030  0.14561749  0.85709894  1
  O  O241  1  0.75737564  0.38345856  0.15793396  1
  O  O242  1  0.75538589  0.39647203  0.35601970  1
  O  O243  1  0.75529305  0.38656997  0.64797790  1
  O  O244  1  0.75521817  0.37762722  0.85894684  1
  O  O245  1  0.74921227  0.62198886  0.15827461  1
  O  O246  1  0.75615317  0.60828149  0.35139999  1
  O  O247  1  0.75147968  0.60796223  0.65909818  1
  O  O248  1  0.74689412  0.64720851  0.85997257  1
  O  O249  1  0.75886349  0.89928483  0.12725657  1
  O  O250  1  0.74775969  0.90744681  0.37878555  1
  O  O251  1  0.73461563  0.90076728  0.64307373  1
  O  O252  1  0.75713027  0.84291924  0.86102552  1
  O  O253  1  0.11694008  0.00323376  0.16114272  1
  O  O254  1  0.10764947  0.00444479  0.33877004  1
  O  O255  1  0.09813443  -0.00525374  0.63884631  1
  O  O256  1  0.11648266  0.00164776  0.86078418  1
  O  O257  1  0.13155989  0.24398887  0.10600396  1
  O  O258  1  0.12717674  0.23508748  0.42178216  1
  O  O259  1  0.12772115  0.24268334  0.61374948  1
  O  O260  1  0.13637874  0.24824415  0.91973031  1
  O  O261  1  0.09492310  0.49376837  0.15226463  1
  O  O262  1  0.11169437  0.50851661  0.34822210  1
  O  O263  1  0.10396240  0.49863579  0.64232269  1
  O  O264  1  0.15191205  0.48956690  0.85353758  1
  O  O265  1  0.12073788  0.75633444  0.10949271  1
  O  O266  1  0.13363123  0.74339116  0.41132643  1
  O  O267  1  0.13203055  0.75631608  0.60163294  1
  O  O268  1  0.12877558  0.75921590  0.90241034  1
  O  O269  1  0.38038830  0.00730581  0.09746114  1
  O  O270  1  0.40703753  0.01179794  0.37753136  1
  O  O271  1  0.39362884  0.00451112  0.61890037  1
  O  O272  1  0.35394307  0.00931129  0.89025500  1
  O  O273  1  0.38215745  0.26073697  0.13848170  1
  O  O274  1  0.36935241  0.24832496  0.38242769  1
  O  O275  1  0.35504410  0.24872642  0.63126771  1
  O  O276  1  0.38785984  0.25171987  0.87254890  1
  O  O277  1  0.38510136  0.50283482  0.12181808  1
  O  O278  1  0.39700321  0.50954955  0.38196146  1
  O  O279  1  0.39470736  0.51140539  0.62628524  1
  O  O280  1  0.37482401  0.49922199  0.86625937  1
  O  O281  1  0.37577976  0.76296009  0.14960044  1
  O  O282  1  0.35492686  0.76975589  0.34319482  1
  O  O283  1  0.36196120  0.75944807  0.63049407  1
  O  O284  1  0.40486770  0.76113725  0.87155756  1
  O  O285  1  0.62237208  0.00341675  0.11091035  1
  O  O286  1  0.59627064  0.01242086  0.36951681  1
  O  O287  1  0.59525234  0.00945104  0.63935593  1
  O  O288  1  0.63046068  0.00954655  0.84517976  1
  O  O289  1  0.66041148  0.25372525  0.10951758  1
  O  O290  1  0.66146057  0.25336453  0.39922667  1
  O  O291  1  0.63640814  0.25503463  0.62557811  1
  O  O292  1  0.61960666  0.24937049  0.90250341  1
  O  O293  1  0.62790881  0.49862305  0.16486964  1
  O  O294  1  0.61664775  0.49572847  0.37280666  1
  O  O295  1  0.61687422  0.50658578  0.62404008  1
  O  O296  1  0.63253731  0.50345839  0.87905940  1
  O  O297  1  0.63661860  0.74597847  0.09893646  1
  O  O298  1  0.62782243  0.75839631  0.37590741  1
  O  O299  1  0.64060186  0.75498339  0.62633987  1
  O  O300  1  0.61301815  0.74425271  0.90510828  1
  O  O301  1  0.89672438  -0.00022238  0.10993860  1
  O  O302  1  0.89100265  -0.00255489  0.39329354  1
  O  O303  1  0.86350261  0.00719594  0.61776107  1
  O  O304  1  0.85946644  -0.00006208  0.88758153  1
  O  O305  1  0.86573772  0.25220816  0.13465113  1
  O  O306  1  0.86102174  0.25208046  0.35557200  1
  O  O307  1  0.85322210  0.24475837  0.64067812  1
  O  O308  1  0.88774764  0.25134892  0.87415698  1
  O  O309  1  0.88028136  0.50683131  0.13992933  1
  O  O310  1  0.88954295  0.50387132  0.38795838  1
  O  O311  1  0.89265080  0.48220504  0.58458168  1
  O  O312  1  0.84517295  0.51189748  0.89084667  1
  O  O313  1  0.86008935  0.75384033  0.14111383  1
  O  O314  1  0.84014847  0.74865272  0.38278883  1
  O  O315  1  0.84756523  0.73920519  0.62697489  1
  O  O316  1  0.88863631  0.72293752  0.81932474  1
