# generated using pymatgen
data_Mg32Ti42(Bi17O64)3
_symmetry_space_group_name_H-M   'P 1'
_cell_length_a   15.97932863
_cell_length_b   15.96428209
_cell_length_c   15.94705184
_cell_angle_alpha   89.93875199
_cell_angle_beta   89.99329348
_cell_angle_gamma   89.94330577
_symmetry_Int_Tables_number   1
_chemical_formula_structural   Mg32Ti42(Bi17O64)3
_chemical_formula_sum   'Mg32 Ti42 Bi51 O192'
_cell_volume   4068.06481927
_cell_formula_units_Z   1
loop_
 _symmetry_equiv_pos_site_id
 _symmetry_equiv_pos_as_xyz
  1  'x, y, z'
loop_
 _atom_site_type_symbol
 _atom_site_label
 _atom_site_symmetry_multiplicity
 _atom_site_fract_x
 _atom_site_fract_y
 _atom_site_fract_z
 _atom_site_occupancy
  Mg  Mg0  1  0.87988377  0.12340270  0.86917302  1
  Mg  Mg1  1  0.87738030  0.37781398  0.38516030  1
  Mg  Mg2  1  0.86715708  0.88390753  0.12865041  1
  Mg  Mg3  1  0.62439331  0.62005393  0.12882459  1
  Mg  Mg4  1  0.12579700  0.11838179  0.37026899  1
  Mg  Mg5  1  0.36741810  0.12744822  0.87653644  1
  Mg  Mg6  1  0.35242902  0.36888202  0.62177970  1
  Mg  Mg7  1  0.62465931  0.12520021  0.61620525  1
  Mg  Mg8  1  0.12441758  0.86440516  0.12844747  1
  Mg  Mg9  1  0.63355254  0.13142090  0.87491563  1
  Mg  Mg10  1  0.86183341  0.11166826  0.38097912  1
  Mg  Mg11  1  0.37658679  0.38152578  0.36400436  1
  Mg  Mg12  1  0.87206373  0.62721110  0.89003728  1
  Mg  Mg13  1  0.12512723  0.62531523  0.86918501  1
  Mg  Mg14  1  0.09931189  0.36371216  0.38241231  1
  Mg  Mg15  1  0.62019531  0.61819331  0.87427966  1
  Mg  Mg16  1  0.87216165  0.36520330  0.12811800  1
  Mg  Mg17  1  0.37737475  0.88332214  0.11729113  1
  Mg  Mg18  1  0.37535777  0.62723983  0.36707649  1
  Mg  Mg19  1  0.75238706  0.28106307  0.25487745  1
  Mg  Mg20  1  -0.05152218  0.75103105  0.04451081  1
  Mg  Mg21  1  0.29852805  0.28449489  0.81339629  1
  Mg  Mg22  1  0.69233919  -0.00656915  0.46047780  1
  Mg  Mg23  1  0.50123444  0.71552106  -0.01776968  1
  Mg  Mg24  1  0.50288261  0.05429807  0.47518886  1
  Mg  Mg25  1  0.04463130  0.00409989  0.52909964  1
  Mg  Mg26  1  0.79609017  0.46820755  0.25412861  1
  Mg  Mg27  1  -0.00416778  0.19735162  0.48120661  1
  Mg  Mg28  1  0.44902770  0.28043843  -0.00615984  1
  Mg  Mg29  1  0.21947193  0.50743457  0.24600156  1
  Mg  Mg30  1  0.76190057  0.26097317  -0.02547747  1
  Mg  Mg31  1  0.04615270  0.54427413  0.49365965  1
  Ti  Ti32  1  0.11708352  0.87900042  0.38309037  1
  Ti  Ti33  1  0.13494814  0.62815687  0.62103067  1
  Ti  Ti34  1  0.64095174  0.37130049  0.12477911  1
  Ti  Ti35  1  0.37362768  0.13749329  0.37022404  1
  Ti  Ti36  1  0.60308986  0.86791026  0.37180025  1
  Ti  Ti37  1  0.11870838  0.86540042  0.62260933  1
  Ti  Ti38  1  0.37548455  0.89356640  0.87399045  1
  Ti  Ti39  1  0.13309296  0.13795036  0.62513817  1
  Ti  Ti40  1  0.36478474  0.38368207  0.12984491  1
  Ti  Ti41  1  0.13010551  0.12841136  0.87196174  1
  Ti  Ti42  1  0.63121848  0.88024414  0.63396305  1
  Ti  Ti43  1  0.62601969  0.13688261  0.37381254  1
  Ti  Ti44  1  0.63425358  0.39105338  0.37075088  1
  Ti  Ti45  1  0.10783914  0.37952440  0.12029841  1
  Ti  Ti46  1  0.87832491  0.36474427  0.61663295  1
  Ti  Ti47  1  0.63594253  0.13474686  0.13241550  1
  Ti  Ti48  1  0.63576039  0.37334029  0.60690645  1
  Ti  Ti49  1  0.87325362  0.38527136  0.87609058  1
  Ti  Ti50  1  0.86081883  0.62522114  0.13439730  1
  Ti  Ti51  1  0.12323220  0.36653577  0.61421969  1
  Ti  Ti52  1  0.61429507  0.63364668  0.37660236  1
  Ti  Ti53  1  0.62418606  0.87984178  0.87539737  1
  Ti  Ti54  1  0.87112368  0.13180197  0.13126529  1
  Ti  Ti55  1  0.12802352  0.85975014  0.86695724  1
  Ti  Ti56  1  0.11905581  0.63008469  0.12176504  1
  Ti  Ti57  1  0.61527891  0.61872844  0.63211738  1
  Ti  Ti58  1  0.88041345  0.10969528  0.61625244  1
  Ti  Ti59  1  0.11851603  0.37748649  0.86423367  1
  Ti  Ti60  1  0.12712534  0.63874840  0.36652641  1
  Ti  Ti61  1  0.37310934  0.60948844  0.61978952  1
  Ti  Ti62  1  0.37640805  0.87055090  0.36637356  1
  Ti  Ti63  1  0.38280532  0.62097343  0.86633611  1
  Ti  Ti64  1  0.38460160  0.13326709  0.62349194  1
  Ti  Ti65  1  0.37758399  0.61173532  0.11856045  1
  Ti  Ti66  1  0.86673020  0.87163773  0.87778560  1
  Ti  Ti67  1  0.63503343  0.36153022  0.87333529  1
  Ti  Ti68  1  0.61591161  0.88399061  0.10689725  1
  Ti  Ti69  1  0.85557329  0.62910661  0.36272420  1
  Ti  Ti70  1  0.86933741  0.88133762  0.62507514  1
  Ti  Ti71  1  0.10914852  0.12751367  0.13053687  1
  Ti  Ti72  1  0.36533028  0.13056424  0.12800351  1
  Ti  Ti73  1  0.86087358  0.87950538  0.38977514  1
  Bi  Bi74  1  0.27163442  0.76246612  -0.01188207  1
  Bi  Bi75  1  -0.03538900  0.72769871  0.51536792  1
  Bi  Bi76  1  0.77073301  0.48650557  0.73711703  1
  Bi  Bi77  1  -0.00591986  -0.03834954  0.00804463  1
  Bi  Bi78  1  0.77138526  0.02935065  -0.00779388  1
  Bi  Bi79  1  -0.01640428  0.50243813  0.25527744  1
  Bi  Bi80  1  0.24003904  0.51117977  -0.02051321  1
  Bi  Bi81  1  0.00064906  0.50104961  0.70068966  1
  Bi  Bi82  1  0.49687643  0.02557344  0.23665722  1
  Bi  Bi83  1  0.00286620  -0.01656851  0.76135458  1
  Bi  Bi84  1  0.76486746  0.24770589  0.47469037  1
  Bi  Bi85  1  0.50342816  0.49342696  0.25013095  1
  Bi  Bi86  1  0.23273996  0.23526017  0.47937406  1
  Bi  Bi87  1  0.71908222  0.75092975  0.51587281  1
  Bi  Bi88  1  0.76237691  0.71159376  0.74730105  1
  Bi  Bi89  1  0.47784834  0.46168600  0.73929799  1
  Bi  Bi90  1  -0.00316669  0.22166491  0.75900801  1
  Bi  Bi91  1  -0.02306175  0.26395278  -0.01605449  1
  Bi  Bi92  1  0.73095064  0.76467563  0.22468822  1
  Bi  Bi93  1  0.74867939  0.01230082  0.75159759  1
  Bi  Bi94  1  0.29245507  -0.00100271  0.49029591  1
  Bi  Bi95  1  0.22628326  -0.01106710  0.01198555  1
  Bi  Bi96  1  -0.02171756  0.71482498  0.75453092  1
  Bi  Bi97  1  0.72561030  0.73524477  -0.01395783  1
  Bi  Bi98  1  0.48284590  0.50465146  0.47664092  1
  Bi  Bi99  1  0.22933717  0.24497053  0.01103309  1
  Bi  Bi100  1  0.00077542  0.51750765  -0.02218502  1
  Bi  Bi101  1  0.47495392  0.28398570  0.50141246  1
  Bi  Bi102  1  0.22765836  0.29209900  0.25357200  1
  Bi  Bi103  1  0.25583129  0.76426471  0.49136165  1
  Bi  Bi104  1  0.47182611  0.78462978  0.53256136  1
  Bi  Bi105  1  0.27538596  0.76618311  0.73543027  1
  Bi  Bi106  1  0.51515676  0.03583053  0.74993228  1
  Bi  Bi107  1  0.24472088  -0.00674766  0.71313897  1
  Bi  Bi108  1  0.23240797  0.49277628  0.45297493  1
  Bi  Bi109  1  0.50452257  0.04687924  0.00367081  1
  Bi  Bi110  1  0.26649939  0.72672598  0.22624502  1
  Bi  Bi111  1  0.24381866  -0.02358178  0.25153039  1
  Bi  Bi112  1  -0.03394594  0.24880023  0.28145892  1
  Bi  Bi113  1  -0.03099801  0.77113327  0.25670837  1
  Bi  Bi114  1  0.76553117  0.53638356  0.52624787  1
  Bi  Bi115  1  -0.01349648  0.00513987  0.28926771  1
  Bi  Bi116  1  0.50238458  0.26679159  0.22225785  1
  Bi  Bi117  1  0.23466873  0.49118529  0.74317759  1
  Bi  Bi118  1  0.50164472  0.74488419  0.21353005  1
  Bi  Bi119  1  0.74402906  0.23893585  0.72351196  1
  Bi  Bi120  1  0.48635440  0.48008022  -0.03127160  1
  Bi  Bi121  1  0.72163733  0.49679592  0.00213207  1
  Bi  Bi122  1  0.74269330  0.00620921  0.25210770  1
  Bi  Bi123  1  0.48778639  0.25150267  0.78756614  1
  Bi  Bi124  1  0.50361731  0.77715912  0.75661573  1
  O  O125  1  0.12802454  0.15725259  -0.00619309  1
  O  O126  1  0.12602460  0.10261840  0.24019453  1
  O  O127  1  0.12083603  0.15567366  0.49889137  1
  O  O128  1  0.10816769  0.12018723  0.74371522  1
  O  O129  1  0.14871813  0.35879196  0.00377050  1
  O  O130  1  0.11062529  0.36750166  0.24458602  1
  O  O131  1  0.15195458  0.35277563  0.50220788  1
  O  O132  1  0.09703998  0.40978918  0.75164752  1
  O  O133  1  0.16109984  0.62151894  0.01006426  1
  O  O134  1  0.11556291  0.60991105  0.25160906  1
  O  O135  1  0.15750019  0.62166434  0.49621868  1
  O  O136  1  0.11231146  0.59799751  0.73674239  1
  O  O137  1  0.14717869  0.87445392  -0.01204135  1
  O  O138  1  0.12734910  0.89872897  0.25947145  1
  O  O139  1  0.14182435  0.86054902  0.50515072  1
  O  O140  1  0.11615516  0.89629591  0.74637373  1
  O  O141  1  0.40400885  0.14466366  0.01304936  1
  O  O142  1  0.37565976  0.11765638  0.25308166  1
  O  O143  1  0.38436042  0.11220003  0.49331942  1
  O  O144  1  0.39984961  0.14513935  0.74309249  1
  O  O145  1  0.37016428  0.37993697  0.01526694  1
  O  O146  1  0.41931588  0.37897837  0.24354274  1
  O  O147  1  0.38066956  0.38897174  0.49638511  1
  O  O148  1  0.39685502  0.34836314  0.74283963  1
  O  O149  1  0.35705239  0.59428370  0.00442166  1
  O  O150  1  0.39842544  0.65009101  0.24048498  1
  O  O151  1  0.36545875  0.58637642  0.50656912  1
  O  O152  1  0.38663252  0.64886585  0.75594732  1
  O  O153  1  0.34573621  0.88343912  -0.00887360  1
  O  O154  1  0.36281731  0.87715479  0.25009354  1
  O  O155  1  0.36014712  0.86513974  0.49857927  1
  O  O156  1  0.38214493  0.84408639  0.75918190  1
  O  O157  1  0.62609236  0.12024608  0.01273775  1
  O  O158  1  0.62935333  0.09948387  0.25791919  1
  O  O159  1  0.62537326  0.10291529  0.49197826  1
  O  O160  1  0.60395484  0.13840226  0.74649931  1
  O  O161  1  0.67902761  0.35689567  0.01504880  1
  O  O162  1  0.59625744  0.37954265  0.25172850  1
  O  O163  1  0.66016591  0.38048421  0.49462021  1
  O  O164  1  0.60632810  0.36760044  0.76177164  1
  O  O165  1  0.65418222  0.62138341  0.00608502  1
  O  O166  1  0.59836274  0.64739373  0.25463345  1
  O  O167  1  0.64965595  0.61836249  0.49724854  1
  O  O168  1  0.62832184  0.63455808  0.74680731  1
  O  O169  1  0.63073506  0.90870620  -0.00453126  1
  O  O170  1  0.61656807  0.85913411  0.25846993  1
  O  O171  1  0.64089069  0.88303436  0.51433749  1
  O  O172  1  0.62923281  0.84120732  0.75672559  1
  O  O173  1  0.83774255  0.15320257  0.00666177  1
  O  O174  1  0.87078754  0.07976334  0.24584965  1
  O  O175  1  0.86961123  0.15958665  0.50134653  1
  O  O176  1  0.90163430  0.10596831  0.73741800  1
  O  O177  1  0.85819858  0.33835105  0.00114771  1
  O  O178  1  0.90718254  0.38057313  0.25771336  1
  O  O179  1  0.84529484  0.35803514  0.50516193  1
  O  O180  1  0.89012366  0.40526647  0.76043019  1
  O  O181  1  0.86096900  0.65311768  0.01813649  1
  O  O182  1  0.91527388  0.63079538  0.25140199  1
  O  O183  1  0.85544943  0.64532866  0.48241848  1
  O  O184  1  0.87457374  0.62143352  0.75575361  1
  O  O185  1  0.88335437  0.84812617  -0.00844766  1
  O  O186  1  0.89384506  0.89296809  0.25828494  1
  O  O187  1  0.86744101  0.84924710  0.50362035  1
  O  O188  1  0.88719567  0.90478807  0.74719156  1
  O  O189  1  -0.00743406  0.14586335  0.12570887  1
  O  O190  1  -0.00734536  0.13480337  0.36775957  1
  O  O191  1  -0.00234641  0.10783720  0.58845838  1
  O  O192  1  0.00583912  0.12919383  0.87263355  1
  O  O193  1  -0.00079935  0.35611048  0.09933241  1
  O  O194  1  -0.01151334  0.30942549  0.40340861  1
  O  O195  1  -0.00867640  0.38179855  0.61391622  1
  O  O196  1  -0.00297374  0.38551799  0.91121439  1
  O  O197  1  0.01040678  0.65327307  0.10065838  1
  O  O198  1  0.01424601  0.63504740  0.40362352  1
  O  O199  1  0.01084130  0.62045483  0.59027210  1
  O  O200  1  -0.00075299  0.62243036  0.89046027  1
  O  O201  1  0.00177845  0.85682954  0.10346231  1
  O  O202  1  0.00707502  0.84660602  0.38089791  1
  O  O203  1  0.00808185  0.90896998  0.61102621  1
  O  O204  1  0.00863669  0.88967867  0.87236036  1
  O  O205  1  0.25485909  0.11600802  0.10828965  1
  O  O206  1  0.25793849  0.10654986  0.38679253  1
  O  O207  1  0.24510809  0.14734233  0.62556843  1
  O  O208  1  0.24384488  0.17534727  0.86684081  1
  O  O209  1  0.25641385  0.40593323  0.15537757  1
  O  O210  1  0.25451714  0.41098369  0.33513343  1
  O  O211  1  0.23252051  0.37864583  0.65247241  1
  O  O212  1  0.23529079  0.38354043  0.84873433  1
  O  O213  1  0.26216495  0.59981204  0.16120082  1
  O  O214  1  0.24587547  0.58787667  0.35191852  1
  O  O215  1  0.25085844  0.61269237  0.64250543  1
  O  O216  1  0.25972849  0.59428673  0.86624495  1
  O  O217  1  0.24604237  0.91005790  0.12909918  1
  O  O218  1  0.25034880  0.90129898  0.37622163  1
  O  O219  1  0.24261294  0.87023017  0.64683793  1
  O  O220  1  0.25448359  0.85463588  0.85206880  1
  O  O221  1  0.51142876  0.13545664  0.14641539  1
  O  O222  1  0.50301679  0.13643850  0.37332819  1
  O  O223  1  0.49718540  0.10100830  0.60908191  1
  O  O224  1  0.50437233  0.10816038  0.87928032  1
  O  O225  1  0.52040758  0.33092539  0.10300520  1
  O  O226  1  0.51472354  0.36907054  0.39905239  1
  O  O227  1  0.51804777  0.37796137  0.60333230  1
  O  O228  1  0.52349012  0.35162127  0.91467809  1
  O  O229  1  0.49417959  0.65933426  0.09957123  1
  O  O230  1  0.50441628  0.63795628  0.40727061  1
  O  O231  1  0.49896129  0.60029840  0.62049550  1
  O  O232  1  0.49868479  0.61664878  0.90419096  1
  O  O233  1  0.50258041  0.85272919  0.10856814  1
  O  O234  1  0.49133106  0.83746971  0.37870031  1
  O  O235  1  0.50856330  0.86384658  0.63978704  1
  O  O236  1  0.49809404  0.88172077  0.86378454  1
  O  O237  1  0.74793331  0.09138680  0.13515282  1
  O  O238  1  0.73935856  0.08202510  0.37831812  1
  O  O239  1  0.75363746  0.11987386  0.65092009  1
  O  O240  1  0.75613355  0.10450848  0.85738572  1
  O  O241  1  0.75085911  0.38423357  0.17019109  1
  O  O242  1  0.74821387  0.38917728  0.34225553  1
  O  O243  1  0.75229620  0.37040398  0.66326401  1
  O  O244  1  0.75606134  0.39576685  0.86194993  1
  O  O245  1  0.75215607  0.62330626  0.15929992  1
  O  O246  1  0.74782006  0.61626194  0.34621663  1
  O  O247  1  0.74641452  0.63613581  0.62333627  1
  O  O248  1  0.74656857  0.64872261  0.87199525  1
  O  O249  1  0.74113604  0.88396761  0.14530669  1
  O  O250  1  0.74844676  0.90092578  0.38097193  1
  O  O251  1  0.75552700  0.85724797  0.63910524  1
  O  O252  1  0.75026110  0.86698974  0.87478307  1
  O  O253  1  0.11053803  0.01376865  0.09102801  1
  O  O254  1  0.09339967  -0.00656526  0.40884480  1
  O  O255  1  0.14775924  0.00841989  0.60893833  1
  O  O256  1  0.14688261  0.01575455  0.88183179  1
  O  O257  1  0.15003567  0.24994083  0.13228277  1
  O  O258  1  0.15684025  0.24807057  0.36354652  1
  O  O259  1  0.10138117  0.25411281  0.64000273  1
  O  O260  1  0.09640506  0.26389850  0.85497255  1
  O  O261  1  0.11062423  0.49653586  0.12334654  1
  O  O262  1  0.10360351  0.48891776  0.39788310  1
  O  O263  1  0.10800976  0.49502048  0.59966254  1
  O  O264  1  0.11891062  0.49829834  0.90072681  1
  O  O265  1  0.15729018  0.74143418  0.13823603  1
  O  O266  1  0.15538390  0.75019821  0.36999926  1
  O  O267  1  0.11932626  0.74753716  0.63586839  1
  O  O268  1  0.12503811  0.74993482  0.85428597  1
  O  O269  1  0.40213003  0.01197964  0.12665642  1
  O  O270  1  0.39786586  -0.01120342  0.39106386  1
  O  O271  1  0.34827479  0.01486661  0.62862103  1
  O  O272  1  0.35731128  0.00221366  0.86014134  1
  O  O273  1  0.36881994  0.25612856  0.14129219  1
  O  O274  1  0.36391485  0.25177542  0.37961497  1
  O  O275  1  0.37621064  0.24848845  0.59539718  1
  O  O276  1  0.39243967  0.25003811  0.88422496  1
  O  O277  1  0.41092530  0.49969262  0.13491824  1
  O  O278  1  0.41306682  0.50502087  0.35827979  1
  O  O279  1  0.36630139  0.49378009  0.66346893  1
  O  O280  1  0.40531926  0.49497227  0.85588616  1
  O  O281  1  0.34201978  0.74780644  0.11002616  1
  O  O282  1  0.34314321  0.74953285  0.38446580  1
  O  O283  1  0.36798821  0.73032684  0.60758080  1
  O  O284  1  0.38752132  0.73678923  0.91352330  1
  O  O285  1  0.59970766  -0.00465162  0.14063011  1
  O  O286  1  0.58785997  -0.01845800  0.38745077  1
  O  O287  1  0.63250472  -0.00798761  0.65661794  1
  O  O288  1  0.63090252  -0.00692212  0.84050161  1
  O  O289  1  0.65603439  0.24298251  0.16277294  1
  O  O290  1  0.65326875  0.24711554  0.36122100  1
  O  O291  1  0.64964952  0.25459756  0.61598594  1
  O  O292  1  0.66993143  0.25113591  0.88711477  1
  O  O293  1  0.62183735  0.48851646  0.10730715  1
  O  O294  1  0.60888501  0.50539809  0.37007384  1
  O  O295  1  0.65429220  0.49878706  0.62773040  1
  O  O296  1  0.62171838  0.48832752  0.90538510  1
  O  O297  1  0.64214055  0.75581406  0.11913337  1
  O  O298  1  0.64315090  0.75163565  0.39553796  1
  O  O299  1  0.61315722  0.74066823  0.60674107  1
  O  O300  1  0.60492100  0.75787947  0.91429281  1
  O  O301  1  0.88192190  0.00401348  0.08486494  1
  O  O302  1  0.90041069  -0.01061513  0.39673966  1
  O  O303  1  0.85821329  -0.00114606  0.60085697  1
  O  O304  1  0.87733930  -0.00520957  0.90230703  1
  O  O305  1  0.84937638  0.23745391  0.16839694  1
  O  O306  1  0.83634015  0.24018876  0.34906192  1
  O  O307  1  0.86815596  0.25051940  0.65073149  1
  O  O308  1  0.88906684  0.25698716  0.86171854  1
  O  O309  1  0.88146189  0.50643576  0.15095301  1
  O  O310  1  0.88163512  0.50815057  0.35620383  1
  O  O311  1  0.85632782  0.49008986  0.62383161  1
  O  O312  1  0.87697945  0.49960429  0.91318714  1
  O  O313  1  0.86751369  0.75453821  0.15238877  1
  O  O314  1  0.86608899  0.75549276  0.34978738  1
  O  O315  1  0.90667129  0.76446872  0.64350504  1
  O  O316  1  0.88447243  0.75802102  0.84434511  1
