# generated using pymatgen
data_Mg32Ti42(Bi17O64)3
_symmetry_space_group_name_H-M   'P 1'
_cell_length_a   15.93280966
_cell_length_b   15.94168218
_cell_length_c   15.93184533
_cell_angle_alpha   90.10373267
_cell_angle_beta   89.94264206
_cell_angle_gamma   89.96939059
_symmetry_Int_Tables_number   1
_chemical_formula_structural   Mg32Ti42(Bi17O64)3
_chemical_formula_sum   'Mg32 Ti42 Bi51 O192'
_cell_volume   4046.61236574
_cell_formula_units_Z   1
loop_
 _symmetry_equiv_pos_site_id
 _symmetry_equiv_pos_as_xyz
  1  'x, y, z'
loop_
 _atom_site_type_symbol
 _atom_site_label
 _atom_site_symmetry_multiplicity
 _atom_site_fract_x
 _atom_site_fract_y
 _atom_site_fract_z
 _atom_site_occupancy
  Mg  Mg0  1  0.12375835  0.87532952  0.12477938  1
  Mg  Mg1  1  0.63944850  0.36487586  0.13936842  1
  Mg  Mg2  1  0.88369818  0.62351731  0.37229591  1
  Mg  Mg3  1  0.36864395  0.88128763  0.37121418  1
  Mg  Mg4  1  0.87297768  0.37711138  0.37576561  1
  Mg  Mg5  1  0.62566485  0.12963940  0.87183387  1
  Mg  Mg6  1  0.87142033  0.87142061  0.62676333  1
  Mg  Mg7  1  0.37267412  0.37570021  0.62129773  1
  Mg  Mg8  1  0.62187941  0.38171821  0.87953094  1
  Mg  Mg9  1  0.87375772  0.87198650  0.37319376  1
  Mg  Mg10  1  0.37573901  0.87523728  0.11065669  1
  Mg  Mg11  1  0.86279120  0.12854890  0.62342911  1
  Mg  Mg12  1  0.89647677  0.62691822  0.12601476  1
  Mg  Mg13  1  0.87675246  0.11739923  0.36643031  1
  Mg  Mg14  1  0.62585482  0.63325957  0.38145175  1
  Mg  Mg15  1  0.62668328  0.12417301  0.12438730  1
  Mg  Mg16  1  0.12591768  0.36861964  0.37737376  1
  Mg  Mg17  1  0.13486218  0.37477322  0.87975431  1
  Mg  Mg18  1  0.37405493  0.63220933  0.35864488  1
  Mg  Mg19  1  0.00037876  0.23636751  0.03919096  1
  Mg  Mg20  1  0.78534307  0.24389270  0.45974288  1
  Mg  Mg21  1  0.26561125  0.46533782  0.03636632  1
  Mg  Mg22  1  0.26274876  0.55719523  0.47643011  1
  Mg  Mg23  1  -0.01989621  0.24712959  0.29587990  1
  Mg  Mg24  1  0.51466038  0.24627563  0.01173861  1
  Mg  Mg25  1  0.47690886  0.49881535  0.70429067  1
  Mg  Mg26  1  0.27857316  0.74649900  0.02995817  1
  Mg  Mg27  1  0.18166319  0.00435053  0.77917945  1
  Mg  Mg28  1  0.26785991  -0.00687550  0.18803305  1
  Mg  Mg29  1  0.75137237  0.53203810  0.27523193  1
  Mg  Mg30  1  0.02027102  0.69644356  0.25791917  1
  Mg  Mg31  1  0.26526859  0.24503794  -0.03019059  1
  Ti  Ti32  1  0.62309982  0.87583635  0.86581735  1
  Ti  Ti33  1  0.62019261  0.61895085  0.62214745  1
  Ti  Ti34  1  0.36929380  0.13094504  0.10567765  1
  Ti  Ti35  1  0.36523815  0.60671821  0.12943329  1
  Ti  Ti36  1  0.62095677  0.88385571  0.11998055  1
  Ti  Ti37  1  0.13861031  0.61500840  0.87217239  1
  Ti  Ti38  1  0.61639686  0.61250797  0.86928552  1
  Ti  Ti39  1  0.61892832  0.86362186  0.61870425  1
  Ti  Ti40  1  0.12983549  0.88779661  0.36624945  1
  Ti  Ti41  1  0.13250053  0.62539666  0.38009580  1
  Ti  Ti42  1  0.86094325  0.86197533  0.87682589  1
  Ti  Ti43  1  0.86714818  0.85954219  0.11660868  1
  Ti  Ti44  1  0.37018251  0.38330677  0.88506838  1
  Ti  Ti45  1  0.87122225  0.36856289  0.88122474  1
  Ti  Ti46  1  0.36908024  0.37420134  0.37826066  1
  Ti  Ti47  1  0.62979644  0.36241832  0.37571879  1
  Ti  Ti48  1  0.88783305  0.36335440  0.13118388  1
  Ti  Ti49  1  0.37373046  0.12094710  0.86795457  1
  Ti  Ti50  1  0.11062559  0.14012603  0.90329794  1
  Ti  Ti51  1  0.61746455  0.87187619  0.36932327  1
  Ti  Ti52  1  0.36090214  0.62478837  0.62296686  1
  Ti  Ti53  1  0.86742898  0.62251571  0.88425042  1
  Ti  Ti54  1  0.63072989  0.14094221  0.61848688  1
  Ti  Ti55  1  0.38614457  0.13953861  0.62889326  1
  Ti  Ti56  1  0.11653212  0.62635753  0.62229600  1
  Ti  Ti57  1  0.61425248  0.38100141  0.62001667  1
  Ti  Ti58  1  0.62675838  0.12571332  0.38582067  1
  Ti  Ti59  1  0.37594185  0.87743402  0.63196703  1
  Ti  Ti60  1  0.87974682  0.12814511  0.13089017  1
  Ti  Ti61  1  0.12458340  0.11483561  0.12339978  1
  Ti  Ti62  1  0.87658549  0.13370717  0.88281459  1
  Ti  Ti63  1  0.12091547  0.37523089  0.61117345  1
  Ti  Ti64  1  0.12568400  0.37297004  0.12614910  1
  Ti  Ti65  1  0.12987868  0.61870038  0.12603810  1
  Ti  Ti66  1  0.38477258  0.87055452  0.86751351  1
  Ti  Ti67  1  0.87921999  0.62671305  0.63032160  1
  Ti  Ti68  1  0.86629327  0.36936349  0.62160970  1
  Ti  Ti69  1  0.36993874  0.61088687  0.87619840  1
  Ti  Ti70  1  0.11877734  0.12306270  0.36537763  1
  Ti  Ti71  1  0.11686969  0.87644934  0.63162094  1
  Ti  Ti72  1  0.37429961  0.36928758  0.13995284  1
  Ti  Ti73  1  0.36984952  0.12503631  0.38088118  1
  Bi  Bi74  1  0.47812070  0.74049831  0.47116350  1
  Bi  Bi75  1  -0.02085798  -0.00507989  0.50096074  1
  Bi  Bi76  1  0.71515813  0.74320534  0.00529434  1
  Bi  Bi77  1  0.72270907  0.25425773  0.00248988  1
  Bi  Bi78  1  0.76950679  0.49811474  0.05701827  1
  Bi  Bi79  1  0.47778026  0.50531575  0.48846528  1
  Bi  Bi80  1  0.47793166  0.72501685  0.74515370  1
  Bi  Bi81  1  -0.01447397  0.48647583  0.27040765  1
  Bi  Bi82  1  0.22629031  0.23734930  0.52728113  1
  Bi  Bi83  1  0.00056745  -0.03970575  -0.01673260  1
  Bi  Bi84  1  0.48735754  0.27869623  0.77346268  1
  Bi  Bi85  1  -0.02880547  -0.00720950  0.74987312  1
  Bi  Bi86  1  0.02727750  0.48381502  0.00143539  1
  Bi  Bi87  1  0.53721649  0.50763320  0.25878986  1
  Bi  Bi88  1  0.47646011  -0.01194155  0.23608919  1
  Bi  Bi89  1  -0.00928177  0.48773436  0.50238120  1
  Bi  Bi90  1  0.23073705  0.22928051  0.24306797  1
  Bi  Bi91  1  0.73973595  -0.02154410  0.49949849  1
  Bi  Bi92  1  0.76031959  0.50018975  0.74498526  1
  Bi  Bi93  1  0.52584327  0.73117411  0.21315664  1
  Bi  Bi94  1  0.04589046  0.74793374  -0.01143643  1
  Bi  Bi95  1  0.24564290  0.77295874  0.22608914  1
  Bi  Bi96  1  0.51864336  0.02020058  0.73031126  1
  Bi  Bi97  1  0.77164933  0.71838789  0.23553637  1
  Bi  Bi98  1  -0.02368973  -0.03447224  0.23847981  1
  Bi  Bi99  1  0.22700927  0.79126086  0.76886480  1
  Bi  Bi100  1  0.75281476  0.01568882  -0.01713931  1
  Bi  Bi101  1  -0.00249839  0.46777299  0.76483609  1
  Bi  Bi102  1  0.77584066  0.72778946  0.49249352  1
  Bi  Bi103  1  0.48393783  -0.00158358  0.49047808  1
  Bi  Bi104  1  0.49524796  0.23131798  0.23670372  1
  Bi  Bi105  1  0.22625584  0.47489567  0.73356520  1
  Bi  Bi106  1  0.50784373  0.01993101  -0.02087225  1
  Bi  Bi107  1  0.52281523  0.46667034  0.02534564  1
  Bi  Bi108  1  0.74143742  -0.00186046  0.72559621  1
  Bi  Bi109  1  0.23192372  0.48410936  0.26641586  1
  Bi  Bi110  1  0.23368372  0.02234862  0.54545575  1
  Bi  Bi111  1  0.74605137  0.49570690  0.47338495  1
  Bi  Bi112  1  0.49490939  0.72164228  -0.00077176  1
  Bi  Bi113  1  0.72671691  0.27319727  0.76120222  1
  Bi  Bi114  1  0.73564890  0.72746935  0.75458042  1
  Bi  Bi115  1  0.48384620  0.25941733  0.48726040  1
  Bi  Bi116  1  0.24990968  0.77553590  0.49912510  1
  Bi  Bi117  1  0.22924851  -0.04050361  -0.03042429  1
  Bi  Bi118  1  0.23653468  0.22479177  0.76607527  1
  Bi  Bi119  1  0.01704981  0.22043635  0.72291723  1
  Bi  Bi120  1  -0.01645483  0.21480137  0.49996370  1
  Bi  Bi121  1  0.01161926  0.76637928  0.48204498  1
  Bi  Bi122  1  0.74997314  0.22658808  0.24984517  1
  Bi  Bi123  1  0.74825062  -0.02494501  0.25818288  1
  Bi  Bi124  1  0.00793861  0.73671251  0.76912291  1
  O  O125  1  0.15928535  0.14418949  0.01022769  1
  O  O126  1  0.12442715  0.12643279  0.24613800  1
  O  O127  1  0.14636711  0.13157562  0.48882781  1
  O  O128  1  0.11302594  0.13834123  0.77451858  1
  O  O129  1  0.14959842  0.40897898  0.00581344  1
  O  O130  1  0.11815543  0.40234097  0.24786658  1
  O  O131  1  0.14369067  0.35698325  0.50005544  1
  O  O132  1  0.11375620  0.38453755  0.74576245  1
  O  O133  1  0.11701597  0.61561385  -0.00869370  1
  O  O134  1  0.13581255  0.62638175  0.24759011  1
  O  O135  1  0.12493172  0.63798879  0.50015369  1
  O  O136  1  0.10172715  0.62476833  0.74908510  1
  O  O137  1  0.12696704  0.87485565  -0.00305203  1
  O  O138  1  0.11914756  0.86502282  0.25264213  1
  O  O139  1  0.13656177  0.86452935  0.50389045  1
  O  O140  1  0.11517629  0.87510069  0.75081575  1
  O  O141  1  0.34138277  0.14762330  -0.00274631  1
  O  O142  1  0.41258431  0.11253229  0.26413243  1
  O  O143  1  0.37247202  0.15696872  0.50340581  1
  O  O144  1  0.40651288  0.11327568  0.75269676  1
  O  O145  1  0.32553192  0.35703345  -0.00883291  1
  O  O146  1  0.39900823  0.38982715  0.24889786  1
  O  O147  1  0.36460978  0.34621444  0.49202067  1
  O  O148  1  0.41865395  0.39631532  0.75967604  1
  O  O149  1  0.36421261  0.65797668  -0.01277121  1
  O  O150  1  0.37589757  0.59359325  0.24008000  1
  O  O151  1  0.36690685  0.63968522  0.50569732  1
  O  O152  1  0.40273656  0.60352381  0.75182182  1
  O  O153  1  0.33520221  0.85423366  -0.01483547  1
  O  O154  1  0.36268832  0.91997687  0.25108079  1
  O  O155  1  0.37017518  0.84666257  0.50337994  1
  O  O156  1  0.39599900  0.89093189  0.74753864  1
  O  O157  1  0.65733674  0.11986764  -0.00241871  1
  O  O158  1  0.61623916  0.15385898  0.26053390  1
  O  O159  1  0.65647714  0.11772044  0.50527912  1
  O  O160  1  0.59787899  0.13205411  0.74721324  1
  O  O161  1  0.64683097  0.38918898  0.00445026  1
  O  O162  1  0.60926461  0.34765482  0.26198579  1
  O  O163  1  0.64156067  0.40558312  0.50799313  1
  O  O164  1  0.60966093  0.35144663  0.74967277  1
  O  O165  1  0.62156181  0.63903473  -0.01118757  1
  O  O166  1  0.60260385  0.62724116  0.25586367  1
  O  O167  1  0.64763728  0.60637800  0.50842040  1
  O  O168  1  0.61266919  0.65123756  0.75163566  1
  O  O169  1  0.64113901  0.87084184  0.00105247  1
  O  O170  1  0.61911206  0.87700469  0.25123952  1
  O  O171  1  0.62854945  0.89309032  0.49831070  1
  O  O172  1  0.61778353  0.87245963  0.74913750  1
  O  O173  1  0.85839010  0.10677824  0.00450082  1
  O  O174  1  0.89065106  0.16697157  0.24550989  1
  O  O175  1  0.88096636  0.10771582  0.49637263  1
  O  O176  1  0.91682444  0.13097032  0.76939081  1
  O  O177  1  0.85050623  0.39174133  -0.01035488  1
  O  O178  1  0.92246502  0.35076604  0.24202553  1
  O  O179  1  0.86709455  0.41850708  0.50429664  1
  O  O180  1  0.89981600  0.35931690  0.73558966  1
  O  O181  1  0.85628455  0.60563239  -0.00413107  1
  O  O182  1  0.89902356  0.66584862  0.25280126  1
  O  O183  1  0.84892759  0.60815543  0.50485084  1
  O  O184  1  0.88478370  0.65973910  0.74724084  1
  O  O185  1  0.86165376  0.89821278  0.00059072  1
  O  O186  1  0.88788232  0.86054091  0.24165242  1
  O  O187  1  0.86892942  0.91326379  0.49914197  1
  O  O188  1  0.89092632  0.86729695  0.76032636  1
  O  O189  1  0.00855583  0.13155183  0.10984469  1
  O  O190  1  0.00583618  0.11024411  0.38556783  1
  O  O191  1  -0.00929026  0.13759134  0.62045688  1
  O  O192  1  0.00340100  0.17101329  0.92698646  1
  O  O193  1  0.00994441  0.35792406  0.08230317  1
  O  O194  1  0.00220527  0.40944872  0.38741732  1
  O  O195  1  -0.00129814  0.37784912  0.59589857  1
  O  O196  1  -0.00873839  0.38092296  0.88013928  1
  O  O197  1  0.01908376  0.66353268  0.13001691  1
  O  O198  1  0.00950639  0.59183113  0.36744225  1
  O  O199  1  -0.00521606  0.62678493  0.60988806  1
  O  O200  1  -0.01652795  0.65579882  0.88466276  1
  O  O201  1  -0.00692174  0.87912694  0.11119417  1
  O  O202  1  0.00538430  0.88921531  0.40039371  1
  O  O203  1  0.00219526  0.89303104  0.61204562  1
  O  O204  1  -0.01606804  0.84889233  0.90142883  1
  O  O205  1  0.25881452  0.11753654  0.15974972  1
  O  O206  1  0.25923064  0.14687549  0.35959004  1
  O  O207  1  0.26405703  0.13049294  0.62805746  1
  O  O208  1  0.25938238  0.10261458  0.83845548  1
  O  O209  1  0.25066670  0.39534750  0.14371712  1
  O  O210  1  0.25804415  0.36563338  0.34455012  1
  O  O211  1  0.24716352  0.38028983  0.64106242  1
  O  O212  1  0.25978677  0.39053804  0.83695526  1
  O  O213  1  0.24990416  0.57939755  0.10475661  1
  O  O214  1  0.24878451  0.65000042  0.38349804  1
  O  O215  1  0.24451793  0.61531616  0.61798744  1
  O  O216  1  0.25217245  0.60839535  0.85777732  1
  O  O217  1  0.25130822  0.87952134  0.13935217  1
  O  O218  1  0.24297821  0.84733219  0.37736898  1
  O  O219  1  0.25367721  0.85769708  0.63281160  1
  O  O220  1  0.25706382  0.90918690  0.84134856  1
  O  O221  1  0.48919160  0.15205126  0.10477913  1
  O  O222  1  0.50940083  0.11317508  0.40992456  1
  O  O223  1  0.50308581  0.11012460  0.60857396  1
  O  O224  1  0.49623072  0.14470971  0.91797365  1
  O  O225  1  0.48329579  0.34910156  0.08942439  1
  O  O226  1  0.50414064  0.39444626  0.40109234  1
  O  O227  1  0.50184107  0.37972447  0.60485234  1
  O  O228  1  0.48954677  0.34127956  0.90621098  1
  O  O229  1  0.48600979  0.63987277  0.11099069  1
  O  O230  1  0.49871617  0.61049302  0.39774604  1
  O  O231  1  0.50369207  0.63416089  0.61923247  1
  O  O232  1  0.49505798  0.64748597  0.88055270  1
  O  O233  1  0.50106927  0.86327950  0.12012784  1
  O  O234  1  0.50258510  0.91522104  0.37374228  1
  O  O235  1  0.50030041  0.87064437  0.61244029  1
  O  O236  1  0.49976558  0.86296181  0.89193498  1
  O  O237  1  0.75792982  0.12972924  0.15249027  1
  O  O238  1  0.75250217  0.15704357  0.36860267  1
  O  O239  1  0.74332800  0.12523100  0.65723721  1
  O  O240  1  0.76512646  0.09877015  0.86403986  1
  O  O241  1  0.76921160  0.37957122  0.14598990  1
  O  O242  1  0.74878981  0.34839244  0.38954516  1
  O  O243  1  0.75034153  0.38036519  0.65048885  1
  O  O244  1  0.75457347  0.38492550  0.83858335  1
  O  O245  1  0.76782983  0.59561891  0.16920648  1
  O  O246  1  0.75291773  0.64087258  0.35587972  1
  O  O247  1  0.74664887  0.62229908  0.65412925  1
  O  O248  1  0.74294874  0.61743530  0.84785833  1
  O  O249  1  0.75134374  0.88673933  0.13795626  1
  O  O250  1  0.74470738  0.87865457  0.36776260  1
  O  O251  1  0.74443083  0.89275430  0.62367807  1
  O  O252  1  0.74650832  0.90651461  0.86673048  1
  O  O253  1  0.13999394  0.00327927  0.12018477  1
  O  O254  1  0.14209513  0.00039668  0.37008323  1
  O  O255  1  0.15033062  -0.00655591  0.64859380  1
  O  O256  1  0.11431228  0.01930192  0.89132193  1
  O  O257  1  0.13576388  0.25913155  0.13285705  1
  O  O258  1  0.09720068  0.24653378  0.35245613  1
  O  O259  1  0.13011316  0.25670434  0.63097431  1
  O  O260  1  0.16813566  0.25213434  0.88724891  1
  O  O261  1  0.09276728  0.50533371  0.12502436  1
  O  O262  1  0.16560057  0.50771719  0.39172441  1
  O  O263  1  0.11714946  0.50223749  0.62026535  1
  O  O264  1  0.10041774  0.50310555  0.86773638  1
  O  O265  1  0.17230954  0.73734982  0.10542297  1
  O  O266  1  0.08279939  0.74147619  0.36605389  1
  O  O267  1  0.11616427  0.74933580  0.63684512  1
  O  O268  1  0.12791467  0.73788062  0.87047207  1
  O  O269  1  0.38158242  0.01115363  0.11376566  1
  O  O270  1  0.36539900  0.01232452  0.41318316  1
  O  O271  1  0.36877791  -0.00576844  0.60510385  1
  O  O272  1  0.39616790  0.00403774  0.89866107  1
  O  O273  1  0.35772912  0.25069292  0.15311558  1
  O  O274  1  0.41210609  0.25234043  0.36216182  1
  O  O275  1  0.38852308  0.24995529  0.65123202  1
  O  O276  1  0.35036298  0.24460099  0.85771368  1
  O  O277  1  0.38827512  0.48983878  0.09382235  1
  O  O278  1  0.35942275  0.49555469  0.40824380  1
  O  O279  1  0.38463101  0.50535823  0.61434361  1
  O  O280  1  0.38357290  0.50060730  0.90622012  1
  O  O281  1  0.34885736  0.73711833  0.13594610  1
  O  O282  1  0.40910793  0.75537215  0.35662891  1
  O  O283  1  0.37349549  0.74271512  0.65093425  1
  O  O284  1  0.36476131  0.75619091  0.84170684  1
  O  O285  1  0.61576760  -0.00026107  0.12793650  1
  O  O286  1  0.65086705  0.01248861  0.36858369  1
  O  O287  1  0.62671594  0.00184707  0.63657085  1
  O  O288  1  0.59577576  0.00106219  0.87224622  1
  O  O289  1  0.62413087  0.24890967  0.09656788  1
  O  O290  1  0.60729513  0.25240680  0.40696946  1
  O  O291  1  0.62445558  0.25531456  0.61164233  1
  O  O292  1  0.65168359  0.25310736  0.88297457  1
  O  O293  1  0.59863242  0.48375985  0.13958245  1
  O  O294  1  0.65197205  0.49231500  0.34622229  1
  O  O295  1  0.60555603  0.50218669  0.65706162  1
  O  O296  1  0.60139671  0.50425416  0.86413178  1
  O  O297  1  0.63596624  0.75602032  0.12932121  1
  O  O298  1  0.60106828  0.75991732  0.38799455  1
  O  O299  1  0.63772441  0.75075739  0.61480562  1
  O  O300  1  0.64840765  0.75972767  0.87621172  1
  O  O301  1  0.88253453  0.01083314  0.14986149  1
  O  O302  1  0.87086306  -0.00265560  0.33219177  1
  O  O303  1  0.86822595  0.00388484  0.65899886  1
  O  O304  1  0.90948235  0.00371607  0.87353033  1
  O  O305  1  0.88431334  0.24968510  0.09254110  1
  O  O306  1  0.89754617  0.25357596  0.39518377  1
  O  O307  1  0.85709613  0.25941893  0.57440305  1
  O  O308  1  0.85153970  0.25134825  0.87912248  1
  O  O309  1  0.89795152  0.48912627  0.11957109  1
  O  O310  1  0.85644011  0.49787950  0.33572473  1
  O  O311  1  0.87285243  0.50630185  0.65319379  1
  O  O312  1  0.87494636  0.50751229  0.84545047  1
  O  O313  1  0.84994500  0.74871279  0.10445387  1
  O  O314  1  0.88768806  0.75103708  0.41299777  1
  O  O315  1  0.86316598  0.74722441  0.59849619  1
  O  O316  1  0.83454408  0.75114161  0.88693666  1
