# generated using pymatgen
data_Mg32Ti42(Bi17O64)3
_symmetry_space_group_name_H-M   'P 1'
_cell_length_a   15.95468762
_cell_length_b   15.95702732
_cell_length_c   15.93465499
_cell_angle_alpha   90.10951833
_cell_angle_beta   90.00629760
_cell_angle_gamma   90.02202387
_symmetry_Int_Tables_number   1
_chemical_formula_structural   Mg32Ti42(Bi17O64)3
_chemical_formula_sum   'Mg32 Ti42 Bi51 O192'
_cell_volume   4056.78629845
_cell_formula_units_Z   1
loop_
 _symmetry_equiv_pos_site_id
 _symmetry_equiv_pos_as_xyz
  1  'x, y, z'
loop_
 _atom_site_type_symbol
 _atom_site_label
 _atom_site_symmetry_multiplicity
 _atom_site_fract_x
 _atom_site_fract_y
 _atom_site_fract_z
 _atom_site_occupancy
  Mg  Mg0  1  0.88792444  0.86144001  0.12537614  1
  Mg  Mg1  1  0.62746623  0.61825491  0.62548814  1
  Mg  Mg2  1  0.37551348  0.61853398  0.87061300  1
  Mg  Mg3  1  0.12718792  0.86883810  0.12485437  1
  Mg  Mg4  1  0.13762299  0.87233797  0.38255316  1
  Mg  Mg5  1  0.62208770  0.62739956  0.12086851  1
  Mg  Mg6  1  0.62624550  0.12774361  0.62142736  1
  Mg  Mg7  1  0.87849964  0.62579346  0.12322354  1
  Mg  Mg8  1  0.87281762  0.37478143  0.62232967  1
  Mg  Mg9  1  0.62927260  0.37135948  0.62573214  1
  Mg  Mg10  1  0.87055075  0.11907259  0.86945909  1
  Mg  Mg11  1  0.38470708  0.86690941  0.62481775  1
  Mg  Mg12  1  0.37214308  0.13068990  0.87844135  1
  Mg  Mg13  1  0.12071820  0.87985072  0.63561507  1
  Mg  Mg14  1  0.62570490  0.37462295  0.11157850  1
  Mg  Mg15  1  0.11923671  0.62236399  0.37527205  1
  Mg  Mg16  1  0.13696505  0.38245770  0.11640667  1
  Mg  Mg17  1  0.37920526  0.87557628  0.88436557  1
  Mg  Mg18  1  0.61787906  0.11929619  0.12034137  1
  Mg  Mg19  1  -0.02262837  0.23996317  0.80663748  1
  Mg  Mg20  1  0.21080753  0.19780835  0.07551966  1
  Mg  Mg21  1  0.08225573  0.74549001  0.75294175  1
  Mg  Mg22  1  0.53067061  0.50183878  0.49554966  1
  Mg  Mg23  1  0.48286845  -0.05309939  0.76000846  1
  Mg  Mg24  1  0.20414589  0.29646195  0.25242838  1
  Mg  Mg25  1  0.74796314  0.49189724  0.50397201  1
  Mg  Mg26  1  0.82205214  -0.01529454  0.23791371  1
  Mg  Mg27  1  0.05937928  0.19525504  0.22627375  1
  Mg  Mg28  1  0.48660173  0.44372333  0.74135838  1
  Mg  Mg29  1  0.80503798  0.24522001  0.72003705  1
  Mg  Mg30  1  0.23742616  0.48883853  -0.04091368  1
  Mg  Mg31  1  0.26307400  0.83847684  0.75532328  1
  Ti  Ti32  1  0.13643950  0.13113708  0.37924190  1
  Ti  Ti33  1  0.12251773  0.13676249  0.61849189  1
  Ti  Ti34  1  0.63116398  0.61690880  0.37541968  1
  Ti  Ti35  1  0.35621648  0.36035382  0.09990428  1
  Ti  Ti36  1  0.62451951  0.62562214  0.85889915  1
  Ti  Ti37  1  0.11820289  0.37826812  0.37712652  1
  Ti  Ti38  1  0.36426374  0.37259595  0.87543002  1
  Ti  Ti39  1  0.12622822  0.89080380  0.87548811  1
  Ti  Ti40  1  0.38364570  0.86657719  0.12862367  1
  Ti  Ti41  1  0.12528070  0.13862597  0.87890759  1
  Ti  Ti42  1  0.38305504  0.37988983  0.61297231  1
  Ti  Ti43  1  0.87576251  0.61707982  0.37156935  1
  Ti  Ti44  1  0.63181698  0.88803337  0.12652675  1
  Ti  Ti45  1  0.37705040  0.85755412  0.37705369  1
  Ti  Ti46  1  0.13677962  0.62516325  0.87631382  1
  Ti  Ti47  1  0.87659418  0.37588801  0.86919640  1
  Ti  Ti48  1  0.63405481  0.37721119  0.37459256  1
  Ti  Ti49  1  0.37892682  0.12658110  0.60771889  1
  Ti  Ti50  1  0.87901028  0.86856387  0.38692430  1
  Ti  Ti51  1  0.39498421  0.38393090  0.37860484  1
  Ti  Ti52  1  0.63017155  0.12005972  0.37681590  1
  Ti  Ti53  1  0.38083464  0.61461864  0.37255955  1
  Ti  Ti54  1  0.63716104  0.37119761  0.86507295  1
  Ti  Ti55  1  0.88320675  0.87339470  0.62838068  1
  Ti  Ti56  1  0.62047448  0.87420576  0.63564080  1
  Ti  Ti57  1  0.12155255  0.37199900  0.86296055  1
  Ti  Ti58  1  0.88502655  0.88017758  0.86608260  1
  Ti  Ti59  1  0.63389293  0.88333380  0.87892808  1
  Ti  Ti60  1  0.12047646  0.36395100  0.62475974  1
  Ti  Ti61  1  0.38845487  0.61293704  0.62737139  1
  Ti  Ti62  1  0.87752118  0.12046005  0.61323134  1
  Ti  Ti63  1  0.62105997  0.86781234  0.37211391  1
  Ti  Ti64  1  0.87469169  0.10935065  0.37569526  1
  Ti  Ti65  1  0.86378445  0.61576415  0.62873849  1
  Ti  Ti66  1  0.37372826  0.62696469  0.12209327  1
  Ti  Ti67  1  0.12568763  0.62320319  0.11546993  1
  Ti  Ti68  1  0.38196120  0.13582759  0.36413342  1
  Ti  Ti69  1  0.63326539  0.12226903  0.87329592  1
  Ti  Ti70  1  0.88670372  0.61409174  0.87002660  1
  Ti  Ti71  1  0.37731561  0.12993407  0.12787411  1
  Ti  Ti72  1  0.86892876  0.38795932  0.11254141  1
  Ti  Ti73  1  0.87247022  0.37539400  0.35937655  1
  Bi  Bi74  1  -0.00278517  0.03654888  0.75685480  1
  Bi  Bi75  1  0.52492013  0.74447081  0.23092757  1
  Bi  Bi76  1  0.74162929  0.02427479  0.73076344  1
  Bi  Bi77  1  0.77803202  0.00419304  0.04022606  1
  Bi  Bi78  1  0.00567057  0.48927899  0.21831119  1
  Bi  Bi79  1  0.78048568  0.21894898  0.00530624  1
  Bi  Bi80  1  0.01116703  0.72780725  0.52394515  1
  Bi  Bi81  1  0.52805260  0.24823733  0.24156580  1
  Bi  Bi82  1  0.77024691  0.76305628  -0.00986631  1
  Bi  Bi83  1  0.23451527  0.52821353  0.51644372  1
  Bi  Bi84  1  0.51432574  0.74634124  -0.02283046  1
  Bi  Bi85  1  -0.00244946  0.26330819  0.49858528  1
  Bi  Bi86  1  0.49327199  0.47787904  0.21605917  1
  Bi  Bi87  1  0.03230560  -0.01593220  0.50385088  1
  Bi  Bi88  1  -0.00128217  0.03858870  0.04548515  1
  Bi  Bi89  1  0.25740980  -0.00498697  0.01633326  1
  Bi  Bi90  1  0.02681153  0.52402239  0.71771897  1
  Bi  Bi91  1  0.23176242  0.73034260  0.26767810  1
  Bi  Bi92  1  0.01771497  0.76542711  0.26828021  1
  Bi  Bi93  1  0.28104086  0.26034267  0.73853351  1
  Bi  Bi94  1  0.74314634  0.53232700  -0.00421231  1
  Bi  Bi95  1  0.02586980  0.76904078  -0.00011876  1
  Bi  Bi96  1  0.00288965  0.25182002  0.03797712  1
  Bi  Bi97  1  0.00412598  0.49557319  0.49767486  1
  Bi  Bi98  1  0.75787191  0.20309091  0.23416547  1
  Bi  Bi99  1  0.77081246  0.75102193  0.24209484  1
  Bi  Bi100  1  0.51848794  0.49403442  -0.02381907  1
  Bi  Bi101  1  0.51227105  0.21681951  0.74306266  1
  Bi  Bi102  1  0.25408273  -0.03473602  0.52166343  1
  Bi  Bi103  1  0.77098662  0.26200114  0.49311788  1
  Bi  Bi104  1  0.24941137  0.49662230  0.74822883  1
  Bi  Bi105  1  0.03575921  -0.00558460  0.26341463  1
  Bi  Bi106  1  0.27111854  0.73762525  -0.01898432  1
  Bi  Bi107  1  0.76172439  0.72703772  0.50508430  1
  Bi  Bi108  1  0.53161392  0.25725738  0.50121687  1
  Bi  Bi109  1  0.50046842  -0.01939117  0.50514197  1
  Bi  Bi110  1  0.26040625  0.00425740  0.23882551  1
  Bi  Bi111  1  0.73587956  0.49881707  0.21923906  1
  Bi  Bi112  1  0.52887256  0.24098449  -0.00283042  1
  Bi  Bi113  1  0.02121622  0.48913348  -0.01379725  1
  Bi  Bi114  1  0.48429714  0.00740758  -0.02826361  1
  Bi  Bi115  1  0.22746453  0.72864532  0.55440699  1
  Bi  Bi116  1  0.48877908  -0.00858978  0.26537557  1
  Bi  Bi117  1  0.74205405  -0.03420366  0.50313475  1
  Bi  Bi118  1  0.77579417  0.74190410  0.76443999  1
  Bi  Bi119  1  0.26565357  0.26671197  0.47553384  1
  Bi  Bi120  1  0.25237243  0.04574761  0.74184652  1
  Bi  Bi121  1  0.73795397  0.47642036  0.72751215  1
  Bi  Bi122  1  0.51033115  0.71684062  0.50125189  1
  Bi  Bi123  1  0.48961615  0.73992277  0.74047560  1
  Bi  Bi124  1  0.25592502  0.50295731  0.23616721  1
  O  O125  1  0.12669302  0.15438849  -0.00734619  1
  O  O126  1  0.12742109  0.09618788  0.26090671  1
  O  O127  1  0.11138455  0.14617219  0.49746220  1
  O  O128  1  0.11695294  0.11229341  0.74105909  1
  O  O129  1  0.14006133  0.39512401  -0.01430993  1
  O  O130  1  0.11139071  0.39210997  0.26347446  1
  O  O131  1  0.13405397  0.34122311  0.49937020  1
  O  O132  1  0.09615100  0.39878955  0.74035736  1
  O  O133  1  0.14929639  0.58799891  -0.00187644  1
  O  O134  1  0.10940063  0.65709283  0.23932511  1
  O  O135  1  0.14606398  0.63220807  0.49961656  1
  O  O136  1  0.11133874  0.62345770  0.75589102  1
  O  O137  1  0.11219486  0.87677239  -0.00509679  1
  O  O138  1  0.11313476  0.87319539  0.25474959  1
  O  O139  1  0.12627526  0.87875171  0.50713214  1
  O  O140  1  0.13763827  0.85654794  0.75714357  1
  O  O141  1  0.36391112  0.08722448  0.00377290  1
  O  O142  1  0.36814139  0.15792071  0.24517059  1
  O  O143  1  0.37767683  0.11818054  0.49216959  1
  O  O144  1  0.36111873  0.13517137  0.74402472  1
  O  O145  1  0.33080140  0.39871424  -0.00588698  1
  O  O146  1  0.41182098  0.36912387  0.26593032  1
  O  O147  1  0.34479677  0.38891065  0.50312399  1
  O  O148  1  0.38791102  0.35834470  0.74566981  1
  O  O149  1  0.33976872  0.61620986  0.01080016  1
  O  O150  1  0.39983895  0.63360332  0.25860100  1
  O  O151  1  0.34778111  0.61418794  0.49986868  1
  O  O152  1  0.40231329  0.63208395  0.74448917  1
  O  O153  1  0.37155116  0.90927589  0.01303549  1
  O  O154  1  0.39866205  0.86659868  0.25345576  1
  O  O155  1  0.38533166  0.89408084  0.49843179  1
  O  O156  1  0.38771698  0.85636130  0.75406378  1
  O  O157  1  0.63502409  0.15377196  -0.00695531  1
  O  O158  1  0.62945981  0.13923737  0.25067908  1
  O  O159  1  0.61706478  0.14571158  0.49494839  1
  O  O160  1  0.60459953  0.11513658  0.75626024  1
  O  O161  1  0.60995299  0.37050281  -0.01527166  1
  O  O162  1  0.59533852  0.38332889  0.25809239  1
  O  O163  1  0.64050335  0.34837266  0.49821196  1
  O  O164  1  0.60598394  0.40531194  0.75213969  1
  O  O165  1  0.64786114  0.63179568  -0.00457182  1
  O  O166  1  0.60587743  0.61390403  0.26155798  1
  O  O167  1  0.63752630  0.65256666  0.49936816  1
  O  O168  1  0.59508031  0.62137501  0.74859611  1
  O  O169  1  0.65438160  0.86465367  0.00911405  1
  O  O170  1  0.60505805  0.87848481  0.25621715  1
  O  O171  1  0.60834257  0.88749509  0.50573583  1
  O  O172  1  0.60504553  0.89146395  0.75818783  1
  O  O173  1  0.86061737  0.10842779  -0.00674504  1
  O  O174  1  0.85070780  0.11038946  0.25689778  1
  O  O175  1  0.85471434  0.10527288  0.50043611  1
  O  O176  1  0.90005322  0.15192649  0.74586258  1
  O  O177  1  0.87287362  0.41414016  0.00128271  1
  O  O178  1  0.89612491  0.36389499  0.25156028  1
  O  O179  1  0.82610681  0.39067670  0.49900728  1
  O  O180  1  0.89708428  0.33227623  0.76286218  1
  O  O181  1  0.85308091  0.61631575  -0.01087933  1
  O  O182  1  0.87843522  0.65271113  0.25806582  1
  O  O183  1  0.83177928  0.60194790  0.50169265  1
  O  O184  1  0.88540273  0.64379440  0.74495812  1
  O  O185  1  0.86167447  0.87239675  -0.00875233  1
  O  O186  1  0.86734211  0.86073004  0.26059084  1
  O  O187  1  0.86824555  0.89702667  0.50536622  1
  O  O188  1  0.86989031  0.85083446  0.74390197  1
  O  O189  1  -0.00186135  0.14793765  0.12592896  1
  O  O190  1  -0.01285917  0.11484654  0.36843840  1
  O  O191  1  -0.00552716  0.09921286  0.61636962  1
  O  O192  1  0.00259951  0.12263131  0.86825331  1
  O  O193  1  0.00422382  0.39699622  0.11123872  1
  O  O194  1  -0.00554398  0.37603622  0.40386970  1
  O  O195  1  -0.00647948  0.37859264  0.58576739  1
  O  O196  1  0.00172603  0.39076031  0.88687306  1
  O  O197  1  0.00773635  0.60402580  0.11236068  1
  O  O198  1  -0.01017041  0.62100944  0.39997223  1
  O  O199  1  -0.01766265  0.61165372  0.59673563  1
  O  O200  1  -0.00046953  0.60666613  0.89067685  1
  O  O201  1  0.00418738  0.82167366  0.13085473  1
  O  O202  1  -0.00628856  0.88105186  0.38530488  1
  O  O203  1  -0.00626436  0.90127220  0.62781550  1
  O  O204  1  -0.00139476  0.86821562  0.86824181  1
  O  O205  1  0.25206907  0.09042872  0.12327878  1
  O  O206  1  0.24968818  0.14670945  0.38192703  1
  O  O207  1  0.23954825  0.14713145  0.63078924  1
  O  O208  1  0.24156253  0.12482145  0.86121107  1
  O  O209  1  0.25967051  0.37504959  0.16664848  1
  O  O210  1  0.24005139  0.34992873  0.36429213  1
  O  O211  1  0.23878742  0.37208825  0.64509770  1
  O  O212  1  0.24029703  0.36743114  0.83556120  1
  O  O213  1  0.25076469  0.62923591  0.16481567  1
  O  O214  1  0.25279454  0.62705011  0.35059334  1
  O  O215  1  0.26016261  0.61852510  0.63320986  1
  O  O216  1  0.24862555  0.65115347  0.86663635  1
  O  O217  1  0.25344065  0.90598454  0.13253387  1
  O  O218  1  0.26391825  0.87455863  0.37345113  1
  O  O219  1  0.25554848  0.86510563  0.62787551  1
  O  O220  1  0.24861374  0.87091503  0.87794322  1
  O  O221  1  0.48983909  0.14618009  0.11129410  1
  O  O222  1  0.49890138  0.12136951  0.35679288  1
  O  O223  1  0.48999050  0.11831405  0.62725268  1
  O  O224  1  0.50192899  0.13465780  0.90035522  1
  O  O225  1  0.47352954  0.37825034  0.11076362  1
  O  O226  1  0.50185813  0.40402084  0.41598328  1
  O  O227  1  0.49600773  0.40241591  0.60636362  1
  O  O228  1  0.47715205  0.41427228  0.87150106  1
  O  O229  1  0.49080769  0.64523368  0.11392149  1
  O  O230  1  0.50005134  0.60255738  0.41014969  1
  O  O231  1  0.50103165  0.59440036  0.58451221  1
  O  O232  1  0.50130163  0.61526328  0.90398965  1
  O  O233  1  0.49923016  0.84757891  0.11786354  1
  O  O234  1  0.49792496  0.90422939  0.38301464  1
  O  O235  1  0.50167770  0.91830235  0.63339393  1
  O  O236  1  0.51205622  0.87350356  0.90400609  1
  O  O237  1  0.74630259  0.12333078  0.11704681  1
  O  O238  1  0.74350252  0.15373471  0.37304800  1
  O  O239  1  0.75536218  0.14274242  0.65733332  1
  O  O240  1  0.74589893  0.14415633  0.85734758  1
  O  O241  1  0.75113408  0.39036601  0.13145940  1
  O  O242  1  0.74558609  0.36491247  0.34924385  1
  O  O243  1  0.75361226  0.35281496  0.66901932  1
  O  O244  1  0.75152012  0.36642461  0.86297442  1
  O  O245  1  0.74799967  0.59647439  0.12786328  1
  O  O246  1  0.74410474  0.64332315  0.36403175  1
  O  O247  1  0.75174677  0.65903054  0.63695778  1
  O  O248  1  0.74344172  0.62245770  0.84773492  1
  O  O249  1  0.74501570  0.91620865  0.15443661  1
  O  O250  1  0.73687264  0.86260658  0.39332625  1
  O  O251  1  0.73914406  0.86063495  0.61246893  1
  O  O252  1  0.74706768  0.86126799  0.86238165  1
  O  O253  1  0.08548210  -0.01111548  0.13363522  1
  O  O254  1  0.12367536  0.00490644  0.39249001  1
  O  O255  1  0.13975117  0.00896351  0.60508421  1
  O  O256  1  0.11951231  0.00328866  0.86977126  1
  O  O257  1  0.13443450  0.25979800  0.14847987  1
  O  O258  1  0.10936623  0.24210747  0.33613178  1
  O  O259  1  0.09351158  0.25035142  0.63773494  1
  O  O260  1  0.10073645  0.25555766  0.84849438  1
  O  O261  1  0.13901255  0.50530512  0.14846171  1
  O  O262  1  0.12269858  0.49308738  0.40614402  1
  O  O263  1  0.10959476  0.49113631  0.60300475  1
  O  O264  1  0.14377351  0.50065958  0.86309597  1
  O  O265  1  0.13858629  0.73662366  0.08240356  1
  O  O266  1  0.12387629  0.74919999  0.36788151  1
  O  O267  1  0.10616003  0.75075425  0.62617468  1
  O  O268  1  0.10896916  0.74065451  0.88143473  1
  O  O269  1  0.38786602  0.00682348  0.16360249  1
  O  O270  1  0.37002275  0.01622162  0.34369275  1
  O  O271  1  0.34337213  0.01090228  0.62533891  1
  O  O272  1  0.41229524  -0.00148517  0.85482468  1
  O  O273  1  0.33435330  0.24379763  0.09036625  1
  O  O274  1  0.38603592  0.25965136  0.39762333  1
  O  O275  1  0.37345309  0.25629785  0.61534221  1
  O  O276  1  0.36968719  0.25990169  0.87973662  1
  O  O277  1  0.36513189  0.50657710  0.14341533  1
  O  O278  1  0.36023808  0.49812902  0.36389969  1
  O  O279  1  0.37000912  0.49419090  0.65746102  1
  O  O280  1  0.32948190  0.49965522  0.86069342  1
  O  O281  1  0.35136506  0.75635295  0.11246150  1
  O  O282  1  0.39072607  0.74637263  0.39179143  1
  O  O283  1  0.40866036  0.73782095  0.61994365  1
  O  O284  1  0.38967099  0.74907902  0.90781586  1
  O  O285  1  0.59567792  -0.00507600  0.11842447  1
  O  O286  1  0.63438568  0.00679038  0.38495365  1
  O  O287  1  0.65572295  0.00300902  0.62372217  1
  O  O288  1  0.63032624  0.00334617  0.89193782  1
  O  O289  1  0.61231612  0.25488920  0.12928361  1
  O  O290  1  0.59760979  0.26094257  0.36844217  1
  O  O291  1  0.59220292  0.25113273  0.63591955  1
  O  O292  1  0.60134610  0.25947770  0.85553542  1
  O  O293  1  0.61210670  0.49776742  0.12934943  1
  O  O294  1  0.64499685  0.50105715  0.41496282  1
  O  O295  1  0.67077248  0.49704776  0.60641077  1
  O  O296  1  0.62761518  0.50151554  0.89027831  1
  O  O297  1  0.64095010  0.75271744  0.15264617  1
  O  O298  1  0.59639612  0.75237710  0.36988416  1
  O  O299  1  0.58852061  0.76067939  0.63192987  1
  O  O300  1  0.61398877  0.74775735  0.87229041  1
  O  O301  1  0.89113324  -0.01161787  0.12298070  1
  O  O302  1  0.85180865  -0.00725536  0.36531885  1
  O  O303  1  0.84757302  0.00051702  0.64364005  1
  O  O304  1  0.87628236  -0.00705778  0.84710893  1
  O  O305  1  0.87649167  0.26789021  0.09940533  1
  O  O306  1  0.87778198  0.25527105  0.40107974  1
  O  O307  1  0.87733447  0.24388210  0.59669594  1
  O  O308  1  0.89364039  0.25908695  0.91268390  1
  O  O309  1  0.87443370  0.50059351  0.16001987  1
  O  O310  1  0.87073281  0.50023125  0.35993567  1
  O  O311  1  0.85732435  0.50130024  0.64672908  1
  O  O312  1  0.86931880  0.49789553  0.85097884  1
  O  O313  1  0.83466195  0.74819083  0.11843706  1
  O  O314  1  0.87505663  0.75042265  0.40355577  1
  O  O315  1  0.89106713  0.75446906  0.59726535  1
  O  O316  1  0.86460524  0.74203015  0.87818798  1
