# generated using pymatgen
data_Mg32Ti42(Bi17O64)3
_symmetry_space_group_name_H-M   'P 1'
_cell_length_a   15.90515711
_cell_length_b   15.98240095
_cell_length_c   15.90618492
_cell_angle_alpha   89.96031844
_cell_angle_beta   89.99545166
_cell_angle_gamma   90.01487887
_symmetry_Int_Tables_number   1
_chemical_formula_structural   Mg32Ti42(Bi17O64)3
_chemical_formula_sum   'Mg32 Ti42 Bi51 O192'
_cell_volume   4043.39241532
_cell_formula_units_Z   1
loop_
 _symmetry_equiv_pos_site_id
 _symmetry_equiv_pos_as_xyz
  1  'x, y, z'
loop_
 _atom_site_type_symbol
 _atom_site_label
 _atom_site_symmetry_multiplicity
 _atom_site_fract_x
 _atom_site_fract_y
 _atom_site_fract_z
 _atom_site_occupancy
  Mg  Mg0  1  0.37816343  0.88411088  0.12466992  1
  Mg  Mg1  1  0.13311567  0.13186305  0.88044594  1
  Mg  Mg2  1  0.61938681  0.87339162  0.87988309  1
  Mg  Mg3  1  0.62536102  0.87378562  0.62410732  1
  Mg  Mg4  1  0.87674464  0.89396675  0.36810785  1
  Mg  Mg5  1  0.12877876  0.12479920  0.62431390  1
  Mg  Mg6  1  0.37849261  0.13615377  0.12743973  1
  Mg  Mg7  1  0.60963462  0.12623840  0.63430993  1
  Mg  Mg8  1  0.62824770  0.13148988  0.11988479  1
  Mg  Mg9  1  0.12969928  0.36994441  0.12202758  1
  Mg  Mg10  1  0.61494765  0.38183366  0.63445226  1
  Mg  Mg11  1  0.12936863  0.61745529  0.12955095  1
  Mg  Mg12  1  0.37514502  0.62830389  0.87869942  1
  Mg  Mg13  1  0.88089755  0.88321777  0.12841005  1
  Mg  Mg14  1  0.37702421  0.12467896  0.86653715  1
  Mg  Mg15  1  0.62030399  0.62724778  0.12765052  1
  Mg  Mg16  1  0.36853517  0.12408451  0.38049217  1
  Mg  Mg17  1  0.87361570  0.37868921  0.11380434  1
  Mg  Mg18  1  0.12493977  0.87598153  0.87730448  1
  Mg  Mg19  1  0.77226892  0.26226118  0.20282244  1
  Mg  Mg20  1  0.71047277  0.01965443  -0.00652608  1
  Mg  Mg21  1  0.46936033  0.44842349  -0.01414087  1
  Mg  Mg22  1  0.26305659  0.03078381  0.51341392  1
  Mg  Mg23  1  0.22716696  0.76799924  0.71841131  1
  Mg  Mg24  1  0.31127513  0.47542400  0.81651207  1
  Mg  Mg25  1  -0.02595987  0.05394399  0.25170897  1
  Mg  Mg26  1  0.31471408  0.53210014  0.28335729  1
  Mg  Mg27  1  0.57155724  0.27407174  0.27607220  1
  Mg  Mg28  1  0.75192983  0.27343678  0.00168151  1
  Mg  Mg29  1  0.50095405  0.44325902  0.27016407  1
  Mg  Mg30  1  0.02610529  0.03881256  -0.00648010  1
  Mg  Mg31  1  0.51241380  0.78301089  0.72746823  1
  Ti  Ti32  1  0.87058150  0.37734794  0.87277958  1
  Ti  Ti33  1  0.37447535  0.88679100  0.37379641  1
  Ti  Ti34  1  0.37926247  0.36707329  0.13977708  1
  Ti  Ti35  1  0.61933218  0.88091241  0.11533694  1
  Ti  Ti36  1  0.87193630  0.63200958  0.62175751  1
  Ti  Ti37  1  0.61772117  0.88489668  0.36957905  1
  Ti  Ti38  1  0.36866694  0.36874140  0.37463908  1
  Ti  Ti39  1  0.87518424  0.37717625  0.36544943  1
  Ti  Ti40  1  0.62503480  0.36097052  0.11584645  1
  Ti  Ti41  1  0.36846421  0.86335257  0.86435344  1
  Ti  Ti42  1  0.62188778  0.12158588  0.37786292  1
  Ti  Ti43  1  0.85752425  0.12976077  0.36983736  1
  Ti  Ti44  1  0.62337938  0.62696809  0.36915025  1
  Ti  Ti45  1  0.37075316  0.63448988  0.64698679  1
  Ti  Ti46  1  0.86610371  0.61748964  0.37566997  1
  Ti  Ti47  1  0.62716005  0.13969797  0.87716411  1
  Ti  Ti48  1  0.87994243  0.62735534  0.13439246  1
  Ti  Ti49  1  0.36659919  0.87699515  0.63236645  1
  Ti  Ti50  1  0.37991321  0.59094648  0.11945838  1
  Ti  Ti51  1  0.62561193  0.63547185  0.88359376  1
  Ti  Ti52  1  0.11818710  0.13122013  0.12765809  1
  Ti  Ti53  1  0.37070869  0.14084351  0.62605955  1
  Ti  Ti54  1  0.87829439  0.38251289  0.62477314  1
  Ti  Ti55  1  0.63441217  0.37647023  0.87785211  1
  Ti  Ti56  1  0.13408090  0.62706662  0.62170103  1
  Ti  Ti57  1  0.12076206  0.88528220  0.37347406  1
  Ti  Ti58  1  0.87457686  0.12621924  0.63225602  1
  Ti  Ti59  1  0.11867711  0.61932541  0.36287582  1
  Ti  Ti60  1  0.88150959  0.88599419  0.87752583  1
  Ti  Ti61  1  0.87187338  0.88323590  0.62628474  1
  Ti  Ti62  1  0.87310304  0.12057898  0.10412099  1
  Ti  Ti63  1  0.87262191  0.63647646  0.87222686  1
  Ti  Ti64  1  0.11980917  0.37521572  0.36959130  1
  Ti  Ti65  1  0.12531337  0.88326213  0.61092994  1
  Ti  Ti66  1  0.61402206  0.63260918  0.62715744  1
  Ti  Ti67  1  0.12517411  0.38223841  0.61364393  1
  Ti  Ti68  1  0.87531374  0.13143186  0.87858492  1
  Ti  Ti69  1  0.13581050  0.63224654  0.85727667  1
  Ti  Ti70  1  0.11700571  0.88935712  0.12316955  1
  Ti  Ti71  1  0.12526947  0.37755875  0.86839185  1
  Ti  Ti72  1  0.36701311  0.39083602  0.61665237  1
  Ti  Ti73  1  0.11506145  0.12265606  0.36589129  1
  Bi  Bi74  1  0.46227715  0.28864035  0.75177537  1
  Bi  Bi75  1  0.24741039  0.76133905  0.48974450  1
  Bi  Bi76  1  0.49640233  0.52015894  0.77624397  1
  Bi  Bi77  1  0.26728708  0.28098094  -0.03360996  1
  Bi  Bi78  1  0.73462925  0.51907316  0.52119944  1
  Bi  Bi79  1  0.24113489  0.51065359  0.47226959  1
  Bi  Bi80  1  0.22028044  0.51670593  -0.00717154  1
  Bi  Bi81  1  -0.01425917  0.51741500  -0.00873909  1
  Bi  Bi82  1  0.74612625  0.78253038  0.48376792  1
  Bi  Bi83  1  0.47514216  0.74953330  0.47760618  1
  Bi  Bi84  1  0.01052880  0.77749837  0.74450285  1
  Bi  Bi85  1  0.23598502  0.27072755  0.73087428  1
  Bi  Bi86  1  0.23849818  0.77110598  0.25541077  1
  Bi  Bi87  1  -0.00801177  0.51263969  0.49223937  1
  Bi  Bi88  1  0.48401812  0.71143481  0.25619511  1
  Bi  Bi89  1  -0.01177419  0.77112048  0.00298678  1
  Bi  Bi90  1  -0.01915640  0.77163852  0.49333125  1
  Bi  Bi91  1  0.73845789  0.50611237  0.03202037  1
  Bi  Bi92  1  0.46891951  0.53322663  0.49195731  1
  Bi  Bi93  1  0.45967167  0.74359374  0.02089842  1
  Bi  Bi94  1  0.49066495  0.02412721  0.01652011  1
  Bi  Bi95  1  0.73175568  0.25169704  0.71470474  1
  Bi  Bi96  1  0.27245028  0.01222324  0.22651512  1
  Bi  Bi97  1  0.00076337  0.27399212  -0.00293182  1
  Bi  Bi98  1  0.51144355  0.28206552  0.48462752  1
  Bi  Bi99  1  0.50346744  -0.01173246  0.75980897  1
  Bi  Bi100  1  0.25129668  0.25124644  0.22982509  1
  Bi  Bi101  1  0.00364560  0.02720582  0.51263419  1
  Bi  Bi102  1  0.71220796  0.46776013  0.26905942  1
  Bi  Bi103  1  0.72402428  0.28824520  0.48434644  1
  Bi  Bi104  1  0.73630098  0.01079374  0.76952136  1
  Bi  Bi105  1  0.48519686  0.24957547  -0.03170298  1
  Bi  Bi106  1  0.47953485  0.02524698  0.50751819  1
  Bi  Bi107  1  0.73672563  0.77112441  0.76421619  1
  Bi  Bi108  1  0.26621092  -0.01161040  -0.00622806  1
  Bi  Bi109  1  0.23521482  0.75693097  0.02662966  1
  Bi  Bi110  1  0.72721188  0.01806704  0.52754725  1
  Bi  Bi111  1  0.01624180  0.48706533  0.21908193  1
  Bi  Bi112  1  -0.01437494  0.75772389  0.25224551  1
  Bi  Bi113  1  -0.00565104  0.52892556  0.74579764  1
  Bi  Bi114  1  0.02049472  0.02031593  0.77597408  1
  Bi  Bi115  1  0.51103838  0.03444513  0.24720882  1
  Bi  Bi116  1  0.23646596  0.23666369  0.47621958  1
  Bi  Bi117  1  0.75074914  0.73379587  0.01923106  1
  Bi  Bi118  1  -0.02065724  0.25132428  0.48655714  1
  Bi  Bi119  1  -0.01290855  0.25607792  0.23757881  1
  Bi  Bi120  1  0.25756353  0.01702255  0.76999419  1
  Bi  Bi121  1  0.74345921  0.78008468  0.24599057  1
  Bi  Bi122  1  -0.00380796  0.26151840  0.73491164  1
  Bi  Bi123  1  0.75558197  0.00981376  0.22069296  1
  Bi  Bi124  1  0.73485620  0.51708017  0.75879444  1
  O  O125  1  0.10337312  0.14043796  0.01215937  1
  O  O126  1  0.11612894  0.08930314  0.25205574  1
  O  O127  1  0.08688414  0.13544899  0.49301421  1
  O  O128  1  0.13868462  0.09646406  0.75077822  1
  O  O129  1  0.11980715  0.34277509  -0.00267962  1
  O  O130  1  0.12058401  0.39702382  0.25486340  1
  O  O131  1  0.10529769  0.34986482  0.50316762  1
  O  O132  1  0.15192779  0.38425124  0.75424641  1
  O  O133  1  0.14377111  0.63767251  -0.00749484  1
  O  O134  1  0.09949572  0.59314846  0.25234807  1
  O  O135  1  0.14728150  0.63248580  0.50327623  1
  O  O136  1  0.12151307  0.59350321  0.74579423  1
  O  O137  1  0.11358490  0.84065771  0.00637165  1
  O  O138  1  0.14346211  0.87987861  0.24758132  1
  O  O139  1  0.12244776  0.83834839  0.48879334  1
  O  O140  1  0.11250113  0.88176091  0.73360860  1
  O  O141  1  0.40146770  0.13027333  -0.00428027  1
  O  O142  1  0.36863318  0.09955125  0.25845095  1
  O  O143  1  0.39635107  0.13426083  0.50454068  1
  O  O144  1  0.34100313  0.12905442  0.74144957  1
  O  O145  1  0.39872042  0.34782534  0.02131031  1
  O  O146  1  0.37233854  0.41688308  0.25729216  1
  O  O147  1  0.39449984  0.36371181  0.49736492  1
  O  O148  1  0.35092828  0.37855212  0.74249571  1
  O  O149  1  0.37507527  0.63182919  0.00623252  1
  O  O150  1  0.40085999  0.60746534  0.23994223  1
  O  O151  1  0.38925878  0.64485597  0.51874139  1
  O  O152  1  0.37093119  0.57896377  0.75246682  1
  O  O153  1  0.37633671  0.90073161  -0.01480452  1
  O  O154  1  0.36612487  0.90401286  0.25849180  1
  O  O155  1  0.37149495  0.83719078  0.51543087  1
  O  O156  1  0.32473346  0.85987078  0.74667624  1
  O  O157  1  0.61100543  0.09794541  -0.00732645  1
  O  O158  1  0.60592863  0.14618630  0.25632729  1
  O  O159  1  0.61207214  0.09684907  0.50316389  1
  O  O160  1  0.65757817  0.13577253  0.75898326  1
  O  O161  1  0.58952315  0.39511153  0.00520905  1
  O  O162  1  0.67519691  0.33830731  0.23920304  1
  O  O163  1  0.61114618  0.37297691  0.50567112  1
  O  O164  1  0.65610530  0.36279947  0.76223132  1
  O  O165  1  0.62682028  0.61588769  -0.00392133  1
  O  O166  1  0.61738844  0.65259004  0.25411985  1
  O  O167  1  0.62073998  0.59770161  0.50306497  1
  O  O168  1  0.65505708  0.63380074  0.74539049  1
  O  O169  1  0.64409401  0.91148031  0.00435003  1
  O  O170  1  0.61550658  0.84642565  0.25773714  1
  O  O171  1  0.64653037  0.88877754  0.49696724  1
  O  O172  1  0.62636540  0.84603009  0.74953380  1
  O  O173  1  0.91280701  0.09900786  -0.00128200  1
  O  O174  1  0.84247649  0.16181548  0.25394934  1
  O  O175  1  0.89851209  0.11856336  0.49689201  1
  O  O176  1  0.85990231  0.13258257  0.75157949  1
  O  O177  1  0.91658277  0.38627490  -0.00946111  1
  O  O178  1  0.85951385  0.35204471  0.25030649  1
  O  O179  1  0.90674634  0.38332115  0.50923970  1
  O  O180  1  0.87041772  0.35073679  0.75603811  1
  O  O181  1  0.88215040  0.62219335  -0.00962992  1
  O  O182  1  0.87964473  0.63642496  0.25371419  1
  O  O183  1  0.87386351  0.59153226  0.50173977  1
  O  O184  1  0.87925034  0.62238937  0.74400653  1
  O  O185  1  0.89392495  0.87763280  -0.00377949  1
  O  O186  1  0.87784486  0.83928358  0.25337495  1
  O  O187  1  0.87399736  0.87092782  0.49666907  1
  O  O188  1  0.90088192  0.86936681  0.74209963  1
  O  O189  1  -0.01051035  0.13965430  0.15121710  1
  O  O190  1  -0.00470031  0.14387945  0.34975903  1
  O  O191  1  -0.00224480  0.09631107  0.63540784  1
  O  O192  1  -0.00289640  0.13915825  0.85314890  1
  O  O193  1  -0.00419327  0.35249613  0.13393948  1
  O  O194  1  -0.00032695  0.34828720  0.36556041  1
  O  O195  1  0.00569981  0.38135275  0.65626914  1
  O  O196  1  0.00906698  0.33954167  0.86289690  1
  O  O197  1  -0.00438624  0.63784214  0.12137638  1
  O  O198  1  0.00190400  0.62824573  0.39880205  1
  O  O199  1  0.00156091  0.60191957  0.62034827  1
  O  O200  1  0.00631066  0.62725315  0.86195495  1
  O  O201  1  0.00670223  0.84092291  0.13577370  1
  O  O202  1  0.00480641  0.84993504  0.36632414  1
  O  O203  1  0.00281023  0.87442899  0.60214741  1
  O  O204  1  0.00225296  0.83861687  0.87289707  1
  O  O205  1  0.24048606  0.13235993  0.13929151  1
  O  O206  1  0.23441828  0.11253982  0.40937946  1
  O  O207  1  0.25180590  0.13542802  0.58870926  1
  O  O208  1  0.25343949  0.09119502  0.88676521  1
  O  O209  1  0.25996750  0.36056109  0.13192907  1
  O  O210  1  0.24168492  0.38615234  0.39155180  1
  O  O211  1  0.24707343  0.35845777  0.60794775  1
  O  O212  1  0.24902413  0.40086624  0.90120305  1
  O  O213  1  0.26640591  0.57718866  0.14202495  1
  O  O214  1  0.23742960  0.59336052  0.35991034  1
  O  O215  1  0.25247438  0.65593911  0.64566884  1
  O  O216  1  0.24781910  0.58126660  0.87190103  1
  O  O217  1  0.23813414  0.88743516  0.10373340  1
  O  O218  1  0.24701278  0.86207815  0.38256482  1
  O  O219  1  0.23942938  0.83830202  0.61052665  1
  O  O220  1  0.24635216  0.90568008  0.88505347  1
  O  O221  1  0.50220514  0.10889021  0.12692673  1
  O  O222  1  0.50055028  0.10095634  0.37997411  1
  O  O223  1  0.48559212  0.09793942  0.63899155  1
  O  O224  1  0.51308838  0.15183374  0.85709622  1
  O  O225  1  0.52270215  0.35707714  0.17862746  1
  O  O226  1  0.48767997  0.34336620  0.35582171  1
  O  O227  1  0.48811945  0.38616545  0.65227994  1
  O  O228  1  0.51700103  0.35563945  0.86584343  1
  O  O229  1  0.49779888  0.65669975  0.12125345  1
  O  O230  1  0.50516900  0.63501670  0.38584775  1
  O  O231  1  0.50441674  0.59651841  0.63952486  1
  O  O232  1  0.51333487  0.64122108  0.84627726  1
  O  O233  1  0.50453830  0.86890333  0.11089047  1
  O  O234  1  0.49810140  0.88475836  0.39054684  1
  O  O235  1  0.48499815  0.88725325  0.64916254  1
  O  O236  1  0.48715877  0.86104145  0.83319692  1
  O  O237  1  0.75544182  0.08314179  0.09835060  1
  O  O238  1  0.74459541  0.11484515  0.39576856  1
  O  O239  1  0.75988415  0.13985575  0.60472375  1
  O  O240  1  0.75805427  0.08909217  0.89564108  1
  O  O241  1  0.75187393  0.37709792  0.08485255  1
  O  O242  1  0.76235737  0.39324766  0.40015582  1
  O  O243  1  0.76281224  0.35521299  0.60913897  1
  O  O244  1  0.75870899  0.38281194  0.90697231  1
  O  O245  1  0.75237098  0.62481506  0.11086526  1
  O  O246  1  0.74854707  0.59470786  0.38066276  1
  O  O247  1  0.75442016  0.63658433  0.60288415  1
  O  O248  1  0.75709349  0.60868296  0.87456370  1
  O  O249  1  0.75199558  0.88895744  0.15318398  1
  O  O250  1  0.74824108  0.86365207  0.36535690  1
  O  O251  1  0.75995365  0.84977555  0.63350820  1
  O  O252  1  0.76320684  0.88590449  0.85267588  1
  O  O253  1  0.09237331  -0.00225282  0.09996922  1
  O  O254  1  0.10465308  -0.00592463  0.39115874  1
  O  O255  1  0.14694969  -0.00876840  0.58087782  1
  O  O256  1  0.09022595  -0.00031557  0.89456259  1
  O  O257  1  0.12071172  0.24388948  0.16351264  1
  O  O258  1  0.14139516  0.24428683  0.36164972  1
  O  O259  1  0.11741100  0.25133745  0.65277320  1
  O  O260  1  0.17058546  0.25439020  0.86273400  1
  O  O261  1  0.09459668  0.49402753  0.10486815  1
  O  O262  1  0.10976450  0.49088307  0.40123791  1
  O  O263  1  0.13406937  0.49525158  0.60107864  1
  O  O264  1  0.10535951  0.48998284  0.90364090  1
  O  O265  1  0.16221349  0.73885590  0.14295609  1
  O  O266  1  0.13728501  0.73508758  0.34293851  1
  O  O267  1  0.11078032  0.73902577  0.64077834  1
  O  O268  1  0.15656599  0.74066890  0.82911102  1
  O  O269  1  0.36040918  0.00766042  0.11781033  1
  O  O270  1  0.35662019  -0.00876540  0.42313188  1
  O  O271  1  0.34533380  -0.01267073  0.60833700  1
  O  O272  1  0.39289518  -0.00109522  0.84279472  1
  O  O273  1  0.37927728  0.25441296  0.16761481  1
  O  O274  1  0.33846300  0.25260568  0.37108182  1
  O  O275  1  0.38278551  0.25352502  0.63026685  1
  O  O276  1  0.37369423  0.25176990  0.87924354  1
  O  O277  1  0.42024868  0.48511739  0.10119543  1
  O  O278  1  0.37169891  0.49384117  0.39769799  1
  O  O279  1  0.36038904  0.50184122  0.59505678  1
  O  O280  1  0.41444000  0.50083754  0.88856098  1
  O  O281  1  0.35802108  0.76071990  0.11394839  1
  O  O282  1  0.38410110  0.76222046  0.37103387  1
  O  O283  1  0.40581876  0.73794474  0.67125916  1
  O  O284  1  0.36027549  0.75357516  0.89114438  1
  O  O285  1  0.62380597  -0.00364270  0.15752604  1
  O  O286  1  0.62967783  -0.00305417  0.34739872  1
  O  O287  1  0.65063880  0.00030044  0.64305593  1
  O  O288  1  0.61990119  -0.00029211  0.84858903  1
  O  O289  1  0.65593375  0.24978114  0.09641311  1
  O  O290  1  0.61802546  0.23874502  0.39194263  1
  O  O291  1  0.62328882  0.25133293  0.63027371  1
  O  O292  1  0.65682866  0.24934764  0.90782234  1
  O  O293  1  0.64626888  0.49142198  0.14194599  1
  O  O294  1  0.59718352  0.50021866  0.33058182  1
  O  O295  1  0.65474205  0.50188027  0.64187447  1
  O  O296  1  0.63023521  0.49701259  0.85825234  1
  O  O297  1  0.65115991  0.76258800  0.10825387  1
  O  O298  1  0.63630179  0.74217349  0.39890047  1
  O  O299  1  0.59419160  0.74412392  0.61952746  1
  O  O300  1  0.65278677  0.74875613  0.88711512  1
  O  O301  1  0.88999521  0.00867869  0.16232934  1
  O  O302  1  0.88906682  0.01699127  0.34580678  1
  O  O303  1  0.85554418  -0.00215097  0.62499949  1
  O  O304  1  0.90006400  -0.00297036  0.86357271  1
  O  O305  1  0.84464834  0.23685039  0.09650411  1
  O  O306  1  0.86237490  0.25419051  0.40261216  1
  O  O307  1  0.90490795  0.24387605  0.61948977  1
  O  O308  1  0.85752071  0.24124566  0.90698588  1
  O  O309  1  0.87631424  0.50703405  0.11656652  1
  O  O310  1  0.90413957  0.49240182  0.36621770  1
  O  O311  1  0.86294242  0.49400324  0.64082083  1
  O  O312  1  0.89561822  0.49125604  0.86426850  1
  O  O313  1  0.85961815  0.74793708  0.10895492  1
  O  O314  1  0.86417263  0.73006455  0.40066212  1
  O  O315  1  0.89656556  0.74306923  0.61359787  1
  O  O316  1  0.86263804  0.74871278  0.87387293  1
