# generated using pymatgen
data_Mg32Ti42(Bi17O64)3
_symmetry_space_group_name_H-M   'P 1'
_cell_length_a   15.96427958
_cell_length_b   15.96137949
_cell_length_c   15.94606120
_cell_angle_alpha   90.00967533
_cell_angle_beta   89.96843001
_cell_angle_gamma   89.91187868
_symmetry_Int_Tables_number   1
_chemical_formula_structural   Mg32Ti42(Bi17O64)3
_chemical_formula_sum   'Mg32 Ti42 Bi51 O192'
_cell_volume   4063.24106493
_cell_formula_units_Z   1
loop_
 _symmetry_equiv_pos_site_id
 _symmetry_equiv_pos_as_xyz
  1  'x, y, z'
loop_
 _atom_site_type_symbol
 _atom_site_label
 _atom_site_symmetry_multiplicity
 _atom_site_fract_x
 _atom_site_fract_y
 _atom_site_fract_z
 _atom_site_occupancy
  Mg  Mg0  1  0.12148757  0.13144663  0.62804987  1
  Mg  Mg1  1  0.62366953  0.61800031  0.63325546  1
  Mg  Mg2  1  0.87457847  0.11737674  0.36758048  1
  Mg  Mg3  1  0.86449380  0.38066663  0.87008539  1
  Mg  Mg4  1  0.86393138  0.37514813  0.62083657  1
  Mg  Mg5  1  0.87383648  0.62260940  0.61250209  1
  Mg  Mg6  1  0.12064229  0.12982342  0.38065597  1
  Mg  Mg7  1  0.86518047  0.12941750  0.61950559  1
  Mg  Mg8  1  0.62265952  0.13262034  0.36603820  1
  Mg  Mg9  1  0.12360377  0.87576971  0.87241744  1
  Mg  Mg10  1  0.87772603  0.37449539  0.36993169  1
  Mg  Mg11  1  0.62613273  0.86890355  0.38326950  1
  Mg  Mg12  1  0.38184147  0.12960527  0.36386897  1
  Mg  Mg13  1  0.61812390  0.87851416  0.12164513  1
  Mg  Mg14  1  0.38201039  0.62748905  0.35870260  1
  Mg  Mg15  1  0.13316915  0.38653255  0.12328830  1
  Mg  Mg16  1  0.37544281  0.89293382  0.13152833  1
  Mg  Mg17  1  0.62344230  0.61366877  0.86411835  1
  Mg  Mg18  1  0.63164511  0.13645245  0.63539227  1
  Mg  Mg19  1  0.50357188  0.30245444  0.26378626  1
  Mg  Mg20  1  0.70171198  0.79313410  0.24519853  1
  Mg  Mg21  1  0.53846855  -0.00656541  0.28801959  1
  Mg  Mg22  1  0.52895645  0.51857563  0.21884625  1
  Mg  Mg23  1  0.75587242  0.51790731  0.70671099  1
  Mg  Mg24  1  0.27621470  0.68402248  0.70231719  1
  Mg  Mg25  1  0.80457841  0.17941090  0.79103197  1
  Mg  Mg26  1  0.30783261  0.56209252  0.51057507  1
  Mg  Mg27  1  0.17694449  0.01408750  0.04233385  1
  Mg  Mg28  1  0.22184483  0.44990438  0.74769365  1
  Mg  Mg29  1  -0.05718038  -0.00271415  -0.04529312  1
  Mg  Mg30  1  0.23019977  0.52450355  0.22871690  1
  Mg  Mg31  1  0.49698006  0.80441184  0.26596301  1
  Ti  Ti32  1  0.61341370  0.12815108  0.87073079  1
  Ti  Ti33  1  0.37052111  0.87983213  0.87662756  1
  Ti  Ti34  1  0.85634325  0.62746196  0.36848101  1
  Ti  Ti35  1  0.11956793  0.87424939  0.37996818  1
  Ti  Ti36  1  0.61235570  0.87607934  0.87590939  1
  Ti  Ti37  1  0.62178354  0.37679948  0.86143139  1
  Ti  Ti38  1  0.38011242  0.38694064  0.13293062  1
  Ti  Ti39  1  0.12491959  0.10904780  0.87028321  1
  Ti  Ti40  1  0.86728839  0.86891157  0.12025573  1
  Ti  Ti41  1  0.11055842  0.87442360  0.62562728  1
  Ti  Ti42  1  0.87828685  0.61911750  0.87698547  1
  Ti  Ti43  1  0.12562539  0.36078391  0.87761193  1
  Ti  Ti44  1  0.62051037  0.87027346  0.62697657  1
  Ti  Ti45  1  0.36713824  0.61148901  0.13730422  1
  Ti  Ti46  1  0.86643382  0.87378778  0.37303754  1
  Ti  Ti47  1  0.86817398  0.86506261  0.86768684  1
  Ti  Ti48  1  0.36854463  0.37693056  0.86952452  1
  Ti  Ti49  1  0.37138773  0.11156955  0.88148370  1
  Ti  Ti50  1  0.62055185  0.13529945  0.13575344  1
  Ti  Ti51  1  0.37565229  0.87330189  0.37857375  1
  Ti  Ti52  1  0.87304562  0.63179176  0.11390543  1
  Ti  Ti53  1  0.12714209  0.62281376  0.11675999  1
  Ti  Ti54  1  0.14385723  0.60968457  0.36731515  1
  Ti  Ti55  1  0.61658679  0.63162304  0.35118024  1
  Ti  Ti56  1  0.37920296  0.12931940  0.61935218  1
  Ti  Ti57  1  0.62115312  0.37140625  0.12296653  1
  Ti  Ti58  1  0.37317809  0.38068581  0.37429608  1
  Ti  Ti59  1  0.62413651  0.63634289  0.13079694  1
  Ti  Ti60  1  0.36309301  0.37213075  0.61141853  1
  Ti  Ti61  1  0.37313478  0.63142999  0.88772517  1
  Ti  Ti62  1  0.12963580  0.63297651  0.85214968  1
  Ti  Ti63  1  0.87824053  0.10548789  0.13281408  1
  Ti  Ti64  1  0.12619345  0.37335966  0.61106545  1
  Ti  Ti65  1  0.87403675  0.36666884  0.10971974  1
  Ti  Ti66  1  0.12317833  0.37774293  0.37309964  1
  Ti  Ti67  1  0.86928331  0.87272277  0.61138565  1
  Ti  Ti68  1  0.62858425  0.37999411  0.36725607  1
  Ti  Ti69  1  0.36751470  0.87868190  0.62697239  1
  Ti  Ti70  1  0.12952991  0.86473979  0.12983472  1
  Ti  Ti71  1  0.12751114  0.60900100  0.62105316  1
  Ti  Ti72  1  0.62456403  0.38027544  0.62293369  1
  Ti  Ti73  1  0.37109898  0.12399568  0.13021609  1
  Bi  Bi74  1  -0.02649081  0.19630965  -0.01554870  1
  Bi  Bi75  1  0.28169124  0.77495494  0.25036950  1
  Bi  Bi76  1  0.26278057  0.21863444  0.75191700  1
  Bi  Bi77  1  0.24654538  0.27394957  0.23366705  1
  Bi  Bi78  1  0.76637941  0.23349668  0.47949195  1
  Bi  Bi79  1  0.00098823  0.77052234  -0.01229573  1
  Bi  Bi80  1  0.23316469  0.75244995  0.50143149  1
  Bi  Bi81  1  0.72618594  0.51887657  0.00147406  1
  Bi  Bi82  1  0.72853757  0.73965526  0.75482723  1
  Bi  Bi83  1  0.46746149  0.25966627  0.01481164  1
  Bi  Bi84  1  -0.00101948  -0.04106765  0.24126730  1
  Bi  Bi85  1  0.24036780  0.77063573  -0.01413569  1
  Bi  Bi86  1  0.73726510  -0.00271412  0.73031142  1
  Bi  Bi87  1  -0.00242999  0.49390984  0.22455108  1
  Bi  Bi88  1  0.22504973  0.02924977  0.23887665  1
  Bi  Bi89  1  0.23617212  0.24970383  0.48205532  1
  Bi  Bi90  1  0.47444307  0.75867138  0.04095936  1
  Bi  Bi91  1  0.50085008  0.51444164  0.46965582  1
  Bi  Bi92  1  0.48086364  0.00650570  0.47736840  1
  Bi  Bi93  1  0.49984799  0.25935014  0.47146583  1
  Bi  Bi94  1  -0.01449699  0.48355941  0.49404944  1
  Bi  Bi95  1  0.73282454  -0.00956875  0.25864644  1
  Bi  Bi96  1  0.72307465  0.72921919  0.51206978  1
  Bi  Bi97  1  0.01162810  0.01701367  0.50491768  1
  Bi  Bi98  1  0.72525754  0.01253119  0.50250385  1
  Bi  Bi99  1  -0.02603825  0.73592359  0.72823954  1
  Bi  Bi100  1  0.46814874  0.73531942  0.75020884  1
  Bi  Bi101  1  0.23715099  0.01263504  0.48217258  1
  Bi  Bi102  1  0.73249455  0.48638081  0.50708788  1
  Bi  Bi103  1  0.48656563  0.73074145  0.52964729  1
  Bi  Bi104  1  0.73151374  0.02766334  -0.00545576  1
  Bi  Bi105  1  0.03942027  0.21997884  0.20820131  1
  Bi  Bi106  1  0.73050632  0.25446905  -0.02987889  1
  Bi  Bi107  1  0.22697048  0.21159726  0.01122238  1
  Bi  Bi108  1  -0.01384148  0.72923514  0.26062264  1
  Bi  Bi109  1  0.00020422  0.47789945  -0.00672582  1
  Bi  Bi110  1  0.45202248  0.51368306  0.71201160  1
  Bi  Bi111  1  0.23448072  0.50584076  -0.02823449  1
  Bi  Bi112  1  0.71739347  0.74916616  -0.01581611  1
  Bi  Bi113  1  0.50343969  0.26244082  0.72612978  1
  Bi  Bi114  1  0.50127419  0.01603965  0.01564696  1
  Bi  Bi115  1  0.00414042  0.71092685  0.48491913  1
  Bi  Bi116  1  0.22357632  -0.02257872  0.73729733  1
  Bi  Bi117  1  0.77299664  0.23615108  0.24010886  1
  Bi  Bi118  1  -0.01379663  0.23572524  0.49910529  1
  Bi  Bi119  1  -0.02394337  0.48454377  0.73825729  1
  Bi  Bi120  1  0.77385100  0.47466036  0.24086468  1
  Bi  Bi121  1  -0.01488857  0.25696214  0.77031675  1
  Bi  Bi122  1  0.49211117  0.50645190  -0.02892948  1
  Bi  Bi123  1  -0.03230676  0.01735756  0.75302498  1
  Bi  Bi124  1  0.49144190  0.00496556  0.72738226  1
  O  O125  1  0.13131372  0.11531056  -0.00829027  1
  O  O126  1  0.14211622  0.14281594  0.25780519  1
  O  O127  1  0.12825869  0.09487060  0.50406009  1
  O  O128  1  0.13144774  0.14708391  0.75580426  1
  O  O129  1  0.12778884  0.41010851  -0.00252330  1
  O  O130  1  0.12626097  0.34980325  0.25764365  1
  O  O131  1  0.13647193  0.39883962  0.49871049  1
  O  O132  1  0.13331756  0.36128005  0.76017262  1
  O  O133  1  0.11520505  0.59750298  0.00588661  1
  O  O134  1  0.16133186  0.63867971  0.25883454  1
  O  O135  1  0.10134402  0.60202947  0.50511947  1
  O  O136  1  0.15972027  0.65957819  0.74431965  1
  O  O137  1  0.15131876  0.89133661  0.01434616  1
  O  O138  1  0.11349361  0.85808632  0.26054143  1
  O  O139  1  0.13191848  0.90615351  0.50242404  1
  O  O140  1  0.13484441  0.86809672  0.74302329  1
  O  O141  1  0.37131388  0.15422497  -0.00435101  1
  O  O142  1  0.35353120  0.12204821  0.24197564  1
  O  O143  1  0.40649904  0.13600859  0.50732007  1
  O  O144  1  0.36406735  0.11134945  0.76014532  1
  O  O145  1  0.38054588  0.37534925  0.01198405  1
  O  O146  1  0.39793213  0.37858586  0.26094285  1
  O  O147  1  0.37016483  0.33540274  0.50262663  1
  O  O148  1  0.35244051  0.41748075  0.75676979  1
  O  O149  1  0.39685572  0.62960250  0.00678903  1
  O  O150  1  0.33979632  0.59286669  0.24746466  1
  O  O151  1  0.40839623  0.63517007  0.48432125  1
  O  O152  1  0.36882403  0.62412494  0.75998719  1
  O  O153  1  0.37923971  0.85479668  0.00389152  1
  O  O154  1  0.37348097  0.88496836  0.25999510  1
  O  O155  1  0.38749627  0.85897587  0.50962185  1
  O  O156  1  0.37438489  0.90277724  0.75676162  1
  O  O157  1  0.64509659  0.14113562  0.00851468  1
  O  O158  1  0.61300788  0.08446183  0.23990967  1
  O  O159  1  0.64672716  0.12539485  0.50502495  1
  O  O160  1  0.61382429  0.09586673  0.76405010  1
  O  O161  1  0.62505420  0.34238412  0.01076115  1
  O  O162  1  0.58965366  0.40385415  0.25705178  1
  O  O163  1  0.64409515  0.36580960  0.50090503  1
  O  O164  1  0.61050537  0.38970927  0.75154279  1
  O  O165  1  0.62810601  0.62712382  0.00646987  1
  O  O166  1  0.64331683  0.59307664  0.24387475  1
  O  O167  1  0.60461574  0.66039934  0.48300726  1
  O  O168  1  0.67635978  0.60675435  0.74881015  1
  O  O169  1  0.61528222  0.84495258  -0.00375745  1
  O  O170  1  0.62049017  0.90035247  0.25016176  1
  O  O171  1  0.62660780  0.85258287  0.50909405  1
  O  O172  1  0.63787912  0.87593840  0.75743334  1
  O  O173  1  0.87963260  0.09575651  0.00912173  1
  O  O174  1  0.89093225  0.15350252  0.24337346  1
  O  O175  1  0.82641650  0.10862054  0.49504361  1
  O  O176  1  0.91179158  0.14361359  0.74010665  1
  O  O177  1  0.87209909  0.40622339  -0.00137206  1
  O  O178  1  0.87477611  0.37400992  0.23844169  1
  O  O179  1  0.86660956  0.41247620  0.49484391  1
  O  O180  1  0.90065180  0.36061119  0.74380521  1
  O  O181  1  0.90511825  0.60987395  0.00175229  1
  O  O182  1  0.87090766  0.65524589  0.24878318  1
  O  O183  1  0.89660168  0.61011844  0.48529568  1
  O  O184  1  0.86397843  0.65806197  0.76042428  1
  O  O185  1  0.86841499  0.90509765  0.01013409  1
  O  O186  1  0.90357490  0.85474217  0.25218316  1
  O  O187  1  0.86372142  0.88791678  0.49716628  1
  O  O188  1  0.87799880  0.84488702  0.75471698  1
  O  O189  1  -0.00235604  0.13078218  0.11556185  1
  O  O190  1  -0.00515718  0.11558821  0.40760618  1
  O  O191  1  -0.00962713  0.12426656  0.59028221  1
  O  O192  1  0.00661574  0.09153829  0.88686299  1
  O  O193  1  -0.00271997  0.39416813  0.11668202  1
  O  O194  1  0.00829395  0.39745641  0.37937372  1
  O  O195  1  0.00690915  0.40404157  0.61335632  1
  O  O196  1  0.00850178  0.39476544  0.87907815  1
  O  O197  1  0.00676170  0.62330162  0.15167881  1
  O  O198  1  0.01898945  0.62776748  0.36180182  1
  O  O199  1  0.00606279  0.62411854  0.64462865  1
  O  O200  1  0.01361731  0.62285031  0.84629793  1
  O  O201  1  0.00641671  0.87273049  0.12558984  1
  O  O202  1  0.00567161  0.89523325  0.38393460  1
  O  O203  1  -0.00433574  0.88017378  0.62583874  1
  O  O204  1  -0.00297540  0.88531478  0.90500039  1
  O  O205  1  0.25639366  0.09912335  0.10295671  1
  O  O206  1  0.25771000  0.13792847  0.40406261  1
  O  O207  1  0.25998908  0.13740726  0.62569039  1
  O  O208  1  0.25157843  0.14370715  0.87776091  1
  O  O209  1  0.26427650  0.40004031  0.16104327  1
  O  O210  1  0.25902868  0.34104859  0.37173347  1
  O  O211  1  0.24878841  0.36767840  0.63474039  1
  O  O212  1  0.24995520  0.37595145  0.88902442  1
  O  O213  1  0.25311986  0.59463414  0.11022710  1
  O  O214  1  0.25134442  0.63766908  0.41594841  1
  O  O215  1  0.24476448  0.63470466  0.59383261  1
  O  O216  1  0.25449344  0.64515853  0.90295918  1
  O  O217  1  0.24979503  0.87274876  0.15193028  1
  O  O218  1  0.25692820  0.85268396  0.38127388  1
  O  O219  1  0.25430595  0.89184247  0.62123819  1
  O  O220  1  0.25714821  0.85674735  0.87838742  1
  O  O221  1  0.50390928  0.13871909  0.10132902  1
  O  O222  1  0.50384153  0.08517021  0.36955103  1
  O  O223  1  0.49875243  0.13067232  0.65515170  1
  O  O224  1  0.49628179  0.11586488  0.89201381  1
  O  O225  1  0.50211514  0.33877062  0.13294201  1
  O  O226  1  0.49936962  0.38851788  0.40646449  1
  O  O227  1  0.48692116  0.37616645  0.64001988  1
  O  O228  1  0.49444800  0.38930701  0.88497311  1
  O  O229  1  0.51068278  0.63265225  0.14729285  1
  O  O230  1  0.50681775  0.58551601  0.34159276  1
  O  O231  1  0.50137585  0.64434381  0.64264291  1
  O  O232  1  0.49743573  0.60439675  0.86438638  1
  O  O233  1  0.49597724  0.84754572  0.14385481  1
  O  O234  1  0.50145385  0.90022219  0.37119150  1
  O  O235  1  0.50477673  0.87011118  0.64707985  1
  O  O236  1  0.50079410  0.88502772  0.86812806  1
  O  O237  1  0.75508981  0.12288706  0.14213080  1
  O  O238  1  0.74629714  0.15600758  0.34707963  1
  O  O239  1  0.75312544  0.12846279  0.68142246  1
  O  O240  1  0.73964059  0.13010650  0.88261036  1
  O  O241  1  0.74869745  0.38069454  0.12869452  1
  O  O242  1  0.74231629  0.36876962  0.34668832  1
  O  O243  1  0.73827726  0.40680263  0.63908460  1
  O  O244  1  0.73916213  0.35979747  0.87451221  1
  O  O245  1  0.75838538  0.61714941  0.10538091  1
  O  O246  1  0.74434362  0.64362413  0.38838375  1
  O  O247  1  0.74742317  0.61322414  0.59130373  1
  O  O248  1  0.76302035  0.62381003  0.90702858  1
  O  O249  1  0.75633189  0.87304888  0.15288330  1
  O  O250  1  0.75537665  0.84785936  0.34860566  1
  O  O251  1  0.75253855  0.88019600  0.63211268  1
  O  O252  1  0.75436108  0.85430432  0.88565150  1
  O  O253  1  0.12427853  -0.01112951  0.15278779  1
  O  O254  1  0.15659559  -0.00326696  0.36390176  1
  O  O255  1  0.12026586  0.00194313  0.64889378  1
  O  O256  1  0.14770422  -0.00112533  0.85856128  1
  O  O257  1  0.14624248  0.26002793  0.12302669  1
  O  O258  1  0.11885469  0.25754368  0.40442417  1
  O  O259  1  0.11263224  0.25989639  0.60424774  1
  O  O260  1  0.11188171  0.25083342  0.90058709  1
  O  O261  1  0.12278539  0.50637808  0.15986001  1
  O  O262  1  0.16088631  0.49625295  0.34683441  1
  O  O263  1  0.14514301  0.50259568  0.65637425  1
  O  O264  1  0.16314853  0.51604977  0.84991898  1
  O  O265  1  0.13445454  0.74329002  0.11024139  1
  O  O266  1  0.12190369  0.75492672  0.41022741  1
  O  O267  1  0.12304581  0.75857821  0.59571986  1
  O  O268  1  0.12017116  0.74929862  0.90693489  1
  O  O269  1  0.40423216  0.01086784  0.11368140  1
  O  O270  1  0.36476344  -0.00516100  0.40247733  1
  O  O271  1  0.39472922  0.00488011  0.62028102  1
  O  O272  1  0.36647281  0.00009222  0.90264549  1
  O  O273  1  0.36204879  0.25249023  0.12581432  1
  O  O274  1  0.41911604  0.25218335  0.36274426  1
  O  O275  1  0.38105816  0.25101501  0.65492100  1
  O  O276  1  0.37861192  0.26362266  0.85133186  1
  O  O277  1  0.42080530  0.49626851  0.13291109  1
  O  O278  1  0.36462422  0.49118127  0.41168054  1
  O  O279  1  0.37388342  0.49166795  0.59826541  1
  O  O280  1  0.36698988  0.50648163  0.89946412  1
  O  O281  1  0.36741363  0.73131906  0.14000874  1
  O  O282  1  0.40157840  0.75476556  0.34336290  1
  O  O283  1  0.36583374  0.76259104  0.65829409  1
  O  O284  1  0.39100642  0.75107498  0.86971329  1
  O  O285  1  0.62115695  0.00296641  0.08924824  1
  O  O286  1  0.65963788  -0.00187848  0.38174836  1
  O  O287  1  0.62823001  -0.00595883  0.63126567  1
  O  O288  1  0.63212697  -0.00521921  0.90199240  1
  O  O289  1  0.63594562  0.24579535  0.16756602  1
  O  O290  1  0.59300331  0.26139204  0.35829561  1
  O  O291  1  0.60963696  0.26140086  0.63612103  1
  O  O292  1  0.61721382  0.24748110  0.87152453  1
  O  O293  1  0.61284357  0.48764396  0.10897393  1
  O  O294  1  0.63528008  0.50179716  0.39975101  1
  O  O295  1  0.60814407  0.49894949  0.59750693  1
  O  O296  1  0.62851864  0.49106626  0.90241467  1
  O  O297  1  0.64662727  0.74637529  0.14188162  1
  O  O298  1  0.60443679  0.74535376  0.32394264  1
  O  O299  1  0.64559001  0.74720906  0.63732774  1
  O  O300  1  0.63494046  0.74269219  0.86545458  1
  O  O301  1  0.88213280  -0.00537710  0.15711035  1
  O  O302  1  0.85892169  -0.01125966  0.34979139  1
  O  O303  1  0.86878954  -0.00540830  0.65393997  1
  O  O304  1  0.87159259  -0.01353307  0.84850854  1
  O  O305  1  0.87387098  0.25496585  0.09032266  1
  O  O306  1  0.88029630  0.25090093  0.40109292  1
  O  O307  1  0.86552384  0.25327665  0.58248877  1
  O  O308  1  0.88733068  0.24933981  0.87182891  1
  O  O309  1  0.87904902  0.51114126  0.14818620  1
  O  O310  1  0.86375094  0.51280872  0.34485138  1
  O  O311  1  0.86942479  0.50687646  0.65774261  1
  O  O312  1  0.87406354  0.50809060  0.84462332  1
  O  O313  1  0.87929846  0.75201570  0.10049707  1
  O  O314  1  0.90445148  0.74806317  0.38398313  1
  O  O315  1  0.88464867  0.75178371  0.61273510  1
  O  O316  1  0.89625132  0.74881137  0.90066898  1
