# generated using pymatgen
data_Mg32Ti42(Bi17O64)3
_symmetry_space_group_name_H-M   'P 1'
_cell_length_a   16.03320949
_cell_length_b   15.91825172
_cell_length_c   15.94485749
_cell_angle_alpha   89.92947877
_cell_angle_beta   90.10030585
_cell_angle_gamma   90.27682540
_symmetry_Int_Tables_number   1
_chemical_formula_structural   Mg32Ti42(Bi17O64)3
_chemical_formula_sum   'Mg32 Ti42 Bi51 O192'
_cell_volume   4069.40035303
_cell_formula_units_Z   1
loop_
 _symmetry_equiv_pos_site_id
 _symmetry_equiv_pos_as_xyz
  1  'x, y, z'
loop_
 _atom_site_type_symbol
 _atom_site_label
 _atom_site_symmetry_multiplicity
 _atom_site_fract_x
 _atom_site_fract_y
 _atom_site_fract_z
 _atom_site_occupancy
  Mg  Mg0  1  0.87397523  0.37363235  0.62777428  1
  Mg  Mg1  1  0.14537091  0.63098339  0.87667973  1
  Mg  Mg2  1  0.13768262  0.88056832  0.62965786  1
  Mg  Mg3  1  0.12647053  0.62581903  0.37971209  1
  Mg  Mg4  1  0.87334593  0.61954663  0.12675169  1
  Mg  Mg5  1  0.38857530  0.62889437  0.61948754  1
  Mg  Mg6  1  0.38703278  0.87892260  0.13516413  1
  Mg  Mg7  1  0.87044210  0.62387671  0.87961384  1
  Mg  Mg8  1  0.12956996  0.37104564  0.11552563  1
  Mg  Mg9  1  0.12648740  0.88293449  0.12371897  1
  Mg  Mg10  1  0.12336592  0.13388258  0.61572381  1
  Mg  Mg11  1  0.61510774  0.86851554  0.12532025  1
  Mg  Mg12  1  0.87929707  0.87876608  0.36984653  1
  Mg  Mg13  1  0.13332107  0.62401801  0.61927182  1
  Mg  Mg14  1  0.38467938  0.12349603  0.62354438  1
  Mg  Mg15  1  0.87962754  0.13597411  0.62329914  1
  Mg  Mg16  1  0.61886957  0.36007649  0.37125525  1
  Mg  Mg17  1  0.13240707  0.61729202  0.12036458  1
  Mg  Mg18  1  0.87991679  0.12429297  0.88237333  1
  Mg  Mg19  1  0.53060836  -0.02371630  0.24802270  1
  Mg  Mg20  1  0.49434774  0.73095005  0.06478699  1
  Mg  Mg21  1  0.04772339  0.51624769  -0.01908313  1
  Mg  Mg22  1  0.79023524  -0.00256842  0.22148619  1
  Mg  Mg23  1  0.05286523  0.26194305  0.23591144  1
  Mg  Mg24  1  0.55454954  0.51376390  0.23813665  1
  Mg  Mg25  1  0.26539951  0.69755014  0.50318671  1
  Mg  Mg26  1  0.55735624  0.73268115  0.25991794  1
  Mg  Mg27  1  0.47433950  0.00054881  0.42631827  1
  Mg  Mg28  1  0.21788165  0.49401225  0.47218749  1
  Mg  Mg29  1  -0.03717262  0.24502542  0.49540803  1
  Mg  Mg30  1  0.52287665  0.18851813  0.51067375  1
  Mg  Mg31  1  0.79442934  0.21250064  0.75454942  1
  Ti  Ti32  1  0.88044781  0.36181806  0.13179146  1
  Ti  Ti33  1  0.63893408  0.62113735  0.37366121  1
  Ti  Ti34  1  0.62141411  0.35873284  0.13275816  1
  Ti  Ti35  1  0.13905257  0.37898941  0.86850559  1
  Ti  Ti36  1  0.37758747  0.63673582  0.88112211  1
  Ti  Ti37  1  0.37912161  0.36997374  0.12559093  1
  Ti  Ti38  1  0.13158335  0.12636912  0.12690894  1
  Ti  Ti39  1  0.62621749  0.38262932  0.86210715  1
  Ti  Ti40  1  0.62600798  0.11794849  0.88451903  1
  Ti  Ti41  1  0.63408728  0.86748594  0.87466608  1
  Ti  Ti42  1  0.35584056  0.85444412  0.40586953  1
  Ti  Ti43  1  0.87854635  0.12228296  0.38538298  1
  Ti  Ti44  1  0.63105124  0.11237034  0.38177490  1
  Ti  Ti45  1  0.12812749  0.37975132  0.61113339  1
  Ti  Ti46  1  0.11801171  0.13882694  0.38145118  1
  Ti  Ti47  1  0.37509717  0.87134444  0.87024388  1
  Ti  Ti48  1  0.87566338  0.62086346  0.36695727  1
  Ti  Ti49  1  0.37479132  0.62309861  0.37909628  1
  Ti  Ti50  1  0.10754195  0.37266125  0.38099790  1
  Ti  Ti51  1  0.38651393  0.12709036  0.11794366  1
  Ti  Ti52  1  0.62998700  0.62195688  0.12116851  1
  Ti  Ti53  1  0.86654865  0.36200771  0.38082696  1
  Ti  Ti54  1  0.88729632  0.87494957  0.12016186  1
  Ti  Ti55  1  0.62998049  0.87853951  0.37264072  1
  Ti  Ti56  1  0.37408922  0.88016781  0.62278719  1
  Ti  Ti57  1  0.12103750  0.86487146  0.36376731  1
  Ti  Ti58  1  0.37859891  0.38944490  0.87145559  1
  Ti  Ti59  1  0.62995002  0.63380306  0.87333948  1
  Ti  Ti60  1  0.61219538  0.87805959  0.61338190  1
  Ti  Ti61  1  0.61224305  0.11366125  0.13499110  1
  Ti  Ti62  1  0.13588044  0.87313002  0.87321312  1
  Ti  Ti63  1  0.88512200  0.62316028  0.62532870  1
  Ti  Ti64  1  0.61383071  0.36380119  0.62540125  1
  Ti  Ti65  1  0.88363973  0.37834936  0.87751794  1
  Ti  Ti66  1  0.37733111  0.62019074  0.14747896  1
  Ti  Ti67  1  0.11324471  0.12335265  0.85377464  1
  Ti  Ti68  1  0.38322457  0.37549598  0.61500681  1
  Ti  Ti69  1  0.88190609  0.86955066  0.88470386  1
  Ti  Ti70  1  0.62073579  0.11097373  0.63514634  1
  Ti  Ti71  1  0.88539567  0.12827721  0.12091144  1
  Ti  Ti72  1  0.38084917  0.38849654  0.36551888  1
  Ti  Ti73  1  0.63441817  0.62837198  0.62423696  1
  Bi  Bi74  1  0.78519924  0.77201555  0.72142438  1
  Bi  Bi75  1  0.26752618  0.49186996  0.01938755  1
  Bi  Bi76  1  0.78999997  -0.03688182  0.53179011  1
  Bi  Bi77  1  0.48310687  0.20778805  0.78309868  1
  Bi  Bi78  1  0.76512053  0.73274922  0.01017619  1
  Bi  Bi79  1  0.51296791  0.48285537  0.48064551  1
  Bi  Bi80  1  0.73746423  0.23805434  0.52442757  1
  Bi  Bi81  1  0.74938210  0.46711750  0.25330102  1
  Bi  Bi82  1  0.27482994  0.25227442  0.46981569  1
  Bi  Bi83  1  0.74397124  0.47431371  0.51963454  1
  Bi  Bi84  1  -0.01438052  -0.02538575  0.71328617  1
  Bi  Bi85  1  0.76565476  0.47899386  0.01617499  1
  Bi  Bi86  1  0.02351506  0.72220250  0.23205146  1
  Bi  Bi87  1  0.01731371  -0.00044623  0.26984776  1
  Bi  Bi88  1  0.51778800  0.74676393  0.74039577  1
  Bi  Bi89  1  -0.00854792  0.50936103  0.48364340  1
  Bi  Bi90  1  0.01269954  0.49474976  0.21417494  1
  Bi  Bi91  1  0.02553868  0.51293880  0.78031523  1
  Bi  Bi92  1  0.25904700  0.22484531  0.24452565  1
  Bi  Bi93  1  0.00654437  0.25691448  0.70831468  1
  Bi  Bi94  1  0.26255658  0.03854849  0.50057211  1
  Bi  Bi95  1  0.27455782  0.00418143  0.00011278  1
  Bi  Bi96  1  0.77758503  0.49815925  0.75556603  1
  Bi  Bi97  1  0.26690804  0.23572842  -0.04403822  1
  Bi  Bi98  1  0.49609042  0.52906710  -0.00289321  1
  Bi  Bi99  1  0.77329510  0.74329875  0.48794171  1
  Bi  Bi100  1  0.48548323  0.20757113  0.29609103  1
  Bi  Bi101  1  0.01898039  0.00313933  -0.00749710  1
  Bi  Bi102  1  0.76137191  0.79360968  0.24193729  1
  Bi  Bi103  1  0.75873190  0.20930328  0.24989509  1
  Bi  Bi104  1  0.02928148  0.74992999  0.52079932  1
  Bi  Bi105  1  0.77112625  0.00281357  0.77214660  1
  Bi  Bi106  1  0.50974907  0.27817025  -0.00938904  1
  Bi  Bi107  1  0.28210228  0.02693271  0.76448168  1
  Bi  Bi108  1  0.75914961  -0.00072128  0.01383768  1
  Bi  Bi109  1  0.75697610  0.24934227  -0.03462708  1
  Bi  Bi110  1  0.02646989  0.74787535  0.75022350  1
  Bi  Bi111  1  0.25278792  0.76811948  0.02769200  1
  Bi  Bi112  1  0.00875729  0.71366270  -0.00889491  1
  Bi  Bi113  1  0.51289575  0.73915489  0.47740450  1
  Bi  Bi114  1  0.25871084  0.25001346  0.72173198  1
  Bi  Bi115  1  0.02018075  -0.02464654  0.50791023  1
  Bi  Bi116  1  0.24612590  0.48459908  0.25468524  1
  Bi  Bi117  1  0.25225465  0.76345531  0.24546796  1
  Bi  Bi118  1  0.50907326  -0.00953343  0.76735536  1
  Bi  Bi119  1  0.03438116  0.24800644  -0.01483633  1
  Bi  Bi120  1  0.49561642  0.51776035  0.74756961  1
  Bi  Bi121  1  0.29937892  0.00158808  0.27343239  1
  Bi  Bi122  1  0.26590348  0.50529837  0.70514481  1
  Bi  Bi123  1  0.51039953  -0.02651429  0.00740414  1
  Bi  Bi124  1  0.27238467  0.74552054  0.73058568  1
  O  O125  1  0.13879762  0.16012059  0.00591063  1
  O  O126  1  0.08338132  0.12451053  0.24273679  1
  O  O127  1  0.14791572  0.15246677  0.48978426  1
  O  O128  1  0.08792363  0.11675433  0.74639954  1
  O  O129  1  0.13399684  0.35550235  -0.01060096  1
  O  O130  1  0.10981517  0.40192128  0.25862175  1
  O  O131  1  0.14622439  0.36103117  0.49635224  1
  O  O132  1  0.11121705  0.40164948  0.74930141  1
  O  O133  1  0.11961452  0.63369545  -0.00098484  1
  O  O134  1  0.10030029  0.60199710  0.25152455  1
  O  O135  1  0.13607395  0.67048243  0.49845522  1
  O  O136  1  0.11226699  0.61757222  0.75070566  1
  O  O137  1  0.15376405  0.86042659  -0.00404876  1
  O  O138  1  0.11519179  0.91136829  0.24720902  1
  O  O139  1  0.11906821  0.86413477  0.48511254  1
  O  O140  1  0.08909303  0.88240856  0.75816518  1
  O  O141  1  0.33753915  0.13414014  0.00755390  1
  O  O142  1  0.38273329  0.12190420  0.24144404  1
  O  O143  1  0.35025521  0.14618602  0.50420199  1
  O  O144  1  0.39640532  0.09802276  0.74599244  1
  O  O145  1  0.35232025  0.36253241  0.00720326  1
  O  O146  1  0.37250408  0.40750448  0.24933821  1
  O  O147  1  0.36587143  0.35819177  0.50288440  1
  O  O148  1  0.38536548  0.41301034  0.75903268  1
  O  O149  1  0.41640663  0.64806604  -0.00218545  1
  O  O150  1  0.34907107  0.60420325  0.25799432  1
  O  O151  1  0.39317204  0.65578277  0.49594494  1
  O  O152  1  0.37882506  0.59661203  0.75860838  1
  O  O153  1  0.34295297  0.86275679  -0.01405764  1
  O  O154  1  0.41206696  0.93065904  0.24971825  1
  O  O155  1  0.32746046  0.82746445  0.51213076  1
  O  O156  1  0.38864620  0.91058901  0.74678561  1
  O  O157  1  0.64153892  0.11238067  0.00129862  1
  O  O158  1  0.57653325  0.10846599  0.25076568  1
  O  O159  1  0.64115070  0.12428202  0.49722559  1
  O  O160  1  0.60471312  0.13116338  0.74677922  1
  O  O161  1  0.62627648  0.35624113  0.00863248  1
  O  O162  1  0.61669572  0.39790890  0.24880888  1
  O  O163  1  0.62417968  0.39640120  0.49851268  1
  O  O164  1  0.61099193  0.37558223  0.74598313  1
  O  O165  1  0.59594008  0.63588020  0.00632727  1
  O  O166  1  0.63183670  0.62189922  0.25297957  1
  O  O167  1  0.61470201  0.62874608  0.50014679  1
  O  O168  1  0.63563022  0.63482576  0.75530115  1
  O  O169  1  0.63562381  0.89604457  -0.01029298  1
  O  O170  1  0.58605803  0.86144111  0.26180630  1
  O  O171  1  0.63365569  0.87295039  0.49715207  1
  O  O172  1  0.59707373  0.87092319  0.74826314  1
  O  O173  1  0.83894682  0.13073968  0.00992677  1
  O  O174  1  0.86804568  0.10710004  0.24690358  1
  O  O175  1  0.85525465  0.16075508  0.49597217  1
  O  O176  1  0.86948886  0.10320415  0.75457583  1
  O  O177  1  0.84772401  0.35821174  0.00558419  1
  O  O178  1  0.87007017  0.39278340  0.25003501  1
  O  O179  1  0.86632273  0.34141055  0.49705383  1
  O  O180  1  0.87907741  0.40459078  0.76065609  1
  O  O181  1  0.87483296  0.65739163  0.00297570  1
  O  O182  1  0.88597387  0.60770539  0.25488902  1
  O  O183  1  0.86215978  0.64196353  0.50679402  1
  O  O184  1  0.86785263  0.60112775  0.75080020  1
  O  O185  1  0.84376497  0.86833624  0.00359587  1
  O  O186  1  0.86914319  0.89113789  0.24314070  1
  O  O187  1  0.85767347  0.85391204  0.49285484  1
  O  O188  1  0.87743675  0.90026011  0.76157488  1
  O  O189  1  -0.00647127  0.14046765  0.09958000  1
  O  O190  1  -0.00967050  0.15527958  0.39770691  1
  O  O191  1  0.00089054  0.17673946  0.59818455  1
  O  O192  1  0.00203018  0.12201167  0.90920416  1
  O  O193  1  -0.00718154  0.34131215  0.14203677  1
  O  O194  1  -0.00416513  0.35527613  0.39695716  1
  O  O195  1  0.01000077  0.36849485  0.61010872  1
  O  O196  1  -0.00776904  0.40343467  0.90003322  1
  O  O197  1  -0.00204549  0.64409323  0.12010965  1
  O  O198  1  -0.00936115  0.62729022  0.40188693  1
  O  O199  1  -0.00260049  0.60808801  0.60578801  1
  O  O200  1  -0.00591236  0.60107424  0.89782097  1
  O  O201  1  -0.00345716  0.86720342  0.10682377  1
  O  O202  1  0.00401049  0.87513663  0.36444988  1
  O  O203  1  0.00544519  0.88458952  0.61224584  1
  O  O204  1  -0.00686347  0.89092352  0.90501510  1
  O  O205  1  0.24371484  0.11373368  0.15261102  1
  O  O206  1  0.23381490  0.12778691  0.35019232  1
  O  O207  1  0.25226249  0.12994149  0.65293223  1
  O  O208  1  0.23250771  0.13679084  0.85122419  1
  O  O209  1  0.25097099  0.40385921  0.13780719  1
  O  O210  1  0.25262846  0.41104355  0.37516456  1
  O  O211  1  0.25890952  0.37283934  0.64601878  1
  O  O212  1  0.25159296  0.37283128  0.86018879  1
  O  O213  1  0.25802189  0.60363179  0.11138400  1
  O  O214  1  0.25672460  0.60225603  0.41110610  1
  O  O215  1  0.26078794  0.64963317  0.62502806  1
  O  O216  1  0.26660201  0.64578581  0.88871166  1
  O  O217  1  0.25874030  0.86087183  0.13818078  1
  O  O218  1  0.24640395  0.87617015  0.34060379  1
  O  O219  1  0.25663059  0.86020506  0.65847449  1
  O  O220  1  0.24475042  0.86540092  0.84436106  1
  O  O221  1  0.49481168  0.14510640  0.09614544  1
  O  O222  1  0.49519594  0.12676033  0.40562142  1
  O  O223  1  0.50784145  0.11237377  0.60499051  1
  O  O224  1  0.50676423  0.10650151  0.87690455  1
  O  O225  1  0.49582526  0.36440969  0.11789809  1
  O  O226  1  0.49284774  0.37016920  0.39093207  1
  O  O227  1  0.49976698  0.40225439  0.61617222  1
  O  O228  1  0.49740170  0.38928547  0.89863047  1
  O  O229  1  0.49488031  0.61114178  0.15494264  1
  O  O230  1  0.49261415  0.66531132  0.35775104  1
  O  O231  1  0.51152400  0.61668286  0.64717739  1
  O  O232  1  0.50578768  0.60076804  0.86391789  1
  O  O233  1  0.49404566  0.85756932  0.07703280  1
  O  O234  1  0.47097424  0.86746230  0.41397479  1
  O  O235  1  0.49413718  0.89008663  0.60696406  1
  O  O236  1  0.49210227  0.89777138  0.87978521  1
  O  O237  1  0.72609925  0.09389395  0.15713362  1
  O  O238  1  0.74223102  0.10675138  0.35395185  1
  O  O239  1  0.73925148  0.15963758  0.63844354  1
  O  O240  1  0.73941323  0.15143520  0.85403945  1
  O  O241  1  0.74262541  0.38369608  0.13952446  1
  O  O242  1  0.74845176  0.38707232  0.36880945  1
  O  O243  1  0.73738075  0.36496548  0.61245323  1
  O  O244  1  0.73718506  0.35357781  0.86712866  1
  O  O245  1  0.74480182  0.62143014  0.10299861  1
  O  O246  1  0.74919083  0.60007312  0.38307703  1
  O  O247  1  0.74763660  0.66545089  0.62590852  1
  O  O248  1  0.74196752  0.64341958  0.89968832  1
  O  O249  1  0.73585524  0.89739246  0.15086035  1
  O  O250  1  0.73868685  0.89552002  0.34877747  1
  O  O251  1  0.74249563  0.86733107  0.63150068  1
  O  O252  1  0.74493963  0.86233363  0.85384777  1
  O  O253  1  0.11725142  0.01068556  0.09574389  1
  O  O254  1  0.10111774  0.01756011  0.37998650  1
  O  O255  1  0.11902037  0.00661383  0.59755203  1
  O  O256  1  0.12284005  0.00403358  0.89563374  1
  O  O257  1  0.14056435  0.24957080  0.15044660  1
  O  O258  1  0.12761074  0.26012670  0.34193903  1
  O  O259  1  0.14133700  0.26279888  0.64627888  1
  O  O260  1  0.10344153  0.25366804  0.86134963  1
  O  O261  1  0.08976664  0.49243374  0.10032148  1
  O  O262  1  0.10676154  0.49716843  0.40633224  1
  O  O263  1  0.16177478  0.49890334  0.59317508  1
  O  O264  1  0.12872635  0.49872379  0.88381361  1
  O  O265  1  0.13237232  0.74870266  0.15377153  1
  O  O266  1  0.12986226  0.75148560  0.33505165  1
  O  O267  1  0.10670766  0.75263352  0.63903476  1
  O  O268  1  0.10801591  0.75557255  0.86604149  1
  O  O269  1  0.38079391  0.00620824  0.09179159  1
  O  O270  1  0.35244588  -0.01387480  0.40541408  1
  O  O271  1  0.35385507  -0.00723394  0.59350640  1
  O  O272  1  0.34852474  -0.00630747  0.88728808  1
  O  O273  1  0.36062790  0.25366703  0.13987876  1
  O  O274  1  0.35432808  0.26862869  0.35656158  1
  O  O275  1  0.38384894  0.26025494  0.65344528  1
  O  O276  1  0.38294941  0.26448364  0.87277051  1
  O  O277  1  0.38307510  0.50050024  0.09454170  1
  O  O278  1  0.39852087  0.50703747  0.39380620  1
  O  O279  1  0.36214857  0.50039856  0.61131945  1
  O  O280  1  0.36989369  0.50517423  0.91295032  1
  O  O281  1  0.37740961  0.73817202  0.13848647  1
  O  O282  1  0.34351735  0.74636469  0.36093266  1
  O  O283  1  0.39369835  0.75724714  0.66162586  1
  O  O284  1  0.39078955  0.75385614  0.84665671  1
  O  O285  1  0.58078405  -0.00245002  0.13128377  1
  O  O286  1  0.58632979  -0.00766163  0.36987843  1
  O  O287  1  0.64156946  -0.00190520  0.63600955  1
  O  O288  1  0.63995070  0.00192889  0.85736777  1
  O  O289  1  0.62891720  0.24412816  0.14380697  1
  O  O290  1  0.62158207  0.23271760  0.36427161  1
  O  O291  1  0.59742701  0.25548483  0.59568715  1
  O  O292  1  0.59361770  0.24877340  0.88128077  1
  O  O293  1  0.61633518  0.50306956  0.12344357  1
  O  O294  1  0.59039561  0.51342168  0.36765483  1
  O  O295  1  0.65519428  0.51248334  0.62333794  1
  O  O296  1  0.63954372  0.49719006  0.87925409  1
  O  O297  1  0.60421598  0.74095537  0.13816313  1
  O  O298  1  0.63170182  0.74934667  0.37410346  1
  O  O299  1  0.60116811  0.75600523  0.62550435  1
  O  O300  1  0.60653365  0.75239578  0.87684585  1
  O  O301  1  0.87166248  0.00156434  0.11165343  1
  O  O302  1  0.88114039  0.00861456  0.40242316  1
  O  O303  1  0.89348674  0.01298895  0.60061931  1
  O  O304  1  0.84080157  -0.00056751  0.89438300  1
  O  O305  1  0.84950983  0.24276104  0.14247188  1
  O  O306  1  0.85361199  0.24885788  0.34861252  1
  O  O307  1  0.87348736  0.25693177  0.66948107  1
  O  O308  1  0.87066882  0.25606488  0.87143018  1
  O  O309  1  0.87483245  0.48787955  0.10368601  1
  O  O310  1  0.88376326  0.49369094  0.39715730  1
  O  O311  1  0.84419457  0.50118273  0.61956670  1
  O  O312  1  0.83754974  0.49348290  0.89377252  1
  O  O313  1  0.85105417  0.75971139  0.13803890  1
  O  O314  1  0.84785946  0.74119100  0.36384411  1
  O  O315  1  0.89729456  0.73896627  0.65195024  1
  O  O316  1  0.88779990  0.75758494  0.86131551  1
