# generated using pymatgen
data_Mg32Ti42(Bi17O64)3
_symmetry_space_group_name_H-M   'P 1'
_cell_length_a   15.95796880
_cell_length_b   15.95494773
_cell_length_c   15.95321140
_cell_angle_alpha   90.04089017
_cell_angle_beta   90.01549406
_cell_angle_gamma   90.02138902
_symmetry_Int_Tables_number   1
_chemical_formula_structural   Mg32Ti42(Bi17O64)3
_chemical_formula_sum   'Mg32 Ti42 Bi51 O192'
_cell_volume   4061.82268537
_cell_formula_units_Z   1
loop_
 _symmetry_equiv_pos_site_id
 _symmetry_equiv_pos_as_xyz
  1  'x, y, z'
loop_
 _atom_site_type_symbol
 _atom_site_label
 _atom_site_symmetry_multiplicity
 _atom_site_fract_x
 _atom_site_fract_y
 _atom_site_fract_z
 _atom_site_occupancy
  Mg  Mg0  1  0.62911424  0.38682025  0.11871634  1
  Mg  Mg1  1  0.14017710  0.87833358  0.37967984  1
  Mg  Mg2  1  0.86997661  0.62640109  0.12753054  1
  Mg  Mg3  1  0.38282809  0.62776302  0.88098340  1
  Mg  Mg4  1  0.37343348  0.87333097  0.13036554  1
  Mg  Mg5  1  0.12829159  0.12430257  0.12816418  1
  Mg  Mg6  1  0.38413486  0.62172592  0.12527309  1
  Mg  Mg7  1  0.86545883  0.37302026  0.61675771  1
  Mg  Mg8  1  0.13853047  0.11916708  0.62940859  1
  Mg  Mg9  1  0.61347518  0.61686773  0.62251190  1
  Mg  Mg10  1  0.86341113  0.12243804  0.61574580  1
  Mg  Mg11  1  0.12477848  0.36845153  0.12205585  1
  Mg  Mg12  1  0.36344052  0.62880229  0.38402903  1
  Mg  Mg13  1  0.11488768  0.87373363  0.87824700  1
  Mg  Mg14  1  0.62587762  0.12144046  0.11725180  1
  Mg  Mg15  1  0.36629507  0.12087743  0.36710095  1
  Mg  Mg16  1  0.62610613  0.62140173  0.87750768  1
  Mg  Mg17  1  0.87866396  0.37617205  0.11964055  1
  Mg  Mg18  1  0.37332530  0.37844296  0.62899966  1
  Mg  Mg19  1  0.29890057  0.23283870  -0.01064234  1
  Mg  Mg20  1  0.48548698  -0.00707765  0.80617848  1
  Mg  Mg21  1  0.78101313  0.50193942  0.03531081  1
  Mg  Mg22  1  0.76133986  0.19757752  0.80517399  1
  Mg  Mg23  1  0.45645036  0.52334470  0.27634776  1
  Mg  Mg24  1  0.75042698  -0.05335096  0.49886012  1
  Mg  Mg25  1  0.25083487  -0.05789147  0.52142435  1
  Mg  Mg26  1  0.49446777  0.51853700  0.77479163  1
  Mg  Mg27  1  -0.03768057  0.75413244  0.70250354  1
  Mg  Mg28  1  0.23529421  0.54920172  0.03897440  1
  Mg  Mg29  1  0.47620704  0.75612821  0.04389713  1
  Mg  Mg30  1  -0.04983147  0.00488898  -0.05251293  1
  Mg  Mg31  1  0.24879064  0.76415256  0.56555997  1
  Ti  Ti32  1  0.37571958  0.37752757  0.37489807  1
  Ti  Ti33  1  0.13193937  0.36548844  0.62845804  1
  Ti  Ti34  1  0.37034080  0.88975397  0.37651597  1
  Ti  Ti35  1  0.38148758  0.88314966  0.63909664  1
  Ti  Ti36  1  0.88925190  0.12904193  0.37383383  1
  Ti  Ti37  1  0.12842790  0.36859251  0.37684366  1
  Ti  Ti38  1  0.88540803  0.88224164  0.13007602  1
  Ti  Ti39  1  0.13288317  0.12951528  0.37624368  1
  Ti  Ti40  1  0.11486691  0.36433861  0.89035110  1
  Ti  Ti41  1  0.87231939  0.11388095  0.13137229  1
  Ti  Ti42  1  0.38055610  0.37321136  0.87453176  1
  Ti  Ti43  1  0.62031855  0.86772805  0.87280028  1
  Ti  Ti44  1  0.62627780  0.87104263  0.62882422  1
  Ti  Ti45  1  0.87577322  0.87058718  0.36664188  1
  Ti  Ti46  1  0.87970995  0.62305648  0.61536088  1
  Ti  Ti47  1  0.12716972  0.13041686  0.86973547  1
  Ti  Ti48  1  0.12162005  0.63524746  0.63467512  1
  Ti  Ti49  1  0.87712715  0.61734396  0.37685409  1
  Ti  Ti50  1  0.37258970  0.62706084  0.63759563  1
  Ti  Ti51  1  0.85823456  0.38653276  0.88149209  1
  Ti  Ti52  1  0.61263732  0.38201523  0.36450470  1
  Ti  Ti53  1  0.62511598  0.61667413  0.12100645  1
  Ti  Ti54  1  0.87002575  0.87775456  0.61121124  1
  Ti  Ti55  1  0.13078658  0.61946360  0.38337413  1
  Ti  Ti56  1  0.86898457  0.62237269  0.87554644  1
  Ti  Ti57  1  0.88217530  0.86691951  0.86531002  1
  Ti  Ti58  1  0.38318653  0.12233805  0.87870102  1
  Ti  Ti59  1  0.61718815  0.85882581  0.13406573  1
  Ti  Ti60  1  0.12281914  0.87993905  0.12183251  1
  Ti  Ti61  1  0.61830489  0.86754216  0.37592920  1
  Ti  Ti62  1  0.63237862  0.11936407  0.62904606  1
  Ti  Ti63  1  0.11966757  0.87313578  0.63384156  1
  Ti  Ti64  1  0.87242502  0.36631261  0.38444864  1
  Ti  Ti65  1  0.37677126  0.38835338  0.12197113  1
  Ti  Ti66  1  0.37878101  0.11106131  0.62944672  1
  Ti  Ti67  1  0.62083416  0.36654733  0.86999228  1
  Ti  Ti68  1  0.61689092  0.12416010  0.88026480  1
  Ti  Ti69  1  0.62093492  0.61654001  0.36967036  1
  Ti  Ti70  1  0.37996933  0.86292091  0.88127247  1
  Ti  Ti71  1  0.37684080  0.11648140  0.12555575  1
  Ti  Ti72  1  0.11318722  0.62539453  0.87506211  1
  Ti  Ti73  1  0.61951740  0.36886540  0.62285148  1
  Bi  Bi74  1  0.24574859  0.50767656  0.52237171  1
  Bi  Bi75  1  0.72767562  0.72002170  0.50216663  1
  Bi  Bi76  1  0.52551929  0.23277230  0.23984539  1
  Bi  Bi77  1  0.02888291  0.75812430  0.47327064  1
  Bi  Bi78  1  0.24788463  0.72934848  0.78192896  1
  Bi  Bi79  1  0.24324004  0.48159731  0.24205006  1
  Bi  Bi80  1  0.71832927  0.48400464  0.74918172  1
  Bi  Bi81  1  0.00327684  0.24607512  0.23435894  1
  Bi  Bi82  1  0.75955760  0.48896112  0.24355598  1
  Bi  Bi83  1  0.51818294  0.72394597  0.75972465  1
  Bi  Bi84  1  -0.00571727  0.74057156  0.00392485  1
  Bi  Bi85  1  0.73859752  0.02004870  0.29130491  1
  Bi  Bi86  1  0.74227745  0.00345055  0.78354289  1
  Bi  Bi87  1  -0.05168248  0.25221339  0.75996945  1
  Bi  Bi88  1  0.49338583  0.52523659  0.00799720  1
  Bi  Bi89  1  0.75377190  0.72220316  0.74123964  1
  Bi  Bi90  1  0.23394480  0.02966619  -0.00393979  1
  Bi  Bi91  1  0.24200782  0.75631524  0.00197354  1
  Bi  Bi92  1  0.01989027  0.01622318  0.51604775  1
  Bi  Bi93  1  0.72035938  0.21269284  0.47553813  1
  Bi  Bi94  1  0.50304468  0.25168475  0.71981956  1
  Bi  Bi95  1  -0.00515049  0.19902263  0.00217347  1
  Bi  Bi96  1  0.27517349  0.24124102  0.74819903  1
  Bi  Bi97  1  0.50867105  0.27599000  0.01836161  1
  Bi  Bi98  1  0.23731570  0.47697860  0.78950244  1
  Bi  Bi99  1  0.00250397  0.23414734  0.53457614  1
  Bi  Bi100  1  0.46335359  0.76130414  0.50118736  1
  Bi  Bi101  1  0.52387106  -0.00794536  0.50977909  1
  Bi  Bi102  1  0.23537061  -0.01726131  0.77051321  1
  Bi  Bi103  1  0.03911251  0.52383613  0.03000968  1
  Bi  Bi104  1  0.72364657  0.47269239  0.50208465  1
  Bi  Bi105  1  0.26032548  0.24427000  0.21675943  1
  Bi  Bi106  1  0.46974002  0.50204345  0.50366852  1
  Bi  Bi107  1  0.01640308  -0.00680989  0.27878609  1
  Bi  Bi108  1  0.74689682  0.26469007  0.23579649  1
  Bi  Bi109  1  0.51545189  0.02975541  0.27457973  1
  Bi  Bi110  1  0.02237606  0.71818165  0.24879402  1
  Bi  Bi111  1  0.76752649  0.24731725  0.01260861  1
  Bi  Bi112  1  0.46287007  0.74174340  0.26281508  1
  Bi  Bi113  1  0.50894906  0.22568496  0.46877896  1
  Bi  Bi114  1  0.51522358  -0.01581522  0.01938797  1
  Bi  Bi115  1  0.27848153  0.22823111  0.49936742  1
  Bi  Bi116  1  0.24234483  -0.01083024  0.24065469  1
  Bi  Bi117  1  0.76430066  0.74054993  0.01253494  1
  Bi  Bi118  1  0.00642172  0.47807324  0.25717914  1
  Bi  Bi119  1  0.23630184  0.72700343  0.21578392  1
  Bi  Bi120  1  0.01181604  0.48188214  0.51409408  1
  Bi  Bi121  1  -0.03456426  0.03126429  0.74995232  1
  Bi  Bi122  1  0.75193639  0.72796647  0.26095218  1
  Bi  Bi123  1  0.74504596  -0.02591283  0.01897101  1
  Bi  Bi124  1  -0.01905694  0.47335127  0.74979891  1
  O  O125  1  0.11907602  0.11794623  0.00003832  1
  O  O126  1  0.15340579  0.09446748  0.25845417  1
  O  O127  1  0.09785427  0.13279547  0.49278163  1
  O  O128  1  0.15348530  0.10370532  0.75632206  1
  O  O129  1  0.09986901  0.35294366  -0.00108425  1
  O  O130  1  0.12818266  0.40634563  0.25822859  1
  O  O131  1  0.10120048  0.37224584  0.49343225  1
  O  O132  1  0.14361204  0.38550423  0.74238866  1
  O  O133  1  0.13238531  0.61943701  -0.00686039  1
  O  O134  1  0.12149710  0.62130058  0.25875904  1
  O  O135  1  0.10867021  0.65114688  0.50252524  1
  O  O136  1  0.14157800  0.61705529  0.75102488  1
  O  O137  1  0.12972551  0.85709350  0.00810879  1
  O  O138  1  0.13297246  0.90334651  0.25320105  1
  O  O139  1  0.15083200  0.83987671  0.50622390  1
  O  O140  1  0.12285100  0.90347403  0.74676417  1
  O  O141  1  0.39721240  0.14778032  -0.00546839  1
  O  O142  1  0.34412575  0.11357293  0.23940375  1
  O  O143  1  0.39264725  0.14906131  0.50301031  1
  O  O144  1  0.34987139  0.11271527  0.74748339  1
  O  O145  1  0.37101707  0.34098661  -0.00583803  1
  O  O146  1  0.37804685  0.42607004  0.24012593  1
  O  O147  1  0.39932430  0.37248989  0.49113919  1
  O  O148  1  0.33904097  0.37632498  0.75489908  1
  O  O149  1  0.42639733  0.64447978  0.00258472  1
  O  O150  1  0.37613623  0.62175895  0.25357740  1
  O  O151  1  0.40508234  0.63206414  0.50789027  1
  O  O152  1  0.34132099  0.61626435  0.74648252  1
  O  O153  1  0.37210642  0.83301912  -0.00646691  1
  O  O154  1  0.38400038  0.87347847  0.26055962  1
  O  O155  1  0.35588496  0.85355034  0.50122315  1
  O  O156  1  0.40387098  0.91106257  0.74645543  1
  O  O157  1  0.59812173  0.11539045  -0.00901615  1
  O  O158  1  0.62260225  0.12838975  0.24443628  1
  O  O159  1  0.60207640  0.12979255  0.49698850  1
  O  O160  1  0.66499515  0.13746915  0.73825175  1
  O  O161  1  0.61126894  0.37490134  -0.01507287  1
  O  O162  1  0.65320390  0.37959980  0.24915760  1
  O  O163  1  0.60632219  0.39305653  0.49308240  1
  O  O164  1  0.65201489  0.36080136  0.73707399  1
  O  O165  1  0.61498105  0.60482126  0.00307878  1
  O  O166  1  0.64663740  0.63333488  0.25099873  1
  O  O167  1  0.62956899  0.62128969  0.49565209  1
  O  O168  1  0.63657050  0.64686568  0.74322148  1
  O  O169  1  0.62541639  0.89755318  -0.01030071  1
  O  O170  1  0.61825296  0.85634643  0.24877959  1
  O  O171  1  0.63423243  0.90131418  0.49373581  1
  O  O172  1  0.62143658  0.86375453  0.74277613  1
  O  O173  1  0.90285438  0.09917267  0.01182757  1
  O  O174  1  0.86157769  0.15993359  0.24296698  1
  O  O175  1  0.91258749  0.11871082  0.48880578  1
  O  O176  1  0.86638577  0.13569577  0.74633880  1
  O  O177  1  0.85610345  0.40357933  -0.00573818  1
  O  O178  1  0.84200503  0.36384459  0.25474302  1
  O  O179  1  0.90093008  0.39274630  0.49496141  1
  O  O180  1  0.87878516  0.37595384  0.74467756  1
  O  O181  1  0.83734819  0.61034355  -0.00396300  1
  O  O182  1  0.86675768  0.64829323  0.25468902  1
  O  O183  1  0.88291147  0.61166130  0.50116245  1
  O  O184  1  0.88297996  0.66109606  0.75661749  1
  O  O185  1  0.87046414  0.91342609  0.00762894  1
  O  O186  1  0.86675941  0.85681079  0.24517920  1
  O  O187  1  0.87062059  0.90575574  0.49826872  1
  O  O188  1  0.88787785  0.84420671  0.75412106  1
  O  O189  1  -0.00128904  0.13640393  0.13941749  1
  O  O190  1  0.00586313  0.13776205  0.33639621  1
  O  O191  1  0.00833061  0.11304672  0.62636940  1
  O  O192  1  0.01092905  0.10480853  0.87494197  1
  O  O193  1  -0.00223552  0.38618154  0.15405602  1
  O  O194  1  -0.00260849  0.37368769  0.34761206  1
  O  O195  1  0.01062537  0.39478004  0.63034500  1
  O  O196  1  -0.00514323  0.37502802  0.85777127  1
  O  O197  1  -0.00766390  0.63215238  0.10055687  1
  O  O198  1  -0.00668961  0.64485678  0.37527826  1
  O  O199  1  0.00422777  0.64862832  0.63937703  1
  O  O200  1  -0.00361364  0.63153297  0.90095960  1
  O  O201  1  0.00050541  0.88943182  0.13181052  1
  O  O202  1  -0.00570880  0.87954639  0.36784658  1
  O  O203  1  0.00435374  0.85951127  0.62385850  1
  O  O204  1  -0.00806311  0.89228539  0.89278732  1
  O  O205  1  0.26181987  0.16344107  0.09646269  1
  O  O206  1  0.24602848  0.12922008  0.40559311  1
  O  O207  1  0.25987690  0.14149518  0.60429760  1
  O  O208  1  0.25454978  0.13963953  0.90500008  1
  O  O209  1  0.25425566  0.36964149  0.14805221  1
  O  O210  1  0.24958751  0.39808296  0.36771643  1
  O  O211  1  0.24497534  0.38065099  0.59386229  1
  O  O212  1  0.24113727  0.38116590  0.88700436  1
  O  O213  1  0.26139488  0.65363572  0.10329077  1
  O  O214  1  0.24149039  0.61628752  0.38984869  1
  O  O215  1  0.25145076  0.63633472  0.59555511  1
  O  O216  1  0.25632763  0.64191779  0.89319455  1
  O  O217  1  0.24850797  0.84355978  0.13087431  1
  O  O218  1  0.25812753  0.92384560  0.38706556  1
  O  O219  1  0.26141001  0.87487475  0.63629299  1
  O  O220  1  0.26034799  0.86340833  0.85874047  1
  O  O221  1  0.49204672  0.12495798  0.14631798  1
  O  O222  1  0.48898342  0.14495654  0.35061757  1
  O  O223  1  0.49656966  0.12177950  0.64577988  1
  O  O224  1  0.49730439  0.12039023  0.84249513  1
  O  O225  1  0.49584903  0.38918769  0.10628837  1
  O  O226  1  0.49977027  0.38825457  0.34435081  1
  O  O227  1  0.50206565  0.37983812  0.65323599  1
  O  O228  1  0.49911225  0.35073314  0.85723414  1
  O  O229  1  0.51419743  0.57523515  0.14396980  1
  O  O230  1  0.50888996  0.61579648  0.35477179  1
  O  O231  1  0.49042903  0.60519700  0.66649916  1
  O  O232  1  0.50233175  0.62222597  0.84398587  1
  O  O233  1  0.49980439  0.87603851  0.10207931  1
  O  O234  1  0.50468365  0.86802390  0.39797960  1
  O  O235  1  0.50134874  0.88038799  0.59978103  1
  O  O236  1  0.49897322  0.89224439  0.88572687  1
  O  O237  1  0.75454945  0.13949966  0.10203847  1
  O  O238  1  0.76444801  0.11517203  0.38870735  1
  O  O239  1  0.74207572  0.12460507  0.58354789  1
  O  O240  1  0.73694002  0.10101237  0.88447691  1
  O  O241  1  0.75001578  0.33759589  0.11450835  1
  O  O242  1  0.75374294  0.37905567  0.39966091  1
  O  O243  1  0.74193001  0.36658636  0.58881175  1
  O  O244  1  0.74289772  0.40031377  0.86900484  1
  O  O245  1  0.74516443  0.66628448  0.12843224  1
  O  O246  1  0.75596415  0.63476599  0.38129545  1
  O  O247  1  0.75911657  0.63504028  0.62618638  1
  O  O248  1  0.75280569  0.63973625  0.85681719  1
  O  O249  1  0.73955963  0.86192966  0.10715461  1
  O  O250  1  0.75171439  0.90566247  0.37558647  1
  O  O251  1  0.74920921  0.88349835  0.61342455  1
  O  O252  1  0.74561929  0.88742064  0.87546144  1
  O  O253  1  0.15891203  -0.00328814  0.11878032  1
  O  O254  1  0.09860610  0.00808251  0.39113241  1
  O  O255  1  0.14184350  -0.01217103  0.58847273  1
  O  O256  1  0.15707382  -0.00181645  0.88583024  1
  O  O257  1  0.12370207  0.24737332  0.16325116  1
  O  O258  1  0.13212367  0.25448167  0.35948100  1
  O  O259  1  0.11637784  0.25191114  0.62599231  1
  O  O260  1  0.11794480  0.24658819  0.86061126  1
  O  O261  1  0.14599680  0.49426518  0.10692371  1
  O  O262  1  0.10367417  0.50491740  0.39471532  1
  O  O263  1  0.13064553  0.51341060  0.60430197  1
  O  O264  1  0.11805241  0.49811628  0.87481994  1
  O  O265  1  0.11581819  0.75901037  0.15348005  1
  O  O266  1  0.11252337  0.75289553  0.35943596  1
  O  O267  1  0.14472411  0.75341930  0.64791498  1
  O  O268  1  0.12555688  0.74451714  0.86550791  1
  O  O269  1  0.36825297  0.00292446  0.10592627  1
  O  O270  1  0.41018807  0.00041196  0.38037208  1
  O  O271  1  0.36883868  -0.00163970  0.59451458  1
  O  O272  1  0.37548979  0.00433592  0.88701267  1
  O  O273  1  0.38767770  0.26395378  0.14835235  1
  O  O274  1  0.36093692  0.26329438  0.36498396  1
  O  O275  1  0.37929646  0.24908801  0.64981191  1
  O  O276  1  0.36506322  0.24565822  0.85409288  1
  O  O277  1  0.35130508  0.49941569  0.07898275  1
  O  O278  1  0.38686292  0.50357977  0.39261242  1
  O  O279  1  0.36462084  0.50449192  0.60232876  1
  O  O280  1  0.39877008  0.48926493  0.86996753  1
  O  O281  1  0.39948121  0.74686999  0.14369170  1
  O  O282  1  0.38255021  0.75418759  0.37599240  1
  O  O283  1  0.38132819  0.75238511  0.63079717  1
  O  O284  1  0.38836998  0.75571781  0.83950471  1
  O  O285  1  0.61936711  -0.00904001  0.11992106  1
  O  O286  1  0.61693945  -0.00519507  0.35815213  1
  O  O287  1  0.61764340  0.00275229  0.62053093  1
  O  O288  1  0.61132588  0.00320338  0.84283470  1
  O  O289  1  0.60383857  0.25315896  0.11996453  1
  O  O290  1  0.62095667  0.26355806  0.37285706  1
  O  O291  1  0.60129615  0.24822337  0.61152764  1
  O  O292  1  0.64658460  0.24446903  0.87110628  1
  O  O293  1  0.68001626  0.50531364  0.11893865  1
  O  O294  1  0.63970171  0.50235714  0.37085922  1
  O  O295  1  0.63772341  0.49321637  0.62928894  1
  O  O296  1  0.60683190  0.48986343  0.83211426  1
  O  O297  1  0.59356159  0.74388240  0.10537047  1
  O  O298  1  0.63985515  0.75225467  0.38758923  1
  O  O299  1  0.62377567  0.75715271  0.59987115  1
  O  O300  1  0.60916300  0.75575135  0.87692789  1
  O  O301  1  0.85417836  0.00142050  0.15046104  1
  O  O302  1  0.88512467  0.01129750  0.34487112  1
  O  O303  1  0.87768083  -0.00716247  0.64777946  1
  O  O304  1  0.87103026  -0.00967812  0.84744747  1
  O  O305  1  0.88590123  0.24891435  0.08433346  1
  O  O306  1  0.87310377  0.25162784  0.39205081  1
  O  O307  1  0.89679877  0.24905824  0.62499253  1
  O  O308  1  0.85207998  0.26444915  0.86822192  1
  O  O309  1  0.85221540  0.50105408  0.14067697  1
  O  O310  1  0.88012281  0.50430640  0.35424387  1
  O  O311  1  0.88443377  0.51129075  0.64369585  1
  O  O312  1  0.87837974  0.50866233  0.85035416  1
  O  O313  1  0.88179404  0.76245196  0.09065635  1
  O  O314  1  0.86400177  0.76190209  0.39209454  1
  O  O315  1  0.87256014  0.75732098  0.61056985  1
  O  O316  1  0.87906663  0.75383135  0.91367298  1
