# generated using pymatgen
data_Mg32Ti42(Bi17O64)3
_symmetry_space_group_name_H-M   'P 1'
_cell_length_a   15.97247972
_cell_length_b   15.98051216
_cell_length_c   16.00040877
_cell_angle_alpha   89.85699373
_cell_angle_beta   90.03329528
_cell_angle_gamma   89.91701403
_symmetry_Int_Tables_number   1
_chemical_formula_structural   Mg32Ti42(Bi17O64)3
_chemical_formula_sum   'Mg32 Ti42 Bi51 O192'
_cell_volume   4084.06113842
_cell_formula_units_Z   1
loop_
 _symmetry_equiv_pos_site_id
 _symmetry_equiv_pos_as_xyz
  1  'x, y, z'
loop_
 _atom_site_type_symbol
 _atom_site_label
 _atom_site_symmetry_multiplicity
 _atom_site_fract_x
 _atom_site_fract_y
 _atom_site_fract_z
 _atom_site_occupancy
  Mg  Mg0  1  0.37507194  0.88131658  0.87435415  1
  Mg  Mg1  1  0.38275006  0.12373385  0.12281817  1
  Mg  Mg2  1  0.12393866  0.87800502  0.63986800  1
  Mg  Mg3  1  0.87552954  0.12236122  0.62386388  1
  Mg  Mg4  1  0.36894564  0.12171876  0.38217438  1
  Mg  Mg5  1  0.37418877  0.86202370  0.13103909  1
  Mg  Mg6  1  0.62614366  0.37957777  0.87675249  1
  Mg  Mg7  1  0.37294111  0.63133080  0.36729646  1
  Mg  Mg8  1  0.62636304  0.36947394  0.61761404  1
  Mg  Mg9  1  0.11997599  0.63142736  0.37370829  1
  Mg  Mg10  1  0.86930073  0.62068316  0.88054896  1
  Mg  Mg11  1  0.11614640  0.87468932  0.37658919  1
  Mg  Mg12  1  0.13019103  0.12699617  0.63166584  1
  Mg  Mg13  1  0.37604853  0.36860824  0.62498336  1
  Mg  Mg14  1  0.63064366  0.63536482  0.37275497  1
  Mg  Mg15  1  0.62624606  0.37980045  0.13092818  1
  Mg  Mg16  1  0.12861082  0.37286123  0.36998274  1
  Mg  Mg17  1  0.86980339  0.37028528  0.37606706  1
  Mg  Mg18  1  0.12925825  0.12326445  0.12567152  1
  Mg  Mg19  1  0.17876220  0.50278451  0.25798211  1
  Mg  Mg20  1  0.32183307  0.53251983  0.69664383  1
  Mg  Mg21  1  0.70589732  0.77618222  0.00950717  1
  Mg  Mg22  1  0.01588540  0.01849803  0.74143537  1
  Mg  Mg23  1  0.49806145  -0.04316197  0.75017300  1
  Mg  Mg24  1  0.73936081  0.00518885  0.30224516  1
  Mg  Mg25  1  0.49982501  0.26580835  0.48780130  1
  Mg  Mg26  1  0.71989061  -0.00859887  0.78420970  1
  Mg  Mg27  1  0.00707886  0.49659483  0.41769591  1
  Mg  Mg28  1  0.03799736  0.79407367  0.24567022  1
  Mg  Mg29  1  0.27659236  -0.00735301  0.71627095  1
  Mg  Mg30  1  0.50647675  0.75386840  0.30487503  1
  Mg  Mg31  1  0.73136756  0.80100408  0.26687304  1
  Ti  Ti32  1  0.61004756  0.87365659  0.88076281  1
  Ti  Ti33  1  0.12890242  0.12165036  0.87973641  1
  Ti  Ti34  1  0.62535699  0.87478929  0.13223374  1
  Ti  Ti35  1  0.13147482  0.87079241  0.11751757  1
  Ti  Ti36  1  0.87585329  0.89850826  0.66383225  1
  Ti  Ti37  1  0.12689697  0.62392111  0.12365948  1
  Ti  Ti38  1  0.88142904  0.11270354  0.38133740  1
  Ti  Ti39  1  0.37477654  0.38049243  0.14794476  1
  Ti  Ti40  1  0.11329610  0.37373529  0.63456615  1
  Ti  Ti41  1  0.37891042  0.12446932  0.61277430  1
  Ti  Ti42  1  0.62822039  0.11951218  0.63966121  1
  Ti  Ti43  1  0.37374501  0.87372619  0.37486860  1
  Ti  Ti44  1  0.86729610  0.36830322  0.88179926  1
  Ti  Ti45  1  0.88043596  0.36640932  0.60953882  1
  Ti  Ti46  1  0.86938418  0.64143892  0.35604240  1
  Ti  Ti47  1  0.62272275  0.62144215  0.88575050  1
  Ti  Ti48  1  0.61534900  0.11761772  0.87200460  1
  Ti  Ti49  1  0.62982675  0.61931783  0.60949130  1
  Ti  Ti50  1  0.62235058  0.86913483  0.39078108  1
  Ti  Ti51  1  0.87337227  0.87132472  0.36176754  1
  Ti  Ti52  1  0.87267456  0.11131946  0.88167747  1
  Ti  Ti53  1  0.38075930  0.88327447  0.62872376  1
  Ti  Ti54  1  0.13626970  0.89462198  0.85683661  1
  Ti  Ti55  1  0.62058254  0.63600000  0.12368655  1
  Ti  Ti56  1  0.86820491  0.86431609  0.13324756  1
  Ti  Ti57  1  0.62901143  0.38495263  0.37724131  1
  Ti  Ti58  1  0.37227636  0.37676899  0.85796188  1
  Ti  Ti59  1  0.85928857  0.86848658  0.87985249  1
  Ti  Ti60  1  0.35711669  0.62378653  0.13076147  1
  Ti  Ti61  1  0.37826824  0.37482650  0.38145059  1
  Ti  Ti62  1  0.62010772  0.87738245  0.63226600  1
  Ti  Ti63  1  0.37318461  0.61717349  0.87749698  1
  Ti  Ti64  1  0.86117902  0.36111194  0.12326442  1
  Ti  Ti65  1  0.12762713  0.36442786  0.86430053  1
  Ti  Ti66  1  0.38176461  0.11680332  0.88224227  1
  Ti  Ti67  1  0.12465160  0.61246146  0.87666997  1
  Ti  Ti68  1  0.62668082  0.11770204  0.12466841  1
  Ti  Ti69  1  0.13046520  0.11608372  0.37176648  1
  Ti  Ti70  1  0.11672076  0.61266193  0.62716672  1
  Ti  Ti71  1  0.86926576  0.11096739  0.12323606  1
  Ti  Ti72  1  0.13329050  0.36237928  0.13340001  1
  Ti  Ti73  1  0.87803901  0.63418282  0.11878977  1
  Bi  Bi74  1  0.51549046  0.47144264  0.74599633  1
  Bi  Bi75  1  0.47500754  0.48854072  0.01101860  1
  Bi  Bi76  1  0.75184658  0.24740469  0.72449355  1
  Bi  Bi77  1  0.52813256  0.04269638  0.48573113  1
  Bi  Bi78  1  0.51467460  0.51683617  0.27349284  1
  Bi  Bi79  1  -0.00786646  0.71542533  0.50236652  1
  Bi  Bi80  1  0.47104688  0.52904796  0.51122694  1
  Bi  Bi81  1  0.24031730  0.50338962  0.52062220  1
  Bi  Bi82  1  0.23324509  0.74845242  0.49833943  1
  Bi  Bi83  1  0.00104146  -0.03373506  -0.01663959  1
  Bi  Bi84  1  0.51050274  0.23578288  0.28352671  1
  Bi  Bi85  1  0.72252601  0.24204012  -0.02624852  1
  Bi  Bi86  1  0.51248703  0.25742043  0.03846964  1
  Bi  Bi87  1  -0.00001236  0.22130922  0.01120461  1
  Bi  Bi88  1  0.01224824  0.01864128  0.52810133  1
  Bi  Bi89  1  0.73400647  0.50863049  0.01260678  1
  Bi  Bi90  1  0.02767264  -0.00160012  0.22678557  1
  Bi  Bi91  1  0.28049021  -0.00637759  0.24736228  1
  Bi  Bi92  1  0.75244661  0.20690289  0.26134646  1
  Bi  Bi93  1  0.27319348  0.22791001  0.25335930  1
  Bi  Bi94  1  -0.02237581  0.47887084  0.22561015  1
  Bi  Bi95  1  0.25864552  -0.00676241  0.00987417  1
  Bi  Bi96  1  0.50024822  0.24510034  0.73494568  1
  Bi  Bi97  1  0.02396515  0.25043101  0.50044237  1
  Bi  Bi98  1  0.25003590  0.27749891  0.50355897  1
  Bi  Bi99  1  0.26855277  0.21609925  0.74965474  1
  Bi  Bi100  1  0.46731479  0.73866184  0.00525750  1
  Bi  Bi101  1  -0.00533654  0.24994452  0.27284911  1
  Bi  Bi102  1  0.72487121  0.72330651  0.76143851  1
  Bi  Bi103  1  0.23247294  0.73698869  0.26951022  1
  Bi  Bi104  1  0.49456609  0.70696534  0.73814167  1
  Bi  Bi105  1  -0.00130517  0.72757733  -0.00514260  1
  Bi  Bi106  1  0.53622467  0.00545560  0.26993631  1
  Bi  Bi107  1  -0.00470657  0.46481178  0.00108561  1
  Bi  Bi108  1  0.22796564  0.72279972  0.74232412  1
  Bi  Bi109  1  -0.03166862  0.71275709  0.73808877  1
  Bi  Bi110  1  0.23039411  -0.03414471  0.50467471  1
  Bi  Bi111  1  0.77828221  0.51522635  0.48241842  1
  Bi  Bi112  1  0.48505760  -0.02599043  0.02686980  1
  Bi  Bi113  1  0.74705544  -0.00535603  0.01106697  1
  Bi  Bi114  1  0.25461589  0.22533577  0.01092343  1
  Bi  Bi115  1  0.70538753  0.22974581  0.47506533  1
  Bi  Bi116  1  0.77683901  0.75019667  0.54213957  1
  Bi  Bi117  1  0.24275210  0.75319781  -0.03183979  1
  Bi  Bi118  1  -0.02437850  0.48501582  0.76786638  1
  Bi  Bi119  1  0.46940024  0.74901309  0.51234902  1
  Bi  Bi120  1  0.76524013  -0.02888691  0.50532424  1
  Bi  Bi121  1  0.75384097  0.48976113  0.71062383  1
  Bi  Bi122  1  0.74708976  0.51376060  0.24419027  1
  Bi  Bi123  1  -0.01529355  0.22184556  0.76080591  1
  Bi  Bi124  1  0.25053125  0.46294979  -0.00675446  1
  O  O125  1  0.12479929  0.15861551  0.00173413  1
  O  O126  1  0.13604725  0.09457146  0.25222571  1
  O  O127  1  0.09681989  0.13262149  0.49460140  1
  O  O128  1  0.11410977  0.10577922  0.76393386  1
  O  O129  1  0.13128416  0.37592301  0.00171303  1
  O  O130  1  0.15339989  0.38381376  0.24606453  1
  O  O131  1  0.11757351  0.35251921  0.49855522  1
  O  O132  1  0.13419427  0.38860792  0.74701078  1
  O  O133  1  0.12302237  0.65264962  -0.00488570  1
  O  O134  1  0.15320133  0.62229104  0.24240164  1
  O  O135  1  0.12288906  0.65526782  0.50692670  1
  O  O136  1  0.12945099  0.61812244  0.75144296  1
  O  O137  1  0.09736920  0.85612103  0.00432532  1
  O  O138  1  0.12470022  0.89930635  0.24457852  1
  O  O139  1  0.13343458  0.85562388  0.50429359  1
  O  O140  1  0.16795834  0.92731208  0.75497008  1
  O  O141  1  0.38536553  0.16082286  -0.00722218  1
  O  O142  1  0.34969749  0.11315221  0.24722648  1
  O  O143  1  0.40663179  0.14969199  0.50424897  1
  O  O144  1  0.34054343  0.09977728  0.76492921  1
  O  O145  1  0.37935717  0.38223820  -0.00975513  1
  O  O146  1  0.37378000  0.39560601  0.25855295  1
  O  O147  1  0.38875937  0.33194105  0.49800060  1
  O  O148  1  0.36468293  0.42174056  0.74669955  1
  O  O149  1  0.39430517  0.61636564  0.00117782  1
  O  O150  1  0.34785923  0.62673177  0.24353596  1
  O  O151  1  0.39241422  0.63730226  0.49416364  1
  O  O152  1  0.38071247  0.62107458  0.75754416  1
  O  O153  1  0.40468742  0.86675799  0.00365372  1
  O  O154  1  0.35567734  0.87383660  0.25425558  1
  O  O155  1  0.39425160  0.86915273  0.50119120  1
  O  O156  1  0.37455627  0.91443831  0.74645144  1
  O  O157  1  0.61317435  0.14412150  -0.00906545  1
  O  O158  1  0.65501096  0.09006118  0.23663675  1
  O  O159  1  0.58976381  0.16330316  0.51126862  1
  O  O160  1  0.64446936  0.08942577  0.75049616  1
  O  O161  1  0.61712135  0.33720076  -0.00246768  1
  O  O162  1  0.62928484  0.40664909  0.25657805  1
  O  O163  1  0.61107352  0.33644525  0.49675238  1
  O  O164  1  0.63961550  0.40868605  0.75342694  1
  O  O165  1  0.64711883  0.66089697  0.00005832  1
  O  O166  1  0.63041631  0.59319262  0.23976346  1
  O  O167  1  0.63315552  0.64688273  0.50002452  1
  O  O168  1  0.62042190  0.62437746  0.75485796  1
  O  O169  1  0.60297127  0.85418870  -0.00366742  1
  O  O170  1  0.65106299  0.90695065  0.23911499  1
  O  O171  1  0.61530904  0.85758480  0.50219329  1
  O  O172  1  0.63036369  0.90999219  0.74688934  1
  O  O173  1  0.88080514  0.14960663  -0.00093896  1
  O  O174  1  0.84323265  0.09929338  0.23754438  1
  O  O175  1  0.90201496  0.12719702  0.49190867  1
  O  O176  1  0.90781008  0.10349836  0.76518513  1
  O  O177  1  0.89941000  0.35998661  0.00301315  1
  O  O178  1  0.86488021  0.39817224  0.23812787  1
  O  O179  1  0.88901631  0.34121877  0.50255375  1
  O  O180  1  0.86523194  0.40315913  0.76210066  1
  O  O181  1  0.87742304  0.64696475  0.00250206  1
  O  O182  1  0.88333405  0.59753029  0.24656663  1
  O  O183  1  0.86184469  0.65562068  0.48579091  1
  O  O184  1  0.89259239  0.60270267  0.75587091  1
  O  O185  1  0.90588831  0.85727371  -0.00980435  1
  O  O186  1  0.82998296  0.88709084  0.23968000  1
  O  O187  1  0.86178714  0.85628769  0.48001006  1
  O  O188  1  0.82867409  0.92248244  0.76608386  1
  O  O189  1  -0.00934485  0.13523081  0.12820255  1
  O  O190  1  -0.00733623  0.11831960  0.33982017  1
  O  O191  1  0.00278739  0.09831231  0.63525879  1
  O  O192  1  0.00514229  0.13793986  0.89394350  1
  O  O193  1  0.00802493  0.36991702  0.13530344  1
  O  O194  1  -0.00288895  0.37942465  0.34779593  1
  O  O195  1  -0.00519214  0.38805196  0.64370117  1
  O  O196  1  0.00703670  0.37598000  0.86824061  1
  O  O197  1  0.00413615  0.64423924  0.11520065  1
  O  O198  1  -0.00876948  0.62795051  0.39227475  1
  O  O199  1  0.00034247  0.63538434  0.61424300  1
  O  O200  1  0.00934324  0.64649143  0.87547221  1
  O  O201  1  -0.01427048  0.86799280  0.15357680  1
  O  O202  1  -0.01580720  0.86558633  0.34195142  1
  O  O203  1  -0.00898411  0.91536345  0.66782547  1
  O  O204  1  0.01700241  0.91155120  0.85226642  1
  O  O205  1  0.25490443  0.12239705  0.10108170  1
  O  O206  1  0.24101818  0.14713969  0.38271332  1
  O  O207  1  0.25623171  0.14264793  0.62461512  1
  O  O208  1  0.25120231  0.14025029  0.89603751  1
  O  O209  1  0.25739655  0.38765018  0.11262210  1
  O  O210  1  0.25939027  0.36644848  0.39770886  1
  O  O211  1  0.24305568  0.37969396  0.59981868  1
  O  O212  1  0.25050128  0.37861597  0.88304699  1
  O  O213  1  0.24671210  0.61739377  0.09829902  1
  O  O214  1  0.24832348  0.66029675  0.38750281  1
  O  O215  1  0.24246779  0.60370982  0.62440177  1
  O  O216  1  0.24904329  0.63399956  0.87894841  1
  O  O217  1  0.24447762  0.88088142  0.10294069  1
  O  O218  1  0.25669247  0.84898687  0.39272682  1
  O  O219  1  0.26169390  0.88139751  0.61917460  1
  O  O220  1  0.25051979  0.88486199  0.91116628  1
  O  O221  1  0.50863804  0.11236650  0.13529727  1
  O  O222  1  0.49748929  0.11685481  0.35666874  1
  O  O223  1  0.49796150  0.12339514  0.65573217  1
  O  O224  1  0.50033423  0.11277445  0.85498252  1
  O  O225  1  0.49589432  0.37469233  0.11817173  1
  O  O226  1  0.50256186  0.33930534  0.37401616  1
  O  O227  1  0.50243872  0.36951272  0.65347854  1
  O  O228  1  0.49736867  0.38501086  0.85162780  1
  O  O229  1  0.51005793  0.64210065  0.12647951  1
  O  O230  1  0.50331841  0.63354087  0.34219866  1
  O  O231  1  0.51041931  0.62150013  0.62736221  1
  O  O232  1  0.50132911  0.63241382  0.87552062  1
  O  O233  1  0.50940529  0.88397753  0.13922477  1
  O  O234  1  0.50595331  0.88089516  0.34708047  1
  O  O235  1  0.50509175  0.90753015  0.63636804  1
  O  O236  1  0.50193907  0.89614064  0.85807765  1
  O  O237  1  0.74813043  0.12048227  0.09282656  1
  O  O238  1  0.75593811  0.12390216  0.37808916  1
  O  O239  1  0.74624925  0.14601887  0.62154877  1
  O  O240  1  0.75795040  0.11955691  0.87629273  1
  O  O241  1  0.75174685  0.39368352  0.10296429  1
  O  O242  1  0.74390411  0.39580476  0.39882861  1
  O  O243  1  0.75518279  0.35582516  0.63743366  1
  O  O244  1  0.75510148  0.37084438  0.90163573  1
  O  O245  1  0.75989971  0.59750766  0.12618071  1
  O  O246  1  0.75455233  0.60098020  0.35928665  1
  O  O247  1  0.74469209  0.64532765  0.64024290  1
  O  O248  1  0.74397945  0.62908437  0.86194573  1
  O  O249  1  0.75084852  0.87278392  0.08390927  1
  O  O250  1  0.73750065  0.88749453  0.37386071  1
  O  O251  1  0.74481824  0.88284479  0.61261554  1
  O  O252  1  0.74987071  0.85531827  0.90693829  1
  O  O253  1  0.10463801  -0.00520899  0.10906523  1
  O  O254  1  0.12751769  0.00012425  0.40154721  1
  O  O255  1  0.13609391  0.00094156  0.59753661  1
  O  O256  1  0.13501573  0.00832346  0.91292808  1
  O  O257  1  0.14007357  0.25132132  0.13995711  1
  O  O258  1  0.09658360  0.24236743  0.36680168  1
  O  O259  1  0.10292708  0.25503403  0.63003415  1
  O  O260  1  0.12896524  0.25259524  0.85734705  1
  O  O261  1  0.11612282  0.50836851  0.13352764  1
  O  O262  1  0.12419051  0.50425064  0.37443097  1
  O  O263  1  0.11776456  0.49966964  0.59894017  1
  O  O264  1  0.12159037  0.50312187  0.89035213  1
  O  O265  1  0.12591455  0.75686747  0.15185262  1
  O  O266  1  0.11326533  0.75427991  0.33857448  1
  O  O267  1  0.12967652  0.75124037  0.65555246  1
  O  O268  1  0.15130174  0.76983356  0.85134333  1
  O  O269  1  0.37174274  -0.00487702  0.11032490  1
  O  O270  1  0.35359706  -0.00540566  0.37197280  1
  O  O271  1  0.36082338  0.01126699  0.60850150  1
  O  O272  1  0.37295534  0.00882451  0.91771240  1
  O  O273  1  0.36962281  0.25807527  0.14802815  1
  O  O274  1  0.37752462  0.24781272  0.34098737  1
  O  O275  1  0.37720304  0.24557880  0.66340082  1
  O  O276  1  0.37408057  0.25946130  0.84074767  1
  O  O277  1  0.39176452  0.50264831  0.12107122  1
  O  O278  1  0.39729885  0.49105782  0.39561277  1
  O  O279  1  0.36696505  0.49027143  0.58818674  1
  O  O280  1  0.37158064  0.50375539  0.88976957  1
  O  O281  1  0.37128484  0.74026868  0.10761842  1
  O  O282  1  0.40509071  0.75813775  0.37763504  1
  O  O283  1  0.39990813  0.76670679  0.63591524  1
  O  O284  1  0.36825146  0.74768146  0.89322608  1
  O  O285  1  0.63112302  -0.00419939  0.09157818  1
  O  O286  1  0.61789253  -0.00230038  0.38579192  1
  O  O287  1  0.63263631  0.01424436  0.58370688  1
  O  O288  1  0.64656324  -0.00354212  0.89089428  1
  O  O289  1  0.61813893  0.24045798  0.13756543  1
  O  O290  1  0.64315523  0.25541002  0.35114305  1
  O  O291  1  0.62286325  0.24357720  0.66208303  1
  O  O292  1  0.63910314  0.23545984  0.85646724  1
  O  O293  1  0.62154845  0.51033100  0.08878373  1
  O  O294  1  0.59341542  0.49701628  0.38969375  1
  O  O295  1  0.64517002  0.50328313  0.60848762  1
  O  O296  1  0.62539813  0.50903609  0.90866441  1
  O  O297  1  0.65261909  0.75563891  0.14433960  1
  O  O298  1  0.62889616  0.76039533  0.33819512  1
  O  O299  1  0.61532042  0.76258289  0.64994238  1
  O  O300  1  0.61909767  0.75925863  0.85235458  1
  O  O301  1  0.87455849  -0.00325502  0.09873184  1
  O  O302  1  0.86174446  -0.00558666  0.37777601  1
  O  O303  1  0.86386463  -0.00292066  0.59774223  1
  O  O304  1  0.87574632  -0.00172921  0.90688436  1
  O  O305  1  0.85757917  0.25061602  0.14308841  1
  O  O306  1  0.87214609  0.24076030  0.34396591  1
  O  O307  1  0.88497200  0.24746487  0.66069844  1
  O  O308  1  0.87910625  0.25334841  0.85280474  1
  O  O309  1  0.90262729  0.50124479  0.10556214  1
  O  O310  1  0.88462464  0.49854446  0.40376851  1
  O  O311  1  0.85026919  0.48152376  0.60255675  1
  O  O312  1  0.89851281  0.49423359  0.89695501  1
  O  O313  1  0.86042294  0.74787058  0.13932731  1
  O  O314  1  0.84171181  0.75078611  0.33472487  1
  O  O315  1  0.87598614  0.77962535  0.64241640  1
  O  O316  1  0.88065212  0.76212677  0.84013413  1
