# generated using pymatgen
data_Mg32Ti42(Bi17O64)3
_symmetry_space_group_name_H-M   'P 1'
_cell_length_a   15.91143117
_cell_length_b   15.90630947
_cell_length_c   16.01151918
_cell_angle_alpha   89.96737544
_cell_angle_beta   89.62465697
_cell_angle_gamma   89.98415444
_symmetry_Int_Tables_number   1
_chemical_formula_structural   Mg32Ti42(Bi17O64)3
_chemical_formula_sum   'Mg32 Ti42 Bi51 O192'
_cell_volume   4052.30202684
_cell_formula_units_Z   1
loop_
 _symmetry_equiv_pos_site_id
 _symmetry_equiv_pos_as_xyz
  1  'x, y, z'
loop_
 _atom_site_type_symbol
 _atom_site_label
 _atom_site_symmetry_multiplicity
 _atom_site_fract_x
 _atom_site_fract_y
 _atom_site_fract_z
 _atom_site_occupancy
  Mg  Mg0  1  0.62389686  0.38285345  0.36624109  1
  Mg  Mg1  1  0.37546448  0.88003755  0.88021176  1
  Mg  Mg2  1  0.36304272  0.11739324  0.12376234  1
  Mg  Mg3  1  0.37156767  0.37706751  0.13077130  1
  Mg  Mg4  1  0.62674623  0.87574035  0.62655975  1
  Mg  Mg5  1  0.38149366  0.37024300  0.87502934  1
  Mg  Mg6  1  0.13314547  0.13506090  0.62669336  1
  Mg  Mg7  1  0.62511567  0.38428220  0.61668802  1
  Mg  Mg8  1  0.63096280  0.38096156  0.13709401  1
  Mg  Mg9  1  0.38016360  0.62893464  0.87785615  1
  Mg  Mg10  1  0.63314505  0.36921855  0.87100872  1
  Mg  Mg11  1  0.61450271  0.87786066  0.37609837  1
  Mg  Mg12  1  0.11899144  0.36490421  0.13163080  1
  Mg  Mg13  1  0.37716091  0.62611051  0.61900626  1
  Mg  Mg14  1  0.88256537  0.37485144  0.87517118  1
  Mg  Mg15  1  0.11993346  0.37777430  0.87714992  1
  Mg  Mg16  1  0.63343978  0.87025941  0.87637804  1
  Mg  Mg17  1  0.87635034  0.12543501  0.62205348  1
  Mg  Mg18  1  0.88230581  0.12850446  0.13293432  1
  Mg  Mg19  1  0.05165095  0.72048426  0.24568738  1
  Mg  Mg20  1  0.25429447  0.01998581  0.23191954  1
  Mg  Mg21  1  0.69482623  0.50807797  0.47713542  1
  Mg  Mg22  1  0.71814696  0.52738820  0.20413962  1
  Mg  Mg23  1  0.29701631  0.28743013  0.49906154  1
  Mg  Mg24  1  0.26910034  0.77526762  0.51771170  1
  Mg  Mg25  1  0.03013073  0.49220558  0.54376525  1
  Mg  Mg26  1  0.01673972  0.02465369  0.53962307  1
  Mg  Mg27  1  0.46858483  0.49378944  0.45756717  1
  Mg  Mg28  1  0.23689454  -0.03199961  -0.04308675  1
  Mg  Mg29  1  0.76263245  0.73557328  0.80446912  1
  Mg  Mg30  1  0.72842833  0.19877767  0.25374301  1
  Mg  Mg31  1  -0.05492196  0.74284553  0.75301897  1
  Ti  Ti32  1  0.86719912  0.39153193  0.39307420  1
  Ti  Ti33  1  0.87882747  0.87151845  0.88756053  1
  Ti  Ti34  1  0.88389547  0.13641461  0.87637128  1
  Ti  Ti35  1  0.12670954  0.62925402  0.37881761  1
  Ti  Ti36  1  0.12719385  0.62716933  0.62862934  1
  Ti  Ti37  1  0.88733880  0.86354933  0.37703991  1
  Ti  Ti38  1  0.13047980  0.12628190  0.38813177  1
  Ti  Ti39  1  0.87358462  0.38786512  0.61572104  1
  Ti  Ti40  1  0.36854993  0.87389616  0.62593092  1
  Ti  Ti41  1  0.62182855  0.87624490  0.11632438  1
  Ti  Ti42  1  0.37528482  0.88547398  0.38101878  1
  Ti  Ti43  1  0.13295370  0.88154940  0.13605477  1
  Ti  Ti44  1  0.11590678  0.62921705  0.86813293  1
  Ti  Ti45  1  0.62149647  0.11551019  0.38372100  1
  Ti  Ti46  1  0.86618686  0.62492917  0.62753612  1
  Ti  Ti47  1  0.86973251  0.38477195  0.14403707  1
  Ti  Ti48  1  0.89459880  0.87688311  0.62202653  1
  Ti  Ti49  1  0.12367937  0.87534370  0.61451085  1
  Ti  Ti50  1  0.62503111  0.63065307  0.86572811  1
  Ti  Ti51  1  0.12517954  0.87817695  0.38677010  1
  Ti  Ti52  1  0.38615746  0.38276662  0.62923282  1
  Ti  Ti53  1  0.85916303  0.61990579  0.38468402  1
  Ti  Ti54  1  0.12924042  0.11835976  0.11688242  1
  Ti  Ti55  1  0.36796407  0.61956501  0.14066083  1
  Ti  Ti56  1  0.63702756  0.12623215  0.62335704  1
  Ti  Ti57  1  0.62744315  0.61599936  0.63009183  1
  Ti  Ti58  1  0.37230863  0.12254637  0.37391572  1
  Ti  Ti59  1  0.60236440  0.62647447  0.37551975  1
  Ti  Ti60  1  0.37602095  0.12224275  0.88468757  1
  Ti  Ti61  1  0.64186760  0.13024350  0.86972832  1
  Ti  Ti62  1  0.88453635  0.62809883  0.88448022  1
  Ti  Ti63  1  0.88007273  0.86575783  0.12593253  1
  Ti  Ti64  1  0.35997117  0.63323696  0.37746700  1
  Ti  Ti65  1  0.37179826  0.13777768  0.62216518  1
  Ti  Ti66  1  0.87313317  0.62298830  0.14436757  1
  Ti  Ti67  1  0.11645569  0.86943604  0.84767288  1
  Ti  Ti68  1  0.12598486  0.12483720  0.87117953  1
  Ti  Ti69  1  0.14554238  0.37514946  0.62441280  1
  Ti  Ti70  1  0.87024794  0.11130846  0.38408054  1
  Ti  Ti71  1  0.37082020  0.37622104  0.35680322  1
  Ti  Ti72  1  0.12952839  0.37740750  0.38095094  1
  Ti  Ti73  1  0.36658927  0.88165864  0.11300592  1
  Bi  Bi74  1  0.49281417  0.76220327  0.77845556  1
  Bi  Bi75  1  0.72657570  0.73823890  0.50415384  1
  Bi  Bi76  1  0.00269896  0.72442352  0.51732748  1
  Bi  Bi77  1  0.02876916  -0.01972110  -0.00688636  1
  Bi  Bi78  1  0.47304624  0.25197024  0.02936353  1
  Bi  Bi79  1  0.50972873  0.72361435  0.03631206  1
  Bi  Bi80  1  0.24971492  0.77737326  0.26569436  1
  Bi  Bi81  1  0.25786552  0.01627768  0.51599109  1
  Bi  Bi82  1  0.01579279  0.49541333  0.02624975  1
  Bi  Bi83  1  0.50817219  0.74651154  0.53703317  1
  Bi  Bi84  1  -0.03676479  0.25493176  0.26804296  1
  Bi  Bi85  1  0.25138945  0.27047152  0.78027076  1
  Bi  Bi86  1  0.72559015  0.22936209  0.04507506  1
  Bi  Bi87  1  0.26762582  0.52260568  0.76448006  1
  Bi  Bi88  1  0.26650816  0.75844279  0.76596437  1
  Bi  Bi89  1  0.25885736  0.51901377  0.51250894  1
  Bi  Bi90  1  0.00477149  0.49295034  0.76422124  1
  Bi  Bi91  1  0.73019407  0.48462176  -0.00352287  1
  Bi  Bi92  1  0.49709393  0.26733630  0.47629858  1
  Bi  Bi93  1  0.52864496  0.51691291  0.23409289  1
  Bi  Bi94  1  0.24099121  0.27699344  0.00748860  1
  Bi  Bi95  1  0.76510736  0.48779686  0.76752049  1
  Bi  Bi96  1  0.72664478  0.25903425  0.47755043  1
  Bi  Bi97  1  0.23430639  0.25220135  0.25125297  1
  Bi  Bi98  1  0.74123257  -0.03191359  0.50258903  1
  Bi  Bi99  1  0.52543967  0.02881332  0.00324896  1
  Bi  Bi100  1  0.73151584  0.72005991  0.03190948  1
  Bi  Bi101  1  0.74360935  0.27161331  0.72436600  1
  Bi  Bi102  1  -0.01087482  0.24160430  0.49601176  1
  Bi  Bi103  1  -0.00014123  0.50650481  0.27389377  1
  Bi  Bi104  1  0.49984379  0.00574622  0.52413299  1
  Bi  Bi105  1  0.26504596  0.01862081  0.76030665  1
  Bi  Bi106  1  0.02152163  0.02674466  0.25901852  1
  Bi  Bi107  1  0.00064665  0.26392847  0.72024189  1
  Bi  Bi108  1  -0.01860175  0.02430109  0.74617729  1
  Bi  Bi109  1  0.28715856  0.50404621  -0.00386042  1
  Bi  Bi110  1  0.51005145  0.25119442  0.75423208  1
  Bi  Bi111  1  0.51754236  0.48799379  -0.00012169  1
  Bi  Bi112  1  0.49805593  0.77482569  0.26075951  1
  Bi  Bi113  1  0.51833332  0.00000966  0.77394332  1
  Bi  Bi114  1  0.23707727  0.72120266  0.02097517  1
  Bi  Bi115  1  0.20858890  0.51753489  0.22006280  1
  Bi  Bi116  1  0.74924580  -0.02719370  0.74905671  1
  Bi  Bi117  1  0.01288294  0.73269705  0.03132142  1
  Bi  Bi118  1  0.50622462  0.49027914  0.76938975  1
  Bi  Bi119  1  -0.02163647  0.27457479  0.01864009  1
  Bi  Bi120  1  0.51115959  0.01700004  0.23076767  1
  Bi  Bi121  1  0.53341372  0.23954394  0.23523488  1
  Bi  Bi122  1  0.77507785  -0.01747349  0.24682872  1
  Bi  Bi123  1  0.74561620  0.76270041  0.26767609  1
  Bi  Bi124  1  0.78920187  0.01654325  0.00868744  1
  O  O125  1  0.10507980  0.10925164  0.00400927  1
  O  O126  1  0.14535316  0.08849574  0.26538052  1
  O  O127  1  0.09243148  0.12761136  0.49901966  1
  O  O128  1  0.15657331  0.11974482  0.75691972  1
  O  O129  1  0.08742512  0.36749401  0.00274599  1
  O  O130  1  0.16187223  0.36556644  0.25279476  1
  O  O131  1  0.10359338  0.39197738  0.49407915  1
  O  O132  1  0.15955547  0.37519385  0.74087343  1
  O  O133  1  0.10179741  0.63374894  -0.01531589  1
  O  O134  1  0.14883645  0.63553367  0.25323793  1
  O  O135  1  0.09222786  0.60165639  0.48845124  1
  O  O136  1  0.15550118  0.62448836  0.74089912  1
  O  O137  1  0.14247803  0.90259968  0.01152949  1
  O  O138  1  0.10558946  0.84238566  0.24625983  1
  O  O139  1  0.16070239  0.85672355  0.49516708  1
  O  O140  1  0.10055945  0.87366045  0.73685700  1
  O  O141  1  0.39910973  0.11101894  -0.00455218  1
  O  O142  1  0.34775473  0.11348893  0.26133641  1
  O  O143  1  0.38378326  0.09370562  0.50027566  1
  O  O144  1  0.34799216  0.13759066  0.73942428  1
  O  O145  1  0.41220367  0.38599589  -0.00048965  1
  O  O146  1  0.34513396  0.34758435  0.25029491  1
  O  O147  1  0.40955339  0.38618015  0.50323927  1
  O  O148  1  0.35850664  0.35172028  0.74244519  1
  O  O149  1  0.38997463  0.61430295  0.00550543  1
  O  O150  1  0.34309863  0.63696819  0.25543810  1
  O  O151  1  0.38714983  0.58827205  0.49006284  1
  O  O152  1  0.34369388  0.63548956  0.74277772  1
  O  O153  1  0.34016655  0.90244693  0.00395737  1
  O  O154  1  0.37877667  0.84610939  0.25898976  1
  O  O155  1  0.34640377  0.88611652  0.49595462  1
  O  O156  1  0.37772115  0.85425121  0.73931805  1
  O  O157  1  0.60512786  0.14396528  -0.01490067  1
  O  O158  1  0.63986187  0.10608899  0.26846751  1
  O  O159  1  0.61750706  0.15999612  0.50338393  1
  O  O160  1  0.63778126  0.09345074  0.74702160  1
  O  O161  1  0.62217187  0.38607708  0.00184485  1
  O  O162  1  0.63695412  0.43113892  0.25216856  1
  O  O163  1  0.61382025  0.34591435  0.49486946  1
  O  O164  1  0.66699797  0.38746084  0.74230951  1
  O  O165  1  0.61859739  0.63777241  -0.01445845  1
  O  O166  1  0.63456916  0.60453422  0.26313288  1
  O  O167  1  0.61773554  0.65000151  0.49438302  1
  O  O168  1  0.64405820  0.60076184  0.74304199  1
  O  O169  1  0.63432004  0.86776607  0.00321138  1
  O  O170  1  0.58142731  0.88912625  0.24729015  1
  O  O171  1  0.65163622  0.86375165  0.49821245  1
  O  O172  1  0.62885423  0.90810336  0.74651138  1
  O  O173  1  0.89313970  0.10877357  -0.00200720  1
  O  O174  1  0.84697625  0.15078855  0.26351466  1
  O  O175  1  0.91442793  0.11976625  0.49605594  1
  O  O176  1  0.86966465  0.11338287  0.75714837  1
  O  O177  1  0.90988617  0.39210031  0.00199756  1
  O  O178  1  0.86283149  0.37220449  0.25783046  1
  O  O179  1  0.91203684  0.40216782  0.50333151  1
  O  O180  1  0.84868502  0.37235170  0.74277715  1
  O  O181  1  0.90722476  0.62384329  -0.00438420  1
  O  O182  1  0.83363245  0.61089131  0.24933266  1
  O  O183  1  0.88943136  0.63457052  0.49453462  1
  O  O184  1  0.85033002  0.65439630  0.73892674  1
  O  O185  1  0.85136738  0.87060403  0.00088833  1
  O  O186  1  0.87352417  0.87555828  0.24547836  1
  O  O187  1  0.85327471  0.86966925  0.48950754  1
  O  O188  1  0.90756692  0.86551980  0.73714718  1
  O  O189  1  0.00578270  0.13498277  0.16595806  1
  O  O190  1  -0.00051695  0.13648645  0.35107694  1
  O  O191  1  0.00863036  0.12155550  0.65354755  1
  O  O192  1  0.00471375  0.12621824  0.85280885  1
  O  O193  1  -0.00993169  0.34137472  0.14347515  1
  O  O194  1  0.01205914  0.36720234  0.34914586  1
  O  O195  1  -0.00125593  0.39465272  0.64741471  1
  O  O196  1  0.00239210  0.37367375  0.83011871  1
  O  O197  1  -0.01345076  0.66819280  0.14983260  1
  O  O198  1  0.00444662  0.63573305  0.33772305  1
  O  O199  1  -0.00050514  0.60360102  0.62037023  1
  O  O200  1  0.00117262  0.64894986  0.83162436  1
  O  O201  1  -0.00776711  0.86012554  0.10797333  1
  O  O202  1  -0.00254515  0.85003718  0.38357617  1
  O  O203  1  0.00900925  0.88044163  0.57616329  1
  O  O204  1  0.00354599  0.86126490  0.89823163  1
  O  O205  1  0.23979125  0.08789252  0.12311845  1
  O  O206  1  0.24697127  0.10363607  0.40076887  1
  O  O207  1  0.25472133  0.13464536  0.59320455  1
  O  O208  1  0.24984648  0.08370992  0.89359613  1
  O  O209  1  0.24671206  0.38997205  0.08757444  1
  O  O210  1  0.25696116  0.37172869  0.40510413  1
  O  O211  1  0.25483744  0.35707778  0.59311819  1
  O  O212  1  0.24995431  0.37345252  0.89084101  1
  O  O213  1  0.24843545  0.60100906  0.09448292  1
  O  O214  1  0.24622398  0.59605174  0.39567725  1
  O  O215  1  0.23945372  0.63948295  0.57992764  1
  O  O216  1  0.24569352  0.60077547  0.88592521  1
  O  O217  1  0.24533265  0.90221696  0.16333042  1
  O  O218  1  0.24030328  0.89655646  0.34488328  1
  O  O219  1  0.24496755  0.84786198  0.63311315  1
  O  O220  1  0.23971314  0.89197613  0.85178944  1
  O  O221  1  0.49035692  0.14921501  0.13838180  1
  O  O222  1  0.50168320  0.14003361  0.37063323  1
  O  O223  1  0.49491288  0.10230008  0.62908525  1
  O  O224  1  0.49320025  0.13440489  0.84687996  1
  O  O225  1  0.50231813  0.33607729  0.14031429  1
  O  O226  1  0.49396750  0.34467693  0.35782089  1
  O  O227  1  0.50008242  0.38794083  0.65614629  1
  O  O228  1  0.50715234  0.36715542  0.83828088  1
  O  O229  1  0.48196052  0.65186814  0.14818996  1
  O  O230  1  0.48827407  0.64727113  0.36077660  1
  O  O231  1  0.50713441  0.63521754  0.62961137  1
  O  O232  1  0.50618628  0.64004464  0.85270648  1
  O  O233  1  0.48325674  0.84362177  0.11199589  1
  O  O234  1  0.48647287  0.84368381  0.38887474  1
  O  O235  1  0.49319865  0.88200589  0.60650969  1
  O  O236  1  0.50396814  0.86932137  0.86103265  1
  O  O237  1  0.75549596  0.11535535  0.10651225  1
  O  O238  1  0.75576439  0.11490137  0.40750106  1
  O  O239  1  0.75030187  0.13713406  0.61507062  1
  O  O240  1  0.75368810  0.12202231  0.89431964  1
  O  O241  1  0.75689471  0.42248106  0.12028235  1
  O  O242  1  0.75599975  0.40538384  0.41608589  1
  O  O243  1  0.76089628  0.34846329  0.60368228  1
  O  O244  1  0.75776159  0.40195289  0.88803074  1
  O  O245  1  0.75945681  0.60314087  0.10126410  1
  O  O246  1  0.74838265  0.60124663  0.40662227  1
  O  O247  1  0.75322227  0.63953094  0.60152665  1
  O  O248  1  0.75899666  0.62754866  0.88458928  1
  O  O249  1  0.73329666  0.88620729  0.15089882  1
  O  O250  1  0.74163279  0.88491065  0.34181235  1
  O  O251  1  0.76664351  0.89710547  0.63052453  1
  O  O252  1  0.76273083  0.86620656  0.84132755  1
  O  O253  1  0.09058560  -0.00524630  0.13597938  1
  O  O254  1  0.09443949  -0.01049567  0.39795051  1
  O  O255  1  0.12996175  -0.00682692  0.60645402  1
  O  O256  1  0.10725561  -0.00740923  0.87587743  1
  O  O257  1  0.15153929  0.23723770  0.12941319  1
  O  O258  1  0.14107488  0.24300145  0.36875881  1
  O  O259  1  0.10460332  0.26185245  0.62470921  1
  O  O260  1  0.13884940  0.23935168  0.88083425  1
  O  O261  1  0.09719441  0.48971467  0.14312015  1
  O  O262  1  0.12222171  0.49505956  0.34601035  1
  O  O263  1  0.13939498  0.49915623  0.61775346  1
  O  O264  1  0.10046108  0.50859699  0.86710602  1
  O  O265  1  0.13463486  0.76043952  0.10375932  1
  O  O266  1  0.13908760  0.74325030  0.37755973  1
  O  O267  1  0.10263552  0.74139279  0.61676473  1
  O  O268  1  0.14511700  0.75275714  0.86534533  1
  O  O269  1  0.39799064  -0.00957915  0.14561294  1
  O  O270  1  0.40025150  -0.00538251  0.36785662  1
  O  O271  1  0.35204385  -0.00639725  0.63109130  1
  O  O272  1  0.38341584  0.00368706  0.84609926  1
  O  O273  1  0.35092605  0.24727849  0.09456606  1
  O  O274  1  0.36099139  0.23848129  0.40157137  1
  O  O275  1  0.38680235  0.25009535  0.59574527  1
  O  O276  1  0.35171474  0.23985723  0.88735381  1
  O  O277  1  0.38325399  0.50463681  0.14055583  1
  O  O278  1  0.39208158  0.48834576  0.35549733  1
  O  O279  1  0.35423196  0.49580918  0.63705376  1
  O  O280  1  0.38740399  0.49934711  0.84887332  1
  O  O281  1  0.33083477  0.75352297  0.11586113  1
  O  O282  1  0.33008299  0.74284564  0.39949015  1
  O  O283  1  0.37645300  0.75222357  0.59349272  1
  O  O284  1  0.36981255  0.75332173  0.86540469  1
  O  O285  1  0.59202590  -0.00471289  0.11947177  1
  O  O286  1  0.61238522  0.00404536  0.40918851  1
  O  O287  1  0.63110874  0.00657984  0.59182961  1
  O  O288  1  0.60695659  0.00742626  0.88587067  1
  O  O289  1  0.66199666  0.25933153  0.16365048  1
  O  O290  1  0.66296939  0.25193179  0.35293290  1
  O  O291  1  0.61664110  0.24502798  0.65597429  1
  O  O292  1  0.63102491  0.24458979  0.83598983  1
  O  O293  1  0.59321096  0.50489581  0.11471165  1
  O  O294  1  0.58610787  0.50787821  0.40880236  1
  O  O295  1  0.64379602  0.50748134  0.59148387  1
  O  O296  1  0.60721674  0.50317692  0.87704449  1
  O  O297  1  0.62763502  0.75044287  0.12252036  1
  O  O298  1  0.64045872  0.74616495  0.35946307  1
  O  O299  1  0.62893698  0.75011039  0.61864216  1
  O  O300  1  0.63919817  0.74507184  0.83838228  1
  O  O301  1  0.86907117  -0.00879822  0.12535092  1
  O  O302  1  0.87764788  -0.00366050  0.36304856  1
  O  O303  1  0.90655700  -0.00265054  0.62056058  1
  O  O304  1  0.88085956  -0.01072867  0.87791595  1
  O  O305  1  0.85002696  0.26457375  0.10666965  1
  O  O306  1  0.87983605  0.26515664  0.39842462  1
  O  O307  1  0.90549683  0.25750019  0.61411917  1
  O  O308  1  0.88274210  0.24776046  0.88901431  1
  O  O309  1  0.91164523  0.50455030  0.13264553  1
  O  O310  1  0.89659060  0.50506243  0.37044012  1
  O  O311  1  0.85606331  0.50448657  0.63899332  1
  O  O312  1  0.89199176  0.51257986  0.85137956  1
  O  O313  1  0.84154324  0.74779590  0.12446466  1
  O  O314  1  0.84865611  0.74584109  0.36225683  1
  O  O315  1  0.90856561  0.74867965  0.62000964  1
  O  O316  1  0.87489940  0.74974129  0.86604740  1
