# generated using pymatgen
data_Mg32Ti42(Bi17O64)3
_symmetry_space_group_name_H-M   'P 1'
_cell_length_a   15.94174708
_cell_length_b   15.96682346
_cell_length_c   15.96747953
_cell_angle_alpha   89.84697646
_cell_angle_beta   90.02083960
_cell_angle_gamma   90.04314002
_symmetry_Int_Tables_number   1
_chemical_formula_structural   Mg32Ti42(Bi17O64)3
_chemical_formula_sum   'Mg32 Ti42 Bi51 O192'
_cell_volume   4064.33133818
_cell_formula_units_Z   1
loop_
 _symmetry_equiv_pos_site_id
 _symmetry_equiv_pos_as_xyz
  1  'x, y, z'
loop_
 _atom_site_type_symbol
 _atom_site_label
 _atom_site_symmetry_multiplicity
 _atom_site_fract_x
 _atom_site_fract_y
 _atom_site_fract_z
 _atom_site_occupancy
  Mg  Mg0  1  0.37022774  0.87314784  0.11753516  1
  Mg  Mg1  1  0.63160406  0.62356357  0.13213517  1
  Mg  Mg2  1  0.37873761  0.38784324  0.88255814  1
  Mg  Mg3  1  0.11354387  0.87581319  0.88594689  1
  Mg  Mg4  1  0.38420206  0.87714623  0.38723559  1
  Mg  Mg5  1  0.37557710  0.62077019  0.12808338  1
  Mg  Mg6  1  0.13334621  0.62345364  0.86779469  1
  Mg  Mg7  1  0.11921863  0.36900591  0.37204758  1
  Mg  Mg8  1  0.62998263  0.37928376  0.13468089  1
  Mg  Mg9  1  0.36791324  0.12243888  0.63308986  1
  Mg  Mg10  1  0.11858721  0.87812046  0.63225905  1
  Mg  Mg11  1  0.62689999  0.12358843  0.11405947  1
  Mg  Mg12  1  0.13531798  0.61344445  0.36883223  1
  Mg  Mg13  1  0.87295584  0.38252887  0.87062732  1
  Mg  Mg14  1  0.61649604  0.62394287  0.60809883  1
  Mg  Mg15  1  0.86926613  0.62650800  0.36681798  1
  Mg  Mg16  1  0.62052804  0.11750847  0.38107235  1
  Mg  Mg17  1  0.62555821  0.88201564  0.11354684  1
  Mg  Mg18  1  0.12308180  0.12949808  0.12714895  1
  Mg  Mg19  1  0.54468605  -0.01288669  -0.02673311  1
  Mg  Mg20  1  0.73889934  0.29354741  0.73091324  1
  Mg  Mg21  1  0.20483546  0.79456575  0.75872882  1
  Mg  Mg22  1  0.54979883  0.77119262  0.50621629  1
  Mg  Mg23  1  0.74950121  -0.03826401  -0.02266014  1
  Mg  Mg24  1  0.74631754  0.75340623  0.06013231  1
  Mg  Mg25  1  -0.06469147  0.82832790  0.26973503  1
  Mg  Mg26  1  0.80314811  0.00424685  0.31072137  1
  Mg  Mg27  1  0.49992123  0.55073702  0.46014147  1
  Mg  Mg28  1  0.70964153  0.49795076  0.29158403  1
  Mg  Mg29  1  0.73782732  0.72884105  0.68309943  1
  Mg  Mg30  1  0.76482083  0.21305642  0.44928787  1
  Mg  Mg31  1  0.27660098  0.50490530  0.70706201  1
  Ti  Ti32  1  0.37261239  0.12708358  0.10968422  1
  Ti  Ti33  1  0.13011045  0.36762066  0.62012347  1
  Ti  Ti34  1  0.14032502  0.62813005  0.63179556  1
  Ti  Ti35  1  0.63189683  0.13744525  0.63287699  1
  Ti  Ti36  1  0.61631952  0.36953095  0.37842309  1
  Ti  Ti37  1  0.88512108  0.12312943  0.87579879  1
  Ti  Ti38  1  0.87714102  0.87571575  0.63335336  1
  Ti  Ti39  1  0.62838642  0.63447701  0.37451782  1
  Ti  Ti40  1  0.87773934  0.63270455  0.61337556  1
  Ti  Ti41  1  0.10677635  0.86957555  0.12342897  1
  Ti  Ti42  1  0.86883797  0.89312076  0.10853938  1
  Ti  Ti43  1  0.12901627  0.13407188  0.87585234  1
  Ti  Ti44  1  0.38374746  0.37484160  0.62023974  1
  Ti  Ti45  1  0.63492758  0.12161998  0.87237890  1
  Ti  Ti46  1  0.11689342  0.37435047  0.13374706  1
  Ti  Ti47  1  0.12304118  0.13870279  0.38026940  1
  Ti  Ti48  1  0.38183209  0.11322221  0.37619635  1
  Ti  Ti49  1  0.37671533  0.62668852  0.60895028  1
  Ti  Ti50  1  0.38074875  0.37618663  0.12177770  1
  Ti  Ti51  1  0.86315599  0.37360185  0.12490090  1
  Ti  Ti52  1  0.63590120  0.87395847  0.62609279  1
  Ti  Ti53  1  0.12019319  0.13022290  0.63841036  1
  Ti  Ti54  1  0.62384493  0.63522924  0.87057849  1
  Ti  Ti55  1  0.36002737  0.87643233  0.62706189  1
  Ti  Ti56  1  0.87366941  0.86818023  0.87843000  1
  Ti  Ti57  1  0.62892884  0.86312469  0.87182957  1
  Ti  Ti58  1  0.37242886  0.61830792  0.87349557  1
  Ti  Ti59  1  0.86613520  0.62395127  0.86978391  1
  Ti  Ti60  1  0.87233830  0.37689803  0.36489819  1
  Ti  Ti61  1  0.38405657  0.37675254  0.36588323  1
  Ti  Ti62  1  0.12318779  0.38537621  0.88039015  1
  Ti  Ti63  1  0.62491723  0.38276213  0.61618314  1
  Ti  Ti64  1  0.86547163  0.12642984  0.11456699  1
  Ti  Ti65  1  0.63121961  0.38720647  0.86692870  1
  Ti  Ti66  1  0.87229249  0.38174612  0.62631261  1
  Ti  Ti67  1  0.87193108  0.63669543  0.13464088  1
  Ti  Ti68  1  0.12418161  0.63808519  0.12680628  1
  Ti  Ti69  1  0.36972856  0.62325201  0.36581276  1
  Ti  Ti70  1  0.61445017  0.89009605  0.38036606  1
  Ti  Ti71  1  0.38292483  0.11306211  0.87628075  1
  Ti  Ti72  1  0.38705377  0.85825377  0.86987368  1
  Ti  Ti73  1  0.87284142  0.14067266  0.64112454  1
  Bi  Bi74  1  -0.00947403  0.27619997  -0.00429118  1
  Bi  Bi75  1  0.49910436  0.00033702  0.75974319  1
  Bi  Bi76  1  0.23930873  0.47845956  0.48169875  1
  Bi  Bi77  1  -0.00847755  -0.04226867  0.46395690  1
  Bi  Bi78  1  0.27865999  0.27427514  0.75967584  1
  Bi  Bi79  1  0.00827598  -0.01342019  0.75245416  1
  Bi  Bi80  1  0.24528305  0.51521128  0.01085787  1
  Bi  Bi81  1  0.51887755  0.51365761  0.02167220  1
  Bi  Bi82  1  0.00407311  0.73718130  -0.02928840  1
  Bi  Bi83  1  0.50230668  0.27756401  0.76787132  1
  Bi  Bi84  1  0.49273828  0.75864820  0.72106813  1
  Bi  Bi85  1  0.24399261  -0.00930173  0.02056826  1
  Bi  Bi86  1  0.25012392  0.49591018  0.24959926  1
  Bi  Bi87  1  0.52970211  0.25660167  0.00184237  1
  Bi  Bi88  1  0.26408882  0.24302950  0.47665796  1
  Bi  Bi89  1  0.48347621  0.51480996  0.73750403  1
  Bi  Bi90  1  0.03256792  0.75763064  0.45167719  1
  Bi  Bi91  1  0.50336197  0.22629847  0.23434093  1
  Bi  Bi92  1  0.24164150  -0.00987536  0.78810453  1
  Bi  Bi93  1  0.51258416  0.51447014  0.26038162  1
  Bi  Bi94  1  0.75173984  0.25473463  -0.02580496  1
  Bi  Bi95  1  0.23878078  0.78695430  0.26973214  1
  Bi  Bi96  1  0.27399982  0.74190367  -0.00240831  1
  Bi  Bi97  1  0.49216783  0.22977195  0.50457296  1
  Bi  Bi98  1  0.75439907  0.03212978  0.52394488  1
  Bi  Bi99  1  0.76702611  0.00188722  0.76572186  1
  Bi  Bi100  1  0.73578934  0.20482099  0.26035223  1
  Bi  Bi101  1  0.49609683  -0.00988320  0.52310608  1
  Bi  Bi102  1  -0.03499315  0.24782226  0.26127079  1
  Bi  Bi103  1  0.24299384  0.24111896  0.22674724  1
  Bi  Bi104  1  0.73812007  0.52321688  0.72658930  1
  Bi  Bi105  1  0.21253018  0.02001628  0.51520679  1
  Bi  Bi106  1  0.76526490  0.48800682  0.48428943  1
  Bi  Bi107  1  0.25238656  0.27028398  -0.00367607  1
  Bi  Bi108  1  -0.00359721  0.27642862  0.75514330  1
  Bi  Bi109  1  0.74214102  0.80276959  0.25588560  1
  Bi  Bi110  1  0.00003238  0.52757722  0.25457803  1
  Bi  Bi111  1  0.75181410  0.52105968  0.00397902  1
  Bi  Bi112  1  0.22458898  -0.00385686  0.29028587  1
  Bi  Bi113  1  0.02311830  0.50882650  0.73863476  1
  Bi  Bi114  1  0.50166314  0.00169727  0.19825462  1
  Bi  Bi115  1  0.51128682  0.75150018  0.02475970  1
  Bi  Bi116  1  -0.01666365  0.51524897  0.00944942  1
  Bi  Bi117  1  0.78160421  0.79147074  0.46028685  1
  Bi  Bi118  1  -0.02959015  0.25485354  0.50013690  1
  Bi  Bi119  1  0.00282970  0.73794248  0.75108860  1
  Bi  Bi120  1  0.24379007  0.77707942  0.47966655  1
  Bi  Bi121  1  -0.00725699  0.03292571  0.26046331  1
  Bi  Bi122  1  0.48162512  0.78186944  0.24213502  1
  Bi  Bi123  1  0.01107930  0.52907421  0.49229520  1
  Bi  Bi124  1  0.01263348  0.02596413  0.01080658  1
  O  O125  1  0.10793086  0.13454812  -0.00526957  1
  O  O126  1  0.14099488  0.10369213  0.25662502  1
  O  O127  1  0.12536786  0.13925514  0.50134182  1
  O  O128  1  0.11861102  0.09444044  0.75312983  1
  O  O129  1  0.13158838  0.34328027  -0.00032405  1
  O  O130  1  0.11792551  0.40307853  0.24647182  1
  O  O131  1  0.14911272  0.35809879  0.50750505  1
  O  O132  1  0.09883646  0.38566077  0.75779239  1
  O  O133  1  0.10169285  0.64058229  0.00495048  1
  O  O134  1  0.13532089  0.59257912  0.24171161  1
  O  O135  1  0.11154746  0.63220462  0.51452556  1
  O  O136  1  0.14528809  0.57773410  0.74435139  1
  O  O137  1  0.09608717  0.85107025  0.00819050  1
  O  O138  1  0.15105371  0.89383341  0.23702150  1
  O  O139  1  0.12298236  0.84411009  0.51183269  1
  O  O140  1  0.12632631  0.90591955  0.75933644  1
  O  O141  1  0.37592365  0.14733732  -0.00239784  1
  O  O142  1  0.38349304  0.11633923  0.26170828  1
  O  O143  1  0.37589269  0.15626433  0.50659996  1
  O  O144  1  0.38804930  0.09799303  0.75771058  1
  O  O145  1  0.36697427  0.35084164  0.00521605  1
  O  O146  1  0.37867131  0.39160176  0.25103800  1
  O  O147  1  0.35678099  0.36056764  0.50701795  1
  O  O148  1  0.36530666  0.38991138  0.75229896  1
  O  O149  1  0.38737179  0.65647865  -0.00534415  1
  O  O150  1  0.35752550  0.59677234  0.25255679  1
  O  O151  1  0.39817312  0.62358622  0.49866150  1
  O  O152  1  0.36283975  0.58656854  0.75645276  1
  O  O153  1  0.38531801  0.84301995  -0.01256649  1
  O  O154  1  0.37418428  0.86773421  0.25648999  1
  O  O155  1  0.35025676  0.86135780  0.51069149  1
  O  O156  1  0.40702822  0.88193327  0.74244561  1
  O  O157  1  0.62281947  0.15522196  -0.00814655  1
  O  O158  1  0.61248740  0.13133117  0.24901224  1
  O  O159  1  0.66503701  0.14262971  0.50933070  1
  O  O160  1  0.61305498  0.10357485  0.75202109  1
  O  O161  1  0.63738978  0.34770300  -0.01297958  1
  O  O162  1  0.62302592  0.40489309  0.26147341  1
  O  O163  1  0.63815767  0.37089664  0.50379182  1
  O  O164  1  0.62683035  0.37270916  0.74962413  1
  O  O165  1  0.59835043  0.63242077  -0.01092410  1
  O  O166  1  0.63490693  0.59163297  0.25508062  1
  O  O167  1  0.58612750  0.64528692  0.48768103  1
  O  O168  1  0.66706490  0.63536951  0.75513615  1
  O  O169  1  0.59762217  0.86607872  -0.01265131  1
  O  O170  1  0.61555291  0.88500786  0.25851408  1
  O  O171  1  0.64763395  0.85218923  0.49659211  1
  O  O172  1  0.62085839  0.89028712  0.74747746  1
  O  O173  1  0.88538980  0.14546175  -0.00507220  1
  O  O174  1  0.87752473  0.10599012  0.23674763  1
  O  O175  1  0.84844592  0.14754575  0.52212884  1
  O  O176  1  0.87348459  0.09143436  0.75655751  1
  O  O177  1  0.86419868  0.34685664  0.00022674  1
  O  O178  1  0.89636104  0.38586986  0.24918772  1
  O  O179  1  0.85732860  0.33635165  0.50408091  1
  O  O180  1  0.89940411  0.38998982  0.74386158  1
  O  O181  1  0.90712613  0.63872996  0.00738024  1
  O  O182  1  0.86888561  0.59301909  0.24261908  1
  O  O183  1  0.88943881  0.64857858  0.50169039  1
  O  O184  1  0.85206500  0.60319312  0.75706801  1
  O  O185  1  0.89449440  0.85323812  -0.00205405  1
  O  O186  1  0.84208707  0.90588599  0.22976342  1
  O  O187  1  0.89290906  0.85915805  0.51154528  1
  O  O188  1  0.85833062  0.89585648  0.75809132  1
  O  O189  1  -0.00215072  0.10533562  0.12625105  1
  O  O190  1  0.00934764  0.14346048  0.35594473  1
  O  O191  1  -0.00986261  0.14503608  0.63301938  1
  O  O192  1  -0.00135743  0.08843501  0.87268112  1
  O  O193  1  0.00198097  0.38089968  0.10025900  1
  O  O194  1  -0.00816417  0.34344835  0.38832585  1
  O  O195  1  -0.00784928  0.34397633  0.60546525  1
  O  O196  1  0.00091456  0.37525110  0.89549238  1
  O  O197  1  0.00057030  0.60736313  0.13922898  1
  O  O198  1  0.00253453  0.61465797  0.36576833  1
  O  O199  1  -0.00215993  0.62684371  0.65250850  1
  O  O200  1  -0.00259528  0.62899020  0.85430937  1
  O  O201  1  -0.00903837  0.87788024  0.15680263  1
  O  O202  1  0.00651069  0.86130711  0.36650379  1
  O  O203  1  -0.00791794  0.86695084  0.65717374  1
  O  O204  1  -0.01138976  0.89943002  0.86351160  1
  O  O205  1  0.25274857  0.14044987  0.12417143  1
  O  O206  1  0.25785322  0.11279761  0.39699738  1
  O  O207  1  0.23814080  0.11187710  0.62287935  1
  O  O208  1  0.24530578  0.14425045  0.86713807  1
  O  O209  1  0.24590902  0.34591184  0.12794147  1
  O  O210  1  0.25807852  0.40391060  0.36926471  1
  O  O211  1  0.24046222  0.39526804  0.64803021  1
  O  O212  1  0.24483894  0.35494711  0.87881183  1
  O  O213  1  0.24461145  0.63411881  0.09488142  1
  O  O214  1  0.25777978  0.57931983  0.38215162  1
  O  O215  1  0.25449082  0.60285939  0.61749785  1
  O  O216  1  0.25805082  0.64305978  0.89049048  1
  O  O217  1  0.24574809  0.87058265  0.09153743  1
  O  O218  1  0.25246551  0.87220782  0.37761147  1
  O  O219  1  0.25023098  0.87168335  0.65723765  1
  O  O220  1  0.26630880  0.85729134  0.84923720  1
  O  O221  1  0.49196457  0.13089349  0.13301822  1
  O  O222  1  0.49937863  0.15067761  0.39537790  1
  O  O223  1  0.51439710  0.12409500  0.59936304  1
  O  O224  1  0.49862125  0.08409463  0.88722770  1
  O  O225  1  0.49376905  0.40197434  0.11318454  1
  O  O226  1  0.50295150  0.34039200  0.38112695  1
  O  O227  1  0.50177315  0.36663844  0.62283319  1
  O  O228  1  0.50798094  0.38255406  0.86625087  1
  O  O229  1  0.50116884  0.59259797  0.13154099  1
  O  O230  1  0.49758998  0.62989610  0.34838927  1
  O  O231  1  0.49429649  0.62432485  0.65196722  1
  O  O232  1  0.51201214  0.60451638  0.84347836  1
  O  O233  1  0.49776397  0.87177109  0.13680267  1
  O  O234  1  0.50773669  0.84005516  0.40290875  1
  O  O235  1  0.50739014  0.85921609  0.59787047  1
  O  O236  1  0.50158949  0.91205110  0.87088111  1
  O  O237  1  0.75231546  0.13621133  0.11929664  1
  O  O238  1  0.74645075  0.10761633  0.35826523  1
  O  O239  1  0.74749584  0.09819787  0.64671944  1
  O  O240  1  0.74884524  0.14829598  0.86770354  1
  O  O241  1  0.75487722  0.36391714  0.13817399  1
  O  O242  1  0.75332362  0.40851587  0.36942185  1
  O  O243  1  0.75197663  0.38472539  0.63969659  1
  O  O244  1  0.74938653  0.33847601  0.85623498  1
  O  O245  1  0.75782599  0.62917646  0.09497105  1
  O  O246  1  0.74154769  0.58895263  0.38632439  1
  O  O247  1  0.75367680  0.61432949  0.61574633  1
  O  O248  1  0.75407634  0.63527033  0.90858427  1
  O  O249  1  0.75059355  0.87925922  0.07956531  1
  O  O250  1  0.74609679  0.89294909  0.36896487  1
  O  O251  1  0.75118031  0.85429706  0.63219276  1
  O  O252  1  0.74400285  0.86267953  0.89142511  1
  O  O253  1  0.12466866  -0.00648714  0.09762757  1
  O  O254  1  0.12602590  0.00868620  0.39217416  1
  O  O255  1  0.10522341  0.00605593  0.60287249  1
  O  O256  1  0.15784757  -0.00424741  0.90264944  1
  O  O257  1  0.11437339  0.25317779  0.16200180  1
  O  O258  1  0.15692930  0.24899975  0.36215541  1
  O  O259  1  0.13054215  0.24860375  0.65219449  1
  O  O260  1  0.10030901  0.24297712  0.85663153  1
  O  O261  1  0.14286679  0.49183388  0.10134599  1
  O  O262  1  0.11578344  0.49128845  0.40962852  1
  O  O263  1  0.09295833  0.48732430  0.61491275  1
  O  O264  1  0.13039286  0.49530489  0.89985114  1
  O  O265  1  0.12105541  0.74852310  0.14985430  1
  O  O266  1  0.14742423  0.73605398  0.37226369  1
  O  O267  1  0.13493180  0.73756504  0.66784988  1
  O  O268  1  0.11429733  0.75239657  0.84484727  1
  O  O269  1  0.38012309  0.00690321  0.11458726  1
  O  O270  1  0.39683052  0.00351677  0.40158024  1
  O  O271  1  0.38608858  -0.00703305  0.61234434  1
  O  O272  1  0.34583729  0.00111806  0.89283463  1
  O  O273  1  0.38353809  0.25273536  0.14903604  1
  O  O274  1  0.35087479  0.25753888  0.37003399  1
  O  O275  1  0.36806243  0.25570002  0.65026604  1
  O  O276  1  0.38819923  0.24479037  0.84858017  1
  O  O277  1  0.34036109  0.49107216  0.11242212  1
  O  O278  1  0.41023611  0.48982044  0.39321129  1
  O  O279  1  0.38352614  0.49640156  0.62225644  1
  O  O280  1  0.37247465  0.50956074  0.90900360  1
  O  O281  1  0.40020673  0.74362780  0.13846772  1
  O  O282  1  0.34569652  0.73436004  0.36938590  1
  O  O283  1  0.37709361  0.74176458  0.64053272  1
  O  O284  1  0.40662486  0.74669052  0.84580766  1
  O  O285  1  0.59269567  0.00382985  0.09410841  1
  O  O286  1  0.59736187  -0.00291184  0.40177258  1
  O  O287  1  0.62698790  -0.00926899  0.59933646  1
  O  O288  1  0.65070103  0.00559705  0.90562136  1
  O  O289  1  0.59350217  0.25828486  0.13027289  1
  O  O290  1  0.66263759  0.25857360  0.37198663  1
  O  O291  1  0.64295497  0.24873761  0.65021313  1
  O  O292  1  0.59146682  0.23857016  0.86265796  1
  O  O293  1  0.63685941  0.49844200  0.08976993  1
  O  O294  1  0.59639404  0.49671728  0.39408795  1
  O  O295  1  0.62149498  0.49868487  0.62926690  1
  O  O296  1  0.65190893  0.49887539  0.87649374  1
  O  O297  1  0.63034935  0.75026370  0.11795011  1
  O  O298  1  0.65799393  0.74330764  0.36122894  1
  O  O299  1  0.62258281  0.74861247  0.63025170  1
  O  O300  1  0.60585061  0.75079506  0.85993430  1
  O  O301  1  0.86863949  0.00346051  0.08246451  1
  O  O302  1  0.90830112  0.00253679  0.37294803  1
  O  O303  1  0.86611877  -0.00931817  0.61606327  1
  O  O304  1  0.83985235  -0.00109185  0.89486663  1
  O  O305  1  0.89015824  0.24818001  0.13796998  1
  O  O306  1  0.85016281  0.25735165  0.35229503  1
  O  O307  1  0.84820374  0.24719858  0.67357174  1
  O  O308  1  0.90445566  0.23860371  0.85986450  1
  O  O309  1  0.87048975  0.49406432  0.09378782  1
  O  O310  1  0.88624695  0.48995823  0.40911368  1
  O  O311  1  0.88059852  0.49523756  0.60232731  1
  O  O312  1  0.87561956  0.50761196  0.90498241  1
  O  O313  1  0.85623744  0.75135194  0.14310493  1
  O  O314  1  0.85230228  0.75367539  0.34018170  1
  O  O315  1  0.86312183  0.74107556  0.65186004  1
  O  O316  1  0.88900884  0.75176553  0.86080609  1
