# generated using pymatgen
data_Mg32Ti42(Bi17O64)3
_symmetry_space_group_name_H-M   'P 1'
_cell_length_a   15.97615455
_cell_length_b   15.95449791
_cell_length_c   15.97686478
_cell_angle_alpha   90.19834430
_cell_angle_beta   90.05112071
_cell_angle_gamma   89.87451489
_symmetry_Int_Tables_number   1
_chemical_formula_structural   Mg32Ti42(Bi17O64)3
_chemical_formula_sum   'Mg32 Ti42 Bi51 O192'
_cell_volume   4072.33165831
_cell_formula_units_Z   1
loop_
 _symmetry_equiv_pos_site_id
 _symmetry_equiv_pos_as_xyz
  1  'x, y, z'
loop_
 _atom_site_type_symbol
 _atom_site_label
 _atom_site_symmetry_multiplicity
 _atom_site_fract_x
 _atom_site_fract_y
 _atom_site_fract_z
 _atom_site_occupancy
  Mg  Mg0  1  0.37059681  0.38857987  0.87832184  1
  Mg  Mg1  1  0.61256946  0.63081655  0.38071871  1
  Mg  Mg2  1  0.62302242  0.12721608  0.86166060  1
  Mg  Mg3  1  0.36455388  0.12821302  0.62422447  1
  Mg  Mg4  1  0.37572871  0.87585020  0.37221033  1
  Mg  Mg5  1  0.87198989  0.87154467  0.87122422  1
  Mg  Mg6  1  0.12188677  0.87514732  0.87194737  1
  Mg  Mg7  1  0.62353396  0.11407108  0.39190140  1
  Mg  Mg8  1  0.12962837  0.12333869  0.12556013  1
  Mg  Mg9  1  0.38292529  0.62386634  0.12953252  1
  Mg  Mg10  1  0.12925717  0.63145469  0.11177153  1
  Mg  Mg11  1  0.87906786  0.37844964  0.36400820  1
  Mg  Mg12  1  0.87927030  0.61262571  0.62771493  1
  Mg  Mg13  1  0.87178234  0.62921467  0.37922965  1
  Mg  Mg14  1  0.38277073  0.37717690  0.36524253  1
  Mg  Mg15  1  0.36711208  0.38388466  0.61681986  1
  Mg  Mg16  1  0.37684541  0.86517962  0.63669894  1
  Mg  Mg17  1  0.87889706  0.12445767  0.86709763  1
  Mg  Mg18  1  0.37590840  0.88409988  0.12792125  1
  Mg  Mg19  1  0.06156726  0.00948310  0.74232938  1
  Mg  Mg20  1  0.28736314  0.76193328  0.03893744  1
  Mg  Mg21  1  0.81600553  0.06227368  0.49143241  1
  Mg  Mg22  1  0.80145283  0.46382241  -0.00857479  1
  Mg  Mg23  1  0.81568362  0.48356237  0.49170308  1
  Mg  Mg24  1  0.48624755  0.54640214  0.80922934  1
  Mg  Mg25  1  0.49919295  0.47720084  0.00107453  1
  Mg  Mg26  1  0.52858730  0.75669663  0.00513557  1
  Mg  Mg27  1  0.45743561  0.31044711  0.74345747  1
  Mg  Mg28  1  -0.00159224  0.05281298  0.44807816  1
  Mg  Mg29  1  0.01776021  0.28009745  0.73142119  1
  Mg  Mg30  1  0.51364014  0.76443205  0.78365630  1
  Mg  Mg31  1  0.77431725  0.21919261  0.73165184  1
  Ti  Ti32  1  0.37840747  0.86372452  0.88444865  1
  Ti  Ti33  1  0.37898995  0.13736525  0.87470421  1
  Ti  Ti34  1  0.87246309  0.60846181  0.11837246  1
  Ti  Ti35  1  0.62278157  0.87004644  0.40005338  1
  Ti  Ti36  1  0.88273494  0.35719652  0.87088990  1
  Ti  Ti37  1  0.86405338  0.36426416  0.12377566  1
  Ti  Ti38  1  0.13366273  0.36573359  0.87681094  1
  Ti  Ti39  1  0.88198647  0.62181428  0.87516030  1
  Ti  Ti40  1  0.13493487  0.88222840  0.63082001  1
  Ti  Ti41  1  0.39112745  0.38147614  0.12525552  1
  Ti  Ti42  1  0.38916920  0.12637781  0.13128725  1
  Ti  Ti43  1  0.62809972  0.62440877  0.87630432  1
  Ti  Ti44  1  0.12474930  0.13172638  0.61792866  1
  Ti  Ti45  1  0.62793856  0.38280803  0.39462450  1
  Ti  Ti46  1  0.37070186  0.61773659  0.62380015  1
  Ti  Ti47  1  0.11939057  0.13055203  0.87227101  1
  Ti  Ti48  1  0.61853265  0.60720741  0.63971561  1
  Ti  Ti49  1  0.86727514  0.86951330  0.12120280  1
  Ti  Ti50  1  0.87552099  0.87610407  0.60986969  1
  Ti  Ti51  1  0.38291733  0.62867815  0.36450973  1
  Ti  Ti52  1  0.61982260  0.11888988  0.62927326  1
  Ti  Ti53  1  0.12406206  0.63182641  0.63313889  1
  Ti  Ti54  1  0.62744956  0.39098041  0.87190828  1
  Ti  Ti55  1  0.90492219  0.13026828  0.63877112  1
  Ti  Ti56  1  0.61823578  0.87041952  0.63880773  1
  Ti  Ti57  1  0.13411698  0.86509206  0.11571850  1
  Ti  Ti58  1  0.63556077  0.37271207  0.11628105  1
  Ti  Ti59  1  0.12094825  0.36872460  0.36028685  1
  Ti  Ti60  1  0.10358801  0.37106437  0.12382293  1
  Ti  Ti61  1  0.61278909  0.37800127  0.64197045  1
  Ti  Ti62  1  0.61685678  0.61854663  0.12006773  1
  Ti  Ti63  1  0.13113511  0.63165207  0.87624481  1
  Ti  Ti64  1  0.63171598  0.86862200  0.86873927  1
  Ti  Ti65  1  0.86461918  0.12080624  0.11356103  1
  Ti  Ti66  1  0.63281647  0.86742493  0.11946237  1
  Ti  Ti67  1  0.38289648  0.12935107  0.37518017  1
  Ti  Ti68  1  0.62468435  0.12339060  0.11479195  1
  Ti  Ti69  1  0.87556006  0.36767911  0.62881700  1
  Ti  Ti70  1  0.13739763  0.13773546  0.35911886  1
  Ti  Ti71  1  0.11802094  0.37436194  0.61414666  1
  Ti  Ti72  1  0.87424710  0.87982097  0.38565777  1
  Ti  Ti73  1  0.36813666  0.63623175  0.90115267  1
  Bi  Bi74  1  0.26082134  0.51197210  0.75001398  1
  Bi  Bi75  1  0.00847430  -0.00146945  -0.01764533  1
  Bi  Bi76  1  0.49144245  0.50735643  0.49250278  1
  Bi  Bi77  1  0.25746553  0.26581888  0.72634965  1
  Bi  Bi78  1  0.00988394  0.22483689  0.00068076  1
  Bi  Bi79  1  0.47880665  0.75784461  0.21619247  1
  Bi  Bi80  1  0.26579331  0.26745740  0.47669192  1
  Bi  Bi81  1  0.26551274  0.76892995  0.76474159  1
  Bi  Bi82  1  0.76746267  0.49595981  0.74854689  1
  Bi  Bi83  1  0.73483820  -0.02308894  0.26386236  1
  Bi  Bi84  1  0.20971885  -0.03170327  0.25671034  1
  Bi  Bi85  1  0.21870159  0.73343214  0.27945836  1
  Bi  Bi86  1  0.76452815  0.50079845  0.28202129  1
  Bi  Bi87  1  -0.02208177  0.25004119  0.46420995  1
  Bi  Bi88  1  0.48456309  0.25011519  0.53440047  1
  Bi  Bi89  1  -0.03096528  0.22588155  0.24522170  1
  Bi  Bi90  1  0.00418035  0.76090747  -0.01972728  1
  Bi  Bi91  1  0.27416254  0.25738925  0.23906975  1
  Bi  Bi92  1  0.27243726  0.76095684  0.49562267  1
  Bi  Bi93  1  0.72234763  0.24466312  0.52615034  1
  Bi  Bi94  1  0.01479621  0.50578366  0.73815581  1
  Bi  Bi95  1  -0.01605428  -0.00549001  0.22484029  1
  Bi  Bi96  1  -0.00976988  0.78389308  0.73631327  1
  Bi  Bi97  1  0.04667364  0.77562763  0.46659850  1
  Bi  Bi98  1  0.77190216  0.75517141  0.73745226  1
  Bi  Bi99  1  0.52962346  0.48190391  0.25048834  1
  Bi  Bi100  1  0.51181234  0.74029165  0.53396688  1
  Bi  Bi101  1  0.25821408  0.01311892  0.76946283  1
  Bi  Bi102  1  0.51829098  -0.02610344  -0.00478833  1
  Bi  Bi103  1  0.74062431  0.23303753  -0.02989431  1
  Bi  Bi104  1  0.22144124  0.51079614  0.24350244  1
  Bi  Bi105  1  0.26918550  0.50662994  0.02077894  1
  Bi  Bi106  1  0.50427694  0.27054676  -0.03758700  1
  Bi  Bi107  1  0.28135520  0.01497349  0.01336532  1
  Bi  Bi108  1  0.74870838  0.71941533  0.00586068  1
  Bi  Bi109  1  0.01134674  0.54755292  0.25406606  1
  Bi  Bi110  1  0.21450097  -0.00947586  0.46870140  1
  Bi  Bi111  1  0.25799429  0.51579466  0.47301016  1
  Bi  Bi112  1  0.76321006  0.20427236  0.29401247  1
  Bi  Bi113  1  0.75672799  0.00776684  0.72043200  1
  Bi  Bi114  1  0.02958625  0.53189970  0.47139374  1
  Bi  Bi115  1  0.50476560  -0.01709956  0.28138736  1
  Bi  Bi116  1  0.01749749  0.50373056  -0.01638600  1
  Bi  Bi117  1  0.73746303  0.74083043  0.27775164  1
  Bi  Bi118  1  0.47540079  0.02348224  0.74686477  1
  Bi  Bi119  1  0.75240449  0.70824202  0.51402670  1
  Bi  Bi120  1  -0.02550280  0.75957816  0.24951935  1
  Bi  Bi121  1  0.25367017  0.25863743  0.01907590  1
  Bi  Bi122  1  0.75675522  -0.00264404  -0.03061982  1
  Bi  Bi123  1  0.54121394  0.24255532  0.26037912  1
  Bi  Bi124  1  0.45971385  -0.01945188  0.51587460  1
  O  O125  1  0.09951888  0.11018504  -0.00172294  1
  O  O126  1  0.15403145  0.14640098  0.24967916  1
  O  O127  1  0.10306814  0.10006076  0.50852553  1
  O  O128  1  0.14367608  0.12058918  0.75725472  1
  O  O129  1  0.09505328  0.38451860  0.00048036  1
  O  O130  1  0.13965295  0.35420964  0.24681298  1
  O  O131  1  0.10392886  0.39816982  0.50571371  1
  O  O132  1  0.13614577  0.33793503  0.76011106  1
  O  O133  1  0.13321787  0.59139231  -0.00886201  1
  O  O134  1  0.12799757  0.62762548  0.24023811  1
  O  O135  1  0.13825499  0.59935527  0.51704236  1
  O  O136  1  0.10796085  0.62070909  0.75718796  1
  O  O137  1  0.09196036  0.88248519  0.00250149  1
  O  O138  1  0.13737132  0.85012808  0.23913008  1
  O  O139  1  0.12761605  0.87949169  0.51071499  1
  O  O140  1  0.09214695  0.88066131  0.74487024  1
  O  O141  1  0.39173774  0.11165701  -0.01078231  1
  O  O142  1  0.36148522  0.13362711  0.24418136  1
  O  O143  1  0.39254419  0.14651025  0.49662704  1
  O  O144  1  0.36132527  0.11170624  0.75302473  1
  O  O145  1  0.41080256  0.36765033  0.00060513  1
  O  O146  1  0.35049707  0.38156785  0.23833069  1
  O  O147  1  0.39003377  0.34609249  0.49542729  1
  O  O148  1  0.34730605  0.38080596  0.74804681  1
  O  O149  1  0.34519626  0.64771050  0.01059769  1
  O  O150  1  0.41528851  0.62520243  0.25560591  1
  O  O151  1  0.32867961  0.63397646  0.49662046  1
  O  O152  1  0.38658168  0.57965171  0.73483292  1
  O  O153  1  0.35506051  0.87178991  -0.00105298  1
  O  O154  1  0.41124589  0.88597470  0.24985467  1
  O  O155  1  0.36304030  0.88664667  0.50247586  1
  O  O156  1  0.39541057  0.82432525  0.75957447  1
  O  O157  1  0.61945845  0.15237425  0.00212853  1
  O  O158  1  0.63935440  0.12712492  0.24299762  1
  O  O159  1  0.61692903  0.14207956  0.51305224  1
  O  O160  1  0.67252446  0.13034441  0.74015125  1
  O  O161  1  0.58814397  0.37573537  -0.00096482  1
  O  O162  1  0.64534144  0.41074686  0.23318477  1
  O  O163  1  0.60680775  0.36737756  0.50445269  1
  O  O164  1  0.64105998  0.39458696  0.75378506  1
  O  O165  1  0.61694354  0.66245070  -0.01068750  1
  O  O166  1  0.62136681  0.61107710  0.23637659  1
  O  O167  1  0.62899832  0.64689202  0.51551854  1
  O  O168  1  0.59407516  0.60111723  0.75557451  1
  O  O169  1  0.62749837  0.86174793  -0.00614562  1
  O  O170  1  0.61765074  0.89664853  0.23467440  1
  O  O171  1  0.63386664  0.84998661  0.50979646  1
  O  O172  1  0.59323009  0.88424072  0.75704140  1
  O  O173  1  0.88953600  0.14906872  -0.00015961  1
  O  O174  1  0.87578484  0.11856580  0.23905113  1
  O  O175  1  0.91958015  0.12877949  0.51816720  1
  O  O176  1  0.84823694  0.11071963  0.74424952  1
  O  O177  1  0.87830576  0.35448228  -0.00782910  1
  O  O178  1  0.84737218  0.39511091  0.23662639  1
  O  O179  1  0.88451841  0.36746792  0.51265997  1
  O  O180  1  0.86346659  0.40158207  0.75961267  1
  O  O181  1  0.87401469  0.65178566  0.00154421  1
  O  O182  1  0.86300416  0.60207816  0.23778789  1
  O  O183  1  0.84635243  0.60970757  0.50603424  1
  O  O184  1  0.87375159  0.59320587  0.75838145  1
  O  O185  1  0.88159784  0.84883930  0.00842385  1
  O  O186  1  0.86753837  0.91181083  0.25673700  1
  O  O187  1  0.86118057  0.84278240  0.49718761  1
  O  O188  1  0.87615653  0.86809434  0.74123219  1
  O  O189  1  -0.00064928  0.14854579  0.13219315  1
  O  O190  1  0.01359414  0.14651997  0.36291279  1
  O  O191  1  0.00666421  0.09010878  0.66669652  1
  O  O192  1  0.00447362  0.15387138  0.86773676  1
  O  O193  1  -0.00926980  0.35388965  0.13637237  1
  O  O194  1  0.00495627  0.35425961  0.36347230  1
  O  O195  1  -0.00082935  0.38403100  0.65520061  1
  O  O196  1  -0.00912818  0.33314343  0.84960439  1
  O  O197  1  -0.00768149  0.63185734  0.13181526  1
  O  O198  1  -0.00019693  0.63342739  0.37385879  1
  O  O199  1  0.00626040  0.59488138  0.62310490  1
  O  O200  1  -0.00055099  0.63316365  0.89127799  1
  O  O201  1  -0.00789337  0.86721115  0.15304846  1
  O  O202  1  -0.00765646  0.85225096  0.36547074  1
  O  O203  1  -0.00974287  0.86895574  0.61565106  1
  O  O204  1  -0.00619355  0.84073984  0.87270961  1
  O  O205  1  0.25736168  0.12622603  0.09297476  1
  O  O206  1  0.25156155  0.11525079  0.39656699  1
  O  O207  1  0.23931673  0.15255145  0.61623599  1
  O  O208  1  0.25249456  0.09566708  0.88475930  1
  O  O209  1  0.25440420  0.38645506  0.09269708  1
  O  O210  1  0.24436735  0.38127218  0.39556162  1
  O  O211  1  0.23835397  0.34628466  0.61317272  1
  O  O212  1  0.24160147  0.39469240  0.89349728  1
  O  O213  1  0.25478231  0.58808358  0.13614254  1
  O  O214  1  0.26376872  0.59927812  0.34511582  1
  O  O215  1  0.24774797  0.62064972  0.65509556  1
  O  O216  1  0.24997327  0.60532308  0.85753921  1
  O  O217  1  0.24337901  0.90250802  0.11687031  1
  O  O218  1  0.25189326  0.90060461  0.36851954  1
  O  O219  1  0.24722356  0.85686776  0.65125006  1
  O  O220  1  0.24587972  0.88370445  0.84097969  1
  O  O221  1  0.50389262  0.14257586  0.13651002  1
  O  O222  1  0.50051171  0.14763713  0.35882991  1
  O  O223  1  0.50667123  0.11746898  0.64552270  1
  O  O224  1  0.49597770  0.12868604  0.84597425  1
  O  O225  1  0.50300388  0.36841256  0.15292628  1
  O  O226  1  0.51036942  0.36702375  0.34093548  1
  O  O227  1  0.50094341  0.38362229  0.64855375  1
  O  O228  1  0.49889824  0.35647934  0.85119760  1
  O  O229  1  0.50640829  0.67061441  0.10659222  1
  O  O230  1  0.48871726  0.63196341  0.42094241  1
  O  O231  1  0.49392451  0.61093648  0.60000326  1
  O  O232  1  0.47726464  0.66446920  0.86791631  1
  O  O233  1  0.50879437  0.84960248  0.10178806  1
  O  O234  1  0.50427626  0.88937879  0.39221084  1
  O  O235  1  0.50191488  0.88422472  0.60500795  1
  O  O236  1  0.49446349  0.84349932  0.90110502  1
  O  O237  1  0.75068107  0.10827606  0.10237984  1
  O  O238  1  0.75097771  0.12157352  0.39838584  1
  O  O239  1  0.76860949  0.13764667  0.59619536  1
  O  O240  1  0.74810673  0.11281255  0.89894948  1
  O  O241  1  0.74717977  0.39275244  0.08659207  1
  O  O242  1  0.74302582  0.41107063  0.39964040  1
  O  O243  1  0.76654643  0.31973518  0.64134082  1
  O  O244  1  0.73712897  0.41747214  0.89281323  1
  O  O245  1  0.74436278  0.61679995  0.09717111  1
  O  O246  1  0.74052061  0.64096133  0.37533644  1
  O  O247  1  0.73277532  0.64174985  0.64687253  1
  O  O248  1  0.74133832  0.61219769  0.88436200  1
  O  O249  1  0.75136869  0.90425526  0.12850902  1
  O  O250  1  0.74602100  0.87175297  0.35738491  1
  O  O251  1  0.73747696  0.85695856  0.64439256  1
  O  O252  1  0.74431833  0.89200773  0.86566361  1
  O  O253  1  0.10566288  -0.00498252  0.14701334  1
  O  O254  1  0.11749950  0.01288574  0.36535056  1
  O  O255  1  0.14403017  -0.00365845  0.64150912  1
  O  O256  1  0.09080525  0.00377949  0.86658993  1
  O  O257  1  0.14284830  0.25585935  0.10093942  1
  O  O258  1  0.13951769  0.25232902  0.40111986  1
  O  O259  1  0.09138983  0.24529860  0.62363298  1
  O  O260  1  0.14482616  0.24502398  0.90535997  1
  O  O261  1  0.10784802  0.48869342  0.14389654  1
  O  O262  1  0.10943350  0.49068243  0.35991745  1
  O  O263  1  0.13443943  0.48316667  0.66110875  1
  O  O264  1  0.09110262  0.48293197  0.86462062  1
  O  O265  1  0.16347162  0.75349746  0.08939105  1
  O  O266  1  0.16019926  0.74187631  0.40076986  1
  O  O267  1  0.11404233  0.74402435  0.62292867  1
  O  O268  1  0.13205469  0.74256338  0.89084090  1
  O  O269  1  0.38396505  0.00945488  0.11505883  1
  O  O270  1  0.39482247  0.01365640  0.37452527  1
  O  O271  1  0.37985494  -0.00161194  0.63606129  1
  O  O272  1  0.38318483  -0.01914769  0.85405641  1
  O  O273  1  0.36121787  0.25310749  0.12140403  1
  O  O274  1  0.34917288  0.25046346  0.35884582  1
  O  O275  1  0.39611683  0.25311995  0.64603650  1
  O  O276  1  0.36456622  0.24903027  0.87124133  1
  O  O277  1  0.39802432  0.49789400  0.09543660  1
  O  O278  1  0.38770927  0.50301977  0.39671939  1
  O  O279  1  0.36042620  0.50241990  0.57963236  1
  O  O280  1  0.39902538  0.51607093  0.90025116  1
  O  O281  1  0.35764088  0.75617570  0.14894745  1
  O  O282  1  0.35041301  0.74796687  0.37601664  1
  O  O283  1  0.38279739  0.73673295  0.60883761  1
  O  O284  1  0.32768354  0.75117910  0.89061304  1
  O  O285  1  0.60821424  0.00566373  0.09598007  1
  O  O286  1  0.62706576  -0.00921596  0.37163369  1
  O  O287  1  0.63847025  0.00021347  0.63167515  1
  O  O288  1  0.61163569  -0.00506072  0.89608824  1
  O  O289  1  0.64028642  0.26108065  0.13413747  1
  O  O290  1  0.64383317  0.26463378  0.35854908  1
  O  O291  1  0.61835538  0.25615251  0.62882238  1
  O  O292  1  0.63999980  0.26739649  0.88083690  1
  O  O293  1  0.58630354  0.51127103  0.09761046  1
  O  O294  1  0.59644531  0.50232309  0.38013885  1
  O  O295  1  0.63748148  0.49636459  0.61717713  1
  O  O296  1  0.57964842  0.51170983  0.89403237  1
  O  O297  1  0.65786452  0.75717354  0.12859942  1
  O  O298  1  0.61679828  0.75994894  0.35407946  1
  O  O299  1  0.58456249  0.75190145  0.65527030  1
  O  O300  1  0.62831863  0.74976344  0.84857161  1
  O  O301  1  0.89988543  0.00397477  0.11060813  1
  O  O302  1  0.89375594  -0.01061867  0.41631282  1
  O  O303  1  0.84839796  -0.00807276  0.60811196  1
  O  O304  1  0.87888140  -0.00279556  0.90071764  1
  O  O305  1  0.85535520  0.25078739  0.14151560  1
  O  O306  1  0.87335290  0.25455636  0.37097211  1
  O  O307  1  0.91128791  0.24333972  0.66759507  1
  O  O308  1  0.82697179  0.25503068  0.85028643  1
  O  O309  1  0.87861438  0.49789624  0.09169183  1
  O  O310  1  0.87399593  0.50180776  0.37743715  1
  O  O311  1  0.83609697  0.48231278  0.62096603  1
  O  O312  1  0.88864285  0.50009054  0.90402377  1
  O  O313  1  0.86048035  0.75868952  0.15597539  1
  O  O314  1  0.86523063  0.75311113  0.34067314  1
  O  O315  1  0.86945304  0.74071851  0.64115572  1
  O  O316  1  0.85935369  0.73709480  0.85553986  1
