# generated using pymatgen
data_Mg32Ti42(Bi17O64)3
_symmetry_space_group_name_H-M   'P 1'
_cell_length_a   15.94135079
_cell_length_b   15.92320186
_cell_length_c   15.93476888
_cell_angle_alpha   90.00874880
_cell_angle_beta   90.25048536
_cell_angle_gamma   89.93517526
_symmetry_Int_Tables_number   1
_chemical_formula_structural   Mg32Ti42(Bi17O64)3
_chemical_formula_sum   'Mg32 Ti42 Bi51 O192'
_cell_volume   4044.79816475
_cell_formula_units_Z   1
loop_
 _symmetry_equiv_pos_site_id
 _symmetry_equiv_pos_as_xyz
  1  'x, y, z'
loop_
 _atom_site_type_symbol
 _atom_site_label
 _atom_site_symmetry_multiplicity
 _atom_site_fract_x
 _atom_site_fract_y
 _atom_site_fract_z
 _atom_site_occupancy
  Mg  Mg0  1  0.37385366  0.61126825  0.35971248  1
  Mg  Mg1  1  0.87054099  0.62723480  0.37037773  1
  Mg  Mg2  1  0.12484869  0.62821731  0.87336216  1
  Mg  Mg3  1  0.11750175  0.12416653  0.61091840  1
  Mg  Mg4  1  0.38741670  0.63044896  0.62567039  1
  Mg  Mg5  1  0.36959921  0.11803325  0.61737947  1
  Mg  Mg6  1  0.86725958  0.62813844  0.62900590  1
  Mg  Mg7  1  0.87385104  0.86978478  0.38536015  1
  Mg  Mg8  1  0.37581643  0.61659121  0.12570573  1
  Mg  Mg9  1  0.62529758  0.11756514  0.12226541  1
  Mg  Mg10  1  0.37560811  0.12931472  0.36823392  1
  Mg  Mg11  1  0.12533409  0.61751023  0.12361728  1
  Mg  Mg12  1  0.37069855  0.37074294  0.12157050  1
  Mg  Mg13  1  0.61807915  0.87091540  0.36256685  1
  Mg  Mg14  1  0.38034551  0.37158046  0.85884350  1
  Mg  Mg15  1  0.12874214  0.12657365  0.88169988  1
  Mg  Mg16  1  0.38280086  0.62996554  0.87289992  1
  Mg  Mg17  1  0.86480587  0.37061051  0.37501035  1
  Mg  Mg18  1  0.36710854  0.87124180  0.37193138  1
  Mg  Mg19  1  0.69496449  0.43157874  0.01579454  1
  Mg  Mg20  1  0.26635378  0.49548377  0.20458624  1
  Mg  Mg21  1  0.57162078  -0.02585941  0.71759318  1
  Mg  Mg22  1  0.00302776  0.52800660  -0.02753651  1
  Mg  Mg23  1  0.70544743  0.20321472  0.50476152  1
  Mg  Mg24  1  0.51119911  0.77343144  0.67186837  1
  Mg  Mg25  1  0.52447704  0.25794705  0.02524420  1
  Mg  Mg26  1  0.01094191  0.20564179  0.22317439  1
  Mg  Mg27  1  0.49984895  0.74792246  0.24334464  1
  Mg  Mg28  1  0.00032664  0.45438180  0.45867330  1
  Mg  Mg29  1  0.75114643  -0.03412181  0.02433899  1
  Mg  Mg30  1  0.50182451  0.49315106  0.48655073  1
  Mg  Mg31  1  0.29875440  0.00580596  0.47099831  1
  Ti  Ti32  1  0.87443861  0.61423006  0.11957663  1
  Ti  Ti33  1  0.87933545  0.86834292  0.63157112  1
  Ti  Ti34  1  0.12869999  0.38254414  0.61047998  1
  Ti  Ti35  1  0.12973016  0.12192487  0.37573481  1
  Ti  Ti36  1  0.12271831  0.86745257  0.13574965  1
  Ti  Ti37  1  0.62594940  0.61545805  0.88960991  1
  Ti  Ti38  1  0.13277864  0.37871786  0.88814431  1
  Ti  Ti39  1  0.37447711  0.12219819  0.13729963  1
  Ti  Ti40  1  0.62357530  0.11264103  0.88811333  1
  Ti  Ti41  1  0.13286784  0.87470996  0.87760309  1
  Ti  Ti42  1  0.12626442  0.61226173  0.37752481  1
  Ti  Ti43  1  0.63647021  0.37589361  0.39320847  1
  Ti  Ti44  1  0.62894370  0.61552782  0.36715674  1
  Ti  Ti45  1  0.36851055  0.87144269  0.61701254  1
  Ti  Ti46  1  0.60801636  0.87532446  0.88669075  1
  Ti  Ti47  1  0.62008465  0.61982780  0.60637887  1
  Ti  Ti48  1  0.39584066  0.37684683  0.62903848  1
  Ti  Ti49  1  0.88280491  0.86960552  0.88458890  1
  Ti  Ti50  1  0.61664226  0.62025770  0.12136288  1
  Ti  Ti51  1  0.13232040  0.36947976  0.36867412  1
  Ti  Ti52  1  0.87377883  0.11539449  0.12715122  1
  Ti  Ti53  1  0.12377870  0.62122540  0.62555197  1
  Ti  Ti54  1  0.12690846  0.38401612  0.12251951  1
  Ti  Ti55  1  0.12736861  0.86856918  0.38466036  1
  Ti  Ti56  1  0.36659535  0.87560734  0.12522140  1
  Ti  Ti57  1  0.37708700  0.88059600  0.86123158  1
  Ti  Ti58  1  0.37167213  0.37606216  0.36689552  1
  Ti  Ti59  1  0.61722091  0.11796886  0.36421439  1
  Ti  Ti60  1  0.87579095  0.38432820  0.88532854  1
  Ti  Ti61  1  0.88693269  0.12701064  0.87682634  1
  Ti  Ti62  1  0.87814352  0.13061335  0.63093291  1
  Ti  Ti63  1  0.37377857  0.12549061  0.85842736  1
  Ti  Ti64  1  0.61512896  0.88570681  0.12163646  1
  Ti  Ti65  1  0.62312159  0.37437559  0.61450553  1
  Ti  Ti66  1  0.89082641  0.38051154  0.62180652  1
  Ti  Ti67  1  0.12221822  0.86711927  0.61895204  1
  Ti  Ti68  1  0.62479451  0.36025793  0.86478282  1
  Ti  Ti69  1  0.86103072  0.13270789  0.36871888  1
  Ti  Ti70  1  0.86976618  0.62218206  0.87974220  1
  Ti  Ti71  1  0.87798513  0.87120382  0.12330506  1
  Ti  Ti72  1  0.88961057  0.36218624  0.12490269  1
  Ti  Ti73  1  0.13669525  0.12086538  0.12592864  1
  Bi  Bi74  1  0.47924950  0.74667937  0.02221365  1
  Bi  Bi75  1  0.52393736  0.47223667  0.25082570  1
  Bi  Bi76  1  0.74612541  0.47847118  0.20994478  1
  Bi  Bi77  1  0.25773398  0.00401107  -0.01127820  1
  Bi  Bi78  1  0.25335950  0.74041822  0.75965677  1
  Bi  Bi79  1  0.52534616  -0.01670760  0.53110772  1
  Bi  Bi80  1  0.01985493  -0.02231305  0.75978410  1
  Bi  Bi81  1  0.29302668  0.24792235  -0.01420718  1
  Bi  Bi82  1  0.75287166  0.49029680  0.72041845  1
  Bi  Bi83  1  0.28380278  0.25368319  0.49968431  1
  Bi  Bi84  1  -0.01941108  0.48096553  0.26558127  1
  Bi  Bi85  1  -0.02050200  0.74044780  0.26643618  1
  Bi  Bi86  1  0.74839764  0.73645650  -0.00108683  1
  Bi  Bi87  1  0.49593905  0.45543589  -0.01515789  1
  Bi  Bi88  1  0.76896278  0.23987239  -0.01554342  1
  Bi  Bi89  1  0.48688902  0.73862788  0.44703875  1
  Bi  Bi90  1  0.48604711  0.03175914  0.01291300  1
  Bi  Bi91  1  0.76046485  -0.01382443  0.79118638  1
  Bi  Bi92  1  0.25202214  0.26915051  0.23758565  1
  Bi  Bi93  1  0.00823382  0.72439802  0.01178763  1
  Bi  Bi94  1  0.72107310  0.74388441  0.24242937  1
  Bi  Bi95  1  0.26861779  0.73090618  0.47894880  1
  Bi  Bi96  1  0.02557596  0.24713469  0.00209806  1
  Bi  Bi97  1  0.51008778  0.21147182  0.50701677  1
  Bi  Bi98  1  0.28675657  0.49678143  0.50061915  1
  Bi  Bi99  1  0.24438858  -0.00161586  0.70171914  1
  Bi  Bi100  1  0.26598632  0.51405435  0.74448855  1
  Bi  Bi101  1  0.71746863  0.74372739  0.75460246  1
  Bi  Bi102  1  -0.01010827  0.71741269  0.50295929  1
  Bi  Bi103  1  0.26453113  0.51061103  -0.01285409  1
  Bi  Bi104  1  0.70707638  0.79017233  0.52040806  1
  Bi  Bi105  1  0.24894752  0.74001734  0.00387710  1
  Bi  Bi106  1  -0.02154070  -0.00021722  0.50380039  1
  Bi  Bi107  1  0.03270474  0.23826141  0.74505598  1
  Bi  Bi108  1  0.79300353  0.51284957  0.49222692  1
  Bi  Bi109  1  0.02602028  0.48395131  0.75972181  1
  Bi  Bi110  1  0.74080002  0.00946335  0.53251800  1
  Bi  Bi111  1  0.72237366  0.25347490  0.21122027  1
  Bi  Bi112  1  0.24854725  0.71559609  0.24410447  1
  Bi  Bi113  1  -0.00706754  0.23525190  0.45913356  1
  Bi  Bi114  1  0.53751216  0.19389906  0.73174082  1
  Bi  Bi115  1  -0.01097665  -0.01128235  0.27107351  1
  Bi  Bi116  1  0.24872825  0.22762462  0.72113481  1
  Bi  Bi117  1  0.74941159  -0.01956010  0.27905450  1
  Bi  Bi118  1  0.50428608  0.25728641  0.23185475  1
  Bi  Bi119  1  0.23806098  -0.00696652  0.27035536  1
  Bi  Bi120  1  0.51369251  0.53717051  0.75012845  1
  Bi  Bi121  1  0.01893343  -0.01124310  0.01150801  1
  Bi  Bi122  1  0.77290685  0.25714291  0.74424867  1
  Bi  Bi123  1  -0.00537350  0.72290755  0.74215262  1
  Bi  Bi124  1  0.47581976  -0.01627802  0.27503497  1
  O  O125  1  0.09873847  0.12528564  0.00941726  1
  O  O126  1  0.13458594  0.13129654  0.24700340  1
  O  O127  1  0.09246804  0.13289006  0.48706921  1
  O  O128  1  0.13620560  0.14069245  0.75498570  1
  O  O129  1  0.09423940  0.37906735  0.00946339  1
  O  O130  1  0.14998214  0.37780131  0.25364674  1
  O  O131  1  0.09564482  0.38047221  0.50216851  1
  O  O132  1  0.13335544  0.39271752  0.76789097  1
  O  O133  1  0.13797536  0.65115354  -0.00317889  1
  O  O134  1  0.13973918  0.62546002  0.25959761  1
  O  O135  1  0.11348395  0.63777461  0.50887486  1
  O  O136  1  0.09590035  0.61741161  0.75102104  1
  O  O137  1  0.10729213  0.87607801  0.00210809  1
  O  O138  1  0.14961482  0.87750559  0.25090291  1
  O  O139  1  0.10349565  0.86595349  0.50274535  1
  O  O140  1  0.13827305  0.90075870  0.75775775  1
  O  O141  1  0.40094569  0.15037711  0.01073191  1
  O  O142  1  0.35566641  0.09209314  0.24803344  1
  O  O143  1  0.37936195  0.15057764  0.49336265  1
  O  O144  1  0.34629987  0.11182106  0.74823241  1
  O  O145  1  0.41460251  0.33518618  0.00435419  1
  O  O146  1  0.32994958  0.39318021  0.25331410  1
  O  O147  1  0.38465592  0.34929973  0.49423234  1
  O  O148  1  0.36001879  0.40356874  0.73746708  1
  O  O149  1  0.37163504  0.65883227  -0.00101190  1
  O  O150  1  0.32836108  0.59959425  0.24492516  1
  O  O151  1  0.38606750  0.65177094  0.49944790  1
  O  O152  1  0.38110150  0.58722933  0.74681887  1
  O  O153  1  0.39291759  0.85297199  0.00479366  1
  O  O154  1  0.35217322  0.90655944  0.24312379  1
  O  O155  1  0.37827518  0.84639138  0.50385309  1
  O  O156  1  0.35155843  0.90609870  0.75389179  1
  O  O157  1  0.58447708  0.14608252  -0.00363648  1
  O  O158  1  0.65009751  0.13463321  0.25224936  1
  O  O159  1  0.61071938  0.11451727  0.48878852  1
  O  O160  1  0.61892280  0.08958444  0.76192471  1
  O  O161  1  0.59868069  0.35300861  -0.01078516  1
  O  O162  1  0.63955566  0.39139701  0.26686968  1
  O  O163  1  0.58466889  0.39411199  0.50198342  1
  O  O164  1  0.64818720  0.39000562  0.74939665  1
  O  O165  1  0.62491050  0.65691305  0.00718240  1
  O  O166  1  0.64646894  0.61059348  0.24761094  1
  O  O167  1  0.58718624  0.63031756  0.49385147  1
  O  O168  1  0.64521000  0.61881667  0.76536337  1
  O  O169  1  0.60854296  0.85035019  0.00673951  1
  O  O170  1  0.66209130  0.88054961  0.23797683  1
  O  O171  1  0.59739578  0.86432878  0.48836420  1
  O  O172  1  0.65222259  0.89266511  0.77209473  1
  O  O173  1  0.88336932  0.15284328  -0.00189981  1
  O  O174  1  0.85522361  0.10995795  0.25052070  1
  O  O175  1  0.90922867  0.12890474  0.49612615  1
  O  O176  1  0.84889821  0.13035314  0.74911195  1
  O  O177  1  0.88455327  0.34750289  0.00502098  1
  O  O178  1  0.86537677  0.40147373  0.24825775  1
  O  O179  1  0.90414619  0.38349072  0.50883539  1
  O  O180  1  0.84087462  0.38510921  0.76259419  1
  O  O181  1  0.87165530  0.66128282  0.00476038  1
  O  O182  1  0.89814782  0.61449404  0.23828862  1
  O  O183  1  0.87773001  0.63928503  0.49978013  1
  O  O184  1  0.88224081  0.62471212  0.76414073  1
  O  O185  1  0.91196843  0.87570456  0.00058573  1
  O  O186  1  0.86419555  0.90606125  0.24102095  1
  O  O187  1  0.90510650  0.87531894  0.51125535  1
  O  O188  1  0.85493436  0.89469815  0.75483342  1
  O  O189  1  -0.00967320  0.10576298  0.14391477  1
  O  O190  1  0.00009525  0.15672626  0.34318507  1
  O  O191  1  -0.00365824  0.14501589  0.64795347  1
  O  O192  1  -0.00408641  0.14945703  0.86018598  1
  O  O193  1  0.00095371  0.40069523  0.14734457  1
  O  O194  1  0.00618399  0.37046449  0.35723154  1
  O  O195  1  0.00024517  0.37425790  0.65802593  1
  O  O196  1  -0.01366493  0.36916516  0.86072722  1
  O  O197  1  -0.00014830  0.60111329  0.08294786  1
  O  O198  1  0.00953020  0.65301720  0.37758029  1
  O  O199  1  -0.00415048  0.64561227  0.62588170  1
  O  O200  1  -0.00551262  0.63897114  0.89833680  1
  O  O201  1  0.00628944  0.90518375  0.14131527  1
  O  O202  1  0.00759811  0.86623190  0.34804750  1
  O  O203  1  0.00096914  0.87247533  0.65929678  1
  O  O204  1  -0.00008533  0.86891363  0.85091429  1
  O  O205  1  0.25027105  0.14136537  0.10800818  1
  O  O206  1  0.24386783  0.09506969  0.39267087  1
  O  O207  1  0.24214470  0.13577622  0.61758690  1
  O  O208  1  0.25520048  0.11944788  0.90802044  1
  O  O209  1  0.24016248  0.34076320  0.11140890  1
  O  O210  1  0.24635530  0.39827232  0.40522118  1
  O  O211  1  0.24446260  0.39392079  0.60096477  1
  O  O212  1  0.24747472  0.38598407  0.91193960  1
  O  O213  1  0.25131009  0.66070223  0.11565458  1
  O  O214  1  0.24542892  0.61095230  0.40642566  1
  O  O215  1  0.24627680  0.61630670  0.63876633  1
  O  O216  1  0.25155803  0.62119306  0.84309986  1
  O  O217  1  0.25225036  0.85311079  0.10946545  1
  O  O218  1  0.24323942  0.91416943  0.39341519  1
  O  O219  1  0.24278415  0.86931971  0.62516596  1
  O  O220  1  0.24969723  0.89307276  0.89702802  1
  O  O221  1  0.49305865  0.10168620  0.14365261  1
  O  O222  1  0.50450221  0.15167366  0.36455655  1
  O  O223  1  0.49481056  0.11972475  0.62021741  1
  O  O224  1  0.48978735  0.13013530  0.84926752  1
  O  O225  1  0.49032408  0.37553018  0.16025326  1
  O  O226  1  0.48803444  0.36637185  0.33803583  1
  O  O227  1  0.50454466  0.35536757  0.64971483  1
  O  O228  1  0.50665508  0.39413495  0.85935790  1
  O  O229  1  0.50382756  0.60984545  0.12798173  1
  O  O230  1  0.49523266  0.65471246  0.33611184  1
  O  O231  1  0.51062998  0.64560863  0.65766145  1
  O  O232  1  0.50988388  0.62545409  0.86667736  1
  O  O233  1  0.50394514  0.90545991  0.13864291  1
  O  O234  1  0.49449281  0.84854298  0.32652752  1
  O  O235  1  0.49055061  0.89762666  0.64507478  1
  O  O236  1  0.49791989  0.87325188  0.85613720  1
  O  O237  1  0.75580142  0.16232167  0.11253025  1
  O  O238  1  0.74966250  0.11705244  0.40007847  1
  O  O239  1  0.76565251  0.13271829  0.59017450  1
  O  O240  1  0.73938821  0.12035061  0.90297341  1
  O  O241  1  0.75736168  0.36689963  0.12042050  1
  O  O242  1  0.74515467  0.40284510  0.40670159  1
  O  O243  1  0.74207623  0.40259286  0.61207794  1
  O  O244  1  0.74205184  0.37892623  0.90925960  1
  O  O245  1  0.75525096  0.65714701  0.12223502  1
  O  O246  1  0.74167005  0.59767472  0.38868531  1
  O  O247  1  0.73826549  0.61432689  0.61302261  1
  O  O248  1  0.75316172  0.62795743  0.89427683  1
  O  O249  1  0.76413531  0.85900946  0.09625328  1
  O  O250  1  0.74847164  0.89710609  0.38973723  1
  O  O251  1  0.76035216  0.88327143  0.60343184  1
  O  O252  1  0.76220821  0.90816830  0.90947412  1
  O  O253  1  0.14286039  0.00269858  0.11988046  1
  O  O254  1  0.10067157  0.00511283  0.36540418  1
  O  O255  1  0.11701440  -0.00529868  0.62661422  1
  O  O256  1  0.10022719  -0.00057184  0.88707021  1
  O  O257  1  0.09329277  0.24769347  0.13097111  1
  O  O258  1  0.14577317  0.25450191  0.37710627  1
  O  O259  1  0.13159366  0.26513622  0.63905543  1
  O  O260  1  0.12434075  0.25995631  0.89540337  1
  O  O261  1  0.16241616  0.49510617  0.12810479  1
  O  O262  1  0.09910615  0.50273885  0.38590733  1
  O  O263  1  0.10859258  0.50282717  0.63453623  1
  O  O264  1  0.09912634  0.49998201  0.89367805  1
  O  O265  1  0.10176362  0.75515203  0.13390892  1
  O  O266  1  0.15568168  0.75753234  0.37899536  1
  O  O267  1  0.12233393  0.75087440  0.64924060  1
  O  O268  1  0.14520364  0.75984169  0.85594946  1
  O  O269  1  0.36125822  -0.00070830  0.09369389  1
  O  O270  1  0.40030402  -0.00339070  0.39353259  1
  O  O271  1  0.34298053  -0.00521719  0.59081540  1
  O  O272  1  0.37809677  0.00420907  0.90835340  1
  O  O273  1  0.37949074  0.24161471  0.16282775  1
  O  O274  1  0.34288567  0.25763303  0.35691162  1
  O  O275  1  0.35691527  0.25801723  0.62908059  1
  O  O276  1  0.35553807  0.24561026  0.85930244  1
  O  O277  1  0.34386164  0.49376201  0.09807049  1
  O  O278  1  0.39536051  0.49326275  0.40508799  1
  O  O279  1  0.40882144  0.49267238  0.58466076  1
  O  O280  1  0.37625283  0.49779747  0.90865330  1
  O  O281  1  0.40973027  0.76107899  0.15001660  1
  O  O282  1  0.34527413  0.74661712  0.36604666  1
  O  O283  1  0.38450960  0.76107642  0.65604766  1
  O  O284  1  0.35618979  0.76288031  0.85298006  1
  O  O285  1  0.65200996  -0.00542198  0.09859653  1
  O  O286  1  0.60509099  0.00250086  0.35391438  1
  O  O287  1  0.63128901  -0.00556976  0.61144763  1
  O  O288  1  0.61114647  -0.00180524  0.90892722  1
  O  O289  1  0.60493241  0.24670128  0.13572948  1
  O  O290  1  0.64215030  0.26019008  0.40301792  1
  O  O291  1  0.63877549  0.26039279  0.60132896  1
  O  O292  1  0.62715097  0.24537089  0.84868512  1
  O  O293  1  0.64987198  0.50811737  0.10561914  1
  O  O294  1  0.58480871  0.50441441  0.38251122  1
  O  O295  1  0.60162541  0.50714772  0.62554240  1
  O  O296  1  0.62607330  0.50428851  0.91559868  1
  O  O297  1  0.60481462  0.75079703  0.16139704  1
  O  O298  1  0.64151117  0.74077754  0.36259683  1
  O  O299  1  0.63284314  0.75138884  0.63633012  1
  O  O300  1  0.64335273  0.75925908  0.86854822  1
  O  O301  1  0.85117648  0.00806332  0.09435463  1
  O  O302  1  0.90023554  0.00534090  0.38470203  1
  O  O303  1  0.88330987  0.00958452  0.61403697  1
  O  O304  1  0.89160447  0.01138842  0.87516022  1
  O  O305  1  0.90458185  0.25349337  0.15571910  1
  O  O306  1  0.86395735  0.24707629  0.38146682  1
  O  O307  1  0.86471861  0.26104789  0.63982383  1
  O  O308  1  0.84868983  0.25263895  0.86400382  1
  O  O309  1  0.85117642  0.50463804  0.10868650  1
  O  O310  1  0.89959044  0.50206072  0.39251261  1
  O  O311  1  0.87455611  0.49890741  0.63628891  1
  O  O312  1  0.89118652  0.50380306  0.90580886  1
  O  O313  1  0.90332136  0.76003326  0.13946006  1
  O  O314  1  0.86958550  0.75151605  0.34360358  1
  O  O315  1  0.86960572  0.75669779  0.64975252  1
  O  O316  1  0.85824517  0.75998631  0.87118116  1
