# generated using pymatgen
data_Mg32Ti42(Bi17O64)3
_symmetry_space_group_name_H-M   'P 1'
_cell_length_a   15.96537827
_cell_length_b   15.95853879
_cell_length_c   15.98262290
_cell_angle_alpha   90.07301644
_cell_angle_beta   90.00444563
_cell_angle_gamma   90.04573760
_symmetry_Int_Tables_number   1
_chemical_formula_structural   Mg32Ti42(Bi17O64)3
_chemical_formula_sum   'Mg32 Ti42 Bi51 O192'
_cell_volume   4072.11370927
_cell_formula_units_Z   1
loop_
 _symmetry_equiv_pos_site_id
 _symmetry_equiv_pos_as_xyz
  1  'x, y, z'
loop_
 _atom_site_type_symbol
 _atom_site_label
 _atom_site_symmetry_multiplicity
 _atom_site_fract_x
 _atom_site_fract_y
 _atom_site_fract_z
 _atom_site_occupancy
  Mg  Mg0  1  0.88509056  0.87607099  0.62522258  1
  Mg  Mg1  1  0.86942405  0.13202786  0.87531076  1
  Mg  Mg2  1  0.87341427  0.37103052  0.36753290  1
  Mg  Mg3  1  0.86912607  0.38416519  0.89595121  1
  Mg  Mg4  1  0.62711456  0.12871410  0.12283852  1
  Mg  Mg5  1  0.12458888  0.14086924  0.87475227  1
  Mg  Mg6  1  0.13383246  0.63049230  0.37622806  1
  Mg  Mg7  1  0.36435889  0.40099071  0.38042091  1
  Mg  Mg8  1  0.38220367  0.38152790  0.63250469  1
  Mg  Mg9  1  0.87240782  0.62223241  0.37419440  1
  Mg  Mg10  1  0.13198592  0.62362225  0.13052399  1
  Mg  Mg11  1  0.37651688  0.11685040  0.38190777  1
  Mg  Mg12  1  0.11558528  0.37407357  0.11605178  1
  Mg  Mg13  1  0.12981242  0.87064243  0.87623928  1
  Mg  Mg14  1  0.13555272  0.38055714  0.38539407  1
  Mg  Mg15  1  0.62277808  0.62615618  0.62252255  1
  Mg  Mg16  1  0.62337745  0.87169931  0.87414234  1
  Mg  Mg17  1  0.13115169  0.13319426  0.13213593  1
  Mg  Mg18  1  0.63211249  0.37279945  0.62753716  1
  Mg  Mg19  1  0.06925229  0.51195242  0.00005085  1
  Mg  Mg20  1  0.23118072  0.78391280  0.49450365  1
  Mg  Mg21  1  0.73265022  0.29404597  -0.01088838  1
  Mg  Mg22  1  0.77076057  0.26454692  0.79196505  1
  Mg  Mg23  1  0.25220943  0.29452088  0.19558450  1
  Mg  Mg24  1  0.49794348  0.03391523  0.51773565  1
  Mg  Mg25  1  -0.08555496  0.24844165  0.00065255  1
  Mg  Mg26  1  0.19088466  0.51849204  0.80465812  1
  Mg  Mg27  1  0.70327761  0.27293180  0.32206046  1
  Mg  Mg28  1  0.54313854  0.48017544  0.42452675  1
  Mg  Mg29  1  0.25971165  0.46534007  0.53403269  1
  Mg  Mg30  1  0.71625952  0.48883588  0.02365042  1
  Mg  Mg31  1  0.04440952  -0.00277814  0.21262372  1
  Ti  Ti32  1  0.37742130  0.12273965  0.62923024  1
  Ti  Ti33  1  0.61967590  0.88120668  0.12854115  1
  Ti  Ti34  1  0.38429485  0.61519685  0.86892678  1
  Ti  Ti35  1  0.88109520  0.87870407  0.37287163  1
  Ti  Ti36  1  0.63511682  0.87562894  0.62143253  1
  Ti  Ti37  1  0.12949546  0.14178930  0.62538315  1
  Ti  Ti38  1  0.88758333  0.87786554  0.13449955  1
  Ti  Ti39  1  0.11358864  0.88218104  0.37369537  1
  Ti  Ti40  1  0.88050847  0.37750673  0.12819962  1
  Ti  Ti41  1  0.63162001  0.63320735  0.12614226  1
  Ti  Ti42  1  0.37902807  0.61155119  0.60952308  1
  Ti  Ti43  1  0.37105125  0.64072204  0.11685523  1
  Ti  Ti44  1  0.12469135  0.87243188  0.63100169  1
  Ti  Ti45  1  0.63267187  0.87796200  0.38108273  1
  Ti  Ti46  1  0.37604577  0.88479227  0.87917850  1
  Ti  Ti47  1  0.37239505  0.63066978  0.37921897  1
  Ti  Ti48  1  0.88868062  0.12026160  0.37254713  1
  Ti  Ti49  1  0.63243723  0.12702005  0.62588163  1
  Ti  Ti50  1  0.11571773  0.37167777  0.88867586  1
  Ti  Ti51  1  0.38107496  0.12097692  0.13011739  1
  Ti  Ti52  1  0.61317717  0.11993634  0.38733558  1
  Ti  Ti53  1  0.39421187  0.37281952  0.86268437  1
  Ti  Ti54  1  0.87759666  0.13057996  0.13698142  1
  Ti  Ti55  1  0.36997874  0.87895969  0.37655237  1
  Ti  Ti56  1  0.36459329  0.88335487  0.62512843  1
  Ti  Ti57  1  0.13555937  0.86765582  0.11040552  1
  Ti  Ti58  1  0.37746544  0.87533137  0.12054817  1
  Ti  Ti59  1  0.13084577  0.12359394  0.37753424  1
  Ti  Ti60  1  0.14600110  0.62552469  0.61747707  1
  Ti  Ti61  1  0.62516804  0.63400185  0.87389834  1
  Ti  Ti62  1  0.63465615  0.12885284  0.87540848  1
  Ti  Ti63  1  0.87077237  0.38541465  0.62120642  1
  Ti  Ti64  1  0.12180677  0.38777233  0.62322691  1
  Ti  Ti65  1  0.87354549  0.12569255  0.63743505  1
  Ti  Ti66  1  0.38290975  0.12768322  0.86890753  1
  Ti  Ti67  1  0.88109598  0.62361323  0.62131881  1
  Ti  Ti68  1  0.62493129  0.63600260  0.37609162  1
  Ti  Ti69  1  0.63571028  0.36429731  0.13599431  1
  Ti  Ti70  1  0.62796391  0.37349076  0.86952405  1
  Ti  Ti71  1  0.86359723  0.62174118  0.87830866  1
  Ti  Ti72  1  0.89162222  0.86438277  0.87627497  1
  Ti  Ti73  1  0.86662019  0.61211347  0.12824928  1
  Bi  Bi74  1  0.51369524  0.50801629  0.72865728  1
  Bi  Bi75  1  0.74235545  0.03401944  0.26700979  1
  Bi  Bi76  1  0.00807062  0.03711804  0.01261605  1
  Bi  Bi77  1  0.50881191  0.75394300  0.73805176  1
  Bi  Bi78  1  0.76918771  0.77137684  0.01016660  1
  Bi  Bi79  1  0.45251041  0.28022377  0.26211076  1
  Bi  Bi80  1  0.01617875  0.73099647  0.24012613  1
  Bi  Bi81  1  0.23757981  0.28744689  0.74636636  1
  Bi  Bi82  1  0.00025735  0.71496619  -0.00189103  1
  Bi  Bi83  1  0.28254850  0.25616836  0.00067828  1
  Bi  Bi84  1  0.03661906  0.49102022  0.24823373  1
  Bi  Bi85  1  0.75061545  0.71917073  0.50413826  1
  Bi  Bi86  1  0.77091958  -0.01995343  0.77911082  1
  Bi  Bi87  1  0.49464526  0.77222405  0.26669418  1
  Bi  Bi88  1  0.77303833  0.75527125  0.26585666  1
  Bi  Bi89  1  0.73036033  0.46897907  0.47598669  1
  Bi  Bi90  1  0.03863858  0.26985009  0.25416151  1
  Bi  Bi91  1  0.52758544  -0.00027037  0.74221143  1
  Bi  Bi92  1  0.75399509  0.48204948  0.25807938  1
  Bi  Bi93  1  0.23175185  0.00345554  0.77564634  1
  Bi  Bi94  1  0.03870396  0.72018912  0.77261638  1
  Bi  Bi95  1  0.78617822  0.74652091  0.73345710  1
  Bi  Bi96  1  0.29029464  0.47359305  0.00301128  1
  Bi  Bi97  1  -0.00298068  0.27341710  0.48077992  1
  Bi  Bi98  1  0.51742769  0.50824526  0.01673472  1
  Bi  Bi99  1  0.01237242  0.51165150  0.48238126  1
  Bi  Bi100  1  0.02095685  0.73611783  0.50978279  1
  Bi  Bi101  1  0.76810261  0.01044230  0.01888335  1
  Bi  Bi102  1  0.73604330  0.48742793  0.76283339  1
  Bi  Bi103  1  0.02231445  0.00925362  0.52181629  1
  Bi  Bi104  1  0.27323577  0.48625548  0.22082734  1
  Bi  Bi105  1  0.50987605  0.29647193  0.47372044  1
  Bi  Bi106  1  0.23775783  0.03048997  0.00038445  1
  Bi  Bi107  1  0.48864562  0.53373733  0.24265784  1
  Bi  Bi108  1  0.25655193  0.01988064  0.50604356  1
  Bi  Bi109  1  0.01237467  0.02281232  0.77415551  1
  Bi  Bi110  1  0.77891261  -0.00408085  0.50665386  1
  Bi  Bi111  1  0.77649321  0.24233937  0.50439264  1
  Bi  Bi112  1  0.50577653  0.77110753  -0.00920248  1
  Bi  Bi113  1  0.50189100  0.01468638  0.26008161  1
  Bi  Bi114  1  0.24431221  0.75626885  0.26156901  1
  Bi  Bi115  1  -0.02317198  0.26787727  0.74327389  1
  Bi  Bi116  1  0.22953786  0.70433675  -0.04212981  1
  Bi  Bi117  1  0.48833302  0.78706478  0.51361630  1
  Bi  Bi118  1  -0.00674544  0.49585208  0.77754126  1
  Bi  Bi119  1  0.50318661  0.25078134  0.72251717  1
  Bi  Bi120  1  0.27965638  0.74510395  0.74688067  1
  Bi  Bi121  1  0.24630713  -0.00109757  0.24124235  1
  Bi  Bi122  1  0.52292732  0.01083466  -0.00665815  1
  Bi  Bi123  1  0.28752736  0.27322217  0.49372166  1
  Bi  Bi124  1  0.51403261  0.26500779  0.02520804  1
  O  O125  1  0.12841933  0.12250904  0.00249622  1
  O  O126  1  0.13215776  0.08738351  0.26057633  1
  O  O127  1  0.09798548  0.13382967  0.50853480  1
  O  O128  1  0.13164488  0.10357963  0.74031199  1
  O  O129  1  0.09075796  0.38025497  -0.00414982  1
  O  O130  1  0.13288449  0.38249873  0.25660405  1
  O  O131  1  0.09725250  0.36620890  0.51057016  1
  O  O132  1  0.15767372  0.40336474  0.74501587  1
  O  O133  1  0.11268633  0.63231671  0.00470790  1
  O  O134  1  0.09802216  0.61759707  0.25254609  1
  O  O135  1  0.14579247  0.67243745  0.49901233  1
  O  O136  1  0.11708958  0.60248599  0.73283260  1
  O  O137  1  0.13091729  0.84020212  0.00221869  1
  O  O138  1  0.13413988  0.91367907  0.25624239  1
  O  O139  1  0.12046728  0.84566154  0.48951968  1
  O  O140  1  0.13675125  0.89083206  0.74170017  1
  O  O141  1  0.34999198  0.12695715  -0.00056879  1
  O  O142  1  0.39716507  0.11880990  0.24823110  1
  O  O143  1  0.38209822  0.09415338  0.51089209  1
  O  O144  1  0.37401661  0.12112039  0.75211414  1
  O  O145  1  0.37805677  0.36313519  -0.01090626  1
  O  O146  1  0.33681091  0.35497203  0.26384863  1
  O  O147  1  0.39072655  0.36967620  0.50703583  1
  O  O148  1  0.35219094  0.37145557  0.75590689  1
  O  O149  1  0.37071014  0.61971139  0.00012497  1
  O  O150  1  0.41163244  0.64842494  0.23891835  1
  O  O151  1  0.36300589  0.61940601  0.49245552  1
  O  O152  1  0.37997280  0.63400510  0.75041284  1
  O  O153  1  0.38973620  0.87227488  -0.00207693  1
  O  O154  1  0.37186651  0.85654707  0.24858450  1
  O  O155  1  0.36182955  0.86580878  0.49459374  1
  O  O156  1  0.37267730  0.86207769  0.74378951  1
  O  O157  1  0.63273057  0.09619492  -0.00676989  1
  O  O158  1  0.60873358  0.10647008  0.25373467  1
  O  O159  1  0.61331825  0.10159188  0.50725768  1
  O  O160  1  0.60790953  0.12706076  0.75155679  1
  O  O161  1  0.59193698  0.38533241  -0.01310709  1
  O  O162  1  0.66210065  0.35881206  0.24399016  1
  O  O163  1  0.60046928  0.40923651  0.50700085  1
  O  O164  1  0.67709560  0.35100366  0.75961810  1
  O  O165  1  0.63145300  0.57857334  -0.01346150  1
  O  O166  1  0.61938143  0.63254600  0.24157445  1
  O  O167  1  0.64371277  0.62479359  0.49447986  1
  O  O168  1  0.60344879  0.64621527  0.75543969  1
  O  O169  1  0.59096894  0.88292961  -0.00004529  1
  O  O170  1  0.62807180  0.86751585  0.24428268  1
  O  O171  1  0.62477286  0.88127211  0.49940716  1
  O  O172  1  0.60196022  0.86579480  0.74261401  1
  O  O173  1  0.89234539  0.12479738  0.00351823  1
  O  O174  1  0.86831190  0.11725422  0.25357430  1
  O  O175  1  0.86501657  0.10473309  0.49861961  1
  O  O176  1  0.85487896  0.16350614  0.74617825  1
  O  O177  1  0.90057407  0.36960181  0.01475157  1
  O  O178  1  0.83612536  0.37127228  0.24550009  1
  O  O179  1  0.90952011  0.38193150  0.50695561  1
  O  O180  1  0.85808787  0.34719515  0.74054413  1
  O  O181  1  0.86826293  0.64139702  -0.00291604  1
  O  O182  1  0.86053580  0.63427285  0.24266862  1
  O  O183  1  0.85240164  0.62660141  0.50400540  1
  O  O184  1  0.88135694  0.63322885  0.74786823  1
  O  O185  1  0.88353367  0.86017005  -0.00181818  1
  O  O186  1  0.85180354  0.88494425  0.24577874  1
  O  O187  1  0.87264470  0.89207846  0.49272824  1
  O  O188  1  0.86298939  0.86979681  0.75333101  1
  O  O189  1  0.00148447  0.10303460  0.13740931  1
  O  O190  1  -0.00134312  0.10613497  0.37182350  1
  O  O191  1  -0.00692347  0.10615346  0.63967973  1
  O  O192  1  -0.00255082  0.13488959  0.85133470  1
  O  O193  1  -0.00727683  0.36570707  0.16246636  1
  O  O194  1  0.00012081  0.35879610  0.36330947  1
  O  O195  1  0.00450820  0.38636858  0.65876446  1
  O  O196  1  -0.00387375  0.36495388  0.84237557  1
  O  O197  1  -0.01490590  0.64798497  0.11855200  1
  O  O198  1  -0.00170955  0.62979302  0.40895171  1
  O  O199  1  0.00009194  0.61380882  0.59268585  1
  O  O200  1  -0.01142137  0.64138525  0.87903769  1
  O  O201  1  0.00066024  0.87189777  0.15226243  1
  O  O202  1  -0.00376715  0.89407664  0.36332069  1
  O  O203  1  0.00917363  0.89592538  0.61733615  1
  O  O204  1  0.00244247  0.84264206  0.86402031  1
  O  O205  1  0.25372297  0.08899525  0.13045088  1
  O  O206  1  0.24475364  0.12170369  0.40126016  1
  O  O207  1  0.24469549  0.13551634  0.60437914  1
  O  O208  1  0.25217461  0.09989716  0.87553882  1
  O  O209  1  0.24456472  0.39065722  0.10828503  1
  O  O210  1  0.25082883  0.39069244  0.43043740  1
  O  O211  1  0.24394703  0.35835655  0.60736157  1
  O  O212  1  0.23657603  0.40380621  0.89637286  1
  O  O213  1  0.25837089  0.61265237  0.14113305  1
  O  O214  1  0.26012790  0.64872029  0.34974095  1
  O  O215  1  0.25509070  0.64642339  0.63230638  1
  O  O216  1  0.25881280  0.59371134  0.87824958  1
  O  O217  1  0.25134598  0.89272167  0.12859636  1
  O  O218  1  0.24995814  0.84241615  0.37543401  1
  O  O219  1  0.24755978  0.84341275  0.60916463  1
  O  O220  1  0.25845501  0.89877827  0.87394695  1
  O  O221  1  0.49454162  0.14269749  0.10265538  1
  O  O222  1  0.50129361  0.07712736  0.38818595  1
  O  O223  1  0.49366659  0.09791106  0.62950773  1
  O  O224  1  0.49575542  0.14341708  0.88860328  1
  O  O225  1  0.51241134  0.34042659  0.13985729  1
  O  O226  1  0.49106672  0.38218955  0.36214938  1
  O  O227  1  0.50655619  0.37919192  0.66630240  1
  O  O228  1  0.50501416  0.34645056  0.84591460  1
  O  O229  1  0.51041478  0.62388697  0.10447327  1
  O  O230  1  0.50846064  0.59314160  0.38005189  1
  O  O231  1  0.49461539  0.59748124  0.61905313  1
  O  O232  1  0.49931806  0.63369344  0.88830189  1
  O  O233  1  0.49635419  0.84419666  0.13074582  1
  O  O234  1  0.49735415  0.88732542  0.36255329  1
  O  O235  1  0.48403918  0.90905040  0.59478757  1
  O  O236  1  0.49045689  0.83841579  0.86868077  1
  O  O237  1  0.75558161  0.10131488  0.12551814  1
  O  O238  1  0.73426945  0.14589803  0.35864336  1
  O  O239  1  0.74435236  0.13989326  0.61832535  1
  O  O240  1  0.74529970  0.09708622  0.86583289  1
  O  O241  1  0.74587533  0.38340365  0.08750176  1
  O  O242  1  0.75138415  0.34861450  0.40993764  1
  O  O243  1  0.75850771  0.36173947  0.59096199  1
  O  O244  1  0.73779184  0.40534908  0.91301618  1
  O  O245  1  0.74522695  0.59334870  0.10937532  1
  O  O246  1  0.74497840  0.65963134  0.37000509  1
  O  O247  1  0.75041061  0.64960079  0.62968940  1
  O  O248  1  0.74416597  0.60935536  0.85520356  1
  O  O249  1  0.73746055  0.89253104  0.09454974  1
  O  O250  1  0.74495606  0.85024790  0.37684914  1
  O  O251  1  0.74475888  0.85231165  0.62623017  1
  O  O252  1  0.74828554  0.89509376  0.88301327  1
  O  O253  1  0.11074657  -0.01462491  0.10227766  1
  O  O254  1  0.13088362  -0.00527475  0.41324443  1
  O  O255  1  0.13827085  -0.00536775  0.59747338  1
  O  O256  1  0.11374017  -0.00151541  0.87068326  1
  O  O257  1  0.14212733  0.25227311  0.15481834  1
  O  O258  1  0.12263066  0.23959574  0.36859585  1
  O  O259  1  0.11571617  0.25440304  0.65086564  1
  O  O260  1  0.14506061  0.26211970  0.85593208  1
  O  O261  1  0.09865554  0.50154285  0.12227257  1
  O  O262  1  0.11010590  0.50530023  0.38586568  1
  O  O263  1  0.14614387  0.50476614  0.58552416  1
  O  O264  1  0.09121602  0.49513251  0.87653276  1
  O  O265  1  0.12759408  0.75483986  0.15604320  1
  O  O266  1  0.11650483  0.76112269  0.33538091  1
  O  O267  1  0.10291261  0.74770664  0.63736134  1
  O  O268  1  0.15669497  0.74565758  0.84459750  1
  O  O269  1  0.39626070  -0.00676927  0.12736151  1
  O  O270  1  0.34935697  -0.01090629  0.36646668  1
  O  O271  1  0.33652970  -0.00532595  0.63467043  1
  O  O272  1  0.40037117  -0.00220522  0.87421998  1
  O  O273  1  0.34365496  0.23553957  0.12891523  1
  O  O274  1  0.39347490  0.24229659  0.39434251  1
  O  O275  1  0.39031439  0.24027854  0.62821603  1
  O  O276  1  0.35127682  0.24825413  0.87454227  1
  O  O277  1  0.38593089  0.50626491  0.14411752  1
  O  O278  1  0.37082911  0.51551450  0.33034248  1
  O  O279  1  0.34858359  0.50268424  0.61604304  1
  O  O280  1  0.39958706  0.49149131  0.87643928  1
  O  O281  1  0.35355839  0.75305745  0.11165811  1
  O  O282  1  0.40481060  0.74556940  0.37732425  1
  O  O283  1  0.40417507  0.75075101  0.61902165  1
  O  O284  1  0.34623426  0.74071986  0.87384483  1
  O  O285  1  0.59459968  -0.00592599  0.12581066  1
  O  O286  1  0.65050098  -0.00592069  0.37121940  1
  O  O287  1  0.63538057  -0.00346429  0.64822375  1
  O  O288  1  0.59558531  0.00061092  0.86496196  1
  O  O289  1  0.64257185  0.25145476  0.08115576  1
  O  O290  1  0.59407319  0.23378696  0.37435144  1
  O  O291  1  0.60121002  0.24213302  0.62137862  1
  O  O292  1  0.65611699  0.24672509  0.88973624  1
  O  O293  1  0.60981164  0.48461422  0.12251596  1
  O  O294  1  0.65295412  0.50779256  0.36487283  1
  O  O295  1  0.63779550  0.50046944  0.66422739  1
  O  O296  1  0.61386336  0.48955304  0.83626222  1
  O  O297  1  0.64346725  0.74428709  0.10164326  1
  O  O298  1  0.59944032  0.75127131  0.37634878  1
  O  O299  1  0.58874118  0.75939886  0.61647740  1
  O  O300  1  0.63288831  0.74231109  0.90562903  1
  O  O301  1  0.88267744  -0.00700462  0.10513333  1
  O  O302  1  0.83986987  0.00179493  0.37335990  1
  O  O303  1  0.85077416  0.00603705  0.63208487  1
  O  O304  1  0.88829851  -0.00652963  0.86012924  1
  O  O305  1  0.87679382  0.24241231  0.12164838  1
  O  O306  1  0.87961055  0.23795683  0.39688449  1
  O  O307  1  0.88965239  0.24414723  0.59610063  1
  O  O308  1  0.83488958  0.25814828  0.90365337  1
  O  O309  1  0.88580633  0.49975390  0.13424340  1
  O  O310  1  0.83766324  0.49648042  0.36916001  1
  O  O311  1  0.86442540  0.49942179  0.63607857  1
  O  O312  1  0.88552168  0.50529012  0.86714439  1
  O  O313  1  0.84665712  0.75878697  0.12679612  1
  O  O314  1  0.88210285  0.76188294  0.35748948  1
  O  O315  1  0.88701118  0.74613294  0.63064966  1
  O  O316  1  0.84961497  0.74992351  0.87234706  1
