# generated using pymatgen
data_Mg32Ti42(Bi17O64)3
_symmetry_space_group_name_H-M   'P 1'
_cell_length_a   15.95139574
_cell_length_b   15.94549123
_cell_length_c   15.98192197
_cell_angle_alpha   90.12196729
_cell_angle_beta   89.98547820
_cell_angle_gamma   90.06238454
_symmetry_Int_Tables_number   1
_chemical_formula_structural   Mg32Ti42(Bi17O64)3
_chemical_formula_sum   'Mg32 Ti42 Bi51 O192'
_cell_volume   4065.03550737
_cell_formula_units_Z   1
loop_
 _symmetry_equiv_pos_site_id
 _symmetry_equiv_pos_as_xyz
  1  'x, y, z'
loop_
 _atom_site_type_symbol
 _atom_site_label
 _atom_site_symmetry_multiplicity
 _atom_site_fract_x
 _atom_site_fract_y
 _atom_site_fract_z
 _atom_site_occupancy
  Mg  Mg0  1  0.87976979  0.36944869  0.13750872  1
  Mg  Mg1  1  0.12351752  0.12312529  0.12909845  1
  Mg  Mg2  1  0.37340134  0.88590223  0.37672475  1
  Mg  Mg3  1  0.86980395  0.12828014  0.62642027  1
  Mg  Mg4  1  0.87326568  0.62100279  0.11901361  1
  Mg  Mg5  1  0.87706349  0.87232401  0.62716311  1
  Mg  Mg6  1  0.62858515  0.61902889  0.86581345  1
  Mg  Mg7  1  0.87447410  0.87234054  0.12245428  1
  Mg  Mg8  1  0.13407946  0.87540439  0.61806779  1
  Mg  Mg9  1  0.62595879  0.11839489  0.13184332  1
  Mg  Mg10  1  0.37519783  0.61786433  0.87858914  1
  Mg  Mg11  1  0.87359709  0.62914167  0.62480039  1
  Mg  Mg12  1  0.12557614  0.61256155  0.87263811  1
  Mg  Mg13  1  0.38537175  0.88407856  0.87928751  1
  Mg  Mg14  1  0.62659136  0.61796018  0.12315910  1
  Mg  Mg15  1  0.86549921  0.37633869  0.61298063  1
  Mg  Mg16  1  0.12817697  0.13035636  0.62339892  1
  Mg  Mg17  1  0.13186808  0.13403853  0.86766334  1
  Mg  Mg18  1  0.62655688  0.87941869  0.88602511  1
  Mg  Mg19  1  0.74751908  0.22543985  0.50388216  1
  Mg  Mg20  1  0.52182911  0.00481778  0.49627367  1
  Mg  Mg21  1  -0.04584509  0.50789949  0.71819573  1
  Mg  Mg22  1  -0.00015847  0.23023866  0.28617697  1
  Mg  Mg23  1  0.05777442  0.23008235  -0.01454732  1
  Mg  Mg24  1  0.24135080  -0.07681125  -0.00863683  1
  Mg  Mg25  1  0.24619328  0.26973654  0.30279799  1
  Mg  Mg26  1  0.72606751  0.45913004  0.20141670  1
  Mg  Mg27  1  0.24841046  0.00224500  0.81585826  1
  Mg  Mg28  1  0.52727322  0.22789995  0.76487373  1
  Mg  Mg29  1  0.79396289  0.73438628  0.75580779  1
  Mg  Mg30  1  0.75408635  0.28085586  0.22766902  1
  Mg  Mg31  1  0.25706435  -0.01248082  0.47117987  1
  Ti  Ti32  1  0.63984752  0.13223783  0.88259275  1
  Ti  Ti33  1  0.12769894  0.35837355  0.12729930  1
  Ti  Ti34  1  0.87781386  0.87005534  0.88489311  1
  Ti  Ti35  1  0.37908167  0.12522962  0.86847907  1
  Ti  Ti36  1  0.12155782  0.62165573  0.63431015  1
  Ti  Ti37  1  0.62793123  0.36434386  0.61433727  1
  Ti  Ti38  1  0.12629839  0.12936387  0.38041735  1
  Ti  Ti39  1  0.89039589  0.62216752  0.86341024  1
  Ti  Ti40  1  0.37669997  0.87765861  0.12470845  1
  Ti  Ti41  1  0.63445522  0.87846750  0.12539853  1
  Ti  Ti42  1  0.87350093  0.37200104  0.86179640  1
  Ti  Ti43  1  0.63023830  0.37120841  0.86927794  1
  Ti  Ti44  1  0.63837346  0.88500617  0.37527149  1
  Ti  Ti45  1  0.37589806  0.89102255  0.63143028  1
  Ti  Ti46  1  0.37979412  0.12415218  0.14917798  1
  Ti  Ti47  1  0.11365487  0.36877914  0.37618803  1
  Ti  Ti48  1  0.62586417  0.12424318  0.62511965  1
  Ti  Ti49  1  0.88644917  0.87169276  0.37558253  1
  Ti  Ti50  1  0.37125531  0.11607697  0.62648849  1
  Ti  Ti51  1  0.38777298  0.37982866  0.62218115  1
  Ti  Ti52  1  0.37760837  0.60375258  0.12930216  1
  Ti  Ti53  1  0.36028371  0.36637777  0.13602647  1
  Ti  Ti54  1  0.63262243  0.12534169  0.38014404  1
  Ti  Ti55  1  0.62785009  0.65891015  0.63470888  1
  Ti  Ti56  1  0.12258980  0.62942347  0.37491991  1
  Ti  Ti57  1  0.12460978  0.37677332  0.63889425  1
  Ti  Ti58  1  0.88493620  0.61051633  0.37787595  1
  Ti  Ti59  1  0.86830149  0.36226708  0.37122378  1
  Ti  Ti60  1  0.87883728  0.13428901  0.13175478  1
  Ti  Ti61  1  0.88229691  0.13350288  0.87199720  1
  Ti  Ti62  1  0.12866863  0.61358529  0.13394291  1
  Ti  Ti63  1  0.12627798  0.88194475  0.13547406  1
  Ti  Ti64  1  0.37462136  0.63522339  0.63000301  1
  Ti  Ti65  1  0.64008793  0.35798822  0.38564726  1
  Ti  Ti66  1  0.62223503  0.88927063  0.62389451  1
  Ti  Ti67  1  0.38442487  0.37459865  0.38035724  1
  Ti  Ti68  1  0.37157453  0.12594358  0.38629694  1
  Ti  Ti69  1  0.13251795  0.86772810  0.37523364  1
  Ti  Ti70  1  0.10164729  0.37270609  0.87107097  1
  Ti  Ti71  1  0.87062548  0.12692240  0.37710548  1
  Ti  Ti72  1  0.38987885  0.37206228  0.87932618  1
  Ti  Ti73  1  0.37158710  0.62240709  0.37500280  1
  Bi  Bi74  1  0.50621846  0.23151255  0.50865294  1
  Bi  Bi75  1  0.03685017  0.75163746  0.01357867  1
  Bi  Bi76  1  0.00850448  0.49045520  0.52190807  1
  Bi  Bi77  1  0.24523792  0.48402789  0.27457752  1
  Bi  Bi78  1  0.28920631  0.75520020  0.25676844  1
  Bi  Bi79  1  0.00604910  0.76268955  0.51470049  1
  Bi  Bi80  1  0.51192615  0.79263229  0.48853112  1
  Bi  Bi81  1  -0.00223724  0.23168461  0.74164256  1
  Bi  Bi82  1  0.75968361  -0.03669656  0.76489573  1
  Bi  Bi83  1  0.04438560  -0.00732154  0.75209096  1
  Bi  Bi84  1  0.78007617  0.74598633  0.50046031  1
  Bi  Bi85  1  -0.02649630  0.74677130  0.22489026  1
  Bi  Bi86  1  0.53122086  0.75081899  0.24995470  1
  Bi  Bi87  1  0.00703378  0.00364294  0.52958112  1
  Bi  Bi88  1  0.27003024  0.24454765  0.75984711  1
  Bi  Bi89  1  0.74969636  0.25921555  0.73627577  1
  Bi  Bi90  1  0.72801150  0.52909788  0.47435480  1
  Bi  Bi91  1  0.77238764  -0.01100443  0.51156181  1
  Bi  Bi92  1  0.75195929  0.72221028  -0.02925852  1
  Bi  Bi93  1  0.00131792  0.47664381  0.02572038  1
  Bi  Bi94  1  0.51976580  0.00227555  0.78060644  1
  Bi  Bi95  1  0.23899021  0.01720509  0.26984156  1
  Bi  Bi96  1  0.23688082  0.50024598  -0.01840307  1
  Bi  Bi97  1  0.26754994  0.48603618  0.76647859  1
  Bi  Bi98  1  0.25878812  0.24307185  0.51952666  1
  Bi  Bi99  1  0.50616392  0.53199577  0.50363637  1
  Bi  Bi100  1  0.51114717  0.00353862  0.25491818  1
  Bi  Bi101  1  0.74693935  0.49372789  0.73375764  1
  Bi  Bi102  1  0.26442928  0.77312651  0.51909652  1
  Bi  Bi103  1  0.51544640  0.71651421  -0.01507092  1
  Bi  Bi104  1  0.03206473  0.76375377  0.78560273  1
  Bi  Bi105  1  0.77351443  0.00344460  0.23091571  1
  Bi  Bi106  1  0.24050525  0.79011198  0.77886773  1
  Bi  Bi107  1  0.77866024  0.48788783  0.00751147  1
  Bi  Bi108  1  0.53200741  0.45789295  0.04657667  1
  Bi  Bi109  1  0.53557578  0.51840533  0.27695002  1
  Bi  Bi110  1  -0.01679350  0.24213782  0.52025480  1
  Bi  Bi111  1  -0.00474262  0.48725401  0.25976336  1
  Bi  Bi112  1  0.51039406  0.49383333  0.76050413  1
  Bi  Bi113  1  0.75056087  0.69244951  0.24919719  1
  Bi  Bi114  1  0.54242532  0.27492944  0.23719341  1
  Bi  Bi115  1  0.25524219  0.71961678  0.02085612  1
  Bi  Bi116  1  0.48778395  0.22024892  0.00309189  1
  Bi  Bi117  1  0.04076783  -0.00057084  -0.01932219  1
  Bi  Bi118  1  0.50159308  -0.02374269  0.01720097  1
  Bi  Bi119  1  0.25553368  0.22330255  0.02355966  1
  Bi  Bi120  1  0.72437031  0.26787326  0.03358295  1
  Bi  Bi121  1  0.48697852  0.74177310  0.77993976  1
  Bi  Bi122  1  0.00490603  0.01547384  0.24119826  1
  Bi  Bi123  1  0.25322414  0.51093390  0.52415999  1
  Bi  Bi124  1  0.78131624  0.01164452  -0.00485441  1
  O  O125  1  0.11918843  0.11407605  -0.00164620  1
  O  O126  1  0.12144837  0.09798247  0.25289287  1
  O  O127  1  0.13793614  0.14230489  0.49323869  1
  O  O128  1  0.09291314  0.12681740  0.74659490  1
  O  O129  1  0.06845071  0.35885907  -0.01001316  1
  O  O130  1  0.15663135  0.35323558  0.23442354  1
  O  O131  1  0.09295354  0.37399994  0.48705759  1
  O  O132  1  0.14639048  0.38313553  0.75141394  1
  O  O133  1  0.14568093  0.62614373  0.00529480  1
  O  O134  1  0.10274242  0.62366060  0.24602355  1
  O  O135  1  0.13876812  0.60464924  0.48521509  1
  O  O136  1  0.12309947  0.61867170  0.74449103  1
  O  O137  1  0.12310903  0.89152125  0.00627959  1
  O  O138  1  0.10341644  0.89208544  0.25277574  1
  O  O139  1  0.15961408  0.87834933  0.49148428  1
  O  O140  1  0.12341287  0.86270570  0.74362414  1
  O  O141  1  0.38133200  0.12452621  -0.01353022  1
  O  O142  1  0.39360638  0.13849106  0.25988633  1
  O  O143  1  0.32790595  0.11152807  0.50158465  1
  O  O144  1  0.39268210  0.16625479  0.73561803  1
  O  O145  1  0.40712109  0.38595691  -0.01005167  1
  O  O146  1  0.33576193  0.34640691  0.24455006  1
  O  O147  1  0.39225182  0.40223058  0.49128036  1
  O  O148  1  0.35341536  0.36404306  0.73410204  1
  O  O149  1  0.34999746  0.61482518  0.00888595  1
  O  O150  1  0.38732950  0.64323512  0.24669139  1
  O  O151  1  0.37000071  0.59876606  0.49189836  1
  O  O152  1  0.37931953  0.64873990  0.74430918  1
  O  O153  1  0.36382206  0.90909388  0.00754801  1
  O  O154  1  0.38444574  0.86072305  0.24726678  1
  O  O155  1  0.33590788  0.89079272  0.50316343  1
  O  O156  1  0.40005576  0.85855043  0.74093248  1
  O  O157  1  0.61496561  0.14644067  -0.00367785  1
  O  O158  1  0.60573515  0.11046477  0.26491313  1
  O  O159  1  0.63035761  0.16134262  0.50419295  1
  O  O160  1  0.60786932  0.12007244  0.74102029  1
  O  O161  1  0.60788793  0.35105710  -0.01229976  1
  O  O162  1  0.65349999  0.35905063  0.26471051  1
  O  O163  1  0.59801182  0.35793137  0.50073971  1
  O  O164  1  0.65779199  0.37048213  0.74142985  1
  O  O165  1  0.64110296  0.63379157  -0.00217062  1
  O  O166  1  0.60576693  0.63472346  0.25071642  1
  O  O167  1  0.63130140  0.61630318  0.51757232  1
  O  O168  1  0.60763024  0.61553045  0.73916903  1
  O  O169  1  0.62694706  0.89831980  0.01174668  1
  O  O170  1  0.59939118  0.88954988  0.25627879  1
  O  O171  1  0.63596283  0.86004657  0.49848012  1
  O  O172  1  0.61732769  0.90252657  0.74189409  1
  O  O173  1  0.88079396  0.10991604  0.01509845  1
  O  O174  1  0.85088237  0.11746927  0.25892974  1
  O  O175  1  0.86132226  0.16506170  0.49422739  1
  O  O176  1  0.88661873  0.13512270  0.75516889  1
  O  O177  1  0.88872920  0.40265070  -0.02236770  1
  O  O178  1  0.82492738  0.38497120  0.25566245  1
  O  O179  1  0.90243810  0.37112587  0.48773714  1
  O  O180  1  0.83125391  0.37455014  0.74305648  1
  O  O181  1  0.84696461  0.61980793  -0.01171282  1
  O  O182  1  0.88869215  0.63116123  0.25922629  1
  O  O183  1  0.84568340  0.61488123  0.49870872  1
  O  O184  1  0.88953544  0.65344081  0.74993524  1
  O  O185  1  0.87464122  0.89863238  -0.00176003  1
  O  O186  1  0.89757667  0.87010782  0.26129146  1
  O  O187  1  0.84374703  0.87518197  0.49622034  1
  O  O188  1  0.85084400  0.85559475  0.74962287  1
  O  O189  1  -0.01237238  0.15106797  0.17238002  1
  O  O190  1  -0.00214010  0.12609976  0.36945625  1
  O  O191  1  -0.00256681  0.12370522  0.59918975  1
  O  O192  1  -0.00689923  0.15892765  0.89364770  1
  O  O193  1  0.00625317  0.38590755  0.14202042  1
  O  O194  1  -0.00260670  0.36496307  0.32594147  1
  O  O195  1  -0.00100115  0.41529307  0.63835620  1
  O  O196  1  -0.00771956  0.36956497  0.83196046  1
  O  O197  1  0.00638131  0.64980928  0.10785932  1
  O  O198  1  0.00177834  0.62441299  0.39284326  1
  O  O199  1  0.00048917  0.59294421  0.62287634  1
  O  O200  1  0.00045347  0.63948431  0.88520173  1
  O  O201  1  0.00123616  0.83876178  0.11715932  1
  O  O202  1  0.00170695  0.87831978  0.40298558  1
  O  O203  1  0.00292755  0.87676949  0.59443842  1
  O  O204  1  -0.00658551  0.87480722  0.86173716  1
  O  O205  1  0.25980629  0.12739103  0.12679456  1
  O  O206  1  0.24534652  0.14645558  0.34399381  1
  O  O207  1  0.25112402  0.16435480  0.63839060  1
  O  O208  1  0.25747055  0.12515411  0.84285072  1
  O  O209  1  0.24596238  0.36172454  0.08197499  1
  O  O210  1  0.23606424  0.37802133  0.37830660  1
  O  O211  1  0.23780034  0.36518922  0.59993654  1
  O  O212  1  0.26450246  0.40226063  0.88019860  1
  O  O213  1  0.24739203  0.63265261  0.13828324  1
  O  O214  1  0.24560678  0.60952161  0.35018268  1
  O  O215  1  0.24977614  0.62572943  0.61263236  1
  O  O216  1  0.25320254  0.58495981  0.87105876  1
  O  O217  1  0.24224285  0.90406962  0.12487722  1
  O  O218  1  0.24489034  0.86945688  0.34198449  1
  O  O219  1  0.25760493  0.84845043  0.64031530  1
  O  O220  1  0.26069708  0.89060181  0.86794509  1
  O  O221  1  0.49764384  0.14838988  0.11846872  1
  O  O222  1  0.48440606  0.10869354  0.41138915  1
  O  O223  1  0.48195196  0.10983296  0.58752245  1
  O  O224  1  0.50119084  0.14332219  0.86599699  1
  O  O225  1  0.48251345  0.37361887  0.14244305  1
  O  O226  1  0.49235238  0.37114307  0.34244133  1
  O  O227  1  0.50032131  0.39956247  0.63833430  1
  O  O228  1  0.50375933  0.35714955  0.83056794  1
  O  O229  1  0.49096956  0.61176691  0.10602526  1
  O  O230  1  0.49047428  0.60583049  0.38490339  1
  O  O231  1  0.49349699  0.61145428  0.61459132  1
  O  O232  1  0.50047538  0.62570063  0.88251350  1
  O  O233  1  0.49154766  0.86324587  0.10253205  1
  O  O234  1  0.49366600  0.90487876  0.41076676  1
  O  O235  1  0.49042619  0.90076352  0.58844356  1
  O  O236  1  0.50518782  0.91205965  0.88723699  1
  O  O237  1  0.74959902  0.08645418  0.12434704  1
  O  O238  1  0.74407322  0.14294473  0.38509873  1
  O  O239  1  0.74061325  0.13912854  0.62619493  1
  O  O240  1  0.75464520  0.13089899  0.89760999  1
  O  O241  1  0.75408488  0.38579725  0.09929773  1
  O  O242  1  0.75086504  0.33765119  0.41207491  1
  O  O243  1  0.73816788  0.31541258  0.60069041  1
  O  O244  1  0.74717229  0.39026396  0.89218731  1
  O  O245  1  0.74957167  0.59214036  0.15891754  1
  O  O246  1  0.75921912  0.61266303  0.36514003  1
  O  O247  1  0.74234022  0.67905467  0.64710222  1
  O  O248  1  0.75052924  0.65543928  0.85118027  1
  O  O249  1  0.74686952  0.89907583  0.13526251  1
  O  O250  1  0.74821978  0.87543634  0.35778775  1
  O  O251  1  0.73946526  0.89711692  0.62659269  1
  O  O252  1  0.75044994  0.88150769  0.87372971  1
  O  O253  1  0.07974420  -0.00219667  0.12271696  1
  O  O254  1  0.15787819  0.00610354  0.38670372  1
  O  O255  1  0.11410241  0.00130329  0.62710683  1
  O  O256  1  0.12725146  0.00659572  0.85938275  1
  O  O257  1  0.12536837  0.24525799  0.09706524  1
  O  O258  1  0.11477925  0.24903122  0.35250470  1
  O  O259  1  0.09121299  0.26382605  0.62928850  1
  O  O260  1  0.13879965  0.26064818  0.88378912  1
  O  O261  1  0.12793766  0.49636755  0.12045880  1
  O  O262  1  0.11074106  0.48984148  0.34572486  1
  O  O263  1  0.13624895  0.49694400  0.60542117  1
  O  O264  1  0.11876980  0.48663243  0.90132094  1
  O  O265  1  0.14248832  0.75912954  0.11084686  1
  O  O266  1  0.12600619  0.74863751  0.37539747  1
  O  O267  1  0.10729849  0.73760805  0.60906846  1
  O  O268  1  0.13886375  0.74340447  0.86775023  1
  O  O269  1  0.39966725  0.00701101  0.14819506  1
  O  O270  1  0.34021026  0.01046775  0.37065293  1
  O  O271  1  0.35138844  0.00477561  0.65035015  1
  O  O272  1  0.37536615  0.01384043  0.84156301  1
  O  O273  1  0.37032139  0.24937818  0.10168949  1
  O  O274  1  0.36081864  0.25459920  0.39499614  1
  O  O275  1  0.38072678  0.26198974  0.58930059  1
  O  O276  1  0.35992828  0.25665859  0.87751810  1
  O  O277  1  0.35731804  0.49162276  0.14142642  1
  O  O278  1  0.36466463  0.49222251  0.34536550  1
  O  O279  1  0.35423905  0.49946019  0.63081928  1
  O  O280  1  0.39410911  0.49275016  0.83825829  1
  O  O281  1  0.35187523  0.76036964  0.11802592  1
  O  O282  1  0.36200936  0.74173934  0.38396153  1
  O  O283  1  0.38331068  0.74680268  0.59489002  1
  O  O284  1  0.40073427  0.75546073  0.88751055  1
  O  O285  1  0.58768195  -0.00275985  0.13799140  1
  O  O286  1  0.62574483  0.00701100  0.40282750  1
  O  O287  1  0.61580385  0.00920768  0.59315676  1
  O  O288  1  0.63288390  0.01531016  0.86615660  1
  O  O289  1  0.65927378  0.23966069  0.14896366  1
  O  O290  1  0.59632479  0.24483661  0.36891356  1
  O  O291  1  0.57716930  0.24589255  0.64097833  1
  O  O292  1  0.63599250  0.24819698  0.84377624  1
  O  O293  1  0.61456166  0.49229913  0.15048340  1
  O  O294  1  0.62558227  0.47967119  0.38092050  1
  O  O295  1  0.66356028  0.47696713  0.61729853  1
  O  O296  1  0.60992763  0.48787878  0.86228350  1
  O  O297  1  0.62999705  0.75939675  0.14498068  1
  O  O298  1  0.59671332  0.76959707  0.36894822  1
  O  O299  1  0.59176668  0.76788923  0.63049868  1
  O  O300  1  0.59982384  0.75716621  0.88196653  1
  O  O301  1  0.88839581  0.00132132  0.15090275  1
  O  O302  1  0.86629013  0.00674709  0.39629015  1
  O  O303  1  0.87797955  0.00306903  0.60074442  1
  O  O304  1  0.86678231  0.00984290  0.86915721  1
  O  O305  1  0.83859749  0.24629235  0.13428980  1
  O  O306  1  0.88737572  0.25057180  0.34656276  1
  O  O307  1  0.90518002  0.25665048  0.63260285  1
  O  O308  1  0.85802552  0.25939617  0.86723409  1
  O  O309  1  0.88426072  0.49663227  0.11035268  1
  O  O310  1  0.89525357  0.49343218  0.36930452  1
  O  O311  1  0.84824784  0.50414251  0.64295303  1
  O  O312  1  0.88648680  0.50751721  0.83234644  1
  O  O313  1  0.85964164  0.74561284  0.14490013  1
  O  O314  1  0.87505099  0.75147294  0.39325342  1
  O  O315  1  0.88853387  0.74969502  0.59017644  1
  O  O316  1  0.87430982  0.75550632  0.89246755  1
