# generated using pymatgen
data_Mg32Ti42(Bi17O64)3
_symmetry_space_group_name_H-M   'P 1'
_cell_length_a   15.95643022
_cell_length_b   15.95598859
_cell_length_c   15.94780151
_cell_angle_alpha   90.00183734
_cell_angle_beta   90.03390097
_cell_angle_gamma   89.97278465
_symmetry_Int_Tables_number   1
_chemical_formula_structural   Mg32Ti42(Bi17O64)3
_chemical_formula_sum   'Mg32 Ti42 Bi51 O192'
_cell_volume   4060.31895727
_cell_formula_units_Z   1
loop_
 _symmetry_equiv_pos_site_id
 _symmetry_equiv_pos_as_xyz
  1  'x, y, z'
loop_
 _atom_site_type_symbol
 _atom_site_label
 _atom_site_symmetry_multiplicity
 _atom_site_fract_x
 _atom_site_fract_y
 _atom_site_fract_z
 _atom_site_occupancy
  Mg  Mg0  1  0.63236794  0.12061607  0.38026744  1
  Mg  Mg1  1  0.87739924  0.37776631  0.88722615  1
  Mg  Mg2  1  0.12276615  0.86326790  0.87352197  1
  Mg  Mg3  1  0.62460466  0.12300605  0.87520850  1
  Mg  Mg4  1  0.87097526  0.11755930  0.62106138  1
  Mg  Mg5  1  0.61860820  0.37830992  0.12685854  1
  Mg  Mg6  1  0.62610593  0.86570958  0.62586256  1
  Mg  Mg7  1  0.87542704  0.63346848  0.60867014  1
  Mg  Mg8  1  0.62977598  0.63267207  0.36918911  1
  Mg  Mg9  1  0.38101470  0.87978174  0.12414706  1
  Mg  Mg10  1  0.13630365  0.37341799  0.63016643  1
  Mg  Mg11  1  0.37997226  0.13497424  0.61843128  1
  Mg  Mg12  1  0.87411303  0.63059483  0.36408951  1
  Mg  Mg13  1  0.12866916  0.38563065  0.36614065  1
  Mg  Mg14  1  0.87809676  0.36953238  0.37247090  1
  Mg  Mg15  1  0.38163981  0.37389881  0.38248141  1
  Mg  Mg16  1  0.38434055  0.87217969  0.87049120  1
  Mg  Mg17  1  0.62992844  0.11781095  0.12250894  1
  Mg  Mg18  1  0.11506663  0.12947393  0.61610343  1
  Mg  Mg19  1  0.25401078  0.75095163  -0.05842277  1
  Mg  Mg20  1  0.77305782  0.03999418  0.48694407  1
  Mg  Mg21  1  0.74576826  0.78643030  0.27278150  1
  Mg  Mg22  1  0.75167586  0.53026258  0.21995446  1
  Mg  Mg23  1  0.20025160  0.73726042  0.53925839  1
  Mg  Mg24  1  0.50039732  0.30680368  0.52734927  1
  Mg  Mg25  1  0.78853271  0.72347568  0.47600865  1
  Mg  Mg26  1  -0.05975710  0.45487559  0.51403838  1
  Mg  Mg27  1  0.27923187  0.48063502  0.29495830  1
  Mg  Mg28  1  0.75574897  0.76927349  -0.05247813  1
  Mg  Mg29  1  -0.04151561  0.50046628  0.30016981  1
  Mg  Mg30  1  0.44228648  0.75373204  0.48232367  1
  Mg  Mg31  1  0.01901455  0.46044532  0.03204827  1
  Ti  Ti32  1  0.86485629  0.87100680  0.61269984  1
  Ti  Ti33  1  0.38169741  0.12624542  0.37646530  1
  Ti  Ti34  1  0.87012680  0.38968363  0.12593546  1
  Ti  Ti35  1  0.37107386  0.38321748  0.62885580  1
  Ti  Ti36  1  0.12651270  0.12911891  0.37233007  1
  Ti  Ti37  1  0.87462571  0.87292630  0.38009595  1
  Ti  Ti38  1  0.13804259  0.87268690  0.37482372  1
  Ti  Ti39  1  0.38311013  0.37440755  0.12603671  1
  Ti  Ti40  1  0.86363985  0.61891335  0.87929314  1
  Ti  Ti41  1  0.10947148  0.38607795  0.88013536  1
  Ti  Ti42  1  0.35936356  0.62583636  0.36688915  1
  Ti  Ti43  1  0.37756104  0.62485983  0.61687940  1
  Ti  Ti44  1  0.87730263  0.11465468  0.12298443  1
  Ti  Ti45  1  0.12525411  0.60146966  0.12212125  1
  Ti  Ti46  1  0.12461081  0.61721997  0.35597131  1
  Ti  Ti47  1  0.37591445  0.12939177  0.11982127  1
  Ti  Ti48  1  0.10803482  0.62988575  0.89049315  1
  Ti  Ti49  1  0.62762222  0.87315273  0.38636863  1
  Ti  Ti50  1  0.38092781  0.12079229  0.86636106  1
  Ti  Ti51  1  0.36214331  0.61441403  0.12799699  1
  Ti  Ti52  1  0.86866684  0.12649394  0.87490691  1
  Ti  Ti53  1  0.62206726  0.86926814  0.87093974  1
  Ti  Ti54  1  0.12991507  0.87508898  0.11902181  1
  Ti  Ti55  1  0.12571774  0.12048657  0.13317428  1
  Ti  Ti56  1  0.63083668  0.62974996  0.86527472  1
  Ti  Ti57  1  0.62839945  0.37536796  0.38704290  1
  Ti  Ti58  1  0.86746921  0.84734274  0.13913988  1
  Ti  Ti59  1  0.87564155  0.13369989  0.36987500  1
  Ti  Ti60  1  0.11289296  0.87850120  0.61539574  1
  Ti  Ti61  1  0.13528171  0.36701451  0.13081022  1
  Ti  Ti62  1  0.87754923  0.88475782  0.85730045  1
  Ti  Ti63  1  0.37817764  0.87781328  0.37350352  1
  Ti  Ti64  1  0.62025026  0.63051956  0.60881164  1
  Ti  Ti65  1  0.89053101  0.61604808  0.12739127  1
  Ti  Ti66  1  0.62542572  0.36767914  0.87652104  1
  Ti  Ti67  1  0.63769074  0.63107676  0.12522451  1
  Ti  Ti68  1  0.63609212  0.86595611  0.11782413  1
  Ti  Ti69  1  0.62344774  0.13347569  0.62603806  1
  Ti  Ti70  1  0.37077913  0.87819914  0.61451345  1
  Ti  Ti71  1  0.37278299  0.37078258  0.87898878  1
  Ti  Ti72  1  0.37432775  0.62584257  0.87030977  1
  Ti  Ti73  1  0.62054174  0.39671192  0.62394796  1
  Bi  Bi74  1  -0.01364159  0.27367756  0.22580926  1
  Bi  Bi75  1  0.21183348  0.53909110  0.51126877  1
  Bi  Bi76  1  0.78426764  0.48556545  0.71526771  1
  Bi  Bi77  1  0.25540962  0.28281279  0.49704927  1
  Bi  Bi78  1  0.00585863  0.00488575  0.47576728  1
  Bi  Bi79  1  0.49523233  0.48426377  0.76630435  1
  Bi  Bi80  1  -0.00222237  -0.01984514  0.22596641  1
  Bi  Bi81  1  0.77369338  0.27299786  0.74975017  1
  Bi  Bi82  1  0.03496287  0.74607482  0.23575578  1
  Bi  Bi83  1  0.21380829  0.00969722  0.75555099  1
  Bi  Bi84  1  0.49214746  0.24788635  0.73825541  1
  Bi  Bi85  1  0.51464839  0.52276653  0.23544751  1
  Bi  Bi86  1  0.53491005  -0.00401228  0.51358151  1
  Bi  Bi87  1  0.25407223  0.47892847  0.00004918  1
  Bi  Bi88  1  -0.00481217  0.01758285  0.73691725  1
  Bi  Bi89  1  0.24986500  0.03858259  0.51717684  1
  Bi  Bi90  1  0.27426293  0.26202934  0.25971270  1
  Bi  Bi91  1  0.02478149  0.28313525  0.48530391  1
  Bi  Bi92  1  0.50685512  -0.02289201  0.00510167  1
  Bi  Bi93  1  0.23427087  0.21688333  -0.01052832  1
  Bi  Bi94  1  0.27374161  0.01368496  0.23687661  1
  Bi  Bi95  1  -0.01261633  0.28572443  0.71251194  1
  Bi  Bi96  1  0.02258763  0.00356501  -0.03703980  1
  Bi  Bi97  1  -0.03390834  0.75638977  -0.01741388  1
  Bi  Bi98  1  0.74978470  0.00099257  0.71623562  1
  Bi  Bi99  1  0.75538192  0.50402961  0.46749242  1
  Bi  Bi100  1  0.20436263  0.23428636  0.76996646  1
  Bi  Bi101  1  0.01035137  0.21952769  -0.01087542  1
  Bi  Bi102  1  0.49080789  0.73656032  0.72918199  1
  Bi  Bi103  1  0.01657825  0.72354300  0.72499664  1
  Bi  Bi104  1  0.51563491  0.25836025  0.28478120  1
  Bi  Bi105  1  0.00932156  0.50018294  0.70819890  1
  Bi  Bi106  1  0.52077800  0.00948487  0.26014629  1
  Bi  Bi107  1  0.47748919  0.74162801  0.00752674  1
  Bi  Bi108  1  0.51271576  0.00324196  0.72680857  1
  Bi  Bi109  1  0.75235958  0.73062318  0.72020407  1
  Bi  Bi110  1  0.25350023  0.77620668  0.74380141  1
  Bi  Bi111  1  0.26069474  -0.02562414  -0.03029197  1
  Bi  Bi112  1  0.74455568  0.23880902  0.02609517  1
  Bi  Bi113  1  0.51808180  0.76764731  0.26012027  1
  Bi  Bi114  1  0.27151205  0.77023737  0.23238492  1
  Bi  Bi115  1  0.73759403  0.28832152  0.25086481  1
  Bi  Bi116  1  0.51160460  0.51417436  0.00055271  1
  Bi  Bi117  1  0.78201494  0.26628393  0.53184392  1
  Bi  Bi118  1  0.75400459  0.01081174  0.25654117  1
  Bi  Bi119  1  0.49450191  0.52650399  0.46808929  1
  Bi  Bi120  1  0.01293336  0.73509944  0.48694563  1
  Bi  Bi121  1  0.74531956  0.48121809  -0.02063545  1
  Bi  Bi122  1  0.74580228  -0.00987844  -0.02051805  1
  Bi  Bi123  1  0.51026428  0.22893594  -0.00341467  1
  Bi  Bi124  1  0.22338102  0.53716050  0.75381599  1
  O  O125  1  0.12448242  0.12903266  0.00527982  1
  O  O126  1  0.11871999  0.11933562  0.25091514  1
  O  O127  1  0.11654464  0.11307772  0.49242776  1
  O  O128  1  0.13180900  0.12013476  0.74335793  1
  O  O129  1  0.13570480  0.40328140  -0.00115902  1
  O  O130  1  0.11956595  0.35808668  0.24263703  1
  O  O131  1  0.14395847  0.36465185  0.50300544  1
  O  O132  1  0.10218457  0.36508277  0.75954913  1
  O  O133  1  0.10470605  0.59580392  0.00263481  1
  O  O134  1  0.14168876  0.63997495  0.24087753  1
  O  O135  1  0.11319100  0.63140282  0.48775018  1
  O  O136  1  0.13736538  0.64493552  0.76551950  1
  O  O137  1  0.14389599  0.88615987  0.00724512  1
  O  O138  1  0.10189310  0.87846203  0.25662699  1
  O  O139  1  0.14025002  0.85489967  0.49862402  1
  O  O140  1  0.14011360  0.87000280  0.73948443  1
  O  O141  1  0.35238826  0.12331424  0.00330928  1
  O  O142  1  0.35536637  0.12975829  0.24702728  1
  O  O143  1  0.37612445  0.11441288  0.48917375  1
  O  O144  1  0.40038942  0.13544205  0.75151982  1
  O  O145  1  0.37030412  0.38858502  -0.00079626  1
  O  O146  1  0.35702633  0.37972452  0.24723760  1
  O  O147  1  0.37298816  0.36266060  0.50874138  1
  O  O148  1  0.40384937  0.37516923  0.75015763  1
  O  O149  1  0.40065643  0.61455798  0.00533484  1
  O  O150  1  0.33285069  0.60148728  0.25315177  1
  O  O151  1  0.40452048  0.62916336  0.49938966  1
  O  O152  1  0.36611991  0.65014539  0.74896250  1
  O  O153  1  0.36382016  0.89394863  0.00182787  1
  O  O154  1  0.38753812  0.85327777  0.24923538  1
  O  O155  1  0.37212996  0.86503165  0.49190230  1
  O  O156  1  0.37332519  0.85160109  0.74129559  1
  O  O157  1  0.62860521  0.15909504  0.00197376  1
  O  O158  1  0.63180274  0.09018101  0.24459460  1
  O  O159  1  0.64475964  0.09640537  0.50853603  1
  O  O160  1  0.59724544  0.11446933  0.75043698  1
  O  O161  1  0.64622675  0.36699308  -0.00148593  1
  O  O162  1  0.61551541  0.37251323  0.26071993  1
  O  O163  1  0.62569157  0.35744378  0.50771672  1
  O  O164  1  0.60629112  0.39289784  0.74773295  1
  O  O165  1  0.58753406  0.63891247  0.01279485  1
  O  O166  1  0.64096710  0.59004187  0.24526379  1
  O  O167  1  0.58926544  0.63671370  0.50050971  1
  O  O168  1  0.65746186  0.61355088  0.75680421  1
  O  O169  1  0.66882439  0.84361938  0.01006087  1
  O  O170  1  0.59185936  0.88797505  0.24332585  1
  O  O171  1  0.63086808  0.88054142  0.49961518  1
  O  O172  1  0.60112929  0.88593718  0.76195434  1
  O  O173  1  0.88128018  0.15364893  0.00205846  1
  O  O174  1  0.87188301  0.10305021  0.24719808  1
  O  O175  1  0.85079368  0.14489428  0.49435709  1
  O  O176  1  0.87857307  0.09101761  0.75794069  1
  O  O177  1  0.83763239  0.36868260  0.01272401  1
  O  O178  1  0.91576003  0.39441672  0.24815248  1
  O  O179  1  0.87943349  0.34600673  0.49731393  1
  O  O180  1  0.87337548  0.38309718  0.75674509  1
  O  O181  1  0.88305891  0.65155268  0.00970229  1
  O  O182  1  0.86534522  0.57788685  0.24268462  1
  O  O183  1  0.89808049  0.66031104  0.48884517  1
  O  O184  1  0.84970659  0.61654272  0.76071877  1
  O  O185  1  0.85581323  0.83740823  0.02260297  1
  O  O186  1  0.88725674  0.89816197  0.26088891  1
  O  O187  1  0.84475935  0.83782632  0.50572014  1
  O  O188  1  0.88747478  0.91296233  0.74822926  1
  O  O189  1  0.00022700  0.15554537  0.11993368  1
  O  O190  1  -0.00900075  0.10418007  0.37794820  1
  O  O191  1  -0.00777849  0.08877047  0.62349814  1
  O  O192  1  -0.00678675  0.11649393  0.88637305  1
  O  O193  1  0.00654238  0.35075640  0.10416417  1
  O  O194  1  0.00765971  0.39555622  0.40495988  1
  O  O195  1  0.00260562  0.39530680  0.61719048  1
  O  O196  1  0.00044557  0.38956863  0.91331430  1
  O  O197  1  0.00367027  0.64155587  0.13639709  1
  O  O198  1  0.00971658  0.60684000  0.34340155  1
  O  O199  1  -0.00431583  0.61886362  0.64499958  1
  O  O200  1  -0.00737339  0.64179927  0.87209946  1
  O  O201  1  -0.00457101  0.86393201  0.13385910  1
  O  O202  1  -0.01089524  0.86754119  0.40287735  1
  O  O203  1  -0.00252595  0.90064754  0.61566796  1
  O  O204  1  -0.00457467  0.87633853  0.88918269  1
  O  O205  1  0.24195578  0.10093887  0.12841525  1
  O  O206  1  0.24490675  0.12491120  0.37663035  1
  O  O207  1  0.25139645  0.14082670  0.60545281  1
  O  O208  1  0.25894359  0.14535821  0.86346490  1
  O  O209  1  0.24934647  0.40139418  0.11757468  1
  O  O210  1  0.25345239  0.35577155  0.37260099  1
  O  O211  1  0.26123067  0.34802881  0.63527152  1
  O  O212  1  0.25824738  0.38386381  0.86980152  1
  O  O213  1  0.24665615  0.59606515  0.10266028  1
  O  O214  1  0.25179786  0.63422871  0.41137059  1
  O  O215  1  0.26112486  0.64182511  0.59738198  1
  O  O216  1  0.25867457  0.62910262  0.89174226  1
  O  O217  1  0.24618867  0.88671413  0.15379185  1
  O  O218  1  0.25225676  0.86952957  0.35202999  1
  O  O219  1  0.25510959  0.82746037  0.61695667  1
  O  O220  1  0.25307670  0.86289034  0.87715295  1
  O  O221  1  0.49308067  0.14194988  0.11004730  1
  O  O222  1  0.49985412  0.13061148  0.35632421  1
  O  O223  1  0.50147532  0.09147082  0.61532570  1
  O  O224  1  0.49486815  0.12417098  0.90573241  1
  O  O225  1  0.49343763  0.34873570  0.12403970  1
  O  O226  1  0.50528689  0.34658702  0.39552551  1
  O  O227  1  0.50275873  0.40651445  0.61014869  1
  O  O228  1  0.50533551  0.39621911  0.88269362  1
  O  O229  1  0.48725100  0.63475111  0.16394998  1
  O  O230  1  0.49640739  0.61086328  0.35658884  1
  O  O231  1  0.50653585  0.61378311  0.65379349  1
  O  O232  1  0.50778443  0.63459338  0.85348713  1
  O  O233  1  0.50884088  0.86404181  0.09509019  1
  O  O234  1  0.49778477  0.84412583  0.38769147  1
  O  O235  1  0.49202087  0.90014052  0.61971352  1
  O  O236  1  0.50920394  0.86554448  0.91106107  1
  O  O237  1  0.76013250  0.11510010  0.10818290  1
  O  O238  1  0.75559789  0.09406501  0.36801052  1
  O  O239  1  0.73845784  0.13378159  0.65402111  1
  O  O240  1  0.75277826  0.10060280  0.88496599  1
  O  O241  1  0.76083343  0.41387318  0.16762665  1
  O  O242  1  0.74798402  0.38353007  0.37753514  1
  O  O243  1  0.73821443  0.36200559  0.64226190  1
  O  O244  1  0.74288488  0.39273480  0.86360756  1
  O  O245  1  0.74765926  0.60404088  0.11507255  1
  O  O246  1  0.74942942  0.62204585  0.40426219  1
  O  O247  1  0.74727402  0.66443925  0.59602473  1
  O  O248  1  0.74943406  0.63854560  0.90989762  1
  O  O249  1  0.74999094  0.86717856  0.16757169  1
  O  O250  1  0.73880337  0.89562272  0.35098517  1
  O  O251  1  0.75247303  0.86097889  0.65615564  1
  O  O252  1  0.75380274  0.88985712  0.87352176  1
  O  O253  1  0.10073320  0.00199231  0.12665080  1
  O  O254  1  0.11920437  -0.01162637  0.38485137  1
  O  O255  1  0.15251114  -0.00773892  0.62367062  1
  O  O256  1  0.12726739  -0.00942954  0.86630258  1
  O  O257  1  0.15104046  0.24927247  0.11461988  1
  O  O258  1  0.10620111  0.24304835  0.37632229  1
  O  O259  1  0.09240163  0.25154176  0.62894733  1
  O  O260  1  0.13473290  0.26412862  0.88873974  1
  O  O261  1  0.09881775  0.49447667  0.13450629  1
  O  O262  1  0.16653695  0.50649524  0.35628429  1
  O  O263  1  0.13975634  0.50049593  0.65036189  1
  O  O264  1  0.12998891  0.50607223  0.85227398  1
  O  O265  1  0.13415340  0.75883330  0.13326010  1
  O  O266  1  0.11274815  0.74841060  0.36564167  1
  O  O267  1  0.09731210  0.75582854  0.61761754  1
  O  O268  1  0.13272289  0.74201184  0.90711737  1
  O  O269  1  0.38081536  0.00709146  0.14485174  1
  O  O270  1  0.38160652  -0.00634970  0.35545227  1
  O  O271  1  0.34086350  -0.01111505  0.62253237  1
  O  O272  1  0.36321916  0.00461897  0.86530995  1
  O  O273  1  0.34875056  0.25150079  0.12854218  1
  O  O274  1  0.37610504  0.24423480  0.35860103  1
  O  O275  1  0.41802118  0.25922727  0.62283327  1
  O  O276  1  0.39035813  0.25707786  0.88118443  1
  O  O277  1  0.40148244  0.49693657  0.12778583  1
  O  O278  1  0.37095194  0.50101597  0.38475795  1
  O  O279  1  0.35949430  0.50523464  0.63098847  1
  O  O280  1  0.38319803  0.50802762  0.86053410  1
  O  O281  1  0.35594628  0.73692589  0.12157175  1
  O  O282  1  0.37606189  0.74043398  0.36929787  1
  O  O283  1  0.41343779  0.74577750  0.61014659  1
  O  O284  1  0.37707924  0.74590321  0.90294906  1
  O  O285  1  0.62246563  -0.01272834  0.09426133  1
  O  O286  1  0.59353662  -0.00952374  0.37538252  1
  O  O287  1  0.62761215  -0.00539510  0.63917674  1
  O  O288  1  0.62072509  -0.00982740  0.91187784  1
  O  O289  1  0.66151259  0.25557068  0.13971178  1
  O  O290  1  0.63554082  0.24416936  0.35558074  1
  O  O291  1  0.59211858  0.24560236  0.62587183  1
  O  O292  1  0.62317582  0.25639554  0.86194747  1
  O  O293  1  0.59658575  0.50398481  0.11331141  1
  O  O294  1  0.62000676  0.49294881  0.39661335  1
  O  O295  1  0.64928617  0.50871988  0.61407641  1
  O  O296  1  0.62569043  0.51289675  0.90123227  1
  O  O297  1  0.62934281  0.74522134  0.15534077  1
  O  O298  1  0.63969651  0.75737606  0.34193214  1
  O  O299  1  0.61342154  0.74383501  0.65072491  1
  O  O300  1  0.64548140  0.75356238  0.86846788  1
  O  O301  1  0.89852421  0.00331194  0.11420405  1
  O  O302  1  0.87103621  -0.01168508  0.41881372  1
  O  O303  1  0.82797264  -0.00477475  0.59991890  1
  O  O304  1  0.88215044  -0.00724393  0.91358522  1
  O  O305  1  0.86042942  0.26512306  0.15124931  1
  O  O306  1  0.88273866  0.24425124  0.34702332  1
  O  O307  1  0.86424389  0.24210148  0.64472184  1
  O  O308  1  0.86979308  0.24232880  0.85458361  1
  O  O309  1  0.91018710  0.49943591  0.09333556  1
  O  O310  1  0.87897414  0.49947147  0.40610754  1
  O  O311  1  0.86610190  0.50810798  0.60833375  1
  O  O312  1  0.86275068  0.50791242  0.89766592  1
  O  O313  1  0.86619117  0.73907179  0.16760235  1
  O  O314  1  0.83902150  0.75946609  0.35618674  1
  O  O315  1  0.88832508  0.75933243  0.65511180  1
  O  O316  1  0.86841565  0.76319484  0.87513171  1
