# generated using pymatgen
data_Mg32Ti42(Bi17O64)3
_symmetry_space_group_name_H-M   'P 1'
_cell_length_a   15.93230683
_cell_length_b   15.93610627
_cell_length_c   15.93724842
_cell_angle_alpha   89.89826510
_cell_angle_beta   89.91675706
_cell_angle_gamma   90.00746714
_symmetry_Int_Tables_number   1
_chemical_formula_structural   Mg32Ti42(Bi17O64)3
_chemical_formula_sum   'Mg32 Ti42 Bi51 O192'
_cell_volume   4046.43971349
_cell_formula_units_Z   1
loop_
 _symmetry_equiv_pos_site_id
 _symmetry_equiv_pos_as_xyz
  1  'x, y, z'
loop_
 _atom_site_type_symbol
 _atom_site_label
 _atom_site_symmetry_multiplicity
 _atom_site_fract_x
 _atom_site_fract_y
 _atom_site_fract_z
 _atom_site_occupancy
  Mg  Mg0  1  0.62379653  0.13256863  0.86995230  1
  Mg  Mg1  1  0.12171501  0.11951086  0.37552899  1
  Mg  Mg2  1  0.38163835  0.87587366  0.38430130  1
  Mg  Mg3  1  0.87502521  0.62716792  0.36500078  1
  Mg  Mg4  1  0.13563379  0.11056590  0.62127039  1
  Mg  Mg5  1  0.12777977  0.12917207  0.88325166  1
  Mg  Mg6  1  0.12886870  0.62234268  0.87446920  1
  Mg  Mg7  1  0.62054530  0.13474942  0.37012351  1
  Mg  Mg8  1  0.87794988  0.13155602  0.11921346  1
  Mg  Mg9  1  0.12242723  0.37975131  0.37129631  1
  Mg  Mg10  1  0.37029192  0.37987579  0.88546923  1
  Mg  Mg11  1  0.62916820  0.87988645  0.37488347  1
  Mg  Mg12  1  0.37241763  0.13167594  0.12961456  1
  Mg  Mg13  1  0.87193267  0.12847184  0.86794998  1
  Mg  Mg14  1  0.10227004  0.37282532  0.87926742  1
  Mg  Mg15  1  0.12983391  0.62453077  0.39268792  1
  Mg  Mg16  1  0.37200566  0.11261325  0.61704181  1
  Mg  Mg17  1  0.87753015  0.61040846  0.63122221  1
  Mg  Mg18  1  0.12553252  0.87536139  0.87320557  1
  Mg  Mg19  1  0.46519336  0.25505050  0.22065483  1
  Mg  Mg20  1  0.54203031  -0.01041521  -0.05811769  1
  Mg  Mg21  1  0.44870316  0.25405857  0.55996124  1
  Mg  Mg22  1  0.21611938  0.47592303  -0.03394932  1
  Mg  Mg23  1  -0.00368942  0.20776465  -0.04307015  1
  Mg  Mg24  1  -0.04409599  0.04513138  0.24760901  1
  Mg  Mg25  1  0.72535008  0.49962943  0.19407071  1
  Mg  Mg26  1  0.53306529  0.80764276  0.78584872  1
  Mg  Mg27  1  0.05909643  0.23195452  0.73561575  1
  Mg  Mg28  1  0.48286322  0.04868417  0.48086268  1
  Mg  Mg29  1  0.47732852  0.43190386  0.53519138  1
  Mg  Mg30  1  0.67805583  -0.00966156  0.75460957  1
  Mg  Mg31  1  0.00693318  0.43002949  0.73176463  1
  Ti  Ti32  1  0.61978834  0.87915929  0.62545353  1
  Ti  Ti33  1  0.88414214  0.87848674  0.85965224  1
  Ti  Ti34  1  0.86550560  0.88014431  0.61665690  1
  Ti  Ti35  1  0.39051869  0.62465941  0.38316031  1
  Ti  Ti36  1  0.37264856  0.62442059  0.87190741  1
  Ti  Ti37  1  0.87148043  0.38659970  0.12180030  1
  Ti  Ti38  1  0.87241169  0.36713450  0.61510927  1
  Ti  Ti39  1  0.61367050  0.13058087  0.62435061  1
  Ti  Ti40  1  0.87472011  0.38379701  0.36052289  1
  Ti  Ti41  1  0.10991934  0.13553337  0.12431607  1
  Ti  Ti42  1  0.37659420  0.12806026  0.88963662  1
  Ti  Ti43  1  0.62486655  0.37959913  0.36453174  1
  Ti  Ti44  1  0.87345233  0.62663376  0.87150240  1
  Ti  Ti45  1  0.61298609  0.12473339  0.12260860  1
  Ti  Ti46  1  0.62338515  0.37792573  0.61687710  1
  Ti  Ti47  1  0.37665871  0.87274426  0.13253747  1
  Ti  Ti48  1  0.39437070  0.88407793  0.62016823  1
  Ti  Ti49  1  0.10731494  0.38329001  0.12791332  1
  Ti  Ti50  1  0.61917161  0.63134305  0.11353786  1
  Ti  Ti51  1  0.38829689  0.36881044  0.37048549  1
  Ti  Ti52  1  0.62305588  0.62576432  0.86891890  1
  Ti  Ti53  1  0.62056704  0.88775115  0.12662895  1
  Ti  Ti54  1  0.88074503  0.13278654  0.38358614  1
  Ti  Ti55  1  0.12823837  0.63002771  0.62972427  1
  Ti  Ti56  1  0.36268082  0.37734920  0.11926603  1
  Ti  Ti57  1  0.14594725  0.61787584  0.11500363  1
  Ti  Ti58  1  0.88576779  0.88045538  0.12776397  1
  Ti  Ti59  1  0.87685809  0.88184271  0.37096599  1
  Ti  Ti60  1  0.12404170  0.88268007  0.12733145  1
  Ti  Ti61  1  0.38051954  0.63247793  0.13262511  1
  Ti  Ti62  1  0.87450380  0.37064359  0.87887294  1
  Ti  Ti63  1  0.39203306  0.63040986  0.63486923  1
  Ti  Ti64  1  0.62830514  0.61603065  0.36367127  1
  Ti  Ti65  1  0.63142882  0.37880916  0.87496832  1
  Ti  Ti66  1  0.11740672  0.87081841  0.62672837  1
  Ti  Ti67  1  0.37407202  0.14171084  0.37896151  1
  Ti  Ti68  1  0.86872950  0.12104133  0.63142617  1
  Ti  Ti69  1  0.87307284  0.62110041  0.12992127  1
  Ti  Ti70  1  0.37542400  0.87298640  0.87792586  1
  Ti  Ti71  1  0.12188124  0.87853988  0.37934947  1
  Ti  Ti72  1  0.63443154  0.61464243  0.62328148  1
  Ti  Ti73  1  0.62220479  0.37473804  0.11747117  1
  Bi  Bi74  1  0.21448781  0.27595302  -0.00422065  1
  Bi  Bi75  1  0.46697237  0.00887194  0.75961946  1
  Bi  Bi76  1  0.49655866  0.28189217  0.76556632  1
  Bi  Bi77  1  0.74821897  0.24404455  0.73122839  1
  Bi  Bi78  1  0.74048518  0.25487932  0.48271868  1
  Bi  Bi79  1  0.02726401  0.24096226  0.53430468  1
  Bi  Bi80  1  0.75852783  0.23525464  0.00269194  1
  Bi  Bi81  1  0.23263217  0.25383062  0.27675414  1
  Bi  Bi82  1  0.24622670  -0.00652196  0.49957620  1
  Bi  Bi83  1  0.50095047  0.25726143  -0.00220958  1
  Bi  Bi84  1  0.52744901  0.74512395  0.50572161  1
  Bi  Bi85  1  0.46809675  0.00783157  0.27225422  1
  Bi  Bi86  1  0.49364039  0.49018816  0.22749098  1
  Bi  Bi87  1  0.75730547  0.75238650  0.47950348  1
  Bi  Bi88  1  -0.02671613  0.72099593  0.50735910  1
  Bi  Bi89  1  0.27764623  0.50733947  0.52629596  1
  Bi  Bi90  1  0.72509094  0.01697042  0.48834795  1
  Bi  Bi91  1  0.01314143  0.03071583  0.76691529  1
  Bi  Bi92  1  0.75416857  0.24196624  0.22302998  1
  Bi  Bi93  1  0.02656891  0.74670459  0.26983675  1
  Bi  Bi94  1  0.23904866  0.75833792  -0.00632066  1
  Bi  Bi95  1  0.02679432  0.47604191  0.53506230  1
  Bi  Bi96  1  0.27633827  0.76160736  0.51521575  1
  Bi  Bi97  1  -0.00158115  0.52475780  -0.00467124  1
  Bi  Bi98  1  0.27657005  0.00848323  0.01611078  1
  Bi  Bi99  1  0.00274774  0.25480947  0.27688821  1
  Bi  Bi100  1  0.76193943  0.76969121  -0.01562016  1
  Bi  Bi101  1  0.76658572  0.48494684  0.73422301  1
  Bi  Bi102  1  -0.00647039  0.73929152  0.74533204  1
  Bi  Bi103  1  0.24206978  0.28674146  0.52349562  1
  Bi  Bi104  1  0.51580954  0.77339390  0.26628237  1
  Bi  Bi105  1  0.49994891  0.75380083  -0.01551907  1
  Bi  Bi106  1  0.48522516  0.50058225  0.74601072  1
  Bi  Bi107  1  0.23235423  0.01877489  0.23735085  1
  Bi  Bi108  1  0.01628326  0.77121674  -0.00314007  1
  Bi  Bi109  1  0.72934547  -0.00188633  -0.02830146  1
  Bi  Bi110  1  0.24316219  0.02889702  0.76859511  1
  Bi  Bi111  1  0.75503276  0.76367048  0.21716692  1
  Bi  Bi112  1  0.24183805  0.75365318  0.75163733  1
  Bi  Bi113  1  0.75770401  0.51113521  -0.01435287  1
  Bi  Bi114  1  0.76453818  0.50514884  0.46988680  1
  Bi  Bi115  1  0.26320686  0.50635522  0.28367331  1
  Bi  Bi116  1  0.02518681  0.52507598  0.26351113  1
  Bi  Bi117  1  0.27461992  0.25929981  0.74029344  1
  Bi  Bi118  1  0.25699054  0.75599053  0.28566950  1
  Bi  Bi119  1  0.73444668  0.75338773  0.73874715  1
  Bi  Bi120  1  -0.00054960  0.00319756  0.51638608  1
  Bi  Bi121  1  0.20302017  0.45975751  0.73802256  1
  Bi  Bi122  1  0.73616440  0.01880391  0.24815259  1
  Bi  Bi123  1  0.48053222  0.50803318  -0.01098967  1
  Bi  Bi124  1  -0.01545324  0.00534697  0.00043308  1
  O  O125  1  0.08664870  0.11277241  0.00849509  1
  O  O126  1  0.15420253  0.13069353  0.24677731  1
  O  O127  1  0.09682689  0.11103923  0.49950938  1
  O  O128  1  0.14238461  0.12975149  0.74730766  1
  O  O129  1  0.11924385  0.39006078  0.00711580  1
  O  O130  1  0.14115481  0.35677043  0.23991596  1
  O  O131  1  0.10843662  0.37688696  0.49647845  1
  O  O132  1  0.11590892  0.35046039  0.75552873  1
  O  O133  1  0.13495645  0.57924034  0.00009547  1
  O  O134  1  0.11620666  0.63860707  0.23409373  1
  O  O135  1  0.11470609  0.59537905  0.51567930  1
  O  O136  1  0.12713716  0.66683957  0.75240158  1
  O  O137  1  0.10463454  0.88072938  0.00529318  1
  O  O138  1  0.13970101  0.84671755  0.24235684  1
  O  O139  1  0.12131145  0.89403537  0.49653512  1
  O  O140  1  0.14725452  0.85881228  0.74087374  1
  O  O141  1  0.37494314  0.12121466  0.00311646  1
  O  O142  1  0.35611957  0.10178705  0.25528467  1
  O  O143  1  0.40628816  0.15024580  0.49283775  1
  O  O144  1  0.36116711  0.11473234  0.75042787  1
  O  O145  1  0.41339210  0.36790313  0.00734354  1
  O  O146  1  0.36838931  0.40839814  0.24153223  1
  O  O147  1  0.40264024  0.34650651  0.48353581  1
  O  O148  1  0.36647747  0.35569631  0.75837807  1
  O  O149  1  0.41131097  0.64295886  -0.00580842  1
  O  O150  1  0.37101814  0.60137784  0.24655584  1
  O  O151  1  0.37924350  0.64477489  0.49974623  1
  O  O152  1  0.37322139  0.60415695  0.75115010  1
  O  O153  1  0.38913655  0.85703730  -0.00693752  1
  O  O154  1  0.35536927  0.88251336  0.24502671  1
  O  O155  1  0.39987637  0.83663922  0.50649735  1
  O  O156  1  0.36534286  0.90020342  0.73607287  1
  O  O157  1  0.59785915  0.09724991  0.01084291  1
  O  O158  1  0.65999731  0.13551113  0.24769329  1
  O  O159  1  0.60567090  0.09011308  0.50554693  1
  O  O160  1  0.64755587  0.12417736  0.74021430  1
  O  O161  1  0.59267432  0.37500593  0.00156802  1
  O  O162  1  0.65601030  0.38952633  0.25465336  1
  O  O163  1  0.59890532  0.39565508  0.50801937  1
  O  O164  1  0.63332098  0.35191642  0.75548980  1
  O  O165  1  0.59495105  0.61922015  -0.00059954  1
  O  O166  1  0.64756599  0.61570964  0.25139168  1
  O  O167  1  0.61676554  0.62552713  0.51092312  1
  O  O168  1  0.65120549  0.63561240  0.75571770  1
  O  O169  1  0.61143442  0.90737096  0.01222286  1
  O  O170  1  0.63647302  0.84857235  0.24802839  1
  O  O171  1  0.60916211  0.86444465  0.50791546  1
  O  O172  1  0.64648023  0.86189974  0.74677372  1
  O  O173  1  0.91050195  0.11864266  -0.00266923  1
  O  O174  1  0.84529390  0.13356220  0.25298419  1
  O  O175  1  0.90763499  0.11539206  0.49780587  1
  O  O176  1  0.84329572  0.13183194  0.74321405  1
  O  O177  1  0.87557210  0.41067007  0.00463349  1
  O  O178  1  0.85414642  0.35739214  0.25116819  1
  O  O179  1  0.88639946  0.39251220  0.50483693  1
  O  O180  1  0.83988618  0.35714625  0.76264212  1
  O  O181  1  0.87071821  0.59484942  -0.00096464  1
  O  O182  1  0.86925256  0.65354864  0.24005729  1
  O  O183  1  0.89871148  0.60690587  0.50504690  1
  O  O184  1  0.87178041  0.65085388  0.75589684  1
  O  O185  1  0.88793978  0.88538909  0.00868596  1
  O  O186  1  0.86350241  0.85120793  0.25126689  1
  O  O187  1  0.88923366  0.89966129  0.49888247  1
  O  O188  1  0.87195384  0.85927237  0.74524045  1
  O  O189  1  0.00024979  0.13464539  0.16404707  1
  O  O190  1  -0.00569162  0.12145895  0.34123965  1
  O  O191  1  -0.00602817  0.15925844  0.64611810  1
  O  O192  1  0.00061335  0.14776512  0.83903909  1
  O  O193  1  -0.00809047  0.37743811  0.13884209  1
  O  O194  1  -0.00738866  0.38496404  0.34941806  1
  O  O195  1  -0.01285509  0.34842396  0.63589488  1
  O  O196  1  -0.01869728  0.40408455  0.85455534  1
  O  O197  1  -0.00936133  0.61399705  0.10685860  1
  O  O198  1  0.00284216  0.63091764  0.35871776  1
  O  O199  1  0.00345230  0.65306337  0.63670897  1
  O  O200  1  -0.00902512  0.61798724  0.88532594  1
  O  O201  1  -0.00041305  0.84739832  0.13419364  1
  O  O202  1  0.00433022  0.87131438  0.36155852  1
  O  O203  1  0.00720534  0.83759125  0.63325089  1
  O  O204  1  -0.00064577  0.85037376  0.86991704  1
  O  O205  1  0.23929937  0.10050276  0.11158356  1
  O  O206  1  0.25888960  0.15353962  0.39297179  1
  O  O207  1  0.25428539  0.06936255  0.61237460  1
  O  O208  1  0.25401603  0.12316586  0.88100732  1
  O  O209  1  0.25623343  0.39607259  0.08783286  1
  O  O210  1  0.26202565  0.36324815  0.37008826  1
  O  O211  1  0.25427466  0.39561884  0.60119541  1
  O  O212  1  0.24748354  0.36625154  0.89891212  1
  O  O213  1  0.25965883  0.61338146  0.11394820  1
  O  O214  1  0.25773159  0.63063002  0.36897855  1
  O  O215  1  0.24429857  0.59311074  0.63273065  1
  O  O216  1  0.26474242  0.66096815  0.87838809  1
  O  O217  1  0.24594765  0.88335241  0.09917557  1
  O  O218  1  0.25346387  0.85255306  0.38779333  1
  O  O219  1  0.26391456  0.88738516  0.58874997  1
  O  O220  1  0.25695643  0.84970657  0.87781156  1
  O  O221  1  0.50273196  0.15348200  0.15311289  1
  O  O222  1  0.50057339  0.10649371  0.36017211  1
  O  O223  1  0.50294403  0.15627031  0.63293377  1
  O  O224  1  0.49432979  0.09158188  0.86933914  1
  O  O225  1  0.51020645  0.35956922  0.16283895  1
  O  O226  1  0.50691211  0.39352484  0.35077948  1
  O  O227  1  0.50323213  0.34931817  0.63323769  1
  O  O228  1  0.49932254  0.39767186  0.84698770  1
  O  O229  1  0.50273973  0.63847780  0.14604990  1
  O  O230  1  0.50402222  0.60725293  0.36698521  1
  O  O231  1  0.50382817  0.64274808  0.64258082  1
  O  O232  1  0.50466999  0.58824167  0.85310703  1
  O  O233  1  0.49854392  0.86277025  0.14322862  1
  O  O234  1  0.50231342  0.88490089  0.34700271  1
  O  O235  1  0.50636360  0.84424755  0.65444719  1
  O  O236  1  0.49531052  0.90567216  0.85494834  1
  O  O237  1  0.74753548  0.12659744  0.10329974  1
  O  O238  1  0.75748248  0.13056910  0.41004522  1
  O  O239  1  0.75530993  0.10599945  0.59375254  1
  O  O240  1  0.75068126  0.13177439  0.90702253  1
  O  O241  1  0.74162401  0.39629029  0.11236694  1
  O  O242  1  0.75311279  0.37273868  0.40510214  1
  O  O243  1  0.74539532  0.39394088  0.61865827  1
  O  O244  1  0.74182081  0.35890809  0.90174879  1
  O  O245  1  0.73989452  0.60134666  0.11104985  1
  O  O246  1  0.74743841  0.63607829  0.39772134  1
  O  O247  1  0.74985199  0.59080206  0.62389453  1
  O  O248  1  0.74063198  0.64227193  0.90592641  1
  O  O249  1  0.74852383  0.88077061  0.12616267  1
  O  O250  1  0.75800301  0.86350227  0.39042423  1
  O  O251  1  0.75308189  0.89251013  0.61630004  1
  O  O252  1  0.76693410  0.88417145  0.89200858  1
  O  O253  1  0.11042578  -0.00669488  0.14814905  1
  O  O254  1  0.14558928  -0.00765152  0.35548883  1
  O  O255  1  0.09500354  -0.01273753  0.63174283  1
  O  O256  1  0.11669016  0.00082864  0.85595282  1
  O  O257  1  0.12494472  0.25029730  0.11235509  1
  O  O258  1  0.11474759  0.24933972  0.36252125  1
  O  O259  1  0.14274859  0.23841714  0.60976458  1
  O  O260  1  0.10744970  0.25109022  0.91276087  1
  O  O261  1  0.11865194  0.49827014  0.15088405  1
  O  O262  1  0.12838514  0.50388533  0.35193587  1
  O  O263  1  0.09102834  0.50647274  0.66592102  1
  O  O264  1  0.14553566  0.49832400  0.85565265  1
  O  O265  1  0.13102043  0.73521789  0.08988692  1
  O  O266  1  0.12527701  0.75104439  0.37211203  1
  O  O267  1  0.15967337  0.74770149  0.61023679  1
  O  O268  1  0.12623797  0.74506813  0.91345796  1
  O  O269  1  0.37661668  -0.00914982  0.10950776  1
  O  O270  1  0.38228331  0.00581777  0.39662173  1
  O  O271  1  0.42098524  -0.00785793  0.58837271  1
  O  O272  1  0.35949385  -0.00563313  0.87524263  1
  O  O273  1  0.36274914  0.26175850  0.14326066  1
  O  O274  1  0.40007919  0.25341143  0.33103649  1
  O  O275  1  0.33551253  0.23734700  0.62076539  1
  O  O276  1  0.40558204  0.24362086  0.88533346  1
  O  O277  1  0.40667988  0.50378500  0.10945863  1
  O  O278  1  0.36171628  0.49733005  0.38762360  1
  O  O279  1  0.39871989  0.51050912  0.59429565  1
  O  O280  1  0.35521036  0.51144849  0.90836048  1
  O  O281  1  0.36289860  0.74789843  0.13261142  1
  O  O282  1  0.38906949  0.74173834  0.35258764  1
  O  O283  1  0.34744571  0.74243877  0.63828432  1
  O  O284  1  0.42007818  0.75502721  0.85876324  1
  O  O285  1  0.61729632  0.00246904  0.15994356  1
  O  O286  1  0.65527590  0.00391279  0.36045192  1
  O  O287  1  0.61271479  -0.00702299  0.64626623  1
  O  O288  1  0.64361725  0.00718834  0.86954427  1
  O  O289  1  0.64158451  0.25202981  0.11431906  1
  O  O290  1  0.63327608  0.26093633  0.39201202  1
  O  O291  1  0.65142191  0.24689042  0.61088617  1
  O  O292  1  0.58985199  0.25406183  0.88716584  1
  O  O293  1  0.60678555  0.49740703  0.12972391  1
  O  O294  1  0.64911006  0.50160760  0.38558775  1
  O  O295  1  0.60337794  0.49602564  0.65199551  1
  O  O296  1  0.64465754  0.49602625  0.87369692  1
  O  O297  1  0.63772775  0.74781595  0.11029273  1
  O  O298  1  0.60314068  0.74242200  0.38366647  1
  O  O299  1  0.65484955  0.74289594  0.62671954  1
  O  O300  1  0.59409085  0.74029230  0.87599883  1
  O  O301  1  0.90112542  -0.00481120  0.14337137  1
  O  O302  1  0.87657622  -0.00160456  0.34829024  1
  O  O303  1  0.90504079  0.00268174  0.63021965  1
  O  O304  1  0.90889798  -0.00312924  0.86845612  1
  O  O305  1  0.85267711  0.26140062  0.11323214  1
  O  O306  1  0.88720479  0.24969273  0.38304050  1
  O  O307  1  0.84174227  0.24930540  0.61886272  1
  O  O308  1  0.88656300  0.26060248  0.91212092  1
  O  O309  1  0.86118304  0.50085862  0.15811772  1
  O  O310  1  0.85590895  0.49970424  0.36318305  1
  O  O311  1  0.89236283  0.48384256  0.66682484  1
  O  O312  1  0.83849118  0.50829941  0.86086663  1
  O  O313  1  0.84745341  0.74363657  0.10097491  1
  O  O314  1  0.87777597  0.75319529  0.40648094  1
  O  O315  1  0.86201296  0.75753157  0.59337473  1
  O  O316  1  0.86778773  0.74934081  0.89674810  1
