# generated using pymatgen
data_Mg32Ti42(Bi17O64)3
_symmetry_space_group_name_H-M   'P 1'
_cell_length_a   15.95815615
_cell_length_b   15.91476566
_cell_length_c   15.94966857
_cell_angle_alpha   89.94243992
_cell_angle_beta   89.98614299
_cell_angle_gamma   89.83686762
_symmetry_Int_Tables_number   1
_chemical_formula_structural   Mg32Ti42(Bi17O64)3
_chemical_formula_sum   'Mg32 Ti42 Bi51 O192'
_cell_volume   4050.72377931
_cell_formula_units_Z   1
loop_
 _symmetry_equiv_pos_site_id
 _symmetry_equiv_pos_as_xyz
  1  'x, y, z'
loop_
 _atom_site_type_symbol
 _atom_site_label
 _atom_site_symmetry_multiplicity
 _atom_site_fract_x
 _atom_site_fract_y
 _atom_site_fract_z
 _atom_site_occupancy
  Mg  Mg0  1  0.87578606  0.63830949  0.87452437  1
  Mg  Mg1  1  0.12117111  0.11788924  0.62585304  1
  Mg  Mg2  1  0.86845141  0.38478707  0.12404982  1
  Mg  Mg3  1  0.62205425  0.13223941  0.38689171  1
  Mg  Mg4  1  0.13102538  0.87360049  0.38767939  1
  Mg  Mg5  1  0.62412613  0.37853248  0.62541614  1
  Mg  Mg6  1  0.12249028  0.61955072  0.61710593  1
  Mg  Mg7  1  0.11965673  0.64210919  0.88496792  1
  Mg  Mg8  1  0.87446458  0.87379887  0.88088265  1
  Mg  Mg9  1  0.37680737  0.13723695  0.61488285  1
  Mg  Mg10  1  0.86887733  0.11020005  0.12232125  1
  Mg  Mg11  1  0.61666183  0.87060803  0.36414025  1
  Mg  Mg12  1  0.36883106  0.61789397  0.62166237  1
  Mg  Mg13  1  0.12090689  0.37246571  0.63562733  1
  Mg  Mg14  1  0.11347733  0.37274169  0.87207646  1
  Mg  Mg15  1  0.12829549  0.36733721  0.36657570  1
  Mg  Mg16  1  0.86802145  0.13670132  0.61168349  1
  Mg  Mg17  1  0.62583340  0.62998100  0.37296877  1
  Mg  Mg18  1  0.87627094  0.62621150  0.37381332  1
  Mg  Mg19  1  0.47906016  0.05555614  0.47977088  1
  Mg  Mg20  1  0.03322120  0.25655050  0.54190115  1
  Mg  Mg21  1  0.20423309  0.46187147  0.50475192  1
  Mg  Mg22  1  0.70956367  0.25153382  0.52621965  1
  Mg  Mg23  1  0.28905284  0.80766093  0.04895553  1
  Mg  Mg24  1  0.31552098  -0.02010378  0.19484955  1
  Mg  Mg25  1  0.65939229  -0.01420436  0.49755019  1
  Mg  Mg26  1  0.52403573  0.28623054  0.49464950  1
  Mg  Mg27  1  0.77157563  0.76230636  0.00122320  1
  Mg  Mg28  1  0.02685050  0.77073187  0.78507957  1
  Mg  Mg29  1  0.47294443  -0.05583713  0.04245074  1
  Mg  Mg30  1  0.70970393  0.00211900  0.30258404  1
  Mg  Mg31  1  0.01525108  0.80825131  -0.00448759  1
  Ti  Ti32  1  0.62185944  0.87927576  0.87774670  1
  Ti  Ti33  1  0.87320896  0.36269457  0.36522021  1
  Ti  Ti34  1  0.63262885  0.63303087  0.62142819  1
  Ti  Ti35  1  0.12919663  0.12205858  0.37314227  1
  Ti  Ti36  1  0.36838566  0.13903418  0.36684005  1
  Ti  Ti37  1  0.62960724  0.37860182  0.86598179  1
  Ti  Ti38  1  0.13140391  0.88557206  0.13239930  1
  Ti  Ti39  1  0.12452533  0.87592173  0.62641246  1
  Ti  Ti40  1  0.87114248  0.87887961  0.35971772  1
  Ti  Ti41  1  0.14483744  0.64219702  0.11061629  1
  Ti  Ti42  1  0.87666673  0.38417738  0.87394001  1
  Ti  Ti43  1  0.37811757  0.37429243  0.61011201  1
  Ti  Ti44  1  0.13168173  0.61602555  0.39231511  1
  Ti  Ti45  1  0.88559175  0.86630988  0.12009146  1
  Ti  Ti46  1  0.87071044  0.63413093  0.12911414  1
  Ti  Ti47  1  0.85755471  0.12172154  0.37566204  1
  Ti  Ti48  1  0.38629586  0.62037763  0.11926769  1
  Ti  Ti49  1  0.36974619  0.62638458  0.87430745  1
  Ti  Ti50  1  0.12731751  0.12584256  0.87756793  1
  Ti  Ti51  1  0.37845433  0.37310604  0.87062624  1
  Ti  Ti52  1  0.63057456  0.86758756  0.63968075  1
  Ti  Ti53  1  0.37898623  0.11531174  0.87483670  1
  Ti  Ti54  1  0.37241215  0.88166672  0.37638007  1
  Ti  Ti55  1  0.38628567  0.12893687  0.11284541  1
  Ti  Ti56  1  0.63076134  0.63957473  0.86491116  1
  Ti  Ti57  1  0.11378641  0.37853875  0.12343350  1
  Ti  Ti58  1  0.86015923  0.11790151  0.87143509  1
  Ti  Ti59  1  0.63226913  0.88089595  0.13374829  1
  Ti  Ti60  1  0.62438977  0.38157266  0.11820639  1
  Ti  Ti61  1  0.62846662  0.11653288  0.11879903  1
  Ti  Ti62  1  0.61854777  0.13190301  0.62122616  1
  Ti  Ti63  1  0.38463351  0.87788880  0.87833860  1
  Ti  Ti64  1  0.62048068  0.11472438  0.86276042  1
  Ti  Ti65  1  0.62011756  0.64277847  0.12491103  1
  Ti  Ti66  1  0.63300143  0.36894987  0.37806681  1
  Ti  Ti67  1  0.38260703  0.37144682  0.11263552  1
  Ti  Ti68  1  0.86765332  0.36570932  0.61700844  1
  Ti  Ti69  1  0.36357741  0.37719951  0.37921951  1
  Ti  Ti70  1  0.12711228  0.11729075  0.12754512  1
  Ti  Ti71  1  0.87893795  0.61397884  0.61443428  1
  Ti  Ti72  1  0.38183196  0.62276444  0.38364261  1
  Ti  Ti73  1  0.14643462  0.87027451  0.88844982  1
  Bi  Bi74  1  -0.01012971  0.53464434  0.00249184  1
  Bi  Bi75  1  0.46572077  0.78655142  0.22894407  1
  Bi  Bi76  1  0.75121528  0.54432724  0.00045748  1
  Bi  Bi77  1  0.02949728  0.75288386  0.27399899  1
  Bi  Bi78  1  0.52274245  0.24099000  -0.01117569  1
  Bi  Bi79  1  0.76427568  0.24912282  -0.00140055  1
  Bi  Bi80  1  0.00743772  -0.00241052  0.27623439  1
  Bi  Bi81  1  0.76330623  0.51187150  0.74059775  1
  Bi  Bi82  1  0.24248045  -0.00876957  0.74363907  1
  Bi  Bi83  1  0.25981617  0.72027770  0.26251609  1
  Bi  Bi84  1  0.75661775  0.25506253  0.22498336  1
  Bi  Bi85  1  0.75433675  0.74595183  0.25850908  1
  Bi  Bi86  1  0.23611865  0.48765145  0.73347107  1
  Bi  Bi87  1  0.74254042  0.51568062  0.25281749  1
  Bi  Bi88  1  0.23231596  0.72479627  0.73377228  1
  Bi  Bi89  1  0.51852637  0.51315213  0.50841812  1
  Bi  Bi90  1  0.74614884  0.79557442  0.48784576  1
  Bi  Bi91  1  0.76395132  -0.00482936  0.70317604  1
  Bi  Bi92  1  0.75961287  0.26443567  0.76416542  1
  Bi  Bi93  1  -0.03384630  0.00417981  0.50588272  1
  Bi  Bi94  1  -0.00214486  0.46194303  0.47108314  1
  Bi  Bi95  1  0.02570590  0.52759694  0.24641690  1
  Bi  Bi96  1  0.49042522  0.24814592  0.74305085  1
  Bi  Bi97  1  0.49246093  0.48987152  0.27610494  1
  Bi  Bi98  1  0.49877326  0.75019565  -0.01945929  1
  Bi  Bi99  1  0.23332513  0.50170793  -0.03663396  1
  Bi  Bi100  1  -0.02592535  0.22453689  0.24718055  1
  Bi  Bi101  1  0.27785951  0.77273137  0.52587892  1
  Bi  Bi102  1  0.47796912  -0.00871672  0.69825541  1
  Bi  Bi103  1  0.25507270  0.01628324  -0.00056799  1
  Bi  Bi104  1  0.50896833  0.02837790  0.26733342  1
  Bi  Bi105  1  0.28683855  0.00029919  0.50967377  1
  Bi  Bi106  1  0.76933264  0.50573426  0.48260692  1
  Bi  Bi107  1  0.01621633  0.53832675  0.75432875  1
  Bi  Bi108  1  0.51139260  0.26202474  0.23655983  1
  Bi  Bi109  1  0.75110884  -0.02308272  0.00193222  1
  Bi  Bi110  1  0.22704797  0.26762873  -0.00163987  1
  Bi  Bi111  1  0.23484657  0.22266534  0.49954233  1
  Bi  Bi112  1  -0.02507256  -0.02651516  0.73456582  1
  Bi  Bi113  1  0.00016971  0.00416348  -0.02328158  1
  Bi  Bi114  1  0.23392350  0.25000437  0.24229798  1
  Bi  Bi115  1  0.23878911  0.24431019  0.73886347  1
  Bi  Bi116  1  -0.01956884  0.24943490  0.02722366  1
  Bi  Bi117  1  0.46636038  0.74882609  0.72704715  1
  Bi  Bi118  1  -0.02030843  0.77924833  0.54325021  1
  Bi  Bi119  1  -0.01219403  0.24136385  0.73703879  1
  Bi  Bi120  1  0.51234166  0.50790158  -0.03245404  1
  Bi  Bi121  1  0.79981148  0.76057589  0.74082982  1
  Bi  Bi122  1  0.26393691  0.49416206  0.21723242  1
  Bi  Bi123  1  0.50684555  0.77309266  0.49410124  1
  Bi  Bi124  1  0.48753797  0.49232054  0.73179293  1
  O  O125  1  0.12053354  0.09356253  0.00271255  1
  O  O126  1  0.14971721  0.13611047  0.24517382  1
  O  O127  1  0.11053871  0.15571061  0.48999868  1
  O  O128  1  0.14649115  0.13720857  0.75943119  1
  O  O129  1  0.13196162  0.38191255  0.00253611  1
  O  O130  1  0.14684130  0.35910823  0.23963823  1
  O  O131  1  0.10521375  0.37305440  0.50220313  1
  O  O132  1  0.15945672  0.35363458  0.75547675  1
  O  O133  1  0.11251571  0.60125440  0.00449096  1
  O  O134  1  0.12227654  0.63544122  0.23169412  1
  O  O135  1  0.13985762  0.57718797  0.49949984  1
  O  O136  1  0.09644378  0.65658506  0.75918811  1
  O  O137  1  0.10514593  0.90134194  0.00280580  1
  O  O138  1  0.13305572  0.84911800  0.24336424  1
  O  O139  1  0.08759696  0.87048741  0.51531063  1
  O  O140  1  0.14825007  0.85556921  0.76436317  1
  O  O141  1  0.39999418  0.15466167  0.00147869  1
  O  O142  1  0.36243058  0.08886974  0.25180108  1
  O  O143  1  0.39027999  0.14719696  0.48598756  1
  O  O144  1  0.34917745  0.09305844  0.76256231  1
  O  O145  1  0.40600389  0.36312423  0.00277560  1
  O  O146  1  0.35696561  0.39582026  0.26117809  1
  O  O147  1  0.40971091  0.34782656  0.50136978  1
  O  O148  1  0.36803569  0.40373593  0.75788585  1
  O  O149  1  0.39923378  0.63348669  0.00528656  1
  O  O150  1  0.35051242  0.60670745  0.24813654  1
  O  O151  1  0.37414818  0.64635971  0.49592491  1
  O  O152  1  0.38367776  0.61545034  0.75914532  1
  O  O153  1  0.40078793  0.85170817  0.00101520  1
  O  O154  1  0.36953162  0.88703247  0.25746151  1
  O  O155  1  0.39216539  0.84527481  0.49625903  1
  O  O156  1  0.33674491  0.89520488  0.77321512  1
  O  O157  1  0.61067488  0.13262438  -0.00404023  1
  O  O158  1  0.63315665  0.10074087  0.24473094  1
  O  O159  1  0.59299285  0.09640831  0.50941436  1
  O  O160  1  0.64151157  0.12851912  0.74811581  1
  O  O161  1  0.60565707  0.37709585  0.00528047  1
  O  O162  1  0.64293019  0.33941936  0.25797131  1
  O  O163  1  0.59370524  0.39519439  0.49643682  1
  O  O164  1  0.64849356  0.37488171  0.75192340  1
  O  O165  1  0.60770973  0.61438926  0.00822013  1
  O  O166  1  0.66000745  0.63025730  0.24105853  1
  O  O167  1  0.61468280  0.62195189  0.50401559  1
  O  O168  1  0.64878174  0.62749497  0.75377945  1
  O  O169  1  0.57843756  0.87995884  -0.00955885  1
  O  O170  1  0.66219206  0.89302428  0.24359009  1
  O  O171  1  0.61231371  0.86470609  0.49725077  1
  O  O172  1  0.65758482  0.87406071  0.75117634  1
  O  O173  1  0.88366296  0.15303230  -0.00529492  1
  O  O174  1  0.87928867  0.12070910  0.24951706  1
  O  O175  1  0.89212844  0.12305902  0.48780824  1
  O  O176  1  0.86487887  0.09503705  0.75737154  1
  O  O177  1  0.87725755  0.34571073  -0.00639386  1
  O  O178  1  0.84661121  0.37066731  0.25248989  1
  O  O179  1  0.90656204  0.35649543  0.50507656  1
  O  O180  1  0.83746730  0.38241887  0.75442322  1
  O  O181  1  0.88010449  0.62527895  0.00400275  1
  O  O182  1  0.84015803  0.62097231  0.24759306  1
  O  O183  1  0.87202767  0.61103410  0.50018936  1
  O  O184  1  0.85532164  0.61437758  0.74726899  1
  O  O185  1  0.88945186  0.82769252  0.00095242  1
  O  O186  1  0.86082069  0.88831931  0.24375226  1
  O  O187  1  0.90084554  0.87572107  0.49256260  1
  O  O188  1  0.84811507  0.89892550  0.75386802  1
  O  O189  1  0.00712769  0.13873222  0.13143761  1
  O  O190  1  0.01331854  0.12942906  0.34505651  1
  O  O191  1  0.00151044  0.16100051  0.62601758  1
  O  O192  1  0.01091471  0.09922429  0.86946470  1
  O  O193  1  -0.00030236  0.37181390  0.12484364  1
  O  O194  1  -0.00582698  0.37042587  0.36228550  1
  O  O195  1  -0.00268514  0.34127328  0.64246861  1
  O  O196  1  -0.01169344  0.38770482  0.85584366  1
  O  O197  1  -0.01069324  0.61575275  0.12888628  1
  O  O198  1  0.00253395  0.62587228  0.35167187  1
  O  O199  1  -0.00679560  0.61519935  0.62818915  1
  O  O200  1  -0.00445858  0.59990103  0.88372620  1
  O  O201  1  0.00169982  0.85616179  0.12193987  1
  O  O202  1  -0.00141761  0.86925122  0.34947846  1
  O  O203  1  0.00742742  0.84121852  0.66914233  1
  O  O204  1  0.00246151  0.90720289  0.87248300  1
  O  O205  1  0.25450450  0.11795427  0.10692781  1
  O  O206  1  0.25376652  0.10752485  0.39993664  1
  O  O207  1  0.25070881  0.10801782  0.59607370  1
  O  O208  1  0.25957480  0.13594963  0.90790401  1
  O  O209  1  0.26466766  0.37073312  0.11110283  1
  O  O210  1  0.25601581  0.39620831  0.41040920  1
  O  O211  1  0.26213699  0.40886562  0.60621420  1
  O  O212  1  0.26304926  0.37094941  0.90024386  1
  O  O213  1  0.25217972  0.60460439  0.11079902  1
  O  O214  1  0.24476159  0.62053705  0.36781781  1
  O  O215  1  0.24510344  0.60856696  0.65362933  1
  O  O216  1  0.25412503  0.63109912  0.88798891  1
  O  O217  1  0.24517148  0.90576775  0.11667328  1
  O  O218  1  0.25741535  0.87669916  0.40616465  1
  O  O219  1  0.24152424  0.89371780  0.60264351  1
  O  O220  1  0.25221194  0.85050977  0.92745705  1
  O  O221  1  0.50076442  0.11368775  0.14555939  1
  O  O222  1  0.49383983  0.13274314  0.35761080  1
  O  O223  1  0.49530181  0.13140703  0.66160825  1
  O  O224  1  0.49895378  0.12290833  0.85855940  1
  O  O225  1  0.50499520  0.38164714  0.16091710  1
  O  O226  1  0.49998578  0.36179373  0.34967947  1
  O  O227  1  0.49599499  0.36919020  0.65811815  1
  O  O228  1  0.50429158  0.39937836  0.86256050  1
  O  O229  1  0.50031158  0.62313817  0.14828491  1
  O  O230  1  0.49606508  0.62761011  0.36102797  1
  O  O231  1  0.50790744  0.65534968  0.63650153  1
  O  O232  1  0.50872396  0.60897932  0.87304515  1
  O  O233  1  0.51216794  0.89394342  0.15149285  1
  O  O234  1  0.49571756  0.83861126  0.36414248  1
  O  O235  1  0.51077289  0.85059251  0.63881529  1
  O  O236  1  0.49420808  0.88599970  0.84330765  1
  O  O237  1  0.74292276  0.14482895  0.11598237  1
  O  O238  1  0.74784080  0.10044618  0.37756291  1
  O  O239  1  0.73442559  0.14361448  0.59744118  1
  O  O240  1  0.74595372  0.13878574  0.88755464  1
  O  O241  1  0.74079952  0.34237578  0.11614414  1
  O  O242  1  0.74852949  0.38076327  0.39772080  1
  O  O243  1  0.75178691  0.35387491  0.59029499  1
  O  O244  1  0.74399830  0.34725075  0.89056253  1
  O  O245  1  0.74392531  0.65676783  0.09061032  1
  O  O246  1  0.74748380  0.59004519  0.38093155  1
  O  O247  1  0.74543315  0.59420832  0.61837526  1
  O  O248  1  0.74552216  0.65843830  0.90570452  1
  O  O249  1  0.74394205  0.85888796  0.08622485  1
  O  O250  1  0.75762623  0.90645242  0.39384273  1
  O  O251  1  0.73188836  0.91613363  0.58807066  1
  O  O252  1  0.73736934  0.85892226  0.91177577  1
  O  O253  1  0.10868898  0.00033793  0.15141867  1
  O  O254  1  0.11352643  0.00229447  0.36813112  1
  O  O255  1  0.09826483  -0.00832555  0.64602200  1
  O  O256  1  0.17029080  -0.00380406  0.86487073  1
  O  O257  1  0.13525681  0.24642141  0.10926593  1
  O  O258  1  0.16439824  0.24529161  0.36500617  1
  O  O259  1  0.15968542  0.24924631  0.62122694  1
  O  O260  1  0.11912053  0.24107018  0.90302622  1
  O  O261  1  0.12196478  0.49454277  0.14111265  1
  O  O262  1  0.11257403  0.49939516  0.35412184  1
  O  O263  1  0.11696430  0.49589125  0.66191600  1
  O  O264  1  0.14411669  0.50027744  0.85652313  1
  O  O265  1  0.16115439  0.75482362  0.09353016  1
  O  O266  1  0.12038190  0.73994137  0.37827545  1
  O  O267  1  0.15452964  0.74961924  0.62088393  1
  O  O268  1  0.08844859  0.76491049  0.90063305  1
  O  O269  1  0.37957134  0.01154771  0.09253833  1
  O  O270  1  0.40055212  -0.00736205  0.39943510  1
  O  O271  1  0.40892936  0.01219468  0.58265973  1
  O  O272  1  0.37622747  0.00066395  0.91172144  1
  O  O273  1  0.39119572  0.25260190  0.14855479  1
  O  O274  1  0.35170980  0.25228692  0.35090326  1
  O  O275  1  0.36820943  0.25983757  0.65213257  1
  O  O276  1  0.38743129  0.25541594  0.84952920  1
  O  O277  1  0.37564212  0.49568016  0.12506597  1
  O  O278  1  0.39641616  0.49748909  0.38851777  1
  O  O279  1  0.41017206  0.49792267  0.61251964  1
  O  O280  1  0.36929195  0.50372492  0.90139167  1
  O  O281  1  0.35410564  0.73958916  0.14136037  1
  O  O282  1  0.36331471  0.74265695  0.34808249  1
  O  O283  1  0.34943412  0.74563777  0.64737882  1
  O  O284  1  0.39677184  0.74786618  0.87373820  1
  O  O285  1  0.63921376  -0.00140511  0.10352007  1
  O  O286  1  0.60675003  -0.00376840  0.37772166  1
  O  O287  1  0.60037711  -0.00467508  0.63527575  1
  O  O288  1  0.63539175  -0.00012939  0.87280141  1
  O  O289  1  0.59809160  0.24568915  0.12155978  1
  O  O290  1  0.62940441  0.25421037  0.42149484  1
  O  O291  1  0.60095351  0.24843942  0.59602832  1
  O  O292  1  0.60379627  0.25502443  0.87193771  1
  O  O293  1  0.64499747  0.49459701  0.13539424  1
  O  O294  1  0.61226237  0.48978688  0.34970769  1
  O  O295  1  0.59498023  0.50863777  0.62938239  1
  O  O296  1  0.63998431  0.50012223  0.88485726  1
  O  O297  1  0.60635865  0.75671497  0.12918925  1
  O  O298  1  0.66648286  0.75272729  0.37579740  1
  O  O299  1  0.66002550  0.75139374  0.61981306  1
  O  O300  1  0.59932358  0.75303321  0.87187121  1
  O  O301  1  0.86568772  -0.01565990  0.09260386  1
  O  O302  1  0.90207746  0.00188919  0.37550399  1
  O  O303  1  0.88958043  0.00898995  0.62146770  1
  O  O304  1  0.86237560  0.00288881  0.90776087  1
  O  O305  1  0.88232030  0.24946910  0.13310333  1
  O  O306  1  0.86723055  0.24291992  0.35960581  1
  O  O307  1  0.86501721  0.25029907  0.66596285  1
  O  O308  1  0.87573999  0.24313787  0.84638912  1
  O  O309  1  0.83983408  0.50919057  0.12067273  1
  O  O310  1  0.87834925  0.48558034  0.38964713  1
  O  O311  1  0.86920885  0.48556399  0.63094653  1
  O  O312  1  0.84450576  0.49638562  0.88431557  1
  O  O313  1  0.87021234  0.74921151  0.15116676  1
  O  O314  1  0.85072449  0.75803253  0.36801204  1
  O  O315  1  0.86093943  0.73641290  0.62051495  1
  O  O316  1  0.90403919  0.75674748  0.82746332  1
