# generated using pymatgen
data_Mg32Ti42(Bi17O64)3
_symmetry_space_group_name_H-M   'P 1'
_cell_length_a   15.97765419
_cell_length_b   15.97306598
_cell_length_c   15.93142526
_cell_angle_alpha   89.83888836
_cell_angle_beta   89.86043919
_cell_angle_gamma   89.91985166
_symmetry_Int_Tables_number   1
_chemical_formula_structural   Mg32Ti42(Bi17O64)3
_chemical_formula_sum   'Mg32 Ti42 Bi51 O192'
_cell_volume   4065.86081102
_cell_formula_units_Z   1
loop_
 _symmetry_equiv_pos_site_id
 _symmetry_equiv_pos_as_xyz
  1  'x, y, z'
loop_
 _atom_site_type_symbol
 _atom_site_label
 _atom_site_symmetry_multiplicity
 _atom_site_fract_x
 _atom_site_fract_y
 _atom_site_fract_z
 _atom_site_occupancy
  Mg  Mg0  1  0.38031837  0.61509063  0.12694533  1
  Mg  Mg1  1  0.62858490  0.37697555  0.61356639  1
  Mg  Mg2  1  0.37030694  0.63026352  0.86566746  1
  Mg  Mg3  1  0.62862503  0.37246204  0.13168188  1
  Mg  Mg4  1  0.88234173  0.62954095  0.12340041  1
  Mg  Mg5  1  0.11045194  0.37336610  0.36714520  1
  Mg  Mg6  1  0.12221885  0.87100859  0.87120108  1
  Mg  Mg7  1  0.37900025  0.13152402  0.12410811  1
  Mg  Mg8  1  0.87348491  0.11537585  0.13765552  1
  Mg  Mg9  1  0.12373718  0.62357065  0.87395532  1
  Mg  Mg10  1  0.87044079  0.62435652  0.37917632  1
  Mg  Mg11  1  0.37326861  0.62802738  0.38147617  1
  Mg  Mg12  1  0.37418277  0.12967487  0.62639747  1
  Mg  Mg13  1  0.36879297  0.37018283  0.86655413  1
  Mg  Mg14  1  0.86892297  0.87221538  0.87918185  1
  Mg  Mg15  1  0.39258623  0.11670264  0.37641528  1
  Mg  Mg16  1  0.13113035  0.87384007  0.63125698  1
  Mg  Mg17  1  0.11656310  0.38514054  0.87297559  1
  Mg  Mg18  1  0.12923405  0.12197357  0.86726497  1
  Mg  Mg19  1  0.71465215  0.77111765  0.77250912  1
  Mg  Mg20  1  0.05557960  0.23933844  -0.02600778  1
  Mg  Mg21  1  0.01845469  -0.01990843  0.19267358  1
  Mg  Mg22  1  -0.01141575  0.78398538  0.76336210  1
  Mg  Mg23  1  0.28100350  0.00235081  0.75403781  1
  Mg  Mg24  1  0.73451828  0.47256531  0.48304137  1
  Mg  Mg25  1  0.69334481  -0.06333444  0.26822635  1
  Mg  Mg26  1  0.46658913  0.70098391  -0.00362665  1
  Mg  Mg27  1  0.49942270  -0.00541915  0.19110101  1
  Mg  Mg28  1  0.81388049  0.24667137  0.27091907  1
  Mg  Mg29  1  0.30755058  0.25730996  0.31200217  1
  Mg  Mg30  1  -0.04355795  0.47859003  0.73951605  1
  Mg  Mg31  1  0.75459327  0.23144584  0.06856201  1
  Ti  Ti32  1  0.62294705  0.11838876  0.37195005  1
  Ti  Ti33  1  0.61948267  0.86199858  0.12188356  1
  Ti  Ti34  1  0.37110172  0.87375570  0.35991034  1
  Ti  Ti35  1  0.87698892  0.13286130  0.88996276  1
  Ti  Ti36  1  0.87688883  0.62778242  0.86505595  1
  Ti  Ti37  1  0.12317694  0.12308750  0.37331314  1
  Ti  Ti38  1  0.37919560  0.86879796  0.12144189  1
  Ti  Ti39  1  0.10854382  0.36561505  0.11252641  1
  Ti  Ti40  1  0.13284565  0.61117790  0.37690964  1
  Ti  Ti41  1  0.63647692  0.61274712  0.37995830  1
  Ti  Ti42  1  0.86799388  0.85712037  0.63757167  1
  Ti  Ti43  1  0.88766169  0.88340606  0.34894200  1
  Ti  Ti44  1  0.36845463  0.62825456  0.61849422  1
  Ti  Ti45  1  0.37088374  0.12770777  0.86688121  1
  Ti  Ti46  1  0.13341683  0.11593440  0.63309675  1
  Ti  Ti47  1  0.87734193  0.62802107  0.63273722  1
  Ti  Ti48  1  0.38391284  0.87266009  0.86795568  1
  Ti  Ti49  1  0.12393298  0.62449867  0.62057061  1
  Ti  Ti50  1  0.13006644  0.87750254  0.36264826  1
  Ti  Ti51  1  0.11380311  0.38831523  0.62553926  1
  Ti  Ti52  1  0.63449246  0.63941298  0.88157948  1
  Ti  Ti53  1  0.87086005  0.36885782  0.87213407  1
  Ti  Ti54  1  0.62932942  0.11635103  0.88068693  1
  Ti  Ti55  1  0.36391390  0.36741538  0.62686577  1
  Ti  Ti56  1  0.61788554  0.87345496  0.63243294  1
  Ti  Ti57  1  0.62479030  0.11360289  0.14313362  1
  Ti  Ti58  1  0.39003335  0.36832030  0.12677529  1
  Ti  Ti59  1  0.88238985  0.87525950  0.11693586  1
  Ti  Ti60  1  0.87265281  0.11205722  0.62674470  1
  Ti  Ti61  1  0.12759287  0.62048513  0.11745569  1
  Ti  Ti62  1  0.14228355  0.86755464  0.12518459  1
  Ti  Ti63  1  0.64586694  0.63445319  0.62984983  1
  Ti  Ti64  1  0.61449184  0.61936237  0.12208950  1
  Ti  Ti65  1  0.63961764  0.38036550  0.36825285  1
  Ti  Ti66  1  0.13356646  0.11923782  0.10751716  1
  Ti  Ti67  1  0.87430512  0.36674556  0.11065440  1
  Ti  Ti68  1  0.62082841  0.13570740  0.62328261  1
  Ti  Ti69  1  0.62091107  0.87892180  0.89253613  1
  Ti  Ti70  1  0.87620708  0.11219696  0.37631478  1
  Ti  Ti71  1  0.86290138  0.37783147  0.62290196  1
  Ti  Ti72  1  0.36111391  0.88251776  0.63822770  1
  Ti  Ti73  1  0.87326774  0.38350066  0.37062078  1
  Bi  Bi74  1  0.25712919  0.71481924  0.24947769  1
  Bi  Bi75  1  -0.01204102  0.23474855  0.48744596  1
  Bi  Bi76  1  0.00896549  0.23572460  0.73477091  1
  Bi  Bi77  1  0.48532949  -0.00427178  0.50216122  1
  Bi  Bi78  1  0.24286440  0.50159062  0.76359756  1
  Bi  Bi79  1  0.27177575  0.03652663  0.24006700  1
  Bi  Bi80  1  0.48171741  0.01345942  -0.00704641  1
  Bi  Bi81  1  0.53598368  0.27907028  0.76904349  1
  Bi  Bi82  1  0.75814335  0.73274355  0.00708657  1
  Bi  Bi83  1  0.46319554  0.49003824  0.27917821  1
  Bi  Bi84  1  0.76257614  0.02277800  0.01441585  1
  Bi  Bi85  1  0.52076127  0.74735866  0.27055345  1
  Bi  Bi86  1  0.73040806  0.78356520  0.47030703  1
  Bi  Bi87  1  0.01931828  -0.03000232  0.50791856  1
  Bi  Bi88  1  0.53558849  0.25934105  -0.00081582  1
  Bi  Bi89  1  0.24178386  0.45507630  0.22336564  1
  Bi  Bi90  1  0.00129239  -0.00695127  -0.01698732  1
  Bi  Bi91  1  0.23427985  0.73942976  0.75782257  1
  Bi  Bi92  1  0.76184165  0.51254559  0.22175229  1
  Bi  Bi93  1  0.24463302  0.74358595  0.50613460  1
  Bi  Bi94  1  0.22747148  0.26940404  0.76865616  1
  Bi  Bi95  1  0.76205853  0.22002007  0.74990458  1
  Bi  Bi96  1  0.00013771  0.50999254  0.24410262  1
  Bi  Bi97  1  0.00911706  0.21537056  0.22814977  1
  Bi  Bi98  1  0.49619776  0.50293625  0.72494673  1
  Bi  Bi99  1  0.48280584  0.76529462  0.49703251  1
  Bi  Bi100  1  0.24509948  -0.01772050  -0.02645953  1
  Bi  Bi101  1  0.01395097  -0.01091473  0.75270035  1
  Bi  Bi102  1  0.01082856  0.73300082  0.25808649  1
  Bi  Bi103  1  0.51668111  0.48058982  -0.05036782  1
  Bi  Bi104  1  0.27492235  0.46155670  0.46299499  1
  Bi  Bi105  1  -0.01756285  0.48975141  -0.02428148  1
  Bi  Bi106  1  0.74460142  -0.02053041  0.75378258  1
  Bi  Bi107  1  0.76794081  0.75020566  0.24161265  1
  Bi  Bi108  1  0.20721426  0.25382240  0.49336256  1
  Bi  Bi109  1  0.49165314  0.03028524  0.74840778  1
  Bi  Bi110  1  0.50654565  0.73464552  0.75844667  1
  Bi  Bi111  1  0.00448568  0.74307430  -0.03547216  1
  Bi  Bi112  1  0.27542875  0.49559570  -0.00912599  1
  Bi  Bi113  1  0.52285750  0.26636158  0.27313886  1
  Bi  Bi114  1  0.26242683  0.01102634  0.48205600  1
  Bi  Bi115  1  0.74195913  -0.00370582  0.48755765  1
  Bi  Bi116  1  0.27888331  0.26324433  0.00159388  1
  Bi  Bi117  1  0.47931289  0.28501556  0.48937004  1
  Bi  Bi118  1  0.74251395  0.23315313  0.48841109  1
  Bi  Bi119  1  0.74032868  0.47318725  -0.00035378  1
  Bi  Bi120  1  0.72220075  0.46352498  0.76738599  1
  Bi  Bi121  1  0.26608451  0.72732906  0.00047211  1
  Bi  Bi122  1  0.51149082  0.51284146  0.50977736  1
  Bi  Bi123  1  -0.02706361  0.49566468  0.49479247  1
  Bi  Bi124  1  0.00172577  0.73990797  0.50828381  1
  O  O125  1  0.13860859  0.14166788  -0.00591073  1
  O  O126  1  0.11847216  0.13361534  0.25693608  1
  O  O127  1  0.12515243  0.13178080  0.51353793  1
  O  O128  1  0.08998305  0.12043933  0.74772935  1
  O  O129  1  0.08308902  0.36398591  -0.00453797  1
  O  O130  1  0.12469538  0.37363732  0.23783335  1
  O  O131  1  0.10145693  0.35995998  0.51205011  1
  O  O132  1  0.15903931  0.38776677  0.74535101  1
  O  O133  1  0.13332215  0.64620559  0.00499892  1
  O  O134  1  0.14624568  0.62350238  0.25304222  1
  O  O135  1  0.11077100  0.64166641  0.49320419  1
  O  O136  1  0.15744767  0.62297868  0.73795050  1
  O  O137  1  0.15559202  0.87234450  0.00413442  1
  O  O138  1  0.10390402  0.89808793  0.24694809  1
  O  O139  1  0.13153553  0.88854668  0.49708699  1
  O  O140  1  0.08180311  0.87192033  0.74834467  1
  O  O141  1  0.36726762  0.09348080  -0.01036853  1
  O  O142  1  0.35477765  0.14412762  0.25701800  1
  O  O143  1  0.37500986  0.08903628  0.50269317  1
  O  O144  1  0.40884108  0.14465487  0.75222793  1
  O  O145  1  0.37042777  0.38440795  -0.00027112  1
  O  O146  1  0.34084758  0.35321178  0.23571228  1
  O  O147  1  0.40078214  0.40287324  0.50574984  1
  O  O148  1  0.34132809  0.36050908  0.74221151  1
  O  O149  1  0.35739153  0.61789528  -0.00383054  1
  O  O150  1  0.37591651  0.64241891  0.25206500  1
  O  O151  1  0.41035217  0.62485668  0.50507460  1
  O  O152  1  0.35003343  0.65697689  0.73873908  1
  O  O153  1  0.36126031  0.91113522  0.00429767  1
  O  O154  1  0.39635569  0.85531683  0.25100787  1
  O  O155  1  0.35424956  0.91254146  0.51805109  1
  O  O156  1  0.39414009  0.84409502  0.75486638  1
  O  O157  1  0.63243398  0.09515791  -0.00507176  1
  O  O158  1  0.61358452  0.14753092  0.25444057  1
  O  O159  1  0.65405834  0.11154884  0.49863730  1
  O  O160  1  0.61530339  0.14906641  0.74438950  1
  O  O161  1  0.59398347  0.38464703  0.00428591  1
  O  O162  1  0.64513694  0.34424187  0.25628246  1
  O  O163  1  0.61413499  0.40653949  0.49066307  1
  O  O164  1  0.64983711  0.35239313  0.73796050  1
  O  O165  1  0.65119873  0.61996312  -0.00474431  1
  O  O166  1  0.60631202  0.63790015  0.24304531  1
  O  O167  1  0.64121849  0.58931575  0.49839221  1
  O  O168  1  0.63753047  0.66576075  0.74793143  1
  O  O169  1  0.64239085  0.89762981  0.00369475  1
  O  O170  1  0.60367639  0.84938937  0.24513568  1
  O  O171  1  0.65329718  0.89042690  0.50897392  1
  O  O172  1  0.60396866  0.83920189  0.74587204  1
  O  O173  1  0.83045345  0.14915602  -0.00199243  1
  O  O174  1  0.88378496  0.13362822  0.26274268  1
  O  O175  1  0.85813533  0.14472348  0.50191194  1
  O  O176  1  0.87887527  0.12613216  0.75213152  1
  O  O177  1  0.89591718  0.36373722  -0.00574571  1
  O  O178  1  0.84172306  0.38360564  0.25826514  1
  O  O179  1  0.91087502  0.36977049  0.51170780  1
  O  O180  1  0.85481293  0.40213685  0.74981103  1
  O  O181  1  0.87047495  0.65887658  0.00092840  1
  O  O182  1  0.87910151  0.58268239  0.25231581  1
  O  O183  1  0.89630101  0.64692031  0.51027862  1
  O  O184  1  0.89302549  0.59227232  0.75553241  1
  O  O185  1  0.84766105  0.84861963  0.00887142  1
  O  O186  1  0.91199242  0.91490166  0.24448964  1
  O  O187  1  0.83536620  0.85467019  0.51792210  1
  O  O188  1  0.90303892  0.88756531  0.75101284  1
  O  O189  1  0.00181805  0.10684485  0.14159576  1
  O  O190  1  -0.00627942  0.11846851  0.39838823  1
  O  O191  1  -0.01464515  0.14802241  0.61658274  1
  O  O192  1  -0.01353606  0.14508968  0.91821293  1
  O  O193  1  -0.01489741  0.39279400  0.13987054  1
  O  O194  1  -0.01266845  0.41962397  0.36220683  1
  O  O195  1  0.00456549  0.37801367  0.66660228  1
  O  O196  1  -0.01252520  0.42096284  0.85350147  1
  O  O197  1  0.00836683  0.62174085  0.14244096  1
  O  O198  1  0.00818560  0.61532347  0.35033840  1
  O  O199  1  0.01345707  0.65529048  0.62804091  1
  O  O200  1  -0.00334693  0.60603873  0.89718555  1
  O  O201  1  -0.00156107  0.88813982  0.10222061  1
  O  O202  1  -0.00496526  0.88668701  0.39795088  1
  O  O203  1  -0.01127871  0.86291568  0.59335285  1
  O  O204  1  -0.00628999  0.87695064  0.91346357  1
  O  O205  1  0.24505696  0.12896709  0.12785911  1
  O  O206  1  0.24040415  0.15500652  0.38917369  1
  O  O207  1  0.24447629  0.10336468  0.64955557  1
  O  O208  1  0.25691232  0.10450446  0.84293548  1
  O  O209  1  0.22731207  0.36745997  0.10072177  1
  O  O210  1  0.24316948  0.34642519  0.39229850  1
  O  O211  1  0.25156028  0.38238768  0.59539482  1
  O  O212  1  0.24372957  0.34517586  0.88901041  1
  O  O213  1  0.25162947  0.64596206  0.12648377  1
  O  O214  1  0.24604451  0.65022355  0.38639093  1
  O  O215  1  0.25647054  0.62157145  0.58224398  1
  O  O216  1  0.24697779  0.66612255  0.87524135  1
  O  O217  1  0.25740972  0.86588904  0.14347245  1
  O  O218  1  0.24512898  0.86006591  0.36294491  1
  O  O219  1  0.25283556  0.89894203  0.66876912  1
  O  O220  1  0.25749034  0.89771251  0.86010722  1
  O  O221  1  0.50541374  0.10174997  0.11748253  1
  O  O222  1  0.51520752  0.08390233  0.38535629  1
  O  O223  1  0.51015218  0.10467015  0.61216747  1
  O  O224  1  0.50398441  0.10543500  0.88373604  1
  O  O225  1  0.49908381  0.37220118  0.15525868  1
  O  O226  1  0.51349475  0.38527527  0.35393281  1
  O  O227  1  0.49553889  0.38271138  0.65291008  1
  O  O228  1  0.49272734  0.38876656  0.85169611  1
  O  O229  1  0.50475134  0.61623720  0.08870432  1
  O  O230  1  0.50990420  0.56967895  0.37871652  1
  O  O231  1  0.50009634  0.63674044  0.65065342  1
  O  O232  1  0.50476903  0.63801358  0.88058962  1
  O  O233  1  0.50069281  0.89512735  0.11360037  1
  O  O234  1  0.47952069  0.88515274  0.40778476  1
  O  O235  1  0.50316810  0.87641000  0.60754810  1
  O  O236  1  0.50271656  0.89232769  0.89247241  1
  O  O237  1  0.74278136  0.11564707  0.12775066  1
  O  O238  1  0.76113301  0.17051208  0.36599288  1
  O  O239  1  0.74948320  0.12799787  0.64101702  1
  O  O240  1  0.74631907  0.12365595  0.85539874  1
  O  O241  1  0.75058383  0.35904169  0.08504422  1
  O  O242  1  0.75348786  0.35957170  0.40818766  1
  O  O243  1  0.75666330  0.40926878  0.59484254  1
  O  O244  1  0.75469473  0.38698533  0.88342992  1
  O  O245  1  0.74967935  0.64276900  0.13906951  1
  O  O246  1  0.74459827  0.64757980  0.36439526  1
  O  O247  1  0.76135144  0.62114867  0.63060958  1
  O  O248  1  0.75599314  0.66699427  0.86615000  1
  O  O249  1  0.74437666  0.86898738  0.15956992  1
  O  O250  1  0.76284723  0.86152654  0.35085557  1
  O  O251  1  0.75032358  0.85769303  0.67237805  1
  O  O252  1  0.74336037  0.86943028  0.84933764  1
  O  O253  1  0.12749157  0.00220051  0.11568640  1
  O  O254  1  0.13577284  0.00783134  0.38048589  1
  O  O255  1  0.09696833  0.00129102  0.63107370  1
  O  O256  1  0.09797664  -0.00026415  0.87637399  1
  O  O257  1  0.09004732  0.24601762  0.11348721  1
  O  O258  1  0.09878913  0.24813170  0.39270229  1
  O  O259  1  0.12668466  0.25062833  0.65220613  1
  O  O260  1  0.10411357  0.25466181  0.85050312  1
  O  O261  1  0.13440196  0.50374165  0.11569113  1
  O  O262  1  0.14744100  0.49883620  0.38320221  1
  O  O263  1  0.11416954  0.50536495  0.61586936  1
  O  O264  1  0.16503524  0.50376375  0.87717177  1
  O  O265  1  0.12057699  0.75698923  0.14292321  1
  O  O266  1  0.10488132  0.76122826  0.36279545  1
  O  O267  1  0.15690976  0.74871231  0.62026354  1
  O  O268  1  0.09018921  0.74705297  0.85506776  1
  O  O269  1  0.37639132  -0.00079367  0.16162795  1
  O  O270  1  0.34292402  -0.00389624  0.36360551  1
  O  O271  1  0.38252474  -0.00273921  0.66706684  1
  O  O272  1  0.38441906  -0.00170875  0.84151358  1
  O  O273  1  0.38308881  0.25345392  0.09735771  1
  O  O274  1  0.41216406  0.24159426  0.38205942  1
  O  O275  1  0.37815923  0.25608931  0.59309026  1
  O  O276  1  0.37805308  0.24079736  0.89759655  1
  O  O277  1  0.35430269  0.48895566  0.13179622  1
  O  O278  1  0.34952954  0.50244416  0.35293823  1
  O  O279  1  0.38142059  0.51040255  0.64232579  1
  O  O280  1  0.34859035  0.50206587  0.86706054  1
  O  O281  1  0.39346349  0.75872800  0.09194512  1
  O  O282  1  0.38079439  0.75788689  0.40114570  1
  O  O283  1  0.36128822  0.76083445  0.59581730  1
  O  O284  1  0.38709193  0.76274827  0.90978115  1
  O  O285  1  0.62462139  -0.00230625  0.17378741  1
  O  O286  1  0.67580348  0.01465424  0.36450464  1
  O  O287  1  0.64022804  -0.01241965  0.65290613  1
  O  O288  1  0.63470189  -0.00466107  0.84459672  1
  O  O289  1  0.62784565  0.23720789  0.09692258  1
  O  O290  1  0.60419483  0.24672725  0.39368163  1
  O  O291  1  0.62021393  0.24756891  0.59872566  1
  O  O292  1  0.61122074  0.23883608  0.88691004  1
  O  O293  1  0.64358592  0.50470632  0.12885612  1
  O  O294  1  0.66436004  0.49440329  0.35484797  1
  O  O295  1  0.61467426  0.51217724  0.65195467  1
  O  O296  1  0.62459452  0.51800233  0.86250066  1
  O  O297  1  0.61332273  0.75130341  0.10320891  1
  O  O298  1  0.58475543  0.72415924  0.39222809  1
  O  O299  1  0.63426294  0.74513719  0.59295603  1
  O  O300  1  0.61806018  0.75981165  0.89143062  1
  O  O301  1  0.86903851  -0.00425526  0.09920117  1
  O  O302  1  0.85852975  -0.00007520  0.39056907  1
  O  O303  1  0.87299203  -0.00037702  0.61798007  1
  O  O304  1  0.87768918  0.01079289  0.90376000  1
  O  O305  1  0.86056747  0.25212019  0.14737563  1
  O  O306  1  0.90049558  0.26882202  0.36998771  1
  O  O307  1  0.85368198  0.26501648  0.63975895  1
  O  O308  1  0.87093882  0.25696685  0.85407787  1
  O  O309  1  0.84476228  0.49273461  0.10694629  1
  O  O310  1  0.85020640  0.49979398  0.42422559  1
  O  O311  1  0.90625368  0.50805131  0.61853866  1
  O  O312  1  0.85669648  0.51305778  0.91179635  1
  O  O313  1  0.88222051  0.75880066  0.16049630  1
  O  O314  1  0.89264958  0.75832928  0.34121025  1
  O  O315  1  0.88529050  0.74545725  0.66364476  1
  O  O316  1  0.91020851  0.74441400  0.85688964  1
