# generated using pymatgen
data_Mg32Ti42(Bi17O64)3
_symmetry_space_group_name_H-M   'P 1'
_cell_length_a   15.94015064
_cell_length_b   15.97487823
_cell_length_c   15.92170400
_cell_angle_alpha   89.99448695
_cell_angle_beta   89.90569360
_cell_angle_gamma   90.02410033
_symmetry_Int_Tables_number   1
_chemical_formula_structural   Mg32Ti42(Bi17O64)3
_chemical_formula_sum   'Mg32 Ti42 Bi51 O192'
_cell_volume   4054.32812989
_cell_formula_units_Z   1
loop_
 _symmetry_equiv_pos_site_id
 _symmetry_equiv_pos_as_xyz
  1  'x, y, z'
loop_
 _atom_site_type_symbol
 _atom_site_label
 _atom_site_symmetry_multiplicity
 _atom_site_fract_x
 _atom_site_fract_y
 _atom_site_fract_z
 _atom_site_occupancy
  Mg  Mg0  1  0.63038016  0.87436827  0.63506095  1
  Mg  Mg1  1  0.38312171  0.36460891  0.37356596  1
  Mg  Mg2  1  0.36854166  0.87892876  0.87882928  1
  Mg  Mg3  1  0.61923368  0.60829335  0.87092431  1
  Mg  Mg4  1  0.88375018  0.13042882  0.87876917  1
  Mg  Mg5  1  0.13398774  0.37555932  0.63251355  1
  Mg  Mg6  1  0.37289774  0.13232944  0.12877549  1
  Mg  Mg7  1  0.12225510  0.11686531  0.62189329  1
  Mg  Mg8  1  0.38746186  0.63065610  0.11110275  1
  Mg  Mg9  1  0.86090644  0.86927194  0.12462847  1
  Mg  Mg10  1  0.13650178  0.62985461  0.61624361  1
  Mg  Mg11  1  0.87139068  0.38249324  0.87286711  1
  Mg  Mg12  1  0.12527025  0.37504601  0.36633678  1
  Mg  Mg13  1  0.62027369  0.11816704  0.87672286  1
  Mg  Mg14  1  0.88282654  0.87352019  0.37086096  1
  Mg  Mg15  1  0.36385662  0.12636011  0.87572107  1
  Mg  Mg16  1  0.12955415  0.39336915  0.11804963  1
  Mg  Mg17  1  0.86169310  0.63266146  0.12317412  1
  Mg  Mg18  1  0.88161186  0.13480272  0.36998159  1
  Mg  Mg19  1  0.05428357  0.29019756  0.50337922  1
  Mg  Mg20  1  0.02237889  -0.05711109  0.74834071  1
  Mg  Mg21  1  0.24846418  -0.01773980  -0.01190329  1
  Mg  Mg22  1  0.72413573  0.77992928  0.21897388  1
  Mg  Mg23  1  0.26710098  0.51215223  -0.02830252  1
  Mg  Mg24  1  0.72428901  0.69226823  -0.01396935  1
  Mg  Mg25  1  0.51823748  0.44209910  0.71926340  1
  Mg  Mg26  1  0.51835025  0.22413035  0.27767707  1
  Mg  Mg27  1  0.79591492  0.30510011  0.23472373  1
  Mg  Mg28  1  0.01097757  -0.05519564  0.23447481  1
  Mg  Mg29  1  -0.04752244  0.43895779  0.02341806  1
  Mg  Mg30  1  0.55124574  0.75073941  0.02110018  1
  Mg  Mg31  1  0.71048003  0.74826626  0.79965967  1
  Ti  Ti32  1  0.86875180  0.86674509  0.87008136  1
  Ti  Ti33  1  0.13465314  0.86786820  0.12093224  1
  Ti  Ti34  1  0.12659293  0.86589666  0.88036565  1
  Ti  Ti35  1  0.12039509  0.62353610  0.11874661  1
  Ti  Ti36  1  0.36638185  0.87197635  0.61671636  1
  Ti  Ti37  1  0.63148973  0.12062279  0.37028796  1
  Ti  Ti38  1  0.62238352  0.13923173  0.13330969  1
  Ti  Ti39  1  0.87416818  0.88212356  0.62277759  1
  Ti  Ti40  1  0.89160221  0.36456426  0.37855305  1
  Ti  Ti41  1  0.62653487  0.88545722  0.88496915  1
  Ti  Ti42  1  0.12383591  0.86826026  0.61076913  1
  Ti  Ti43  1  0.11694425  0.62632562  0.88524317  1
  Ti  Ti44  1  0.12532596  0.38719639  0.88242807  1
  Ti  Ti45  1  0.38356320  0.87046919  0.11903534  1
  Ti  Ti46  1  0.61891670  0.37932424  0.88332710  1
  Ti  Ti47  1  0.38389874  0.61772919  0.62678145  1
  Ti  Ti48  1  0.61932127  0.89438605  0.12613963  1
  Ti  Ti49  1  0.62601998  0.88205672  0.35986604  1
  Ti  Ti50  1  0.37144584  0.36656000  0.63051658  1
  Ti  Ti51  1  0.62698363  0.11696549  0.62819629  1
  Ti  Ti52  1  0.12376194  0.12932081  0.36925807  1
  Ti  Ti53  1  0.88555314  0.12460858  0.13371582  1
  Ti  Ti54  1  0.63816219  0.62582381  0.38577494  1
  Ti  Ti55  1  0.62531390  0.36290716  0.36853672  1
  Ti  Ti56  1  0.38072479  0.37880779  0.87326548  1
  Ti  Ti57  1  0.12911904  0.10969695  0.11301434  1
  Ti  Ti58  1  0.12717339  0.86761818  0.36353736  1
  Ti  Ti59  1  0.63293964  0.62892074  0.13831046  1
  Ti  Ti60  1  0.11454436  0.61735365  0.36259614  1
  Ti  Ti61  1  0.88554745  0.12802754  0.62340586  1
  Ti  Ti62  1  0.12838583  0.11059380  0.87826355  1
  Ti  Ti63  1  0.36983621  0.11935106  0.62479082  1
  Ti  Ti64  1  0.38348046  0.62669439  0.87667269  1
  Ti  Ti65  1  0.88839372  0.37054438  0.63465662  1
  Ti  Ti66  1  0.62659352  0.63120567  0.63557474  1
  Ti  Ti67  1  0.86285749  0.63005175  0.62443257  1
  Ti  Ti68  1  0.86377744  0.61782099  0.87849685  1
  Ti  Ti69  1  0.37780954  0.39230641  0.12644668  1
  Ti  Ti70  1  0.37780871  0.88093094  0.36983060  1
  Ti  Ti71  1  0.87318114  0.62038783  0.38151619  1
  Ti  Ti72  1  0.60269295  0.36794885  0.14195098  1
  Ti  Ti73  1  0.37969111  0.13361903  0.37246360  1
  Bi  Bi74  1  0.76711518  0.02330627  0.00882364  1
  Bi  Bi75  1  0.50796134  0.74983863  0.51419018  1
  Bi  Bi76  1  0.75406667  0.47878476  0.03502638  1
  Bi  Bi77  1  0.52218986  0.51712162  0.02325295  1
  Bi  Bi78  1  0.03870681  0.49887709  0.51068330  1
  Bi  Bi79  1  0.78070353  0.25517307  0.01224824  1
  Bi  Bi80  1  0.48440599  0.72926994  0.28503199  1
  Bi  Bi81  1  0.25378489  0.50798164  0.76083157  1
  Bi  Bi82  1  -0.00977905  0.27796526  0.21536432  1
  Bi  Bi83  1  0.70939238  0.46234619  0.73703330  1
  Bi  Bi84  1  0.24686914  0.23448650  0.50796056  1
  Bi  Bi85  1  0.22120921  -0.02157023  0.74713139  1
  Bi  Bi86  1  0.26884902  0.49138997  0.27025675  1
  Bi  Bi87  1  0.77319936  0.02682359  0.49698697  1
  Bi  Bi88  1  0.51710010  0.75844407  0.78855068  1
  Bi  Bi89  1  0.26688532  0.72733206  0.23516485  1
  Bi  Bi90  1  0.48475618  0.02137180  0.24239584  1
  Bi  Bi91  1  0.51728514  0.23936172  0.74614723  1
  Bi  Bi92  1  0.27171048  0.73148012  0.74796637  1
  Bi  Bi93  1  0.47367274  0.00226991  0.00071598  1
  Bi  Bi94  1  0.48609940  0.50451855  0.29276884  1
  Bi  Bi95  1  0.73414340  0.78604386  0.49402873  1
  Bi  Bi96  1  0.23990909  0.01047047  0.23294973  1
  Bi  Bi97  1  -0.02765499  0.73767428  -0.00705084  1
  Bi  Bi98  1  0.26939269  0.47591047  0.48448887  1
  Bi  Bi99  1  0.53039356  0.47315522  0.52239143  1
  Bi  Bi100  1  0.26252408  0.26943701  0.00123087  1
  Bi  Bi101  1  -0.01170331  -0.03703159  0.00540332  1
  Bi  Bi102  1  0.25711637  0.73356740  -0.00651282  1
  Bi  Bi103  1  -0.01478066  0.50523163  0.22106414  1
  Bi  Bi104  1  0.00359012  0.52500444  0.72910445  1
  Bi  Bi105  1  0.23968249  0.00505321  0.47750452  1
  Bi  Bi106  1  0.77079876  0.48138427  0.51343345  1
  Bi  Bi107  1  0.51309444  -0.01608007  0.51422352  1
  Bi  Bi108  1  0.50349630  0.22657834  -0.01726992  1
  Bi  Bi109  1  0.23064591  0.25983512  0.76997210  1
  Bi  Bi110  1  0.78302838  -0.00956780  0.26214541  1
  Bi  Bi111  1  -0.03037980  0.74011046  0.23607197  1
  Bi  Bi112  1  -0.01681108  0.73788332  0.73507738  1
  Bi  Bi113  1  0.01130834  0.23266842  0.74954573  1
  Bi  Bi114  1  0.75622840  0.49396500  0.26293796  1
  Bi  Bi115  1  0.46592335  -0.00217530  0.75824597  1
  Bi  Bi116  1  0.27246946  0.72985471  0.46325492  1
  Bi  Bi117  1  0.23454757  0.26798643  0.22425604  1
  Bi  Bi118  1  -0.01085137  0.74198303  0.48634053  1
  Bi  Bi119  1  0.74428758  0.26388914  0.53664471  1
  Bi  Bi120  1  0.74571083  0.24254694  0.79053279  1
  Bi  Bi121  1  0.51181689  0.23195693  0.51372185  1
  Bi  Bi122  1  0.77549507  0.01328436  0.77564046  1
  Bi  Bi123  1  0.00409671  0.00439928  0.47261938  1
  Bi  Bi124  1  0.03428547  0.25333748  -0.00803789  1
  O  O125  1  0.09983042  0.10409230  -0.00087018  1
  O  O126  1  0.15642120  0.13670781  0.25315421  1
  O  O127  1  0.11905699  0.08447641  0.49404505  1
  O  O128  1  0.13001656  0.15665612  0.75233112  1
  O  O129  1  0.15333951  0.36702303  -0.00452560  1
  O  O130  1  0.10893008  0.34695539  0.24228611  1
  O  O131  1  0.14074203  0.40092270  0.49830701  1
  O  O132  1  0.11125116  0.34279891  0.76039877  1
  O  O133  1  0.16361026  0.61640526  0.00299101  1
  O  O134  1  0.08319490  0.64133930  0.24882505  1
  O  O135  1  0.14041414  0.59375827  0.49195288  1
  O  O136  1  0.09348598  0.62460648  0.76629605  1
  O  O137  1  0.13228226  0.91052841  0.00347168  1
  O  O138  1  0.11153767  0.85797185  0.24642594  1
  O  O139  1  0.11718299  0.90157425  0.49838152  1
  O  O140  1  0.13366544  0.86113905  0.76028090  1
  O  O141  1  0.40595595  0.12649781  0.00472428  1
  O  O142  1  0.35507375  0.10228057  0.25600233  1
  O  O143  1  0.39521258  0.14367614  0.49771224  1
  O  O144  1  0.36402137  0.10236120  0.74260761  1
  O  O145  1  0.33282493  0.39411796  -0.00509073  1
  O  O146  1  0.38610606  0.39788468  0.24399798  1
  O  O147  1  0.35640814  0.36976354  0.50623504  1
  O  O148  1  0.40713878  0.38455776  0.75408569  1
  O  O149  1  0.33765327  0.61852479  -0.00752156  1
  O  O150  1  0.38487254  0.65057156  0.23624716  1
  O  O151  1  0.35817448  0.63414409  0.51487377  1
  O  O152  1  0.38238449  0.63865645  0.75542455  1
  O  O153  1  0.35899924  0.90653046  0.00585805  1
  O  O154  1  0.38558557  0.86865375  0.24825812  1
  O  O155  1  0.35722799  0.86559875  0.49980056  1
  O  O156  1  0.37394473  0.89838827  0.74458432  1
  O  O157  1  0.59197385  0.12085581  0.00978860  1
  O  O158  1  0.63631389  0.14990323  0.25759573  1
  O  O159  1  0.59257315  0.11252028  0.49802522  1
  O  O160  1  0.62330292  0.14526112  0.74400656  1
  O  O161  1  0.63850395  0.40029874  -0.00079173  1
  O  O162  1  0.57631000  0.34336522  0.25048839  1
  O  O163  1  0.64840536  0.39689212  0.48274335  1
  O  O164  1  0.61176098  0.35895814  0.75028900  1
  O  O165  1  0.64920499  0.58601188  -0.00532459  1
  O  O166  1  0.63565884  0.66928145  0.24483382  1
  O  O167  1  0.63311254  0.59636972  0.49663126  1
  O  O168  1  0.62361088  0.66147024  0.74778411  1
  O  O169  1  0.62923627  0.89689504  0.00090224  1
  O  O170  1  0.60770595  0.85242032  0.24169288  1
  O  O171  1  0.64619127  0.89290559  0.48490289  1
  O  O172  1  0.62511714  0.83519630  0.75557028  1
  O  O173  1  0.85821880  0.13476634  0.00508897  1
  O  O174  1  0.86987649  0.10073903  0.24504286  1
  O  O175  1  0.87685907  0.12329849  0.50220191  1
  O  O176  1  0.86308612  0.11744388  0.74570791  1
  O  O177  1  0.84918142  0.37092426  0.00248543  1
  O  O178  1  0.89800340  0.38953035  0.25407288  1
  O  O179  1  0.84495590  0.36686795  0.48924327  1
  O  O180  1  0.89869905  0.37782986  0.74635091  1
  O  O181  1  0.85097656  0.66635931  -0.00225365  1
  O  O182  1  0.90090095  0.61552211  0.26085060  1
  O  O183  1  0.86570460  0.64504564  0.50812193  1
  O  O184  1  0.89476805  0.61529407  0.75788316  1
  O  O185  1  0.87983887  0.86623790  -0.00690829  1
  O  O186  1  0.89032820  0.90755426  0.24464906  1
  O  O187  1  0.89377424  0.85904021  0.50536377  1
  O  O188  1  0.88891284  0.90450354  0.75269739  1
  O  O189  1  -0.00074777  0.14847248  0.12842046  1
  O  O190  1  0.01014534  0.10617538  0.36917211  1
  O  O191  1  -0.00343007  0.14107696  0.63578121  1
  O  O192  1  0.00531027  0.16251670  0.87053361  1
  O  O193  1  0.00824240  0.35041795  0.09892272  1
  O  O194  1  0.00106864  0.36385628  0.40701366  1
  O  O195  1  -0.00211536  0.35656367  0.59715198  1
  O  O196  1  0.00768403  0.37450215  0.91277584  1
  O  O197  1  -0.00134656  0.66630731  0.11039376  1
  O  O198  1  -0.00114134  0.61455631  0.40916467  1
  O  O199  1  -0.00348377  0.62918415  0.63030587  1
  O  O200  1  0.00218114  0.62601683  0.91134787  1
  O  O201  1  0.00379474  0.87405326  0.11377539  1
  O  O202  1  0.01138393  0.91321897  0.36430684  1
  O  O203  1  0.00498836  0.85981495  0.64356548  1
  O  O204  1  0.00456403  0.88259901  0.87990836  1
  O  O205  1  0.24215480  0.07724797  0.09930269  1
  O  O206  1  0.25684053  0.12973074  0.40528756  1
  O  O207  1  0.25467737  0.11478400  0.59532751  1
  O  O208  1  0.24075024  0.08752914  0.89990288  1
  O  O209  1  0.24932844  0.39655359  0.15632335  1
  O  O210  1  0.25276922  0.38770115  0.36484759  1
  O  O211  1  0.25947638  0.40250308  0.64782805  1
  O  O212  1  0.24791037  0.38116473  0.84190075  1
  O  O213  1  0.23162157  0.61860320  0.16084410  1
  O  O214  1  0.23246699  0.65063296  0.35271997  1
  O  O215  1  0.25652432  0.62169922  0.65818223  1
  O  O216  1  0.24031741  0.63132155  0.84727120  1
  O  O217  1  0.24766947  0.89580491  0.13520910  1
  O  O218  1  0.24800871  0.85478681  0.36771361  1
  O  O219  1  0.24665157  0.89596648  0.62937686  1
  O  O220  1  0.24077767  0.90192366  0.88096160  1
  O  O221  1  0.49903335  0.14494579  0.17251521  1
  O  O222  1  0.49984512  0.11580829  0.35560820  1
  O  O223  1  0.49448178  0.15047119  0.63454647  1
  O  O224  1  0.49740218  0.15626724  0.86082456  1
  O  O225  1  0.49119235  0.36326020  0.09815954  1
  O  O226  1  0.50775300  0.40459184  0.39124521  1
  O  O227  1  0.49480748  0.36889298  0.60837579  1
  O  O228  1  0.49426463  0.37003294  0.90023349  1
  O  O229  1  0.51402249  0.64503181  0.08716595  1
  O  O230  1  0.51573508  0.62218078  0.36738648  1
  O  O231  1  0.50295214  0.65206499  0.61607333  1
  O  O232  1  0.49322632  0.62468885  0.89512038  1
  O  O233  1  0.49892892  0.84476690  0.09657813  1
  O  O234  1  0.50098722  0.88208486  0.38464792  1
  O  O235  1  0.49908849  0.86396413  0.59925126  1
  O  O236  1  0.50536966  0.87470007  0.86810962  1
  O  O237  1  0.73426762  0.10603000  0.11816238  1
  O  O238  1  0.74067095  0.13203240  0.40446382  1
  O  O239  1  0.74222523  0.11814293  0.61098635  1
  O  O240  1  0.74628478  0.12000178  0.86683859  1
  O  O241  1  0.72752839  0.39545713  0.15619465  1
  O  O242  1  0.73753857  0.36684710  0.32931034  1
  O  O243  1  0.75760427  0.38308267  0.62134962  1
  O  O244  1  0.74131305  0.38355294  0.84915250  1
  O  O245  1  0.74431279  0.58644834  0.13873907  1
  O  O246  1  0.75843283  0.63645935  0.37008954  1
  O  O247  1  0.74753980  0.61126638  0.63644259  1
  O  O248  1  0.75125230  0.64733044  0.86457054  1
  O  O249  1  0.73476247  0.88931555  0.14267831  1
  O  O250  1  0.74406447  0.85491457  0.34072207  1
  O  O251  1  0.75862767  0.87225737  0.61587601  1
  O  O252  1  0.75164451  0.85434046  0.86189773  1
  O  O253  1  0.10215034  0.00426027  0.16318496  1
  O  O254  1  0.16029857  -0.00148051  0.35892367  1
  O  O255  1  0.11023878  -0.00860779  0.66031145  1
  O  O256  1  0.10032764  0.00702698  0.83685410  1
  O  O257  1  0.15732183  0.23259716  0.11066696  1
  O  O258  1  0.12830227  0.24171830  0.40897635  1
  O  O259  1  0.13790986  0.24890044  0.59240298  1
  O  O260  1  0.15604686  0.24221917  0.89117427  1
  O  O261  1  0.09079938  0.51249786  0.11962080  1
  O  O262  1  0.12733049  0.50525041  0.34098382  1
  O  O263  1  0.10645688  0.50111171  0.63839385  1
  O  O264  1  0.14318236  0.50140208  0.88076759  1
  O  O265  1  0.14834356  0.75614229  0.10457465  1
  O  O266  1  0.09943282  0.75724750  0.39512211  1
  O  O267  1  0.13799234  0.75551652  0.60109674  1
  O  O268  1  0.12584572  0.75121521  0.89926724  1
  O  O269  1  0.40634333  -0.00385099  0.12928224  1
  O  O270  1  0.36692227  -0.00377985  0.38819638  1
  O  O271  1  0.40144745  0.00398679  0.60921930  1
  O  O272  1  0.40235023  0.00592236  0.87876451  1
  O  O273  1  0.34163146  0.25811312  0.12526983  1
  O  O274  1  0.40220351  0.24444001  0.34732923  1
  O  O275  1  0.35522865  0.25223964  0.63762848  1
  O  O276  1  0.35604246  0.25983304  0.87959332  1
  O  O277  1  0.39663133  0.50537467  0.11251595  1
  O  O278  1  0.36926315  0.50284225  0.37286249  1
  O  O279  1  0.40300814  0.50578274  0.62724977  1
  O  O280  1  0.35248105  0.50501475  0.86987962  1
  O  O281  1  0.34639194  0.75582641  0.10523342  1
  O  O282  1  0.38532358  0.75519643  0.38286297  1
  O  O283  1  0.36540757  0.75945206  0.63995560  1
  O  O284  1  0.35895877  0.75042137  0.87692500  1
  O  O285  1  0.59466783  0.00349267  0.14279704  1
  O  O286  1  0.63414299  -0.00051496  0.35133848  1
  O  O287  1  0.59965410  0.00037033  0.62861791  1
  O  O288  1  0.63426766  -0.00611788  0.85335758  1
  O  O289  1  0.62972375  0.25469993  0.11109784  1
  O  O290  1  0.60335541  0.25093154  0.38922988  1
  O  O291  1  0.62483784  0.24022947  0.60313650  1
  O  O292  1  0.63572791  0.25670398  0.88631154  1
  O  O293  1  0.59120146  0.50019628  0.14252729  1
  O  O294  1  0.63837962  0.50814240  0.33686130  1
  O  O295  1  0.59868780  0.51331446  0.64811181  1
  O  O296  1  0.60436828  0.49030541  0.83430854  1
  O  O297  1  0.65997073  0.73424116  0.08835570  1
  O  O298  1  0.62151825  0.74804138  0.40560222  1
  O  O299  1  0.63383979  0.74733225  0.58592671  1
  O  O300  1  0.61402396  0.74684568  0.90408430  1
  O  O301  1  0.87427032  0.00336965  0.09615816  1
  O  O302  1  0.85255804  -0.00106806  0.38623169  1
  O  O303  1  0.87749259  0.00002943  0.60884640  1
  O  O304  1  0.85900475  -0.00149925  0.88871840  1
  O  O305  1  0.84947286  0.24050052  0.14142588  1
  O  O306  1  0.87204639  0.25744892  0.34219864  1
  O  O307  1  0.85443346  0.24894441  0.62770173  1
  O  O308  1  0.84870559  0.25453765  0.88127042  1
  O  O309  1  0.90450283  0.51195762  0.11243687  1
  O  O310  1  0.85968246  0.49922593  0.38799351  1
  O  O311  1  0.88482043  0.49778180  0.61054537  1
  O  O312  1  0.86978381  0.50906627  0.90549920  1
  O  O313  1  0.84378945  0.75070323  0.16986846  1
  O  O314  1  0.90602563  0.74661555  0.37325410  1
  O  O315  1  0.87292876  0.74669120  0.65038013  1
  O  O316  1  0.89529020  0.75326200  0.85467500  1
