# generated using pymatgen
data_Mg32Ti42(Bi17O64)3
_symmetry_space_group_name_H-M   'P 1'
_cell_length_a   15.94840125
_cell_length_b   15.99394774
_cell_length_c   15.93668001
_cell_angle_alpha   89.99488516
_cell_angle_beta   89.91350036
_cell_angle_gamma   90.15439083
_symmetry_Int_Tables_number   1
_chemical_formula_structural   Mg32Ti42(Bi17O64)3
_chemical_formula_sum   'Mg32 Ti42 Bi51 O192'
_cell_volume   4065.07539909
_cell_formula_units_Z   1
loop_
 _symmetry_equiv_pos_site_id
 _symmetry_equiv_pos_as_xyz
  1  'x, y, z'
loop_
 _atom_site_type_symbol
 _atom_site_label
 _atom_site_symmetry_multiplicity
 _atom_site_fract_x
 _atom_site_fract_y
 _atom_site_fract_z
 _atom_site_occupancy
  Mg  Mg0  1  0.37079118  0.87952973  0.36851829  1
  Mg  Mg1  1  0.13011540  0.61665269  0.89774932  1
  Mg  Mg2  1  0.36995064  0.37954923  0.86094084  1
  Mg  Mg3  1  0.37646198  0.87961049  0.63636935  1
  Mg  Mg4  1  0.87049452  0.37357006  0.85635959  1
  Mg  Mg5  1  0.12406455  0.87536313  0.38081777  1
  Mg  Mg6  1  0.88065663  0.13143664  0.12314770  1
  Mg  Mg7  1  0.38639301  0.12204061  0.86941261  1
  Mg  Mg8  1  0.62995527  0.13105192  0.61742420  1
  Mg  Mg9  1  0.37625818  0.12504887  0.38442163  1
  Mg  Mg10  1  0.88450063  0.12658312  0.36963651  1
  Mg  Mg11  1  0.87769413  0.38277655  0.12457116  1
  Mg  Mg12  1  0.37770186  0.38197052  0.12248778  1
  Mg  Mg13  1  0.38418287  0.37948096  0.37907318  1
  Mg  Mg14  1  0.62462260  0.12649487  0.11995856  1
  Mg  Mg15  1  0.86129847  0.88007120  0.13233521  1
  Mg  Mg16  1  0.62698404  0.87634502  0.62026264  1
  Mg  Mg17  1  0.37175177  0.61808618  0.87248610  1
  Mg  Mg18  1  0.85950352  0.87617187  0.88120559  1
  Mg  Mg19  1  0.51514988  0.26428623  0.56052566  1
  Mg  Mg20  1  -0.06800846  0.55651234  -0.02798831  1
  Mg  Mg21  1  0.18534852  0.02065031  0.75785932  1
  Mg  Mg22  1  -0.01023051  0.74345978  0.45319890  1
  Mg  Mg23  1  0.77016720  0.71215125  -0.05325986  1
  Mg  Mg24  1  0.69509886  0.28060829  0.51395056  1
  Mg  Mg25  1  0.25320477  0.49381752  0.00025618  1
  Mg  Mg26  1  0.77607711  0.05307168  -0.00309539  1
  Mg  Mg27  1  0.71643696  0.33764897  0.68941531  1
  Mg  Mg28  1  0.24485103  -0.00987479  0.54006312  1
  Mg  Mg29  1  0.52888451  0.44205879  0.52678463  1
  Mg  Mg30  1  0.45296659  0.75079265  -0.02727192  1
  Mg  Mg31  1  0.50395340  0.51218911  0.31666995  1
  Ti  Ti32  1  0.86926923  0.14047385  0.87325466  1
  Ti  Ti33  1  0.89153588  0.63498076  0.60643793  1
  Ti  Ti34  1  0.61545965  0.13480468  0.37264095  1
  Ti  Ti35  1  0.10858464  0.61755541  0.12577929  1
  Ti  Ti36  1  0.86294812  0.62166652  0.13606136  1
  Ti  Ti37  1  0.61831563  0.37440974  0.12988117  1
  Ti  Ti38  1  0.38087476  0.63275585  0.38646940  1
  Ti  Ti39  1  0.62761093  0.62523334  0.62958743  1
  Ti  Ti40  1  0.13481535  0.62999660  0.37025943  1
  Ti  Ti41  1  0.37656283  0.63602964  0.62436189  1
  Ti  Ti42  1  0.13561943  0.11373234  0.36814339  1
  Ti  Ti43  1  0.12196502  0.87236858  0.88023988  1
  Ti  Ti44  1  0.87857569  0.86874976  0.62117190  1
  Ti  Ti45  1  0.36820897  0.36005269  0.62879848  1
  Ti  Ti46  1  0.62641974  0.88361038  0.12278348  1
  Ti  Ti47  1  0.13326331  0.37172199  0.36831575  1
  Ti  Ti48  1  0.37691198  0.13587889  0.11325081  1
  Ti  Ti49  1  0.61814536  0.86582844  0.89532305  1
  Ti  Ti50  1  0.62371220  0.62466052  0.39009184  1
  Ti  Ti51  1  0.12996312  0.63765628  0.61769752  1
  Ti  Ti52  1  0.61864854  0.37255534  0.37240607  1
  Ti  Ti53  1  0.61375989  0.61360236  0.14781224  1
  Ti  Ti54  1  0.39410574  0.12347440  0.63145388  1
  Ti  Ti55  1  0.38021118  0.87133661  0.11832663  1
  Ti  Ti56  1  0.87433719  0.13784996  0.61842895  1
  Ti  Ti57  1  0.62469226  0.88824643  0.38392958  1
  Ti  Ti58  1  0.12590594  0.37410726  0.85693072  1
  Ti  Ti59  1  0.62570663  0.39077910  0.88621091  1
  Ti  Ti60  1  0.61549522  0.62948413  0.88865734  1
  Ti  Ti61  1  0.10764203  0.12550037  0.88085722  1
  Ti  Ti62  1  0.86002704  0.36367151  0.38153795  1
  Ti  Ti63  1  0.38609041  0.63209092  0.14497906  1
  Ti  Ti64  1  0.13236522  0.14051762  0.11948464  1
  Ti  Ti65  1  0.86865079  0.62314498  0.37756895  1
  Ti  Ti66  1  0.87959491  0.88871363  0.37998722  1
  Ti  Ti67  1  0.63459766  0.13666756  0.88624161  1
  Ti  Ti68  1  0.88247833  0.37795642  0.62508588  1
  Ti  Ti69  1  0.12932582  0.37958227  0.62007756  1
  Ti  Ti70  1  0.37353008  0.88536645  0.87251509  1
  Ti  Ti71  1  0.13697836  0.86938353  0.63845209  1
  Ti  Ti72  1  0.12951561  0.87012065  0.11714809  1
  Ti  Ti73  1  0.12799834  0.38596609  0.12234698  1
  Bi  Bi74  1  0.25388727  0.28067905  -0.01094703  1
  Bi  Bi75  1  0.53287665  -0.00108841  0.74673386  1
  Bi  Bi76  1  0.00446025  0.28013567  -0.01661220  1
  Bi  Bi77  1  -0.03455513  -0.02317904  0.00272293  1
  Bi  Bi78  1  -0.03901784  0.74892558  0.01123087  1
  Bi  Bi79  1  0.25734207  0.74334321  0.78665894  1
  Bi  Bi80  1  0.75503042  0.49973830  0.26569997  1
  Bi  Bi81  1  0.26820819  0.78565420  0.49742479  1
  Bi  Bi82  1  0.02673150  0.50956034  0.49236263  1
  Bi  Bi83  1  0.00086848  0.02249473  0.24474916  1
  Bi  Bi84  1  0.00758312  0.53150909  0.77519696  1
  Bi  Bi85  1  -0.01077466  0.26385286  0.24725483  1
  Bi  Bi86  1  0.24718767  0.76721423  0.25645264  1
  Bi  Bi87  1  0.24784083  0.01666618  -0.02517435  1
  Bi  Bi88  1  0.73767065  0.76617032  0.75565982  1
  Bi  Bi89  1  0.04893592  0.00516080  0.53055428  1
  Bi  Bi90  1  0.52282767  0.49412392  0.71946709  1
  Bi  Bi91  1  0.75521297  0.04447962  0.48008856  1
  Bi  Bi92  1  -0.00512164  0.78043870  0.24421755  1
  Bi  Bi93  1  0.24874073  0.71722561  0.02962144  1
  Bi  Bi94  1  0.48914014  0.26421503  0.25812031  1
  Bi  Bi95  1  0.26273154  0.21356846  0.76246588  1
  Bi  Bi96  1  0.74629406  0.02981170  0.24277165  1
  Bi  Bi97  1  0.75949912  0.77230648  0.49853566  1
  Bi  Bi98  1  0.26671802  0.26005272  0.27985054  1
  Bi  Bi99  1  0.50561860  0.76392396  0.75985499  1
  Bi  Bi100  1  -0.02628372  0.74613532  0.79111311  1
  Bi  Bi101  1  0.48073649  0.27966001  -0.01558093  1
  Bi  Bi102  1  0.24662592  0.19998506  0.52345901  1
  Bi  Bi103  1  0.49491987  0.01942622  -0.01130650  1
  Bi  Bi104  1  0.78914200  0.54255034  0.76889688  1
  Bi  Bi105  1  0.47602718  0.02294064  0.24813714  1
  Bi  Bi106  1  0.50988758  0.76321112  0.51091216  1
  Bi  Bi107  1  0.50648236  0.77619916  0.25462126  1
  Bi  Bi108  1  0.54402068  0.26693839  0.75222675  1
  Bi  Bi109  1  0.46223154  -0.01196834  0.50149472  1
  Bi  Bi110  1  0.00711089  0.48939471  0.25622555  1
  Bi  Bi111  1  0.28418584  0.48623326  0.51107851  1
  Bi  Bi112  1  0.26324863  0.51776695  0.74951488  1
  Bi  Bi113  1  0.01275324  0.26084057  0.48826281  1
  Bi  Bi114  1  0.02694911  0.23747834  0.71428003  1
  Bi  Bi115  1  0.74285549  0.50010293  0.02040103  1
  Bi  Bi116  1  0.72789941  0.76864342  0.25462733  1
  Bi  Bi117  1  0.74516134  0.03004987  0.73695308  1
  Bi  Bi118  1  0.74897563  0.25136248  0.23116513  1
  Bi  Bi119  1  0.75979310  0.49825488  0.51478032  1
  Bi  Bi120  1  -0.02241728  0.00336343  0.73139430  1
  Bi  Bi121  1  0.47370102  0.51915088  0.00330836  1
  Bi  Bi122  1  0.76913454  0.27328419  -0.01011207  1
  Bi  Bi123  1  0.24258334  0.01686209  0.23346819  1
  Bi  Bi124  1  0.28072511  0.49317512  0.24595388  1
  O  O125  1  0.13972098  0.11109427  -0.00047192  1
  O  O126  1  0.15069970  0.13025920  0.24219655  1
  O  O127  1  0.15205475  0.09197211  0.48928079  1
  O  O128  1  0.12500900  0.14112055  0.76278642  1
  O  O129  1  0.09274072  0.38413047  0.01011770  1
  O  O130  1  0.15036615  0.35783654  0.25103503  1
  O  O131  1  0.09793180  0.37570316  0.49505082  1
  O  O132  1  0.14129798  0.34719417  0.74382509  1
  O  O133  1  0.16491165  0.59026290  0.01691818  1
  O  O134  1  0.10206451  0.63695051  0.25092291  1
  O  O135  1  0.13583450  0.59453311  0.49231327  1
  O  O136  1  0.09652042  0.63079180  0.73126476  1
  O  O137  1  0.13047162  0.89262778  -0.00032131  1
  O  O138  1  0.12486988  0.84331760  0.24501860  1
  O  O139  1  0.14419750  0.90669560  0.50605139  1
  O  O140  1  0.13259942  0.87666710  0.75551136  1
  O  O141  1  0.36999974  0.09133605  -0.00312702  1
  O  O142  1  0.39139885  0.13291410  0.23533222  1
  O  O143  1  0.34210601  0.09453142  0.51106521  1
  O  O144  1  0.39660255  0.15614123  0.74652178  1
  O  O145  1  0.39542826  0.39091214  -0.00377852  1
  O  O146  1  0.34561591  0.37164131  0.24446416  1
  O  O147  1  0.40178567  0.41473257  0.49842029  1
  O  O148  1  0.34640570  0.34198960  0.73853224  1
  O  O149  1  0.35115238  0.57781868  -0.00449781  1
  O  O150  1  0.40258353  0.65683398  0.25408530  1
  O  O151  1  0.35550264  0.60579436  0.49912630  1
  O  O152  1  0.36683630  0.65136876  0.74174444  1
  O  O153  1  0.38286354  0.89070715  0.00198062  1
  O  O154  1  0.37216420  0.83918475  0.24433078  1
  O  O155  1  0.34438390  0.90982305  0.49850702  1
  O  O156  1  0.39093477  0.85605614  0.75784813  1
  O  O157  1  0.66459468  0.11992458  -0.00206736  1
  O  O158  1  0.61914282  0.09939017  0.25575175  1
  O  O159  1  0.66129454  0.15567890  0.48910045  1
  O  O160  1  0.61994156  0.11111757  0.76030809  1
  O  O161  1  0.60003972  0.36207358  0.00113540  1
  O  O162  1  0.65548612  0.38888246  0.24881716  1
  O  O163  1  0.58516906  0.33750989  0.48315539  1
  O  O164  1  0.62550386  0.38549476  0.76061198  1
  O  O165  1  0.66201481  0.64814484  -0.00987882  1
  O  O166  1  0.59461359  0.58020921  0.25530866  1
  O  O167  1  0.63718438  0.63821808  0.50293291  1
  O  O168  1  0.60476144  0.60312886  0.74869284  1
  O  O169  1  0.62269040  0.85429225  0.00880701  1
  O  O170  1  0.62112364  0.87238559  0.26208638  1
  O  O171  1  0.63974037  0.84557724  0.49617215  1
  O  O172  1  0.59813826  0.87052614  0.74869974  1
  O  O173  1  0.85825022  0.15178074  -0.00270758  1
  O  O174  1  0.88294256  0.08807912  0.24572067  1
  O  O175  1  0.87023356  0.13027015  0.50279803  1
  O  O176  1  0.88184022  0.10593074  0.75614027  1
  O  O177  1  0.88699986  0.34833641  -0.00259901  1
  O  O178  1  0.85080536  0.39943918  0.25780287  1
  O  O179  1  0.91065820  0.36356929  0.49016040  1
  O  O180  1  0.83176655  0.37629445  0.73137880  1
  O  O181  1  0.85616626  0.65060177  0.01370553  1
  O  O182  1  0.87953724  0.59309579  0.25568667  1
  O  O183  1  0.83923484  0.61933473  0.49806395  1
  O  O184  1  0.89320348  0.63098166  0.72951813  1
  O  O185  1  0.88366196  0.86168311  0.00881128  1
  O  O186  1  0.89798438  0.88471539  0.25794309  1
  O  O187  1  0.85212146  0.87774449  0.50323805  1
  O  O188  1  0.87464474  0.83897393  0.74522862  1
  O  O189  1  0.01577121  0.11646612  0.13566952  1
  O  O190  1  0.01376857  0.11294744  0.35535706  1
  O  O191  1  -0.00570167  0.10426499  0.63642886  1
  O  O192  1  -0.00445674  0.14684443  0.88508094  1
  O  O193  1  0.00322030  0.37742794  0.16143740  1
  O  O194  1  -0.00099545  0.37579881  0.34132939  1
  O  O195  1  -0.00124578  0.37724355  0.64808283  1
  O  O196  1  0.00690868  0.34647055  0.86113289  1
  O  O197  1  -0.00062649  0.61267949  0.09788669  1
  O  O198  1  -0.01503859  0.61406029  0.40036037  1
  O  O199  1  0.00120319  0.61457397  0.58677412  1
  O  O200  1  0.00646718  0.61952893  0.88483480  1
  O  O201  1  0.00844492  0.86369031  0.12720731  1
  O  O202  1  -0.00632837  0.86223759  0.39776808  1
  O  O203  1  0.00152532  0.89637797  0.62830898  1
  O  O204  1  0.00495576  0.86360292  0.87899519  1
  O  O205  1  0.25619919  0.10942537  0.12051791  1
  O  O206  1  0.25162675  0.14965394  0.37379582  1
  O  O207  1  0.26471297  0.13687848  0.64723752  1
  O  O208  1  0.25637572  0.09190945  0.85242962  1
  O  O209  1  0.24349175  0.40485287  0.09362860  1
  O  O210  1  0.24835046  0.36268707  0.38788924  1
  O  O211  1  0.24467793  0.36348428  0.59365717  1
  O  O212  1  0.24084690  0.39416792  0.90727951  1
  O  O213  1  0.26590280  0.64190662  0.14615049  1
  O  O214  1  0.24964649  0.63339138  0.35607753  1
  O  O215  1  0.24360353  0.62770268  0.63477679  1
  O  O216  1  0.24325516  0.62119502  0.84683254  1
  O  O217  1  0.25438274  0.84194778  0.12331600  1
  O  O218  1  0.24747659  0.84747220  0.37012252  1
  O  O219  1  0.25216808  0.87050121  0.62892702  1
  O  O220  1  0.25709029  0.90536496  0.87171576  1
  O  O221  1  0.49668700  0.11548928  0.10387724  1
  O  O222  1  0.50476199  0.11304044  0.38498939  1
  O  O223  1  0.50467221  0.14385919  0.59832463  1
  O  O224  1  0.51387007  0.13247626  0.90665926  1
  O  O225  1  0.50411915  0.36555562  0.14354543  1
  O  O226  1  0.50485407  0.38474468  0.33092775  1
  O  O227  1  0.48922214  0.36848223  0.63645243  1
  O  O228  1  0.50070957  0.35203727  0.86358041  1
  O  O229  1  0.50454586  0.61788465  0.10337724  1
  O  O230  1  0.49721404  0.61659254  0.39314816  1
  O  O231  1  0.48601615  0.60693831  0.62362918  1
  O  O232  1  0.49587822  0.63993648  0.91541609  1
  O  O233  1  0.50195530  0.86547746  0.14099937  1
  O  O234  1  0.50511450  0.87370900  0.39577445  1
  O  O235  1  0.49791614  0.87874274  0.58521581  1
  O  O236  1  0.49683469  0.83597514  0.88955021  1
  O  O237  1  0.75189206  0.13238996  0.15341046  1
  O  O238  1  0.75151591  0.11505918  0.35784583  1
  O  O239  1  0.75802074  0.12363092  0.63903686  1
  O  O240  1  0.75240248  0.10153259  0.86560785  1
  O  O241  1  0.74855642  0.38232090  0.09404531  1
  O  O242  1  0.74229550  0.34476345  0.40130030  1
  O  O243  1  0.76509896  0.36449770  0.57836255  1
  O  O244  1  0.74213210  0.38978239  0.90480453  1
  O  O245  1  0.74703104  0.60972760  0.14891864  1
  O  O246  1  0.73977183  0.61856449  0.35871430  1
  O  O247  1  0.74306487  0.63238804  0.64467561  1
  O  O248  1  0.74341047  0.63969558  0.84763941  1
  O  O249  1  0.74084161  0.86056206  0.14983174  1
  O  O250  1  0.75212237  0.85730228  0.36987843  1
  O  O251  1  0.75447781  0.84202298  0.62812474  1
  O  O252  1  0.73824490  0.84320285  0.87560527  1
  O  O253  1  0.14219216  -0.01586494  0.14405085  1
  O  O254  1  0.14088109  -0.00025836  0.34143131  1
  O  O255  1  0.13991071  -0.00359961  0.63864539  1
  O  O256  1  0.10888087  0.00716398  0.86299510  1
  O  O257  1  0.13254890  0.25253549  0.11216893  1
  O  O258  1  0.11092365  0.24969628  0.38562180  1
  O  O259  1  0.10245887  0.25004284  0.60132943  1
  O  O260  1  0.14762397  0.24999663  0.89647129  1
  O  O261  1  0.11826167  0.49876098  0.15919118  1
  O  O262  1  0.11277796  0.49498056  0.36146007  1
  O  O263  1  0.12653677  0.49256810  0.62411485  1
  O  O264  1  0.11602180  0.48978177  0.85123551  1
  O  O265  1  0.12404201  0.73690999  0.10008302  1
  O  O266  1  0.10690199  0.73733595  0.39957967  1
  O  O267  1  0.12237920  0.75294992  0.60601756  1
  O  O268  1  0.14730652  0.75760879  0.88454075  1
  O  O269  1  0.37506219  -0.01524316  0.14721490  1
  O  O270  1  0.38198038  0.00142692  0.34645288  1
  O  O271  1  0.40604758  0.00741834  0.63968773  1
  O  O272  1  0.41670308  -0.00607249  0.86584392  1
  O  O273  1  0.36986228  0.24830785  0.10070489  1
  O  O274  1  0.38782654  0.25392025  0.35809006  1
  O  O275  1  0.38112531  0.25190538  0.58282163  1
  O  O276  1  0.35679075  0.24964470  0.89985550  1
  O  O277  1  0.38142634  0.51137862  0.15281013  1
  O  O278  1  0.37636351  0.51049843  0.34443652  1
  O  O279  1  0.34949381  0.49383681  0.63609137  1
  O  O280  1  0.37401700  0.49979330  0.82740934  1
  O  O281  1  0.39100702  0.73969285  0.08263280  1
  O  O282  1  0.38030274  0.74905195  0.41064836  1
  O  O283  1  0.38431328  0.75010138  0.59312598  1
  O  O284  1  0.34999705  0.75158100  0.89210872  1
  O  O285  1  0.63227661  -0.00688265  0.11857249  1
  O  O286  1  0.63505958  -0.00140025  0.40197144  1
  O  O287  1  0.63180037  0.00137996  0.63796865  1
  O  O288  1  0.60467775  -0.01892983  0.87962160  1
  O  O289  1  0.63968683  0.25665080  0.14077315  1
  O  O290  1  0.60854518  0.24802960  0.33960009  1
  O  O291  1  0.63339818  0.25795247  0.63616114  1
  O  O292  1  0.63871240  0.24950077  0.86435970  1
  O  O293  1  0.62757735  0.49836734  0.10338903  1
  O  O294  1  0.61095913  0.48767078  0.40340585  1
  O  O295  1  0.60756036  0.50151926  0.60968085  1
  O  O296  1  0.61010071  0.50481175  0.89343763  1
  O  O297  1  0.61881998  0.73179440  0.16753913  1
  O  O298  1  0.61839633  0.73634676  0.35673183  1
  O  O299  1  0.59506474  0.74079177  0.63443195  1
  O  O300  1  0.61718688  0.74228739  0.84607011  1
  O  O301  1  0.86212547  0.00514944  0.08860217  1
  O  O302  1  0.86816233  -0.00120772  0.39133551  1
  O  O303  1  0.86628659  -0.01366856  0.64446231  1
  O  O304  1  0.87364691  0.00108101  0.90622032  1
  O  O305  1  0.87561152  0.25563905  0.16029870  1
  O  O306  1  0.88685077  0.25178232  0.35078992  1
  O  O307  1  0.89641095  0.24762139  0.63088390  1
  O  O308  1  0.84473963  0.24935554  0.86300519  1
  O  O309  1  0.87348728  0.50704515  0.08536052  1
  O  O310  1  0.84046847  0.48878106  0.39542593  1
  O  O311  1  0.86774981  0.49852943  0.60668260  1
  O  O312  1  0.88368897  0.50025331  0.86618240  1
  O  O313  1  0.88934474  0.73961983  0.14814040  1
  O  O314  1  0.87849962  0.73885285  0.38070891  1
  O  O315  1  0.90339421  0.74870502  0.58465743  1
  O  O316  1  0.88118314  0.74873833  0.88729105  1
