# generated using pymatgen
data_Mg32Ti42(Bi17O64)3
_symmetry_space_group_name_H-M   'P 1'
_cell_length_a   15.96362617
_cell_length_b   15.95987010
_cell_length_c   15.92814370
_cell_angle_alpha   89.93620903
_cell_angle_beta   89.93443740
_cell_angle_gamma   90.02097511
_symmetry_Int_Tables_number   1
_chemical_formula_structural   Mg32Ti42(Bi17O64)3
_chemical_formula_sum   'Mg32 Ti42 Bi51 O192'
_cell_volume   4058.12559393
_cell_formula_units_Z   1
loop_
 _symmetry_equiv_pos_site_id
 _symmetry_equiv_pos_as_xyz
  1  'x, y, z'
loop_
 _atom_site_type_symbol
 _atom_site_label
 _atom_site_symmetry_multiplicity
 _atom_site_fract_x
 _atom_site_fract_y
 _atom_site_fract_z
 _atom_site_occupancy
  Mg  Mg0  1  0.36917040  0.87893629  0.62513352  1
  Mg  Mg1  1  0.62542920  0.87753611  0.86940324  1
  Mg  Mg2  1  0.12121802  0.38252708  0.36877988  1
  Mg  Mg3  1  0.87660209  0.11480470  0.12788087  1
  Mg  Mg4  1  0.11615258  0.62361156  0.12385617  1
  Mg  Mg5  1  0.37528087  0.63326606  0.37457024  1
  Mg  Mg6  1  0.86920077  0.62003691  0.61759710  1
  Mg  Mg7  1  0.38042407  0.37647973  0.12392146  1
  Mg  Mg8  1  0.37340648  0.87317225  0.12581706  1
  Mg  Mg9  1  0.87558063  0.12124593  0.62196535  1
  Mg  Mg10  1  0.37233215  0.62178416  0.86077042  1
  Mg  Mg11  1  0.37591782  0.37806034  0.37666895  1
  Mg  Mg12  1  0.37342683  0.37922371  0.62930849  1
  Mg  Mg13  1  0.62618618  0.61948639  0.86768073  1
  Mg  Mg14  1  0.11971256  0.88181153  0.12141735  1
  Mg  Mg15  1  0.37138289  0.12115744  0.37012298  1
  Mg  Mg16  1  0.86733089  0.86423984  0.38585966  1
  Mg  Mg17  1  0.87915153  0.12467279  0.37288321  1
  Mg  Mg18  1  0.87260313  0.11870051  0.87582780  1
  Mg  Mg19  1  0.71127149  0.74566681  0.48437156  1
  Mg  Mg20  1  0.03977880  -0.06103438  0.28030311  1
  Mg  Mg21  1  0.05904185  0.80979097  -0.02712871  1
  Mg  Mg22  1  0.80583616  -0.04729285  0.25042014  1
  Mg  Mg23  1  0.44725153  0.01296637  0.73342464  1
  Mg  Mg24  1  0.19813810  0.75877237  0.20477299  1
  Mg  Mg25  1  0.50633611  -0.04118108  0.20796209  1
  Mg  Mg26  1  0.19922121  0.54207455  0.75290751  1
  Mg  Mg27  1  0.01672704  0.55016854  0.69269104  1
  Mg  Mg28  1  0.73132534  0.49771025  0.53582693  1
  Mg  Mg29  1  0.49786938  0.54026995  0.29018944  1
  Mg  Mg30  1  0.75407215  0.52787069  0.23101287  1
  Mg  Mg31  1  0.22060950  0.51694143  0.56623600  1
  Ti  Ti32  1  0.62039584  0.11350963  0.87786139  1
  Ti  Ti33  1  0.62546394  0.88983469  0.37076449  1
  Ti  Ti34  1  0.86361362  0.37201111  0.12757534  1
  Ti  Ti35  1  0.89658087  0.87238364  0.12284614  1
  Ti  Ti36  1  0.62722310  0.62027634  0.62831130  1
  Ti  Ti37  1  0.38023731  0.12917743  0.87891301  1
  Ti  Ti38  1  0.12154635  0.12556653  0.12660621  1
  Ti  Ti39  1  0.61812360  0.12611536  0.37014324  1
  Ti  Ti40  1  0.87283999  0.62328615  0.87685747  1
  Ti  Ti41  1  0.36063048  0.12346448  0.62312864  1
  Ti  Ti42  1  0.87158469  0.37543963  0.87371204  1
  Ti  Ti43  1  0.12398543  0.14071041  0.86384792  1
  Ti  Ti44  1  0.85239501  0.60869629  0.39576412  1
  Ti  Ti45  1  0.36986952  0.37925428  0.87105458  1
  Ti  Ti46  1  0.87821472  0.38459355  0.60838619  1
  Ti  Ti47  1  0.87200043  0.37714149  0.37205341  1
  Ti  Ti48  1  0.37538131  0.12092738  0.12887092  1
  Ti  Ti49  1  0.62635669  0.87290863  0.60799764  1
  Ti  Ti50  1  0.62308291  0.12483941  0.61557137  1
  Ti  Ti51  1  0.36216645  0.62606026  0.63401440  1
  Ti  Ti52  1  0.62724318  0.61242890  0.38351057  1
  Ti  Ti53  1  0.38559300  0.88533344  0.86305304  1
  Ti  Ti54  1  0.37253335  0.63460166  0.13120707  1
  Ti  Ti55  1  0.87215433  0.64407738  0.12605421  1
  Ti  Ti56  1  0.63212723  0.37971476  0.89011630  1
  Ti  Ti57  1  0.37272169  0.87867406  0.36853451  1
  Ti  Ti58  1  0.11797211  0.37901588  0.87776122  1
  Ti  Ti59  1  0.61709963  0.61909805  0.13216781  1
  Ti  Ti60  1  0.11977715  0.38404208  0.12962315  1
  Ti  Ti61  1  0.12064948  0.89083080  0.63130304  1
  Ti  Ti62  1  0.62800181  0.85832999  0.12889572  1
  Ti  Ti63  1  0.61952428  0.38053354  0.37427438  1
  Ti  Ti64  1  0.62101399  0.37363473  0.13580752  1
  Ti  Ti65  1  0.11166657  0.61338670  0.88563634  1
  Ti  Ti66  1  0.61477750  0.37627199  0.61687806  1
  Ti  Ti67  1  0.12515152  0.13727178  0.36413232  1
  Ti  Ti68  1  0.61817671  0.12000366  0.12975051  1
  Ti  Ti69  1  0.87535168  0.87632997  0.62002752  1
  Ti  Ti70  1  0.86571661  0.87271819  0.88251372  1
  Ti  Ti71  1  0.14941666  0.61973335  0.37020268  1
  Ti  Ti72  1  0.11813835  0.37658703  0.63421994  1
  Ti  Ti73  1  0.11941256  0.12988633  0.61727617  1
  Bi  Bi74  1  0.47629887  0.25448967  0.27295066  1
  Bi  Bi75  1  0.46772673  0.26290923  0.49987710  1
  Bi  Bi76  1  -0.02812241  0.51836478  0.23907461  1
  Bi  Bi77  1  0.00415466  0.73904291  0.52606096  1
  Bi  Bi78  1  0.01528773  -0.02112273  0.47543943  1
  Bi  Bi79  1  0.74970131  0.22579555  0.24781003  1
  Bi  Bi80  1  0.24773163  0.27643965  0.25101717  1
  Bi  Bi81  1  0.21712483  -0.01422368  0.77311288  1
  Bi  Bi82  1  0.48244723  0.74942212  0.74237662  1
  Bi  Bi83  1  0.72456613  0.75621488  0.73575510  1
  Bi  Bi84  1  0.25348997  0.49528630  0.02666042  1
  Bi  Bi85  1  0.23616343  0.28775168  0.50714966  1
  Bi  Bi86  1  0.77494305  0.49256064  0.73856729  1
  Bi  Bi87  1  0.48335137  0.75304348  0.25105693  1
  Bi  Bi88  1  -0.01789473  0.23730088  0.23468744  1
  Bi  Bi89  1  0.01957427  0.75019644  0.29930294  1
  Bi  Bi90  1  -0.02043136  0.74743935  0.76403693  1
  Bi  Bi91  1  0.74632230  0.22743473  0.75565029  1
  Bi  Bi92  1  0.74760209  -0.00284110  0.72650980  1
  Bi  Bi93  1  0.47671198  0.51726574  -0.01103582  1
  Bi  Bi94  1  0.51184879  0.46612378  0.76553772  1
  Bi  Bi95  1  0.23193201  0.00062734  0.45894437  1
  Bi  Bi96  1  0.27571906  0.49731792  0.26617194  1
  Bi  Bi97  1  0.25035514  0.27169213  0.01377502  1
  Bi  Bi98  1  -0.02344737  0.22541046  -0.00424666  1
  Bi  Bi99  1  0.48502857  0.01545663  0.48631800  1
  Bi  Bi100  1  0.23395496  0.72745678  0.00039263  1
  Bi  Bi101  1  -0.00221591  0.25097734  0.47660269  1
  Bi  Bi102  1  0.74113641  0.50674370  0.02371347  1
  Bi  Bi103  1  0.49547977  0.74764381  -0.02672203  1
  Bi  Bi104  1  0.50048026  0.25515238  0.01681348  1
  Bi  Bi105  1  0.74742220  0.74229024  0.28080503  1
  Bi  Bi106  1  0.20417068  0.73190343  0.75739047  1
  Bi  Bi107  1  0.72756688  0.74274899  -0.01836170  1
  Bi  Bi108  1  -0.02481403  0.50176602  0.00428443  1
  Bi  Bi109  1  0.48127989  -0.01612266  0.00463070  1
  Bi  Bi110  1  0.46520447  0.75898341  0.50195465  1
  Bi  Bi111  1  0.46252680  0.52285629  0.50853071  1
  Bi  Bi112  1  -0.02620219  0.24616427  0.72474634  1
  Bi  Bi113  1  0.73588786  0.22311961  -0.00124664  1
  Bi  Bi114  1  0.74076439  0.25779821  0.47173615  1
  Bi  Bi115  1  0.22209904  0.78149850  0.51229480  1
  Bi  Bi116  1  0.75224243  -0.01950652  0.04159043  1
  Bi  Bi117  1  0.02556729  -0.00393699  -0.01842874  1
  Bi  Bi118  1  0.77313968  0.01069975  0.47081521  1
  Bi  Bi119  1  0.03026615  0.51902326  0.48309063  1
  Bi  Bi120  1  0.23793528  -0.01149892  0.23338329  1
  Bi  Bi121  1  0.49776833  0.22621387  0.73530764  1
  Bi  Bi122  1  0.24390924  0.27085206  0.75416012  1
  Bi  Bi123  1  -0.01157430  -0.02618134  0.76683754  1
  Bi  Bi124  1  0.25152934  0.00141285  -0.01182441  1
  O  O125  1  0.13141238  0.09640360  0.00755533  1
  O  O126  1  0.13410116  0.15555325  0.25091781  1
  O  O127  1  0.12123949  0.10076995  0.50304596  1
  O  O128  1  0.13545770  0.15666142  0.75049493  1
  O  O129  1  0.14960901  0.38727525  -0.00078336  1
  O  O130  1  0.12186211  0.35043308  0.24209696  1
  O  O131  1  0.16051876  0.40510636  0.51356293  1
  O  O132  1  0.12126813  0.34579886  0.75399483  1
  O  O133  1  0.15919295  0.60763092  -0.00126434  1
  O  O134  1  0.11695400  0.66071499  0.24928497  1
  O  O135  1  0.15140377  0.58809210  0.48884662  1
  O  O136  1  0.09940749  0.63303750  0.76030544  1
  O  O137  1  0.13368290  0.91410715  -0.00034169  1
  O  O138  1  0.10407451  0.83828208  0.24180754  1
  O  O139  1  0.13607238  0.89728399  0.50242707  1
  O  O140  1  0.11024005  0.87593426  0.74730663  1
  O  O141  1  0.37255865  0.09549432  -0.00487406  1
  O  O142  1  0.38008856  0.14728544  0.24214249  1
  O  O143  1  0.39519046  0.12764593  0.50785447  1
  O  O144  1  0.38456575  0.13135968  0.75247516  1
  O  O145  1  0.35310691  0.38306225  -0.00394549  1
  O  O146  1  0.38021683  0.34642153  0.24536512  1
  O  O147  1  0.36622439  0.35970750  0.50149976  1
  O  O148  1  0.39937220  0.36417698  0.75455028  1
  O  O149  1  0.36176208  0.60770091  0.00549160  1
  O  O150  1  0.41225016  0.62681704  0.24388253  1
  O  O151  1  0.37174927  0.63651999  0.50319691  1
  O  O152  1  0.41197880  0.62066015  0.73874485  1
  O  O153  1  0.36837142  0.90178222  -0.00118108  1
  O  O154  1  0.41227357  0.88280310  0.25520465  1
  O  O155  1  0.35906074  0.85080263  0.49675127  1
  O  O156  1  0.41400129  0.88225350  0.74717421  1
  O  O157  1  0.64104960  0.11596957  0.00269995  1
  O  O158  1  0.62323740  0.14832459  0.25079833  1
  O  O159  1  0.61997959  0.10703908  0.50275446  1
  O  O160  1  0.62613765  0.15405254  0.76230914  1
  O  O161  1  0.63714055  0.41234147  0.00063401  1
  O  O162  1  0.61688679  0.35371286  0.24800435  1
  O  O163  1  0.65207872  0.39110144  0.49528914  1
  O  O164  1  0.60562252  0.36230571  0.73731805  1
  O  O165  1  0.65519255  0.61373266  0.00492726  1
  O  O166  1  0.59273575  0.62389229  0.24524084  1
  O  O167  1  0.66104269  0.60692724  0.49267488  1
  O  O168  1  0.61067299  0.65098661  0.74038570  1
  O  O169  1  0.65997718  0.87697271  0.01031038  1
  O  O170  1  0.59440249  0.87093318  0.25089852  1
  O  O171  1  0.66361537  0.86672127  0.49073260  1
  O  O172  1  0.61813306  0.84262629  0.73680014  1
  O  O173  1  0.88503091  0.12166784  0.00200915  1
  O  O174  1  0.87255362  0.15545793  0.25003695  1
  O  O175  1  0.87424858  0.09518841  0.49996991  1
  O  O176  1  0.87245063  0.15943757  0.75335839  1
  O  O177  1  0.87071980  0.40422179  0.01170073  1
  O  O178  1  0.88650912  0.34557283  0.25543445  1
  O  O179  1  0.85905416  0.40395828  0.49887525  1
  O  O180  1  0.88284137  0.35449444  0.76050255  1
  O  O181  1  0.86586384  0.60227837  0.00667113  1
  O  O182  1  0.89667420  0.63796306  0.24652210  1
  O  O183  1  0.82913967  0.57922164  0.49945117  1
  O  O184  1  0.90760939  0.63225126  0.75692825  1
  O  O185  1  0.84450858  0.88610904  -0.00104750  1
  O  O186  1  0.91321556  0.87224561  0.23834195  1
  O  O187  1  0.85498118  0.89730413  0.50758716  1
  O  O188  1  0.89978128  0.86046471  0.75214583  1
  O  O189  1  0.00682780  0.13011510  0.13134716  1
  O  O190  1  0.00334898  0.15348674  0.37045634  1
  O  O191  1  0.00444273  0.13328982  0.63553633  1
  O  O192  1  0.00663262  0.14031025  0.87868830  1
  O  O193  1  0.00481413  0.40297918  0.12250392  1
  O  O194  1  -0.00579046  0.36616563  0.39389148  1
  O  O195  1  0.00574336  0.38271070  0.60968208  1
  O  O196  1  0.00564353  0.37905210  0.89365535  1
  O  O197  1  -0.00799803  0.59598696  0.11632427  1
  O  O198  1  -0.02864743  0.62361039  0.40848724  1
  O  O199  1  -0.00459978  0.61521898  0.58626613  1
  O  O200  1  0.00215104  0.61237350  0.90695578  1
  O  O201  1  -0.00118754  0.87647393  0.07677004  1
  O  O202  1  -0.00753915  0.87498574  0.38802405  1
  O  O203  1  -0.00009673  0.89298711  0.60321126  1
  O  O204  1  -0.00687639  0.88708802  0.89174831  1
  O  O205  1  0.25550883  0.08891279  0.12785027  1
  O  O206  1  0.24460619  0.11190459  0.37367225  1
  O  O207  1  0.25052962  0.14133497  0.62034633  1
  O  O208  1  0.25171110  0.09441984  0.87134759  1
  O  O209  1  0.24993193  0.35707351  0.13211556  1
  O  O210  1  0.24959502  0.37601923  0.35163763  1
  O  O211  1  0.24953751  0.35335579  0.64218693  1
  O  O212  1  0.25499419  0.37510168  0.85134424  1
  O  O213  1  0.25839563  0.66410883  0.13748054  1
  O  O214  1  0.25783493  0.61850629  0.34335168  1
  O  O215  1  0.24992904  0.62710033  0.65928041  1
  O  O216  1  0.24823478  0.62819228  0.83681855  1
  O  O217  1  0.24938453  0.87378767  0.15677669  1
  O  O218  1  0.25883202  0.89152669  0.36067419  1
  O  O219  1  0.24113674  0.86069618  0.62940316  1
  O  O220  1  0.26691218  0.89456387  0.86436354  1
  O  O221  1  0.50294250  0.14596661  0.10932906  1
  O  O222  1  0.50404800  0.10582971  0.37698747  1
  O  O223  1  0.51316753  0.10308958  0.65432533  1
  O  O224  1  0.50256866  0.14132020  0.88319737  1
  O  O225  1  0.50574277  0.37425804  0.10570034  1
  O  O226  1  0.50522131  0.36291357  0.38159672  1
  O  O227  1  0.50270474  0.38798318  0.59781759  1
  O  O228  1  0.50661078  0.38140335  0.88197647  1
  O  O229  1  0.50684075  0.60888093  0.09689808  1
  O  O230  1  0.50851753  0.61628199  0.39656643  1
  O  O231  1  0.51155405  0.62031226  0.59377473  1
  O  O232  1  0.50154625  0.62097646  0.90367617  1
  O  O233  1  0.51289558  0.87841307  0.10305739  1
  O  O234  1  0.51147064  0.88503853  0.40568192  1
  O  O235  1  0.51390720  0.86918365  0.59371044  1
  O  O236  1  0.50391876  0.87313092  0.90787803  1
  O  O237  1  0.74419104  0.14085305  0.13236893  1
  O  O238  1  0.74550181  0.14442917  0.37719564  1
  O  O239  1  0.74399766  0.12548168  0.64987929  1
  O  O240  1  0.74634677  0.14367321  0.87179583  1
  O  O241  1  0.75142318  0.35626601  0.12868102  1
  O  O242  1  0.74908622  0.35262596  0.36658744  1
  O  O243  1  0.75816163  0.39966227  0.63271302  1
  O  O244  1  0.75241897  0.37550354  0.86791112  1
  O  O245  1  0.75665671  0.62409745  0.14360616  1
  O  O246  1  0.74266365  0.60229210  0.33147982  1
  O  O247  1  0.75043204  0.59989154  0.64978133  1
  O  O248  1  0.75940268  0.64378181  0.86815841  1
  O  O249  1  0.74266167  0.89004843  0.15254079  1
  O  O250  1  0.74830132  0.87028347  0.33386450  1
  O  O251  1  0.75928505  0.86991258  0.65425076  1
  O  O252  1  0.75318305  0.84393105  0.85824704  1
  O  O253  1  0.11248069  -0.00188906  0.17818049  1
  O  O254  1  0.10861953  0.00994867  0.36653113  1
  O  O255  1  0.12941147  0.00825097  0.64692169  1
  O  O256  1  0.10791845  0.01513262  0.85273506  1
  O  O257  1  0.13395159  0.24207027  0.10276388  1
  O  O258  1  0.13023140  0.25301048  0.40637412  1
  O  O259  1  0.12215885  0.25322437  0.59833792  1
  O  O260  1  0.14358890  0.25259156  0.89621394  1
  O  O261  1  0.15380157  0.49700471  0.13617368  1
  O  O262  1  0.10267348  0.51039177  0.35231981  1
  O  O263  1  0.13221620  0.49366975  0.65871719  1
  O  O264  1  0.13486857  0.49713986  0.85698542  1
  O  O265  1  0.12791086  0.75546108  0.08000039  1
  O  O266  1  0.11400317  0.72939537  0.40386366  1
  O  O267  1  0.11387238  0.76072879  0.60662733  1
  O  O268  1  0.13145452  0.73878932  0.89495080  1
  O  O269  1  0.41095408  0.00567085  0.13695043  1
  O  O270  1  0.37824977  -0.00384073  0.39883774  1
  O  O271  1  0.37403921  0.00520173  0.63002656  1
  O  O272  1  0.40674330  0.00244748  0.85611476  1
  O  O273  1  0.36998704  0.23906919  0.09255096  1
  O  O274  1  0.38885515  0.24488920  0.37984012  1
  O  O275  1  0.40284570  0.24243782  0.62750951  1
  O  O276  1  0.36455505  0.24430590  0.88955575  1
  O  O277  1  0.35068504  0.50545348  0.13919321  1
  O  O278  1  0.38828519  0.50041745  0.34856610  1
  O  O279  1  0.35093640  0.50709092  0.60369806  1
  O  O280  1  0.38770595  0.49561708  0.87126602  1
  O  O281  1  0.40257481  0.74924031  0.13052789  1
  O  O282  1  0.39702757  0.75698339  0.36483858  1
  O  O283  1  0.39094191  0.74787934  0.63115839  1
  O  O284  1  0.39698898  0.75433375  0.86594139  1
  O  O285  1  0.60984985  0.00843790  0.14176482  1
  O  O286  1  0.63947137  0.00196974  0.36653890  1
  O  O287  1  0.64458995  -0.00999117  0.62958987  1
  O  O288  1  0.62632447  0.00390389  0.86154378  1
  O  O289  1  0.62320305  0.25888327  0.09365740  1
  O  O290  1  0.61887097  0.24519520  0.39755766  1
  O  O291  1  0.61324584  0.24623344  0.61099391  1
  O  O292  1  0.62978146  0.26249491  0.91057802  1
  O  O293  1  0.65542034  0.49839466  0.14462845  1
  O  O294  1  0.60926599  0.49383403  0.35165369  1
  O  O295  1  0.62647680  0.49893120  0.62768840  1
  O  O296  1  0.62558644  0.49582392  0.84546122  1
  O  O297  1  0.63181856  0.74288131  0.11889939  1
  O  O298  1  0.64330817  0.73610320  0.37473196  1
  O  O299  1  0.65707701  0.74093846  0.60072721  1
  O  O300  1  0.61675707  0.74684026  0.90128591  1
  O  O301  1  0.86349181  -0.00876227  0.13667210  1
  O  O302  1  0.85351379  -0.00200032  0.35903297  1
  O  O303  1  0.86832620  -0.00375810  0.65828198  1
  O  O304  1  0.87133195  -0.00823110  0.85259430  1
  O  O305  1  0.89886420  0.25808943  0.11414801  1
  O  O306  1  0.87199384  0.25521091  0.41134381  1
  O  O307  1  0.88609598  0.26314615  0.61421535  1
  O  O308  1  0.87611174  0.26241733  0.90956982  1
  O  O309  1  0.85710959  0.49044271  0.16446993  1
  O  O310  1  0.86979363  0.49421413  0.34481027  1
  O  O311  1  0.89443179  0.49598080  0.66167079  1
  O  O312  1  0.87328163  0.50240671  0.86997591  1
  O  O313  1  0.86947835  0.75495058  0.10982386  1
  O  O314  1  0.82214948  0.73284844  0.40255189  1
  O  O315  1  0.89579234  0.75332345  0.62039356  1
  O  O316  1  0.90037192  0.74788605  0.88184750  1
