# generated using pymatgen
data_Mg32Ti42(Bi17O64)3
_symmetry_space_group_name_H-M   'P 1'
_cell_length_a   15.94296276
_cell_length_b   15.97988733
_cell_length_c   15.94625318
_cell_angle_alpha   89.97747664
_cell_angle_beta   90.01926848
_cell_angle_gamma   90.01737153
_symmetry_Int_Tables_number   1
_chemical_formula_structural   Mg32Ti42(Bi17O64)3
_chemical_formula_sum   'Mg32 Ti42 Bi51 O192'
_cell_volume   4062.57434306
_cell_formula_units_Z   1
loop_
 _symmetry_equiv_pos_site_id
 _symmetry_equiv_pos_as_xyz
  1  'x, y, z'
loop_
 _atom_site_type_symbol
 _atom_site_label
 _atom_site_symmetry_multiplicity
 _atom_site_fract_x
 _atom_site_fract_y
 _atom_site_fract_z
 _atom_site_occupancy
  Mg  Mg0  1  0.62736485  0.87268817  0.12608638  1
  Mg  Mg1  1  0.87397159  0.63066501  0.13776104  1
  Mg  Mg2  1  0.88224026  0.12597267  0.62046850  1
  Mg  Mg3  1  0.37705737  0.37669247  0.12743273  1
  Mg  Mg4  1  0.88041670  0.62357786  0.88024524  1
  Mg  Mg5  1  0.61902064  0.10532456  0.38772612  1
  Mg  Mg6  1  0.87928045  0.87865257  0.63153676  1
  Mg  Mg7  1  0.87371910  0.88036810  0.12491094  1
  Mg  Mg8  1  0.62057821  0.11869195  0.62441115  1
  Mg  Mg9  1  0.61514875  0.62580013  0.62053966  1
  Mg  Mg10  1  0.87632877  0.87667636  0.37395295  1
  Mg  Mg11  1  0.37912654  0.61842431  0.13095470  1
  Mg  Mg12  1  0.13117105  0.87200608  0.62200600  1
  Mg  Mg13  1  0.13740810  0.62826818  0.12979998  1
  Mg  Mg14  1  0.37244156  0.38250441  0.38096065  1
  Mg  Mg15  1  0.88155502  0.61565231  0.61948608  1
  Mg  Mg16  1  0.62251054  0.63087046  0.36431212  1
  Mg  Mg17  1  0.62746419  0.61275712  0.88488672  1
  Mg  Mg18  1  0.12476590  0.88166490  0.11263831  1
  Mg  Mg19  1  0.76256850  0.58723044  0.00417227  1
  Mg  Mg20  1  -0.02030149  -0.03242267  0.49588535  1
  Mg  Mg21  1  0.28405630  0.51718005  0.25028286  1
  Mg  Mg22  1  -0.06099538  0.49593903  0.75521413  1
  Mg  Mg23  1  -0.00899108  0.56488409  0.02779075  1
  Mg  Mg24  1  -0.00237295  0.29308729  -0.01077838  1
  Mg  Mg25  1  0.27774515  0.80034193  0.18711815  1
  Mg  Mg26  1  0.47941434  -0.04092041  0.48301160  1
  Mg  Mg27  1  -0.05765926  0.74993222  0.04404652  1
  Mg  Mg28  1  0.00080605  0.49500959  0.44060678  1
  Mg  Mg29  1  0.51349749  -0.03609371  0.80463019  1
  Mg  Mg30  1  0.29997651  -0.02894489  0.04260269  1
  Mg  Mg31  1  0.21213982  0.73642037  0.49714035  1
  Ti  Ti32  1  0.63227870  0.36756973  0.88441318  1
  Ti  Ti33  1  0.12403179  0.13587924  0.87463276  1
  Ti  Ti34  1  0.62670099  0.63669686  0.12581526  1
  Ti  Ti35  1  0.38125005  0.88092633  0.63841324  1
  Ti  Ti36  1  0.12621537  0.38058509  0.37604612  1
  Ti  Ti37  1  0.11544506  0.37746100  0.87648714  1
  Ti  Ti38  1  0.12973653  0.62543763  0.36835753  1
  Ti  Ti39  1  0.60542784  0.12736016  0.86280055  1
  Ti  Ti40  1  0.87002776  0.38001460  0.87764589  1
  Ti  Ti41  1  0.62416616  0.88166589  0.37456787  1
  Ti  Ti42  1  0.36221087  0.12799820  0.88118529  1
  Ti  Ti43  1  0.63274798  0.37429969  0.38188633  1
  Ti  Ti44  1  0.37006275  0.62415958  0.36799366  1
  Ti  Ti45  1  0.87149195  0.37988880  0.61748671  1
  Ti  Ti46  1  0.11767847  0.61312095  0.88819882  1
  Ti  Ti47  1  0.37040921  0.36904819  0.88393943  1
  Ti  Ti48  1  0.11511067  0.38387459  0.12155690  1
  Ti  Ti49  1  0.37957616  0.11659428  0.63211104  1
  Ti  Ti50  1  0.87917549  0.37975424  0.11832867  1
  Ti  Ti51  1  0.11974495  0.37682868  0.61599546  1
  Ti  Ti52  1  0.88301264  0.62852840  0.37637387  1
  Ti  Ti53  1  0.36561618  0.11769018  0.37883240  1
  Ti  Ti54  1  0.36076929  0.89260436  0.87459679  1
  Ti  Ti55  1  0.37297760  0.38434612  0.62221519  1
  Ti  Ti56  1  0.36158444  0.85638680  0.37777373  1
  Ti  Ti57  1  0.64286560  0.38572898  0.12265844  1
  Ti  Ti58  1  0.62073083  0.37771665  0.62030964  1
  Ti  Ti59  1  0.88123194  0.86838394  0.86540815  1
  Ti  Ti60  1  0.12545659  0.12956727  0.61800796  1
  Ti  Ti61  1  0.12398323  0.13046537  0.38233925  1
  Ti  Ti62  1  0.36436558  0.12629360  0.13629509  1
  Ti  Ti63  1  0.86809655  0.38084151  0.36759488  1
  Ti  Ti64  1  0.11996288  0.62081293  0.61795832  1
  Ti  Ti65  1  0.12043169  0.88759424  0.39185246  1
  Ti  Ti66  1  0.89108623  0.13009051  0.12139206  1
  Ti  Ti67  1  0.37533921  0.64494990  0.62585353  1
  Ti  Ti68  1  0.37151089  0.62159731  0.88239267  1
  Ti  Ti69  1  0.61186705  0.87807352  0.62517532  1
  Ti  Ti70  1  0.13176251  0.11839122  0.10408367  1
  Ti  Ti71  1  0.12006691  0.88536191  0.86080835  1
  Ti  Ti72  1  0.88377685  0.12771812  0.86749459  1
  Ti  Ti73  1  0.87662164  0.11139138  0.37465396  1
  Bi  Bi74  1  0.74213210  0.54168934  0.49933631  1
  Bi  Bi75  1  0.49456857  0.25079846  0.27776199  1
  Bi  Bi76  1  0.24510405  -0.01386053  0.24834261  1
  Bi  Bi77  1  0.23852670  0.26384545  0.74186433  1
  Bi  Bi78  1  0.49336163  0.72828043  0.77766387  1
  Bi  Bi79  1  0.52019946  0.23754766  0.04292607  1
  Bi  Bi80  1  0.26386495  0.52588482  0.50239704  1
  Bi  Bi81  1  -0.01955355  0.26628334  0.74053695  1
  Bi  Bi82  1  0.74919468  0.77543905  0.50818540  1
  Bi  Bi83  1  -0.01981142  0.25620263  0.47252299  1
  Bi  Bi84  1  0.51685386  0.75069113  0.47531477  1
  Bi  Bi85  1  0.77268435  0.23202999  0.00781547  1
  Bi  Bi86  1  0.50442440  0.49703073  0.02706703  1
  Bi  Bi87  1  0.48705437  0.26947416  0.75533814  1
  Bi  Bi88  1  -0.02291480  0.72589194  0.73996197  1
  Bi  Bi89  1  0.26812970  0.24959511  0.51339171  1
  Bi  Bi90  1  0.26516305  -0.02686505  0.50653143  1
  Bi  Bi91  1  0.04009041  0.75607080  0.22234630  1
  Bi  Bi92  1  0.21709184  0.74123817  0.75263079  1
  Bi  Bi93  1  -0.01390596  -0.02773712  -0.00136844  1
  Bi  Bi94  1  0.71853459  -0.02144550  0.76533052  1
  Bi  Bi95  1  0.73588543  0.49892219  0.73909461  1
  Bi  Bi96  1  0.74324162  0.22937381  0.74181751  1
  Bi  Bi97  1  -0.01746385  0.76627652  0.51030491  1
  Bi  Bi98  1  0.47543998  0.79139410  0.00888954  1
  Bi  Bi99  1  0.25816972  0.28987085  0.26022489  1
  Bi  Bi100  1  -0.01403860  0.25620356  0.24377557  1
  Bi  Bi101  1  0.75159797  -0.00518051  0.22135628  1
  Bi  Bi102  1  0.26052709  0.51380277  0.02526044  1
  Bi  Bi103  1  0.50403162  0.49277264  0.78693547  1
  Bi  Bi104  1  0.47214301  0.78134450  0.22804961  1
  Bi  Bi105  1  0.74495230  0.00377175  -0.01594963  1
  Bi  Bi106  1  0.52542453  0.02499703  0.21828443  1
  Bi  Bi107  1  0.75001077  0.51993549  0.24912876  1
  Bi  Bi108  1  -0.00150922  0.50469003  0.23395859  1
  Bi  Bi109  1  -0.00270444  0.01636646  0.73454114  1
  Bi  Bi110  1  0.50408301  0.01775466  0.00584512  1
  Bi  Bi111  1  0.71707023  0.21160211  0.23698713  1
  Bi  Bi112  1  0.02040115  0.01278335  0.24043843  1
  Bi  Bi113  1  0.72560238  0.71275816  0.75248036  1
  Bi  Bi114  1  0.77154695  0.76882194  0.25208089  1
  Bi  Bi115  1  0.71042650  0.77543915  -0.03886069  1
  Bi  Bi116  1  0.74609308  0.22083174  0.50154451  1
  Bi  Bi117  1  0.22277018  0.50907768  0.74599988  1
  Bi  Bi118  1  0.75926204  -0.00161127  0.53002163  1
  Bi  Bi119  1  0.51970671  0.48393644  0.26039683  1
  Bi  Bi120  1  0.23639405  0.01865112  0.73548393  1
  Bi  Bi121  1  0.50165218  0.51980030  0.49754341  1
  Bi  Bi122  1  0.24572679  0.27324547  0.02049600  1
  Bi  Bi123  1  0.50164402  0.23135765  0.50633318  1
  Bi  Bi124  1  0.22918105  0.76844918  -0.02150387  1
  O  O125  1  0.10732799  0.11425924  -0.00566698  1
  O  O126  1  0.13466324  0.08638141  0.26768564  1
  O  O127  1  0.10885037  0.14035173  0.50652336  1
  O  O128  1  0.15681811  0.13980458  0.75308838  1
  O  O129  1  0.11930522  0.35267241  -0.00069063  1
  O  O130  1  0.12134919  0.37771418  0.24415318  1
  O  O131  1  0.12552234  0.37029297  0.50127140  1
  O  O132  1  0.12985963  0.36238905  0.75565007  1
  O  O133  1  0.14942376  0.61862068  0.00056433  1
  O  O134  1  0.09870618  0.61837792  0.25537542  1
  O  O135  1  0.14921544  0.61688433  0.50134476  1
  O  O136  1  0.12751629  0.61956495  0.74876675  1
  O  O137  1  0.14030809  0.87225689  -0.01544474  1
  O  O138  1  0.11471665  0.90256011  0.26628466  1
  O  O139  1  0.16780298  0.85949416  0.49998127  1
  O  O140  1  0.11901595  0.84503190  0.74712104  1
  O  O141  1  0.40480075  0.14056236  -0.00982413  1
  O  O142  1  0.35655138  0.10383293  0.25016902  1
  O  O143  1  0.37543777  0.15640852  0.49737286  1
  O  O144  1  0.35945192  0.10548536  0.74671325  1
  O  O145  1  0.38244489  0.34949491  -0.00479848  1
  O  O146  1  0.34367984  0.40294402  0.24917460  1
  O  O147  1  0.37016310  0.34612089  0.50582458  1
  O  O148  1  0.39067603  0.37839738  0.74378819  1
  O  O149  1  0.34946239  0.63046328  -0.00673921  1
  O  O150  1  0.38583885  0.59425823  0.25887419  1
  O  O151  1  0.32612221  0.64912146  0.50412710  1
  O  O152  1  0.40732890  0.61971334  0.73760351  1
  O  O153  1  0.34412505  0.85956492  -0.00697074  1
  O  O154  1  0.36844972  0.87133309  0.25773283  1
  O  O155  1  0.35392726  0.86677534  0.50092295  1
  O  O156  1  0.40321804  0.90703890  0.75326405  1
  O  O157  1  0.59635072  0.14144909  -0.01735844  1
  O  O158  1  0.63490192  0.10103862  0.26094299  1
  O  O159  1  0.61926165  0.15715940  0.50100181  1
  O  O160  1  0.65749640  0.11130686  0.74938010  1
  O  O161  1  0.62540774  0.34248313  -0.00386077  1
  O  O162  1  0.63513648  0.40812579  0.24023701  1
  O  O163  1  0.62716214  0.35001801  0.49338379  1
  O  O164  1  0.62672903  0.40395622  0.73963890  1
  O  O165  1  0.65185464  0.64929517  0.00645509  1
  O  O166  1  0.62052679  0.58730690  0.24226807  1
  O  O167  1  0.64078626  0.63586743  0.49397659  1
  O  O168  1  0.63234692  0.60271932  0.74751705  1
  O  O169  1  0.60825617  0.84570053  0.00359180  1
  O  O170  1  0.63091639  0.91120944  0.25731507  1
  O  O171  1  0.62377591  0.84216764  0.50324990  1
  O  O172  1  0.60294209  0.90538048  0.74266919  1
  O  O173  1  0.90543228  0.17345952  0.01122466  1
  O  O174  1  0.86196424  0.10328190  0.25466256  1
  O  O175  1  0.88479041  0.15790871  0.49489908  1
  O  O176  1  0.85833395  0.10060571  0.75896967  1
  O  O177  1  0.87994036  0.35036139  0.00025120  1
  O  O178  1  0.89110682  0.39678155  0.24994243  1
  O  O179  1  0.87647668  0.35205382  0.50248255  1
  O  O180  1  0.89322252  0.38061620  0.75402635  1
  O  O181  1  0.87854946  0.63741236  0.00874313  1
  O  O182  1  0.89042098  0.59205697  0.25645779  1
  O  O183  1  0.84961262  0.63688918  0.49449613  1
  O  O184  1  0.90428859  0.61326658  0.75229038  1
  O  O185  1  0.89710562  0.85969056  -0.00508940  1
  O  O186  1  0.84441918  0.89176882  0.25195555  1
  O  O187  1  0.86950662  0.84448333  0.49806284  1
  O  O188  1  0.88002135  0.90629031  0.75568312  1
  O  O189  1  0.00924243  0.14183996  0.15906625  1
  O  O190  1  -0.00090408  0.13745298  0.36220243  1
  O  O191  1  0.00756221  0.13512105  0.65613765  1
  O  O192  1  0.00406466  0.10637275  0.84856888  1
  O  O193  1  0.00275849  0.33775229  0.11632525  1
  O  O194  1  -0.00005681  0.37595699  0.38515700  1
  O  O195  1  0.00690231  0.34790484  0.62453450  1
  O  O196  1  0.00002611  0.37658687  0.88467406  1
  O  O197  1  0.00682781  0.66271147  0.11600950  1
  O  O198  1  -0.00041858  0.61776650  0.40103096  1
  O  O199  1  0.00985317  0.64080155  0.61570785  1
  O  O200  1  0.00801287  0.60167830  0.90411835  1
  O  O201  1  0.00288258  0.84407571  0.12162728  1
  O  O202  1  0.00527238  0.85823463  0.40439093  1
  O  O203  1  0.00909894  0.87472640  0.58699255  1
  O  O204  1  0.00383391  0.89069891  0.87113902  1
  O  O205  1  0.25023647  0.08695949  0.10206556  1
  O  O206  1  0.24639107  0.11696251  0.39384817  1
  O  O207  1  0.24815113  0.10010769  0.61322446  1
  O  O208  1  0.24960582  0.14496204  0.89222074  1
  O  O209  1  0.23948581  0.38584502  0.10389926  1
  O  O210  1  0.24232972  0.36988662  0.37753870  1
  O  O211  1  0.25454551  0.38492892  0.63600675  1
  O  O212  1  0.25450911  0.36006087  0.88081602  1
  O  O213  1  0.25016824  0.57724726  0.14473709  1
  O  O214  1  0.24703714  0.58779411  0.35678873  1
  O  O215  1  0.26105716  0.59779649  0.64331273  1
  O  O216  1  0.26193642  0.61411995  0.84431582  1
  O  O217  1  0.24503307  0.90640663  0.13416810  1
  O  O218  1  0.24853015  0.90462645  0.36657648  1
  O  O219  1  0.26346848  0.90477446  0.64019099  1
  O  O220  1  0.24882839  0.85094211  0.85569858  1
  O  O221  1  0.48739254  0.14728860  0.14817957  1
  O  O222  1  0.49298359  0.15100722  0.37350091  1
  O  O223  1  0.49420532  0.14892785  0.62451324  1
  O  O224  1  0.49882043  0.08925390  0.84312698  1
  O  O225  1  0.50864703  0.39218718  0.12972367  1
  O  O226  1  0.50165973  0.36760114  0.35589673  1
  O  O227  1  0.50455927  0.35194205  0.62253021  1
  O  O228  1  0.50457315  0.36552195  0.85755316  1
  O  O229  1  0.50956387  0.61268568  0.10672523  1
  O  O230  1  0.48832311  0.62934356  0.39818771  1
  O  O231  1  0.48804425  0.63314984  0.58591463  1
  O  O232  1  0.50067094  0.62287464  0.87218151  1
  O  O233  1  0.49837747  0.86287737  0.12490798  1
  O  O234  1  0.48211649  0.86371847  0.39349835  1
  O  O235  1  0.49704933  0.87956025  0.59462253  1
  O  O236  1  0.47828707  0.89177356  0.90270640  1
  O  O237  1  0.76857690  0.12582372  0.10462453  1
  O  O238  1  0.75445768  0.12599527  0.39459248  1
  O  O239  1  0.75452539  0.12117419  0.59992256  1
  O  O240  1  0.76049618  0.13642140  0.90757670  1
  O  O241  1  0.76229062  0.38290614  0.12240802  1
  O  O242  1  0.75072385  0.38438434  0.37116906  1
  O  O243  1  0.75610490  0.40101971  0.62868242  1
  O  O244  1  0.75031027  0.35809016  0.87058640  1
  O  O245  1  0.75107663  0.60232183  0.13507306  1
  O  O246  1  0.75295681  0.60988814  0.35684632  1
  O  O247  1  0.75306392  0.59681391  0.63257974  1
  O  O248  1  0.75371090  0.62210523  0.87463919  1
  O  O249  1  0.74909207  0.91129136  0.10908608  1
  O  O250  1  0.74047984  0.86623426  0.39055434  1
  O  O251  1  0.74788437  0.87666169  0.61164762  1
  O  O252  1  0.76165867  0.89383721  0.88451984  1
  O  O253  1  0.09132893  0.00363239  0.12411944  1
  O  O254  1  0.09532682  -0.00424478  0.42083090  1
  O  O255  1  0.11713752  0.00732435  0.64986143  1
  O  O256  1  0.13412306  -0.00271375  0.84541430  1
  O  O257  1  0.15435778  0.23333998  0.12369801  1
  O  O258  1  0.12758674  0.24452953  0.36417822  1
  O  O259  1  0.15611907  0.25032630  0.62776035  1
  O  O260  1  0.10186361  0.24490591  0.87966134  1
  O  O261  1  0.08606092  0.49475063  0.11001255  1
  O  O262  1  0.11052781  0.49415685  0.38193239  1
  O  O263  1  0.12285471  0.49433174  0.63376309  1
  O  O264  1  0.14020362  0.49199927  0.87367646  1
  O  O265  1  0.16093888  0.75642661  0.15230826  1
  O  O266  1  0.14426864  0.73791989  0.38283454  1
  O  O267  1  0.15744881  0.73613385  0.61699574  1
  O  O268  1  0.13502608  0.73372873  0.87315866  1
  O  O269  1  0.40204240  0.01413817  0.10238171  1
  O  O270  1  0.38756726  0.00836260  0.40320905  1
  O  O271  1  0.39153229  0.00505690  0.59202970  1
  O  O272  1  0.34146688  0.00191253  0.90367503  1
  O  O273  1  0.34519247  0.24606874  0.13254532  1
  O  O274  1  0.36528744  0.25077866  0.34265722  1
  O  O275  1  0.34242562  0.24141809  0.63583999  1
  O  O276  1  0.38601297  0.24448221  0.85052846  1
  O  O277  1  0.38201490  0.49688685  0.09314393  1
  O  O278  1  0.37892641  0.50635163  0.41306038  1
  O  O279  1  0.38789837  0.49529724  0.59643884  1
  O  O280  1  0.38906646  0.49246872  0.87982187  1
  O  O281  1  0.37510813  0.74001335  0.14332574  1
  O  O282  1  0.35368003  0.74312609  0.36373458  1
  O  O283  1  0.37172037  0.76047390  0.64947227  1
  O  O284  1  0.38634619  0.74489135  0.86204077  1
  O  O285  1  0.59872287  0.00328000  0.10814255  1
  O  O286  1  0.59204337  -0.01399953  0.41654499  1
  O  O287  1  0.63723514  -0.00613154  0.60584354  1
  O  O288  1  0.64101452  0.01044080  0.87973398  1
  O  O289  1  0.62995092  0.26017322  0.14017947  1
  O  O290  1  0.62911234  0.25956530  0.33657395  1
  O  O291  1  0.65615702  0.25818739  0.64091307  1
  O  O292  1  0.61713323  0.24667266  0.83766795  1
  O  O293  1  0.63326470  0.49522429  0.08439594  1
  O  O294  1  0.60416264  0.49343172  0.38326379  1
  O  O295  1  0.61411371  0.49329831  0.59312360  1
  O  O296  1  0.61325636  0.48484097  0.88631381  1
  O  O297  1  0.63252060  0.74476664  0.15782485  1
  O  O298  1  0.60204139  0.75740735  0.36049081  1
  O  O299  1  0.62937858  0.75323328  0.65429365  1
  O  O300  1  0.63288799  0.74500799  0.85003480  1
  O  O301  1  0.90458253  0.01043846  0.10935482  1
  O  O302  1  0.89318191  0.00151159  0.40360241  1
  O  O303  1  0.89036600  0.00095133  0.59125009  1
  O  O304  1  0.87586196  0.01389776  0.92156437  1
  O  O305  1  0.87190208  0.25099972  0.16152030  1
  O  O306  1  0.88541299  0.25861346  0.35937600  1
  O  O307  1  0.86692299  0.25239962  0.65558268  1
  O  O308  1  0.88810846  0.24512348  0.85675864  1
  O  O309  1  0.91474641  0.49311791  0.11128982  1
  O  O310  1  0.88274745  0.49520939  0.40044075  1
  O  O311  1  0.90447472  0.48936044  0.62858989  1
  O  O312  1  0.86951962  0.49120486  0.87075812  1
  O  O313  1  0.85390236  0.75469842  0.14560957  1
  O  O314  1  0.87346280  0.74212379  0.34535005  1
  O  O315  1  0.88638530  0.75005740  0.64311599  1
  O  O316  1  0.88276843  0.75543041  0.84668121  1
