# generated using pymatgen
data_Mg32Ti42(Bi17O64)3
_symmetry_space_group_name_H-M   'P 1'
_cell_length_a   15.98051372
_cell_length_b   15.94846354
_cell_length_c   15.95610170
_cell_angle_alpha   89.97154676
_cell_angle_beta   89.97278913
_cell_angle_gamma   90.09154830
_symmetry_Int_Tables_number   1
_chemical_formula_structural   Mg32Ti42(Bi17O64)3
_chemical_formula_sum   'Mg32 Ti42 Bi51 O192'
_cell_volume   4066.63997060
_cell_formula_units_Z   1
loop_
 _symmetry_equiv_pos_site_id
 _symmetry_equiv_pos_as_xyz
  1  'x, y, z'
loop_
 _atom_site_type_symbol
 _atom_site_label
 _atom_site_symmetry_multiplicity
 _atom_site_fract_x
 _atom_site_fract_y
 _atom_site_fract_z
 _atom_site_occupancy
  Mg  Mg0  1  0.12055579  0.11695015  0.10918395  1
  Mg  Mg1  1  0.63202678  0.12810091  0.12040471  1
  Mg  Mg2  1  0.13152581  0.61299750  0.87328784  1
  Mg  Mg3  1  0.37539485  0.88845422  0.38798127  1
  Mg  Mg4  1  0.63104712  0.37407575  0.12427507  1
  Mg  Mg5  1  0.12188650  0.62022126  0.12179559  1
  Mg  Mg6  1  0.12094665  0.12101739  0.38043830  1
  Mg  Mg7  1  0.12491231  0.62929275  0.37237178  1
  Mg  Mg8  1  0.36264658  0.88388763  0.12010109  1
  Mg  Mg9  1  0.37907352  0.62504455  0.62588564  1
  Mg  Mg10  1  0.37544572  0.88408894  0.87726673  1
  Mg  Mg11  1  0.62738772  0.87331563  0.12561899  1
  Mg  Mg12  1  0.63464472  0.37298333  0.87149621  1
  Mg  Mg13  1  0.36897253  0.62353484  0.12769286  1
  Mg  Mg14  1  0.12206886  0.11052202  0.62866521  1
  Mg  Mg15  1  0.37697774  0.36675356  0.62256407  1
  Mg  Mg16  1  0.87624935  0.86546611  0.62351016  1
  Mg  Mg17  1  0.12253417  0.36808290  0.61932444  1
  Mg  Mg18  1  0.88397679  0.87296945  0.36268523  1
  Mg  Mg19  1  0.24072935  -0.03464817  0.52194001  1
  Mg  Mg20  1  0.30120586  0.02220535  -0.00587414  1
  Mg  Mg21  1  0.77678108  0.73165660  0.01399448  1
  Mg  Mg22  1  0.78670170  0.51018661  0.44335083  1
  Mg  Mg23  1  -0.01569200  0.74940589  0.19253935  1
  Mg  Mg24  1  -0.03570964  0.76212332  0.48990181  1
  Mg  Mg25  1  0.53260156  0.45698078  -0.00969353  1
  Mg  Mg26  1  0.29236894  0.21796359  0.00481622  1
  Mg  Mg27  1  -0.04193638  0.06213466  -0.04729082  1
  Mg  Mg28  1  -0.00186080  0.50075437  -0.06090314  1
  Mg  Mg29  1  0.76296498  0.01870919  0.83094268  1
  Mg  Mg30  1  0.24756761  0.43220781  0.50056811  1
  Mg  Mg31  1  0.21350038  0.44803714  -0.01088957  1
  Ti  Ti32  1  0.62508742  0.62988192  0.61523920  1
  Ti  Ti33  1  0.13697836  0.61952746  0.62498850  1
  Ti  Ti34  1  0.36823774  0.37552285  0.10950520  1
  Ti  Ti35  1  0.88914829  0.88057922  0.12615932  1
  Ti  Ti36  1  0.13032969  0.87356587  0.87018472  1
  Ti  Ti37  1  0.36627029  0.62197842  0.37167132  1
  Ti  Ti38  1  0.62323021  0.12184109  0.88094998  1
  Ti  Ti39  1  0.87922404  0.10316592  0.62589165  1
  Ti  Ti40  1  0.62933259  0.62990754  0.11911092  1
  Ti  Ti41  1  0.87886328  0.12435742  0.12578026  1
  Ti  Ti42  1  0.12965108  0.11193090  0.88341953  1
  Ti  Ti43  1  0.37674620  0.60920380  0.87374352  1
  Ti  Ti44  1  0.63240875  0.38007882  0.61565197  1
  Ti  Ti45  1  0.87772564  0.37817101  0.86128317  1
  Ti  Ti46  1  0.36973814  0.36832301  0.37116406  1
  Ti  Ti47  1  0.61862445  0.62872423  0.87344031  1
  Ti  Ti48  1  0.12027515  0.37284489  0.86197254  1
  Ti  Ti49  1  0.88515947  0.11172389  0.37250176  1
  Ti  Ti50  1  0.37167334  0.12505057  0.13199378  1
  Ti  Ti51  1  0.36745630  0.36914542  0.87336881  1
  Ti  Ti52  1  0.87459039  0.37030717  0.12380847  1
  Ti  Ti53  1  0.62440250  0.87094992  0.88189234  1
  Ti  Ti54  1  0.62841243  0.87854369  0.61516988  1
  Ti  Ti55  1  0.12364916  0.87120963  0.10407306  1
  Ti  Ti56  1  0.11544662  0.37493597  0.12218603  1
  Ti  Ti57  1  0.37439354  0.12075419  0.61203156  1
  Ti  Ti58  1  0.87956848  0.61510064  0.12210204  1
  Ti  Ti59  1  0.38144334  0.12921738  0.87415515  1
  Ti  Ti60  1  0.88437384  0.37469717  0.37676051  1
  Ti  Ti61  1  0.87153444  0.86389591  0.88922431  1
  Ti  Ti62  1  0.36843800  0.12920360  0.37282547  1
  Ti  Ti63  1  0.86822857  0.62650597  0.86766691  1
  Ti  Ti64  1  0.86961237  0.63047946  0.62188056  1
  Ti  Ti65  1  0.63155308  0.39594665  0.36998469  1
  Ti  Ti66  1  0.87009702  0.37895543  0.60788139  1
  Ti  Ti67  1  0.12877723  0.87567913  0.38589378  1
  Ti  Ti68  1  0.12110848  0.36657338  0.37800368  1
  Ti  Ti69  1  0.37298828  0.88139590  0.62346352  1
  Ti  Ti70  1  0.61681314  0.86206913  0.36718233  1
  Ti  Ti71  1  0.61897585  0.62814010  0.36197301  1
  Ti  Ti72  1  0.88607252  0.63720612  0.36124929  1
  Ti  Ti73  1  0.12374675  0.86943147  0.62526848  1
  Bi  Bi74  1  0.26569061  0.01027849  0.74820388  1
  Bi  Bi75  1  0.72567179  0.01176493  0.25660093  1
  Bi  Bi76  1  0.52887161  0.25112459  0.74243842  1
  Bi  Bi77  1  0.75828468  -0.01542634  0.03138701  1
  Bi  Bi78  1  0.23060262  0.75775934  0.22820507  1
  Bi  Bi79  1  0.74815408  0.50546898  0.72916887  1
  Bi  Bi80  1  0.03685403  -0.00033380  0.24098208  1
  Bi  Bi81  1  0.78403010  0.24183882  -0.03503898  1
  Bi  Bi82  1  0.23666595  0.49054600  0.23187856  1
  Bi  Bi83  1  0.23993397  0.73213444  0.48503184  1
  Bi  Bi84  1  0.28761543  0.75008143  0.76911620  1
  Bi  Bi85  1  0.73898187  0.51458975  -0.01733672  1
  Bi  Bi86  1  0.24885167  0.24371808  0.73989555  1
  Bi  Bi87  1  0.47398758  0.72876522  -0.00485178  1
  Bi  Bi88  1  -0.02493589  0.21487445  0.76706410  1
  Bi  Bi89  1  0.02469233  0.73241004  0.74181195  1
  Bi  Bi90  1  0.50447851  0.77015397  0.72539355  1
  Bi  Bi91  1  0.53448737  0.02730637  0.71782802  1
  Bi  Bi92  1  0.47818273  0.49194656  0.48569377  1
  Bi  Bi93  1  0.50728497  0.49463530  0.71872010  1
  Bi  Bi94  1  0.75294991  -0.02798745  0.48141723  1
  Bi  Bi95  1  0.75486227  0.75552352  0.22321257  1
  Bi  Bi96  1  0.48077440  0.48142147  0.23000548  1
  Bi  Bi97  1  0.53121630  0.25299813  0.47337705  1
  Bi  Bi98  1  -0.00533770  0.24007094  0.24372866  1
  Bi  Bi99  1  0.75026903  0.78517874  0.75125986  1
  Bi  Bi100  1  -0.01180120  0.22676724  0.50942714  1
  Bi  Bi101  1  0.50732862  -0.01542078  0.23319993  1
  Bi  Bi102  1  0.02025888  0.73129441  -0.01845224  1
  Bi  Bi103  1  0.25470737  0.00132633  0.27988276  1
  Bi  Bi104  1  0.25546477  0.72044482  -0.00237765  1
  Bi  Bi105  1  0.01352589  0.26185592  -0.01311975  1
  Bi  Bi106  1  0.52876292  0.25937225  -0.00208824  1
  Bi  Bi107  1  0.74008047  0.21777840  0.71420578  1
  Bi  Bi108  1  0.75402117  0.72141205  0.48250587  1
  Bi  Bi109  1  0.23185676  0.23851923  0.22985878  1
  Bi  Bi110  1  0.52999968  0.04228809  0.45810619  1
  Bi  Bi111  1  0.46681446  0.75999009  0.23444202  1
  Bi  Bi112  1  -0.00217003  -0.03086844  0.50132293  1
  Bi  Bi113  1  0.22894784  0.21634393  0.51574230  1
  Bi  Bi114  1  0.01480762  0.50345310  0.26138511  1
  Bi  Bi115  1  0.74791589  0.23378044  0.28124299  1
  Bi  Bi116  1  0.26473285  0.48801018  0.72448784  1
  Bi  Bi117  1  0.74485655  0.49040546  0.22580927  1
  Bi  Bi118  1  0.00824658  0.53052568  0.49180167  1
  Bi  Bi119  1  0.47378459  0.74155830  0.48997949  1
  Bi  Bi120  1  0.49891755  -0.02426602  0.00108904  1
  Bi  Bi121  1  0.74027016  0.21166353  0.49677949  1
  Bi  Bi122  1  0.00584800  0.49083596  0.71155641  1
  Bi  Bi123  1  -0.01967176  -0.02829093  0.77535047  1
  Bi  Bi124  1  0.52695344  0.22619382  0.24400316  1
  O  O125  1  0.06725186  0.12267275  -0.00919287  1
  O  O126  1  0.14115439  0.08948565  0.25536681  1
  O  O127  1  0.10702684  0.15056298  0.50227982  1
  O  O128  1  0.16469982  0.12306198  0.76165771  1
  O  O129  1  0.13787695  0.34521644  0.01233540  1
  O  O130  1  0.11492932  0.40329782  0.25264925  1
  O  O131  1  0.14618088  0.35985724  0.49229064  1
  O  O132  1  0.10630520  0.38470592  0.75008373  1
  O  O133  1  0.13101557  0.65227670  -0.00156027  1
  O  O134  1  0.11226268  0.59791406  0.24748083  1
  O  O135  1  0.13224237  0.62666179  0.50818800  1
  O  O136  1  0.09771900  0.61017765  0.74942940  1
  O  O137  1  0.12989560  0.84897512  -0.00959193  1
  O  O138  1  0.13872670  0.89903318  0.26773779  1
  O  O139  1  0.16441237  0.85461687  0.50906140  1
  O  O140  1  0.09404907  0.87743613  0.74671922  1
  O  O141  1  0.38403835  0.11812996  0.00247972  1
  O  O142  1  0.35658138  0.14699737  0.25151919  1
  O  O143  1  0.39950353  0.11853408  0.50034386  1
  O  O144  1  0.33825204  0.13664483  0.75859117  1
  O  O145  1  0.32795953  0.39718403  0.00612524  1
  O  O146  1  0.40729344  0.36741491  0.25548499  1
  O  O147  1  0.36816022  0.40388433  0.49391086  1
  O  O148  1  0.37672324  0.35390000  0.75877726  1
  O  O149  1  0.36791772  0.63028960  0.00023662  1
  O  O150  1  0.37947130  0.65439541  0.25594524  1
  O  O151  1  0.38870300  0.61672414  0.49539425  1
  O  O152  1  0.38795991  0.64793540  0.76076949  1
  O  O153  1  0.37239979  0.91716273  -0.00140631  1
  O  O154  1  0.38089815  0.86472732  0.25389870  1
  O  O155  1  0.36004027  0.91082413  0.51543170  1
  O  O156  1  0.38776685  0.85195864  0.75308169  1
  O  O157  1  0.60379468  0.12758448  -0.00308580  1
  O  O158  1  0.64389793  0.14939857  0.24872674  1
  O  O159  1  0.61622599  0.14216125  0.49432254  1
  O  O160  1  0.62559643  0.13958553  0.75195129  1
  O  O161  1  0.62237821  0.36281756  -0.00118595  1
  O  O162  1  0.61365045  0.40072289  0.25263475  1
  O  O163  1  0.63901914  0.37041760  0.50223245  1
  O  O164  1  0.59869167  0.37853844  0.75195073  1
  O  O165  1  0.67415493  0.63612981  0.00655324  1
  O  O166  1  0.61729541  0.62381766  0.24775839  1
  O  O167  1  0.64334996  0.62687718  0.50244845  1
  O  O168  1  0.60770183  0.62658959  0.76264124  1
  O  O169  1  0.63804385  0.90130019  -0.00057804  1
  O  O170  1  0.59902082  0.85844428  0.25243401  1
  O  O171  1  0.64968269  0.87912008  0.49689423  1
  O  O172  1  0.61643175  0.85801195  0.75211499  1
  O  O173  1  0.88702498  0.14410047  0.01115289  1
  O  O174  1  0.85851461  0.14136453  0.25602295  1
  O  O175  1  0.89333426  0.11891567  0.49943296  1
  O  O176  1  0.85857191  0.13533155  0.74009197  1
  O  O177  1  0.85909367  0.36925569  0.01110613  1
  O  O178  1  0.89007576  0.37036398  0.26188276  1
  O  O179  1  0.85359604  0.41269219  0.49887683  1
  O  O180  1  0.89668859  0.36570011  0.75193410  1
  O  O181  1  0.84487899  0.61760433  0.01267654  1
  O  O182  1  0.91777240  0.65308127  0.25345052  1
  O  O183  1  0.83914994  0.60224636  0.51244531  1
  O  O184  1  0.88630397  0.64450740  0.75780215  1
  O  O185  1  0.83481096  0.86748574  0.00483595  1
  O  O186  1  0.91325385  0.85786512  0.23885296  1
  O  O187  1  0.85983393  0.89419415  0.49646084  1
  O  O188  1  0.88078467  0.84800945  0.75743183  1
  O  O189  1  -0.00199708  0.12086015  0.16561835  1
  O  O190  1  -0.00504115  0.15425130  0.36629769  1
  O  O191  1  -0.00519848  0.14506042  0.63473339  1
  O  O192  1  0.00321330  0.10164516  0.83874837  1
  O  O193  1  0.00244760  0.38859935  0.11788935  1
  O  O194  1  0.00067325  0.35694850  0.39272760  1
  O  O195  1  -0.01016687  0.38669122  0.60825357  1
  O  O196  1  -0.00136108  0.38253368  0.90243698  1
  O  O197  1  -0.00745708  0.64650069  0.10606026  1
  O  O198  1  -0.00775536  0.65140180  0.42056867  1
  O  O199  1  -0.01077056  0.61483245  0.62099706  1
  O  O200  1  -0.01237937  0.61947605  0.90357389  1
  O  O201  1  -0.00418665  0.85017601  0.09804774  1
  O  O202  1  0.01069672  0.85476807  0.41351612  1
  O  O203  1  0.00816865  0.85271598  0.58979755  1
  O  O204  1  -0.01250432  0.87703219  0.88660606  1
  O  O205  1  0.24700675  0.15749665  0.11060506  1
  O  O206  1  0.25345984  0.10816597  0.38642861  1
  O  O207  1  0.25268223  0.08973377  0.58916846  1
  O  O208  1  0.23142962  0.12319432  0.93484436  1
  O  O209  1  0.25316835  0.36316187  0.16365602  1
  O  O210  1  0.25275765  0.40254717  0.36910570  1
  O  O211  1  0.24989429  0.39747125  0.62309296  1
  O  O212  1  0.23598521  0.37565862  0.86841871  1
  O  O213  1  0.24546843  0.65782947  0.13038878  1
  O  O214  1  0.25438075  0.61548009  0.37712155  1
  O  O215  1  0.25005336  0.60918173  0.64445978  1
  O  O216  1  0.25564869  0.64091454  0.87164645  1
  O  O217  1  0.23894336  0.85434473  0.12470106  1
  O  O218  1  0.24789077  0.92155278  0.39182508  1
  O  O219  1  0.25182974  0.88759746  0.64602668  1
  O  O220  1  0.24123455  0.86598883  0.85131442  1
  O  O221  1  0.49093357  0.11654202  0.15860162  1
  O  O222  1  0.49681418  0.15244702  0.37379938  1
  O  O223  1  0.48656686  0.13532235  0.64835852  1
  O  O224  1  0.49089498  0.11810453  0.85318776  1
  O  O225  1  0.48867269  0.41126927  0.10295531  1
  O  O226  1  0.50171763  0.37577175  0.39657257  1
  O  O227  1  0.50530193  0.39820465  0.61265493  1
  O  O228  1  0.47604980  0.37900766  0.90965589  1
  O  O229  1  0.51734729  0.63043377  0.10282678  1
  O  O230  1  0.50741597  0.65861506  0.37849704  1
  O  O231  1  0.50868446  0.60589059  0.62213188  1
  O  O232  1  0.49955669  0.62365202  0.90040208  1
  O  O233  1  0.49874969  0.89920640  0.11595796  1
  O  O234  1  0.50565179  0.85648954  0.40053561  1
  O  O235  1  0.50217948  0.87324687  0.62779698  1
  O  O236  1  0.50763868  0.88869424  0.89291043  1
  O  O237  1  0.76037641  0.10927223  0.12024785  1
  O  O238  1  0.75978656  0.12777811  0.38502786  1
  O  O239  1  0.75929996  0.12674564  0.60864091  1
  O  O240  1  0.74126169  0.13538340  0.87971320  1
  O  O241  1  0.75782034  0.36926098  0.15354180  1
  O  O242  1  0.74936007  0.41511013  0.36590748  1
  O  O243  1  0.74914198  0.38123465  0.65020366  1
  O  O244  1  0.76076704  0.35211640  0.86846400  1
  O  O245  1  0.76461942  0.62738992  0.17047702  1
  O  O246  1  0.76059336  0.61625007  0.37025530  1
  O  O247  1  0.74667918  0.62988282  0.65698828  1
  O  O248  1  0.74878589  0.60234474  0.86423002  1
  O  O249  1  0.75833839  0.90647421  0.15199871  1
  O  O250  1  0.74791654  0.90301962  0.35782548  1
  O  O251  1  0.74585197  0.86224281  0.63918389  1
  O  O252  1  0.74898440  0.88538861  0.85165192  1
  O  O253  1  0.10855079  -0.01378140  0.12054807  1
  O  O254  1  0.09478019  -0.00569139  0.40126064  1
  O  O255  1  0.11374977  -0.01453780  0.60157278  1
  O  O256  1  0.12203413  -0.00712790  0.87455467  1
  O  O257  1  0.11083404  0.25316929  0.15741423  1
  O  O258  1  0.13648304  0.25707248  0.34701500  1
  O  O259  1  0.15747637  0.24182685  0.63277547  1
  O  O260  1  0.09525306  0.24732658  0.87174233  1
  O  O261  1  0.16100390  0.48967060  0.10554365  1
  O  O262  1  0.09120040  0.50061918  0.38374981  1
  O  O263  1  0.11119864  0.50041188  0.61795871  1
  O  O264  1  0.12152875  0.49011703  0.90792172  1
  O  O265  1  0.10819334  0.76235157  0.16724512  1
  O  O266  1  0.15856378  0.75543597  0.37386919  1
  O  O267  1  0.13052366  0.74202520  0.64718012  1
  O  O268  1  0.10218509  0.74900195  0.85692568  1
  O  O269  1  0.34289960  0.01507045  0.12942836  1
  O  O270  1  0.39955119  0.01571139  0.35844608  1
  O  O271  1  0.38313741  0.00344119  0.66316040  1
  O  O272  1  0.34503764  0.01327582  0.86732402  1
  O  O273  1  0.38023224  0.25931921  0.09932280  1
  O  O274  1  0.35830223  0.25699088  0.38975631  1
  O  O275  1  0.33987324  0.23749856  0.62156973  1
  O  O276  1  0.35508877  0.24770132  0.89731897  1
  O  O277  1  0.35945854  0.50045596  0.15650970  1
  O  O278  1  0.40147175  0.50885035  0.35893677  1
  O  O279  1  0.37930945  0.49902215  0.65560830  1
  O  O280  1  0.36360056  0.49866747  0.85584381  1
  O  O281  1  0.39600402  0.75608924  0.11391161  1
  O  O282  1  0.36179022  0.75666620  0.40848065  1
  O  O283  1  0.38081094  0.75632541  0.61340168  1
  O  O284  1  0.37138672  0.75721417  0.89459084  1
  O  O285  1  0.62472075  0.00361829  0.15940016  1
  O  O286  1  0.60813205  -0.00750530  0.35072464  1
  O  O287  1  0.62411040  -0.00735863  0.62047664  1
  O  O288  1  0.63720489  0.00621210  0.85665725  1
  O  O289  1  0.59758305  0.25259944  0.12597023  1
  O  O290  1  0.63326634  0.27265598  0.37150324  1
  O  O291  1  0.62296886  0.26162207  0.63537587  1
  O  O292  1  0.59959959  0.24732038  0.87260585  1
  O  O293  1  0.65471923  0.50771607  0.11184471  1
  O  O294  1  0.60662230  0.51243561  0.38702695  1
  O  O295  1  0.63610999  0.50374319  0.64155582  1
  O  O296  1  0.61821007  0.50517845  0.90647603  1
  O  O297  1  0.66402615  0.75177189  0.12028057  1
  O  O298  1  0.65603431  0.74879866  0.37719526  1
  O  O299  1  0.60997069  0.74710097  0.62074891  1
  O  O300  1  0.62624749  0.75302354  0.88883780  1
  O  O301  1  0.89225822  0.00059300  0.10096675  1
  O  O302  1  0.89948630  0.00174648  0.36271879  1
  O  O303  1  0.89417738  -0.00659322  0.64106052  1
  O  O304  1  0.87315121  -0.00818469  0.88286549  1
  O  O305  1  0.89520055  0.25160807  0.13489882  1
  O  O306  1  0.85410439  0.26423025  0.39704965  1
  O  O307  1  0.86344857  0.26234360  0.60044998  1
  O  O308  1  0.89773798  0.25386400  0.88675231  1
  O  O309  1  0.87149659  0.50035896  0.14440483  1
  O  O310  1  0.90233656  0.51381411  0.37379937  1
  O  O311  1  0.86509187  0.50306669  0.65418970  1
  O  O312  1  0.88126906  0.49821358  0.87920786  1
  O  O313  1  0.85174840  0.75433362  0.12206317  1
  O  O314  1  0.86426894  0.74991227  0.39662024  1
  O  O315  1  0.87831168  0.74219691  0.58882325  1
  O  O316  1  0.85039513  0.74286174  0.90191276  1
