# generated using pymatgen
data_Mg32Ti42(Bi17O64)3
_symmetry_space_group_name_H-M   'P 1'
_cell_length_a   15.97037315
_cell_length_b   15.93634721
_cell_length_c   15.94003240
_cell_angle_alpha   90.07357704
_cell_angle_beta   89.97287690
_cell_angle_gamma   89.97605600
_symmetry_Int_Tables_number   1
_chemical_formula_structural   Mg32Ti42(Bi17O64)3
_chemical_formula_sum   'Mg32 Ti42 Bi51 O192'
_cell_volume   4056.88410990
_cell_formula_units_Z   1
loop_
 _symmetry_equiv_pos_site_id
 _symmetry_equiv_pos_as_xyz
  1  'x, y, z'
loop_
 _atom_site_type_symbol
 _atom_site_label
 _atom_site_symmetry_multiplicity
 _atom_site_fract_x
 _atom_site_fract_y
 _atom_site_fract_z
 _atom_site_occupancy
  Mg  Mg0  1  0.87144429  0.37634953  0.62597700  1
  Mg  Mg1  1  0.88055625  0.87268715  0.10363547  1
  Mg  Mg2  1  0.12790118  0.12867939  0.12937685  1
  Mg  Mg3  1  0.37957581  0.64047051  0.36643743  1
  Mg  Mg4  1  0.38030717  0.88379781  0.62527255  1
  Mg  Mg5  1  0.87097251  0.11825576  0.62941621  1
  Mg  Mg6  1  0.61835261  0.87830247  0.87797570  1
  Mg  Mg7  1  0.87128679  0.12874668  0.12234697  1
  Mg  Mg8  1  0.63377366  0.62875230  0.37855716  1
  Mg  Mg9  1  0.38177519  0.87374612  0.37360402  1
  Mg  Mg10  1  0.61821185  0.37290153  0.12714449  1
  Mg  Mg11  1  0.60905030  0.61950139  0.87711032  1
  Mg  Mg12  1  0.38456981  0.37541186  0.38555499  1
  Mg  Mg13  1  0.61571824  0.61811366  0.10843186  1
  Mg  Mg14  1  0.12215528  0.12143879  0.62143368  1
  Mg  Mg15  1  0.37304183  0.88151700  0.88057143  1
  Mg  Mg16  1  0.12982018  0.37906573  0.87097617  1
  Mg  Mg17  1  0.37809338  0.36282869  0.61663947  1
  Mg  Mg18  1  0.88324269  0.11362970  0.37624310  1
  Mg  Mg19  1  0.50745020  0.81888505  0.01133672  1
  Mg  Mg20  1  0.49996287  0.53918332  0.46850565  1
  Mg  Mg21  1  0.49556276  0.48559263  0.01524108  1
  Mg  Mg22  1  0.45644347  0.24455770  0.49383236  1
  Mg  Mg23  1  0.31436902  0.55097181  0.51117660  1
  Mg  Mg24  1  -0.02537546  0.00836377  0.03659382  1
  Mg  Mg25  1  -0.03832610  0.75783372  0.77659239  1
  Mg  Mg26  1  0.69890886  0.01770763  0.43522380  1
  Mg  Mg27  1  0.29439766  0.50108819  0.31693933  1
  Mg  Mg28  1  0.69095461  -0.03813509  0.05154388  1
  Mg  Mg29  1  0.06325545  0.49970504  -0.00618600  1
  Mg  Mg30  1  -0.00092715  0.04649817  0.21527985  1
  Mg  Mg31  1  0.68179281  0.78641497  0.01618682  1
  Ti  Ti32  1  0.12213918  0.86313423  0.62174154  1
  Ti  Ti33  1  0.11447046  0.38016942  0.62050278  1
  Ti  Ti34  1  0.61341566  0.37295425  0.37718188  1
  Ti  Ti35  1  0.63064998  0.11161819  0.62661800  1
  Ti  Ti36  1  0.87404901  0.88278166  0.88381269  1
  Ti  Ti37  1  0.63782722  0.61555266  0.62871463  1
  Ti  Ti38  1  0.86979128  0.62041161  0.10992437  1
  Ti  Ti39  1  0.37017258  0.13050725  0.12958822  1
  Ti  Ti40  1  0.36448927  0.12252666  0.38629589  1
  Ti  Ti41  1  0.88265644  0.63048057  0.64040834  1
  Ti  Ti42  1  0.13339085  0.62803914  0.12180592  1
  Ti  Ti43  1  0.38041739  0.60312064  0.88624347  1
  Ti  Ti44  1  0.10845471  0.88646834  0.37101845  1
  Ti  Ti45  1  0.86906810  0.86453561  0.63426626  1
  Ti  Ti46  1  0.87337023  0.38139725  0.36375195  1
  Ti  Ti47  1  0.13301255  0.62443684  0.86085431  1
  Ti  Ti48  1  0.63500424  0.12653078  0.88250055  1
  Ti  Ti49  1  0.62509806  0.13176996  0.12118937  1
  Ti  Ti50  1  0.13057550  0.61794220  0.37050357  1
  Ti  Ti51  1  0.61219689  0.36089396  0.87335146  1
  Ti  Ti52  1  0.11869786  0.37748922  0.12370436  1
  Ti  Ti53  1  0.86578278  0.62513437  0.87503816  1
  Ti  Ti54  1  0.36912419  0.12694479  0.88088675  1
  Ti  Ti55  1  0.12286463  0.11909210  0.37839505  1
  Ti  Ti56  1  0.62742548  0.87680822  0.61725884  1
  Ti  Ti57  1  0.36687941  0.62084634  0.13500807  1
  Ti  Ti58  1  0.36609263  0.89277584  0.11829179  1
  Ti  Ti59  1  0.62268785  0.86151050  0.38343606  1
  Ti  Ti60  1  0.37661565  0.38747629  0.14157151  1
  Ti  Ti61  1  0.12703125  0.86351185  0.86923887  1
  Ti  Ti62  1  0.11512054  0.88446932  0.11869037  1
  Ti  Ti63  1  0.87589003  0.38151882  0.11664352  1
  Ti  Ti64  1  0.62280478  0.36455647  0.61832109  1
  Ti  Ti65  1  0.12016577  0.38682701  0.38149898  1
  Ti  Ti66  1  0.11503685  0.12355903  0.86977393  1
  Ti  Ti67  1  0.87770790  0.36586559  0.88706921  1
  Ti  Ti68  1  0.37031338  0.12510962  0.62932166  1
  Ti  Ti69  1  0.37326763  0.36157420  0.85918066  1
  Ti  Ti70  1  0.11855175  0.62780868  0.61253078  1
  Ti  Ti71  1  0.87214619  0.61999524  0.36061271  1
  Ti  Ti72  1  0.87356334  0.11160620  0.87608694  1
  Ti  Ti73  1  0.86607043  0.87237770  0.38423545  1
  Bi  Bi74  1  0.47843000  0.73196549  0.54247096  1
  Bi  Bi75  1  -0.01742321  0.23628106  0.73024972  1
  Bi  Bi76  1  0.48265722  0.75368981  0.78202370  1
  Bi  Bi77  1  0.76284663  0.75782502  0.20118545  1
  Bi  Bi78  1  0.47104883  0.50629340  0.69473977  1
  Bi  Bi79  1  0.75335336  0.23979731  0.74124720  1
  Bi  Bi80  1  0.73157793  -0.02473323  0.76431856  1
  Bi  Bi81  1  0.74443007  0.21018402  0.26757310  1
  Bi  Bi82  1  0.50863355  0.75671147  0.20076322  1
  Bi  Bi83  1  0.80442199  -0.01157039  0.24690612  1
  Bi  Bi84  1  0.24637115  0.26096794  0.51064906  1
  Bi  Bi85  1  -0.00827977  0.47186995  0.77232030  1
  Bi  Bi86  1  -0.01416752  0.22898662  0.01299171  1
  Bi  Bi87  1  -0.00399315  0.75604816  0.22360688  1
  Bi  Bi88  1  -0.02769135  0.24000710  0.49453080  1
  Bi  Bi89  1  0.25754230  0.74654102  0.47771115  1
  Bi  Bi90  1  0.25825322  -0.02890201  0.50647200  1
  Bi  Bi91  1  0.72431655  0.74451283  0.78563258  1
  Bi  Bi92  1  0.24962582  0.28364157  0.26247446  1
  Bi  Bi93  1  0.51205919  0.23361167  0.72960535  1
  Bi  Bi94  1  0.26820508  -0.00286751  0.25709386  1
  Bi  Bi95  1  0.73673218  0.48745462  0.48524856  1
  Bi  Bi96  1  -0.00350184  0.73551440  -0.02459527  1
  Bi  Bi97  1  0.23840178  0.78240784  0.25663396  1
  Bi  Bi98  1  0.01422587  0.51341056  0.23477566  1
  Bi  Bi99  1  0.27418502  0.46744826  -0.00236455  1
  Bi  Bi100  1  0.51070635  -0.00453799  0.47490986  1
  Bi  Bi101  1  0.27510720  0.73504914  -0.02549360  1
  Bi  Bi102  1  0.47759964  0.26581252  0.01796694  1
  Bi  Bi103  1  0.53908669  -0.02139483  0.23480175  1
  Bi  Bi104  1  0.02097597  0.24761068  0.26577327  1
  Bi  Bi105  1  -0.01670936  -0.00240038  0.51288789  1
  Bi  Bi106  1  0.74418867  0.72435896  0.50840631  1
  Bi  Bi107  1  0.50344052  0.02499180  -0.00573984  1
  Bi  Bi108  1  0.70492420  0.49774759  -0.01356878  1
  Bi  Bi109  1  0.49346180  0.22139031  0.28116654  1
  Bi  Bi110  1  0.48559496  -0.00082143  0.75467782  1
  Bi  Bi111  1  0.00774711  -0.00843628  0.72963805  1
  Bi  Bi112  1  -0.02855433  0.49903812  0.51256001  1
  Bi  Bi113  1  0.27535518  0.71230231  0.71912521  1
  Bi  Bi114  1  0.21458912  0.25097049  0.73587164  1
  Bi  Bi115  1  0.50843520  0.53218838  0.26556943  1
  Bi  Bi116  1  0.72841625  0.49268119  0.23438552  1
  Bi  Bi117  1  0.74727951  0.25868807  0.02573192  1
  Bi  Bi118  1  0.25142367  -0.01954629  0.75145112  1
  Bi  Bi119  1  0.22328077  0.24639138  -0.00191969  1
  Bi  Bi120  1  0.73308297  0.22084725  0.48051451  1
  Bi  Bi121  1  0.25266461  0.50193907  0.70562725  1
  Bi  Bi122  1  0.21634531  0.00074702  -0.01564183  1
  Bi  Bi123  1  -0.01719214  0.73355694  0.47917391  1
  Bi  Bi124  1  0.73627754  0.46575688  0.75785862  1
  O  O125  1  0.13873114  0.13240941  -0.00169586  1
  O  O126  1  0.09953619  0.11555891  0.25455277  1
  O  O127  1  0.11495377  0.13569437  0.49341568  1
  O  O128  1  0.14556289  0.12053694  0.75672856  1
  O  O129  1  0.14176058  0.39098219  -0.00038401  1
  O  O130  1  0.10872379  0.38176549  0.24378216  1
  O  O131  1  0.13638923  0.36283354  0.49494678  1
  O  O132  1  0.12369989  0.38086246  0.74241540  1
  O  O133  1  0.09877060  0.62777531  0.00735807  1
  O  O134  1  0.13010349  0.60002366  0.25343804  1
  O  O135  1  0.10373390  0.63638255  0.49770681  1
  O  O136  1  0.15643890  0.61634800  0.74896991  1
  O  O137  1  0.13808888  0.87102235  0.00287544  1
  O  O138  1  0.11412253  0.87517412  0.25130313  1
  O  O139  1  0.13806212  0.87029132  0.49798438  1
  O  O140  1  0.14192978  0.88867028  0.75271611  1
  O  O141  1  0.37288210  0.14989842  -0.00109393  1
  O  O142  1  0.39925153  0.10936086  0.24599545  1
  O  O143  1  0.36025730  0.15186619  0.49780088  1
  O  O144  1  0.37922618  0.10222253  0.74842046  1
  O  O145  1  0.36069467  0.35084242  -0.00879938  1
  O  O146  1  0.37872419  0.40263752  0.25431123  1
  O  O147  1  0.36236985  0.33001520  0.49650853  1
  O  O148  1  0.39018204  0.39410246  0.74808756  1
  O  O149  1  0.38094317  0.64648754  -0.00083894  1
  O  O150  1  0.35785770  0.58795351  0.24994221  1
  O  O151  1  0.37352244  0.66042574  0.49207089  1
  O  O152  1  0.34836199  0.59629198  0.76154428  1
  O  O153  1  0.37538656  0.84882694  0.00794308  1
  O  O154  1  0.37202719  0.90234133  0.24687936  1
  O  O155  1  0.34257263  0.86180750  0.49886120  1
  O  O156  1  0.37461228  0.90858560  0.74998428  1
  O  O157  1  0.63984882  0.07952173  0.00313323  1
  O  O158  1  0.61832523  0.15323541  0.24038101  1
  O  O159  1  0.63690184  0.10058501  0.51257235  1
  O  O160  1  0.63470342  0.15390384  0.76013670  1
  O  O161  1  0.61762686  0.39366819  -0.00928679  1
  O  O162  1  0.62156996  0.39553118  0.25980049  1
  O  O163  1  0.65482279  0.36407085  0.50423396  1
  O  O164  1  0.62332257  0.35638134  0.75140351  1
  O  O165  1  0.58947867  0.57267010  -0.00724150  1
  O  O166  1  0.63505609  0.59686389  0.25483357  1
  O  O167  1  0.64590962  0.62250819  0.50777224  1
  O  O168  1  0.62052964  0.65868951  0.74194074  1
  O  O169  1  0.60812869  0.89232415  -0.00121517  1
  O  O170  1  0.60716804  0.86108329  0.26469527  1
  O  O171  1  0.63663116  0.91625326  0.50281269  1
  O  O172  1  0.64498162  0.86023729  0.75140773  1
  O  O173  1  0.90571172  0.10663778  -0.00687179  1
  O  O174  1  0.86735619  0.12495374  0.25018897  1
  O  O175  1  0.90106070  0.11396335  0.50410337  1
  O  O176  1  0.86693490  0.15543357  0.75981677  1
  O  O177  1  0.86625005  0.40197509  0.00111477  1
  O  O178  1  0.88089227  0.36026026  0.25072078  1
  O  O179  1  0.86721439  0.41226829  0.49699771  1
  O  O180  1  0.88756246  0.37287166  0.75812758  1
  O  O181  1  0.90335976  0.62264584  -0.00289772  1
  O  O182  1  0.84796777  0.63821756  0.25065324  1
  O  O183  1  0.89647439  0.61812037  0.50427591  1
  O  O184  1  0.88004796  0.65806083  0.75572565  1
  O  O185  1  0.91033204  0.91000766  -0.01188036  1
  O  O186  1  0.85814979  0.85342603  0.25252902  1
  O  O187  1  0.88742170  0.89075347  0.49968946  1
  O  O188  1  0.87456826  0.85049936  0.75176445  1
  O  O189  1  -0.00016932  0.14395433  0.12529337  1
  O  O190  1  0.00000766  0.16212258  0.37360055  1
  O  O191  1  -0.00075064  0.11859488  0.66191032  1
  O  O192  1  0.00382698  0.14245853  0.85920394  1
  O  O193  1  0.00144570  0.36164563  0.10864138  1
  O  O194  1  0.00127886  0.34776419  0.37856400  1
  O  O195  1  0.00120202  0.38415556  0.60679053  1
  O  O196  1  -0.00085882  0.38129630  0.87951903  1
  O  O197  1  -0.00472711  0.63123137  0.15429161  1
  O  O198  1  -0.00203214  0.65148744  0.36372475  1
  O  O199  1  0.00762984  0.63882890  0.64326394  1
  O  O200  1  0.01629989  0.66654992  0.85827315  1
  O  O201  1  0.00482726  0.84734921  0.11957525  1
  O  O202  1  -0.00053339  0.84777520  0.37955846  1
  O  O203  1  0.00935877  0.85476498  0.64872262  1
  O  O204  1  0.01319499  0.84674938  0.86023281  1
  O  O205  1  0.25763078  0.12244800  0.14009216  1
  O  O206  1  0.24398289  0.10275919  0.36821922  1
  O  O207  1  0.25640589  0.15400112  0.63007733  1
  O  O208  1  0.25845278  0.09927262  0.88343282  1
  O  O209  1  0.25612147  0.39116256  0.12656424  1
  O  O210  1  0.24156399  0.39183593  0.35281473  1
  O  O211  1  0.24709183  0.34401185  0.62579536  1
  O  O212  1  0.26103318  0.39847386  0.86643601  1
  O  O213  1  0.24716447  0.61535046  0.10876633  1
  O  O214  1  0.24290046  0.59201920  0.39680157  1
  O  O215  1  0.24822781  0.61323668  0.61311213  1
  O  O216  1  0.24904637  0.61152442  0.90328780  1
  O  O217  1  0.24296415  0.89656681  0.14103225  1
  O  O218  1  0.23831342  0.89974000  0.35462846  1
  O  O219  1  0.24532480  0.90358779  0.62890983  1
  O  O220  1  0.25017631  0.91186635  0.87943061  1
  O  O221  1  0.50407945  0.12020552  0.10484968  1
  O  O222  1  0.48429578  0.15388772  0.39809196  1
  O  O223  1  0.50916678  0.10938526  0.65154363  1
  O  O224  1  0.51340103  0.13322164  0.89858588  1
  O  O225  1  0.49339018  0.38272905  0.10242512  1
  O  O226  1  0.50596238  0.33134032  0.39234619  1
  O  O227  1  0.50995011  0.39923946  0.61358520  1
  O  O228  1  0.49828347  0.34463723  0.87995921  1
  O  O229  1  0.49253916  0.61534581  0.15488660  1
  O  O230  1  0.50486082  0.62726365  0.36894496  1
  O  O231  1  0.51042295  0.60326984  0.59018628  1
  O  O232  1  0.48734983  0.63824705  0.85439424  1
  O  O233  1  0.48599402  0.87492362  0.12976510  1
  O  O234  1  0.50458438  0.86294999  0.41318953  1
  O  O235  1  0.51107074  0.88908669  0.62447969  1
  O  O236  1  0.49556115  0.84701080  0.88071307  1
  O  O237  1  0.74684523  0.15014907  0.12012242  1
  O  O238  1  0.75602096  0.11901295  0.38210074  1
  O  O239  1  0.74673044  0.14585076  0.63622100  1
  O  O240  1  0.75791986  0.11223412  0.88098444  1
  O  O241  1  0.75589317  0.36046301  0.12771197  1
  O  O242  1  0.75599223  0.41108509  0.36907393  1
  O  O243  1  0.74623493  0.36581356  0.64829185  1
  O  O244  1  0.75589742  0.37780655  0.86749852  1
  O  O245  1  0.75350714  0.64411262  0.10182686  1
  O  O246  1  0.76145732  0.60056250  0.39534612  1
  O  O247  1  0.75779919  0.63248351  0.62883407  1
  O  O248  1  0.75419109  0.61756508  0.87439804  1
  O  O249  1  0.75389907  0.85662174  0.09504312  1
  O  O250  1  0.75027464  0.90947939  0.38020152  1
  O  O251  1  0.75780043  0.88313978  0.62973251  1
  O  O252  1  0.75865827  0.89086311  0.88443272  1
  O  O253  1  0.08396537  -0.00313779  0.11399853  1
  O  O254  1  0.09481483  0.00062009  0.38431741  1
  O  O255  1  0.09825594  -0.00691317  0.61686585  1
  O  O256  1  0.11173169  0.00338555  0.89358334  1
  O  O257  1  0.14307015  0.25955532  0.11575257  1
  O  O258  1  0.14298130  0.25041353  0.34814250  1
  O  O259  1  0.10954217  0.25073362  0.64246526  1
  O  O260  1  0.14669416  0.24862186  0.87892958  1
  O  O261  1  0.09793712  0.50190891  0.11676472  1
  O  O262  1  0.09533323  0.49826222  0.38241420  1
  O  O263  1  0.12902409  0.50005114  0.61663593  1
  O  O264  1  0.09967067  0.51317865  0.87608294  1
  O  O265  1  0.12957616  0.74257038  0.14826191  1
  O  O266  1  0.15333437  0.74207023  0.36366097  1
  O  O267  1  0.15008707  0.74809891  0.62789627  1
  O  O268  1  0.16171428  0.75291585  0.87261539  1
  O  O269  1  0.37537912  0.00481197  0.09573427  1
  O  O270  1  0.38400821  0.00532465  0.39508892  1
  O  O271  1  0.37002345  0.01264989  0.59218546  1
  O  O272  1  0.40732445  0.00945519  0.88448430  1
  O  O273  1  0.38681226  0.25415494  0.13851664  1
  O  O274  1  0.35300467  0.24431992  0.34317941  1
  O  O275  1  0.41630678  0.23980140  0.62603008  1
  O  O276  1  0.36199531  0.24449357  0.84577427  1
  O  O277  1  0.38540289  0.49995967  0.09412987  1
  O  O278  1  0.38822710  0.50095101  0.41458221  1
  O  O279  1  0.36226250  0.48968492  0.61112616  1
  O  O280  1  0.40517254  0.49436724  0.91253830  1
  O  O281  1  0.37278324  0.73955249  0.15168971  1
  O  O282  1  0.33409538  0.75595574  0.35928942  1
  O  O283  1  0.39035700  0.75639045  0.64639050  1
  O  O284  1  0.35190061  0.74957504  0.85211110  1
  O  O285  1  0.64494051  0.01113238  0.15667192  1
  O  O286  1  0.59532950  -0.00152261  0.36477234  1
  O  O287  1  0.63881115  0.00124010  0.65998017  1
  O  O288  1  0.61975086  0.00612134  0.84391698  1
  O  O289  1  0.61781342  0.24930595  0.09199203  1
  O  O290  1  0.66066538  0.26074493  0.37297742  1
  O  O291  1  0.60058141  0.24817647  0.61993208  1
  O  O292  1  0.64398022  0.24720241  0.89861805  1
  O  O293  1  0.65153094  0.49550991  0.12182662  1
  O  O294  1  0.60146339  0.48957477  0.40855941  1
  O  O295  1  0.64107738  0.50167586  0.64590111  1
  O  O296  1  0.63307402  0.48870554  0.85228520  1
  O  O297  1  0.58588883  0.74091424  0.08772033  1
  O  O298  1  0.65420900  0.75388237  0.39599486  1
  O  O299  1  0.63242670  0.76154549  0.59815336  1
  O  O300  1  0.64655631  0.74804246  0.89768725  1
  O  O301  1  0.90189641  -0.00301470  0.14450076  1
  O  O302  1  0.89984144  -0.01240549  0.34710608  1
  O  O303  1  0.90369726  -0.01103656  0.63461153  1
  O  O304  1  0.89177395  0.00108070  0.84187454  1
  O  O305  1  0.87606489  0.25594669  0.09160798  1
  O  O306  1  0.85617725  0.26351098  0.40999644  1
  O  O307  1  0.89193063  0.24942404  0.62021523  1
  O  O308  1  0.87604429  0.25268539  0.90619298  1
  O  O309  1  0.87978396  0.50243954  0.14239115  1
  O  O310  1  0.90556198  0.50381549  0.35978424  1
  O  O311  1  0.89060602  0.51291956  0.63722427  1
  O  O312  1  0.89036228  0.51355650  0.85752328  1
  O  O313  1  0.88026885  0.74367584  0.12846007  1
  O  O314  1  0.86126497  0.74966004  0.39768677  1
  O  O315  1  0.87661473  0.75053871  0.60101373  1
  O  O316  1  0.87780432  0.75695820  0.89504519  1
