# generated using pymatgen
data_Mg32Ti42(Bi17O64)3
_symmetry_space_group_name_H-M   'P 1'
_cell_length_a   16.00996462
_cell_length_b   15.93120385
_cell_length_c   15.96060603
_cell_angle_alpha   90.03424456
_cell_angle_beta   90.03182833
_cell_angle_gamma   90.07826221
_symmetry_Int_Tables_number   1
_chemical_formula_structural   Mg32Ti42(Bi17O64)3
_chemical_formula_sum   'Mg32 Ti42 Bi51 O192'
_cell_volume   4070.87525586
_cell_formula_units_Z   1
loop_
 _symmetry_equiv_pos_site_id
 _symmetry_equiv_pos_as_xyz
  1  'x, y, z'
loop_
 _atom_site_type_symbol
 _atom_site_label
 _atom_site_symmetry_multiplicity
 _atom_site_fract_x
 _atom_site_fract_y
 _atom_site_fract_z
 _atom_site_occupancy
  Mg  Mg0  1  0.61920139  0.13882705  0.36150733  1
  Mg  Mg1  1  0.11946533  0.88045507  0.87414109  1
  Mg  Mg2  1  0.12430676  0.62563840  0.62370746  1
  Mg  Mg3  1  0.38399835  0.13355941  0.37119695  1
  Mg  Mg4  1  0.62918829  0.12333738  0.63092757  1
  Mg  Mg5  1  0.62430211  0.37214513  0.38533488  1
  Mg  Mg6  1  0.87787123  0.88099163  0.13609554  1
  Mg  Mg7  1  0.86194313  0.37096841  0.13006670  1
  Mg  Mg8  1  0.62794317  0.12488116  0.11505114  1
  Mg  Mg9  1  0.88102741  0.62704355  0.87339628  1
  Mg  Mg10  1  0.87839849  0.11750090  0.86680796  1
  Mg  Mg11  1  0.37939381  0.12535013  0.11314427  1
  Mg  Mg12  1  0.38859740  0.37197771  0.87299643  1
  Mg  Mg13  1  0.87154433  0.62877522  0.12560772  1
  Mg  Mg14  1  0.13533763  0.88023426  0.13487422  1
  Mg  Mg15  1  0.13088744  0.62723038  0.13417463  1
  Mg  Mg16  1  0.61984779  0.62401840  0.87884005  1
  Mg  Mg17  1  0.85192911  0.36809438  0.37296300  1
  Mg  Mg18  1  0.37645513  0.62710750  0.13346553  1
  Mg  Mg19  1  0.02428266  0.00074544  0.04878659  1
  Mg  Mg20  1  0.70149501  0.27751848  0.25006316  1
  Mg  Mg21  1  0.74566661  -0.04524206  0.79549628  1
  Mg  Mg22  1  0.28926492  0.49620689  0.22177358  1
  Mg  Mg23  1  0.25150974  0.75593678  0.05321753  1
  Mg  Mg24  1  0.53707003  0.49505961  0.77117519  1
  Mg  Mg25  1  0.23752967  0.24629126  0.54251623  1
  Mg  Mg26  1  0.54261291  0.79785071  0.49144867  1
  Mg  Mg27  1  -0.00089454  0.00191408  0.72494510  1
  Mg  Mg28  1  0.51010388  0.22772120  0.21642246  1
  Mg  Mg29  1  0.25522417  0.69769801  0.28339890  1
  Mg  Mg30  1  0.71521609  0.20389904  0.49743713  1
  Mg  Mg31  1  0.52615911  0.21012503  -0.00672772  1
  Ti  Ti32  1  0.38174944  0.61883949  0.37464071  1
  Ti  Ti33  1  0.12875015  0.87021097  0.38149988  1
  Ti  Ti34  1  0.62210824  0.61832384  0.62425581  1
  Ti  Ti35  1  0.63999121  0.38157882  0.62260196  1
  Ti  Ti36  1  0.37176371  0.87046756  0.61438045  1
  Ti  Ti37  1  0.62258318  0.87747602  0.12770531  1
  Ti  Ti38  1  0.37856946  0.36895396  0.11231071  1
  Ti  Ti39  1  0.88270871  0.87888997  0.62477188  1
  Ti  Ti40  1  0.13759568  0.38221328  0.13979592  1
  Ti  Ti41  1  0.61204773  0.61800282  0.39367592  1
  Ti  Ti42  1  0.11999454  0.87206750  0.62464293  1
  Ti  Ti43  1  0.62983911  0.12067653  0.87230378  1
  Ti  Ti44  1  0.13358267  0.38268101  0.37247818  1
  Ti  Ti45  1  0.37251715  0.36997071  0.36860584  1
  Ti  Ti46  1  0.87355011  0.37018171  0.87884438  1
  Ti  Ti47  1  0.37469663  0.36498902  0.62409089  1
  Ti  Ti48  1  0.36908096  0.61349639  0.86779455  1
  Ti  Ti49  1  0.87273421  0.38330893  0.62567500  1
  Ti  Ti50  1  0.88653288  0.12639489  0.13246739  1
  Ti  Ti51  1  0.13516927  0.63195862  0.88852952  1
  Ti  Ti52  1  0.13115695  0.14742766  0.39520563  1
  Ti  Ti53  1  0.86508520  0.11811733  0.61955275  1
  Ti  Ti54  1  0.10976334  0.11529392  0.87828799  1
  Ti  Ti55  1  0.63378935  0.86921112  0.62750025  1
  Ti  Ti56  1  0.12361563  0.36962092  0.62782379  1
  Ti  Ti57  1  0.37166159  0.86782233  0.37556995  1
  Ti  Ti58  1  0.61026768  0.85748955  0.88121036  1
  Ti  Ti59  1  0.38075025  0.12908771  0.62588875  1
  Ti  Ti60  1  0.88731025  0.63470069  0.63164127  1
  Ti  Ti61  1  0.62365539  0.37678182  0.88226874  1
  Ti  Ti62  1  0.36788678  0.86486945  0.87354754  1
  Ti  Ti63  1  0.37473639  0.61874019  0.61555801  1
  Ti  Ti64  1  0.12467884  0.61313602  0.37535816  1
  Ti  Ti65  1  0.37323472  0.87553120  0.13354788  1
  Ti  Ti66  1  0.87822684  0.88517195  0.37091447  1
  Ti  Ti67  1  0.87279120  0.12919611  0.37685729  1
  Ti  Ti68  1  0.89506049  0.88525688  0.86046948  1
  Ti  Ti69  1  0.13445090  0.12903945  0.11708505  1
  Ti  Ti70  1  0.62023725  0.35963425  0.11240001  1
  Ti  Ti71  1  0.38396172  0.13108077  0.88206816  1
  Ti  Ti72  1  0.62539639  0.63766857  0.12725528  1
  Ti  Ti73  1  0.12273860  0.12553353  0.63771393  1
  Bi  Bi74  1  0.72952809  0.03070392  0.24157788  1
  Bi  Bi75  1  0.78980777  0.00369876  0.00868559  1
  Bi  Bi76  1  0.78708282  0.52891062  0.49045162  1
  Bi  Bi77  1  0.02035120  0.73031164  0.76808750  1
  Bi  Bi78  1  0.02106421  0.78113184  0.01868809  1
  Bi  Bi79  1  0.01884345  0.49518719  0.52237061  1
  Bi  Bi80  1  0.51487533  -0.00980089  0.75538361  1
  Bi  Bi81  1  -0.01271644  0.51389009  0.03474978  1
  Bi  Bi82  1  -0.01285456  0.27907557  0.26608057  1
  Bi  Bi83  1  0.27989223  0.01872388  0.50094261  1
  Bi  Bi84  1  0.73503984  0.49377884  0.25736622  1
  Bi  Bi85  1  0.49815348  0.51710851  0.01931542  1
  Bi  Bi86  1  0.78468856  0.23763276  0.00655911  1
  Bi  Bi87  1  0.74806108  0.75673006  0.47997660  1
  Bi  Bi88  1  0.75520402  0.52160448  0.77057103  1
  Bi  Bi89  1  0.47640432  0.74872975  0.00867617  1
  Bi  Bi90  1  0.54662785  0.76718013  0.28104530  1
  Bi  Bi91  1  0.24644518  0.45966443  0.77708118  1
  Bi  Bi92  1  0.02903676  0.03779195  0.25684383  1
  Bi  Bi93  1  0.78096757  0.74182161  0.25867857  1
  Bi  Bi94  1  0.71544687  -0.00863921  0.46600872  1
  Bi  Bi95  1  0.74564613  0.24820353  0.76290364  1
  Bi  Bi96  1  0.26367290  0.23096810  0.77057651  1
  Bi  Bi97  1  -0.03047897  0.23435414  0.74230449  1
  Bi  Bi98  1  0.24372736  0.52436853  0.01868329  1
  Bi  Bi99  1  0.27580271  0.23509864  0.23187087  1
  Bi  Bi100  1  0.50973020  -0.00380894  0.52335580  1
  Bi  Bi101  1  -0.03074449  0.26470427  0.50171147  1
  Bi  Bi102  1  0.76321506  0.53145696  0.00389480  1
  Bi  Bi103  1  0.51637947  0.25598079  0.76418359  1
  Bi  Bi104  1  -0.02181210  0.73232438  0.46210740  1
  Bi  Bi105  1  0.24376707  -0.01585459  -0.01425458  1
  Bi  Bi106  1  0.24791976  0.73443010  0.72490812  1
  Bi  Bi107  1  0.02846309  0.76036264  0.24298734  1
  Bi  Bi108  1  0.23870654  0.27776888  -0.01793757  1
  Bi  Bi109  1  0.03014668  0.29171441  -0.00426011  1
  Bi  Bi110  1  0.26257904  0.47717523  0.49974198  1
  Bi  Bi111  1  0.49652232  0.46964757  0.50424104  1
  Bi  Bi112  1  0.50051737  0.71574462  0.75338879  1
  Bi  Bi113  1  0.77544246  0.75004160  0.76296400  1
  Bi  Bi114  1  0.26137850  0.00558683  0.27785399  1
  Bi  Bi115  1  0.77247515  0.77275738  0.01320892  1
  Bi  Bi116  1  0.51404857  0.46215429  0.24825240  1
  Bi  Bi117  1  0.49060063  0.02532853  0.24117736  1
  Bi  Bi118  1  0.02836449  0.48042493  0.78238213  1
  Bi  Bi119  1  0.25703437  0.73252495  0.49134185  1
  Bi  Bi120  1  0.00809383  0.00360069  0.49134084  1
  Bi  Bi121  1  0.23699877  -0.02176488  0.73960270  1
  Bi  Bi122  1  -0.04716175  0.52915687  0.28254594  1
  Bi  Bi123  1  0.52703496  0.23608387  0.50836734  1
  Bi  Bi124  1  0.48362470  -0.01328313  -0.00546593  1
  O  O125  1  0.10004678  0.09452018  -0.00055286  1
  O  O126  1  0.14034735  0.12533262  0.24774416  1
  O  O127  1  0.10260127  0.11026364  0.50325459  1
  O  O128  1  0.15065735  0.14275246  0.75304825  1
  O  O129  1  0.14199563  0.37727227  0.00999405  1
  O  O130  1  0.12593894  0.34452890  0.25417564  1
  O  O131  1  0.12740391  0.40836870  0.49386152  1
  O  O132  1  0.12565146  0.37386135  0.74263576  1
  O  O133  1  0.11436058  0.59631429  -0.00125524  1
  O  O134  1  0.14238208  0.65821017  0.25915617  1
  O  O135  1  0.10207572  0.60564301  0.49573702  1
  O  O136  1  0.13920622  0.65138474  0.75650777  1
  O  O137  1  0.08486139  0.89912871  -0.00277923  1
  O  O138  1  0.13013534  0.85162840  0.26140708  1
  O  O139  1  0.10284165  0.89378521  0.50962682  1
  O  O140  1  0.15696244  0.86651303  0.75269945  1
  O  O141  1  0.41747867  0.14751401  -0.00816135  1
  O  O142  1  0.34878158  0.10868493  0.24423992  1
  O  O143  1  0.38352971  0.11842722  0.49722412  1
  O  O144  1  0.35308031  0.12066441  0.74119989  1
  O  O145  1  0.37165443  0.35141655  0.00068274  1
  O  O146  1  0.37362672  0.40642507  0.25341719  1
  O  O147  1  0.36404699  0.37821768  0.49380967  1
  O  O148  1  0.36828013  0.37713002  0.73590972  1
  O  O149  1  0.40850474  0.62333269  -0.01278202  1
  O  O150  1  0.33994693  0.60939979  0.25689388  1
  O  O151  1  0.37729713  0.64695592  0.49864934  1
  O  O152  1  0.35102469  0.63302065  0.75054074  1
  O  O153  1  0.40722653  0.87119457  -0.00135642  1
  O  O154  1  0.36046624  0.88484682  0.24847031  1
  O  O155  1  0.35519617  0.86814904  0.49733672  1
  O  O156  1  0.35517531  0.88406579  0.75723572  1
  O  O157  1  0.60812726  0.11075202  -0.01387772  1
  O  O158  1  0.66632694  0.15631542  0.24258104  1
  O  O159  1  0.60088634  0.11402071  0.49925862  1
  O  O160  1  0.63324164  0.16340112  0.75001280  1
  O  O161  1  0.62331418  0.39701786  -0.00274513  1
  O  O162  1  0.58283029  0.33338949  0.24104441  1
  O  O163  1  0.62619663  0.41382849  0.50796863  1
  O  O164  1  0.63005715  0.34456187  0.74189724  1
  O  O165  1  0.61089750  0.59578798  0.00381562  1
  O  O166  1  0.63528566  0.65624311  0.24720207  1
  O  O167  1  0.58878305  0.59664727  0.50271445  1
  O  O168  1  0.62557524  0.65564056  0.73766040  1
  O  O169  1  0.60005913  0.89079383  -0.00582806  1
  O  O170  1  0.65269255  0.84371719  0.23608656  1
  O  O171  1  0.61456497  0.90256534  0.50214493  1
  O  O172  1  0.61171863  0.86722486  0.74543073  1
  O  O173  1  0.87212602  0.12943732  -0.00411820  1
  O  O174  1  0.86761687  0.11001500  0.25127915  1
  O  O175  1  0.90539491  0.12787433  0.49930842  1
  O  O176  1  0.86186270  0.14113038  0.73940791  1
  O  O177  1  0.86137593  0.35534014  -0.00395446  1
  O  O178  1  0.89752185  0.38391312  0.25112464  1
  O  O179  1  0.86853977  0.36072537  0.50256718  1
  O  O180  1  0.88622344  0.36817332  0.74558289  1
  O  O181  1  0.86642225  0.62646562  -0.00322689  1
  O  O182  1  0.85846910  0.62154936  0.24949580  1
  O  O183  1  0.88331283  0.62755402  0.51136723  1
  O  O184  1  0.85332455  0.62174506  0.74512505  1
  O  O185  1  0.87719846  0.86414742  -0.01913052  1
  O  O186  1  0.85196915  0.87439808  0.25966851  1
  O  O187  1  0.89705476  0.87370208  0.51121517  1
  O  O188  1  0.83814006  0.88110855  0.75001894  1
  O  O189  1  0.00115909  0.12350039  0.13933144  1
  O  O190  1  0.01590093  0.14684708  0.35458967  1
  O  O191  1  0.00607261  0.12655452  0.65023116  1
  O  O192  1  0.00631845  0.09865790  0.83455707  1
  O  O193  1  0.01990418  0.40042326  0.11499426  1
  O  O194  1  0.01688366  0.34929923  0.38048667  1
  O  O195  1  0.00174030  0.36871560  0.60574770  1
  O  O196  1  -0.01101606  0.39781529  0.89122325  1
  O  O197  1  0.00205212  0.60534551  0.13445429  1
  O  O198  1  0.00534911  0.64158134  0.36030736  1
  O  O199  1  -0.00192016  0.64554452  0.64689025  1
  O  O200  1  0.00553652  0.61374097  0.84819565  1
  O  O201  1  0.00108617  0.85645112  0.14006613  1
  O  O202  1  -0.00549538  0.84202760  0.36408569  1
  O  O203  1  -0.00089179  0.87473486  0.65413949  1
  O  O204  1  -0.00210124  0.91101440  0.82938406  1
  O  O205  1  0.24886289  0.13987267  0.10369491  1
  O  O206  1  0.24066192  0.09913584  0.38444230  1
  O  O207  1  0.24249396  0.12255398  0.59481653  1
  O  O208  1  0.26361111  0.15333836  0.88675790  1
  O  O209  1  0.25696948  0.34456493  0.13297132  1
  O  O210  1  0.25126152  0.40191304  0.37290509  1
  O  O211  1  0.24367919  0.37794332  0.60540511  1
  O  O212  1  0.25861918  0.35173541  0.86367924  1
  O  O213  1  0.25403132  0.63554134  0.09521851  1
  O  O214  1  0.24219936  0.62321088  0.39653820  1
  O  O215  1  0.25084733  0.63557901  0.61334283  1
  O  O216  1  0.25217052  0.63957260  0.90172842  1
  O  O217  1  0.25847719  0.87599694  0.09985129  1
  O  O218  1  0.23873222  0.89782639  0.38349999  1
  O  O219  1  0.24588476  0.90266036  0.61829010  1
  O  O220  1  0.25727864  0.86250710  0.91792245  1
  O  O221  1  0.50380755  0.11948253  0.14713957  1
  O  O222  1  0.50079523  0.14105935  0.32053481  1
  O  O223  1  0.49381408  0.15173452  0.63297229  1
  O  O224  1  0.49958151  0.10584604  0.84161750  1
  O  O225  1  0.49479993  0.40087390  0.11783329  1
  O  O226  1  0.49445588  0.38563630  0.38549472  1
  O  O227  1  0.49343239  0.36347653  0.60717330  1
  O  O228  1  0.50908885  0.39439642  0.84504086  1
  O  O229  1  0.50426569  0.60003504  0.13243513  1
  O  O230  1  0.49446324  0.63711716  0.35561671  1
  O  O231  1  0.48954705  0.63151501  0.64146322  1
  O  O232  1  0.49340472  0.60027591  0.83300522  1
  O  O233  1  0.50560657  0.86328631  0.14136528  1
  O  O234  1  0.48288182  0.84771178  0.38862678  1
  O  O235  1  0.48945002  0.86949966  0.59892774  1
  O  O236  1  0.49345782  0.90585300  0.86550759  1
  O  O237  1  0.75695886  0.09973321  0.11023702  1
  O  O238  1  0.76273994  0.13161116  0.40258185  1
  O  O239  1  0.75442615  0.12415551  0.59264320  1
  O  O240  1  0.74199279  0.15427417  0.87540725  1
  O  O241  1  0.73131689  0.33751289  0.13933241  1
  O  O242  1  0.73522548  0.37191947  0.32606756  1
  O  O243  1  0.75301135  0.39168309  0.63244704  1
  O  O244  1  0.74166383  0.34282283  0.87153868  1
  O  O245  1  0.73927942  0.61292572  0.11468291  1
  O  O246  1  0.73246303  0.62858191  0.40992850  1
  O  O247  1  0.73549952  0.61485305  0.60667619  1
  O  O248  1  0.74481460  0.62849596  0.86546127  1
  O  O249  1  0.74645040  0.88646418  0.09243869  1
  O  O250  1  0.76074525  0.87920245  0.40476276  1
  O  O251  1  0.74460924  0.88228525  0.61489205  1
  O  O252  1  0.72696038  0.85307058  0.87454984  1
  O  O253  1  0.11587589  0.00405340  0.14035482  1
  O  O254  1  0.09157420  -0.00849805  0.37681547  1
  O  O255  1  0.11356048  0.00405575  0.66018497  1
  O  O256  1  0.16327820  0.00481853  0.86971576  1
  O  O257  1  0.11263126  0.24597583  0.10509920  1
  O  O258  1  0.16445569  0.25255511  0.42201062  1
  O  O259  1  0.13126064  0.25078077  0.61178691  1
  O  O260  1  0.11527307  0.23452186  0.90345315  1
  O  O261  1  0.17651017  0.49252406  0.15165698  1
  O  O262  1  0.11062287  0.49928970  0.35082165  1
  O  O263  1  0.10184934  0.49897907  0.63451054  1
  O  O264  1  0.14092656  0.50955139  0.85426767  1
  O  O265  1  0.12983548  0.75368360  0.09730530  1
  O  O266  1  0.13334015  0.75295857  0.40864876  1
  O  O267  1  0.14111800  0.75977907  0.61873837  1
  O  O268  1  0.09907269  0.74983478  0.89269518  1
  O  O269  1  0.39125488  -0.00613432  0.10989759  1
  O  O270  1  0.37157867  -0.00609178  0.37087013  1
  O  O271  1  0.38655015  0.00402127  0.61672878  1
  O  O272  1  0.36025308  0.00490358  0.90550672  1
  O  O273  1  0.39484440  0.25530133  0.16090664  1
  O  O274  1  0.35870787  0.25826089  0.35161370  1
  O  O275  1  0.34907553  0.24937619  0.61245899  1
  O  O276  1  0.39597722  0.24467644  0.84982140  1
  O  O277  1  0.35398001  0.49380595  0.10934986  1
  O  O278  1  0.38113615  0.50949985  0.39761829  1
  O  O279  1  0.37128488  0.50281811  0.60755579  1
  O  O280  1  0.34953110  0.49970001  0.87346192  1
  O  O281  1  0.37288346  0.75313222  0.10810516  1
  O  O282  1  0.33399949  0.75255011  0.36338941  1
  O  O283  1  0.36215207  0.75738261  0.63310956  1
  O  O284  1  0.39729325  0.75184304  0.87828303  1
  O  O285  1  0.61981743  -0.00475953  0.15712910  1
  O  O286  1  0.64225404  0.01370433  0.35302465  1
  O  O287  1  0.59837637  -0.00083609  0.63380687  1
  O  O288  1  0.63770261  0.00723799  0.83311755  1
  O  O289  1  0.58802420  0.24954941  0.09344254  1
  O  O290  1  0.63169764  0.25227995  0.41418031  1
  O  O291  1  0.63711063  0.25960720  0.58943141  1
  O  O292  1  0.58519040  0.25147208  0.88886292  1
  O  O293  1  0.63365767  0.48103517  0.16493444  1
  O  O294  1  0.62533354  0.50613584  0.34612798  1
  O  O295  1  0.60503950  0.50024460  0.66073035  1
  O  O296  1  0.63936088  0.49297342  0.84884374  1
  O  O297  1  0.63225116  0.74755695  0.09371236  1
  O  O298  1  0.61920192  0.74350916  0.40210785  1
  O  O299  1  0.61727842  0.75537023  0.59049731  1
  O  O300  1  0.58306894  0.74773024  0.88450136  1
  O  O301  1  0.90012971  -0.00107468  0.09391183  1
  O  O302  1  0.90222753  0.00144957  0.38237921  1
  O  O303  1  0.89266043  0.00214701  0.63671428  1
  O  O304  1  0.84308148  -0.00508774  0.86746131  1
  O  O305  1  0.87439443  0.24224056  0.12241714  1
  O  O306  1  0.88535660  0.24587115  0.36764913  1
  O  O307  1  0.88697230  0.24848872  0.62336251  1
  O  O308  1  0.89172656  0.25035871  0.86535478  1
  O  O309  1  0.86191124  0.49481880  0.10092004  1
  O  O310  1  0.87038423  0.49359844  0.38444236  1
  O  O311  1  0.88683285  0.50068486  0.61889048  1
  O  O312  1  0.84507776  0.49049162  0.87102645  1
  O  O313  1  0.84763914  0.75422699  0.13116504  1
  O  O314  1  0.85784247  0.75526598  0.38896103  1
  O  O315  1  0.86049670  0.75280495  0.63822291  1
  O  O316  1  0.88740759  0.75681852  0.84694431  1
