# generated using pymatgen
data_Mg32Ti42(Bi17O64)3
_symmetry_space_group_name_H-M   'P 1'
_cell_length_a   15.96864674
_cell_length_b   15.89336063
_cell_length_c   15.92972967
_cell_angle_alpha   89.99122992
_cell_angle_beta   89.91998231
_cell_angle_gamma   89.80332460
_symmetry_Int_Tables_number   1
_chemical_formula_structural   Mg32Ti42(Bi17O64)3
_chemical_formula_sum   'Mg32 Ti42 Bi51 O192'
_cell_volume   4042.86528421
_cell_formula_units_Z   1
loop_
 _symmetry_equiv_pos_site_id
 _symmetry_equiv_pos_as_xyz
  1  'x, y, z'
loop_
 _atom_site_type_symbol
 _atom_site_label
 _atom_site_symmetry_multiplicity
 _atom_site_fract_x
 _atom_site_fract_y
 _atom_site_fract_z
 _atom_site_occupancy
  Mg  Mg0  1  0.62208969  0.87566831  0.85647851  1
  Mg  Mg1  1  0.13841663  0.37261235  0.62199228  1
  Mg  Mg2  1  0.87860187  0.63002927  0.13803971  1
  Mg  Mg3  1  0.86684531  0.87870245  0.37122818  1
  Mg  Mg4  1  0.38815102  0.87635249  0.62876542  1
  Mg  Mg5  1  0.37813008  0.63052251  0.37933964  1
  Mg  Mg6  1  0.12617066  0.63104722  0.62828817  1
  Mg  Mg7  1  0.12804755  0.12779311  0.62210798  1
  Mg  Mg8  1  0.62836560  0.12936319  0.38108817  1
  Mg  Mg9  1  0.37697513  0.62599784  0.87485532  1
  Mg  Mg10  1  0.88319755  0.61971416  0.37554486  1
  Mg  Mg11  1  0.62663490  0.10839963  0.88151328  1
  Mg  Mg12  1  0.62281530  0.63067487  0.86769703  1
  Mg  Mg13  1  0.38407696  0.37426638  0.38227287  1
  Mg  Mg14  1  0.87465680  0.36527076  0.86929600  1
  Mg  Mg15  1  0.37714051  0.11875269  0.37623786  1
  Mg  Mg16  1  0.12515750  0.86831468  0.13516138  1
  Mg  Mg17  1  0.38032567  0.37599801  0.12507845  1
  Mg  Mg18  1  0.61987084  0.86294570  0.13659502  1
  Mg  Mg19  1  0.71085739  -0.06105632  -0.00434621  1
  Mg  Mg20  1  0.49195182  0.73447373  0.24195243  1
  Mg  Mg21  1  0.53486493  0.52236610  0.74856139  1
  Mg  Mg22  1  0.55843327  0.01883230  0.72972941  1
  Mg  Mg23  1  0.73064817  0.75725668  0.00152259  1
  Mg  Mg24  1  0.78715509  0.22370392  0.48987772  1
  Mg  Mg25  1  0.74476487  0.00188315  0.78978882  1
  Mg  Mg26  1  0.74274728  -0.03072217  0.52616076  1
  Mg  Mg27  1  0.48063576  0.23882246  0.46490087  1
  Mg  Mg28  1  0.49847887  0.72847937  0.75318224  1
  Mg  Mg29  1  0.54615870  0.73884958  0.43140394  1
  Mg  Mg30  1  0.24688967  0.53875213  0.52844409  1
  Mg  Mg31  1  0.00447244  0.73242808  0.24203045  1
  Ti  Ti32  1  0.87613256  0.12933174  0.88525493  1
  Ti  Ti33  1  0.37157852  0.12356969  0.12559018  1
  Ti  Ti34  1  0.38639636  0.87998064  0.87673777  1
  Ti  Ti35  1  0.63761740  0.37776893  0.88123474  1
  Ti  Ti36  1  0.62539859  0.13940216  0.59720686  1
  Ti  Ti37  1  0.13629673  0.87102213  0.61861633  1
  Ti  Ti38  1  0.62379643  0.37790578  0.61155478  1
  Ti  Ti39  1  0.12010852  0.62862637  0.12593799  1
  Ti  Ti40  1  0.12225955  0.12052069  0.38161752  1
  Ti  Ti41  1  0.87792892  0.86146022  0.13028517  1
  Ti  Ti42  1  0.39273216  0.86534242  0.38111437  1
  Ti  Ti43  1  0.11855885  0.37155632  0.86003637  1
  Ti  Ti44  1  0.64531583  0.88878966  0.37430348  1
  Ti  Ti45  1  0.63148787  0.63652936  0.62991713  1
  Ti  Ti46  1  0.12921120  0.87774539  0.37554970  1
  Ti  Ti47  1  0.13574383  0.37158685  0.37756459  1
  Ti  Ti48  1  0.12566228  0.61267115  0.37730999  1
  Ti  Ti49  1  0.12160931  0.87094154  0.88391732  1
  Ti  Ti50  1  0.37977538  0.62098804  0.12621192  1
  Ti  Ti51  1  0.39940471  0.11175339  0.86714102  1
  Ti  Ti52  1  0.37802102  0.38264874  0.60923532  1
  Ti  Ti53  1  0.88503283  0.12404073  0.12916159  1
  Ti  Ti54  1  0.87119274  0.88879485  0.88821984  1
  Ti  Ti55  1  0.87359457  0.62270533  0.61933671  1
  Ti  Ti56  1  0.13022992  0.12436713  0.13367245  1
  Ti  Ti57  1  0.87614262  0.37641260  0.38323588  1
  Ti  Ti58  1  0.62063973  0.63757401  0.12555398  1
  Ti  Ti59  1  0.62598604  0.36979778  0.38353444  1
  Ti  Ti60  1  0.12317186  0.12136719  0.87613823  1
  Ti  Ti61  1  0.39601524  0.12125403  0.62592812  1
  Ti  Ti62  1  0.62803161  0.13148042  0.12237079  1
  Ti  Ti63  1  0.87039160  0.36395071  0.61979070  1
  Ti  Ti64  1  0.85944300  0.11471658  0.63027268  1
  Ti  Ti65  1  0.62073951  0.86130489  0.63720900  1
  Ti  Ti66  1  0.87088007  0.36817148  0.11369192  1
  Ti  Ti67  1  0.88254560  0.11955344  0.37964095  1
  Ti  Ti68  1  0.62573682  0.38688252  0.12276460  1
  Ti  Ti69  1  0.85343447  0.87073149  0.64464566  1
  Ti  Ti70  1  0.13118114  0.37990255  0.12627518  1
  Ti  Ti71  1  0.37601567  0.64159100  0.62636132  1
  Ti  Ti72  1  0.13549701  0.62063930  0.86546376  1
  Ti  Ti73  1  0.37522274  0.86801667  0.13663589  1
  Bi  Bi74  1  0.72962588  0.21618679  0.75610959  1
  Bi  Bi75  1  0.51711211  0.51367163  -0.02736111  1
  Bi  Bi76  1  0.00879323  0.48882080  0.23426433  1
  Bi  Bi77  1  0.26368475  0.45789190  -0.02130952  1
  Bi  Bi78  1  0.74985961  0.50564141  0.48421437  1
  Bi  Bi79  1  0.02426314  0.00013186  0.75098008  1
  Bi  Bi80  1  0.00729535  0.25985048  0.27094868  1
  Bi  Bi81  1  0.27981866  0.75637834  0.76378342  1
  Bi  Bi82  1  0.28826078  0.26186852  0.74406456  1
  Bi  Bi83  1  0.75944046  0.23554372  0.26894817  1
  Bi  Bi84  1  -0.02239570  -0.02571585  0.51656555  1
  Bi  Bi85  1  0.51816004  0.26425155  0.25824174  1
  Bi  Bi86  1  0.50507316  0.54001423  0.51850513  1
  Bi  Bi87  1  0.27364046  0.24064526  0.50060217  1
  Bi  Bi88  1  0.26400985  -0.00496963  0.28407285  1
  Bi  Bi89  1  0.74019476  0.70611066  0.27718092  1
  Bi  Bi90  1  0.75335443  -0.00727873  0.20504101  1
  Bi  Bi91  1  0.28236949  0.25888918  0.25129596  1
  Bi  Bi92  1  0.50553547  -0.00159530  0.03316069  1
  Bi  Bi93  1  0.28288260  0.23819757  -0.02947598  1
  Bi  Bi94  1  0.24504437  0.73087354  0.24318394  1
  Bi  Bi95  1  -0.01485032  0.72311288  -0.03210889  1
  Bi  Bi96  1  0.27328929  0.49476695  0.76321195  1
  Bi  Bi97  1  0.00409710  0.22340623  0.74276095  1
  Bi  Bi98  1  -0.03795203  0.51853481  0.77490010  1
  Bi  Bi99  1  0.52673864  0.53206326  0.28369077  1
  Bi  Bi100  1  -0.02328214  0.50038788  -0.01738591  1
  Bi  Bi101  1  0.51098248  0.29767341  0.74975440  1
  Bi  Bi102  1  0.26325468  0.74253936  0.00333028  1
  Bi  Bi103  1  0.01133754  0.77991552  0.74210216  1
  Bi  Bi104  1  0.77049659  0.55122843  -0.00872775  1
  Bi  Bi105  1  0.25198179  0.00721363  0.52659712  1
  Bi  Bi106  1  0.78667106  0.72376614  0.79189897  1
  Bi  Bi107  1  0.02498364  0.25397753  0.00672471  1
  Bi  Bi108  1  0.51549675  0.02016688  0.27154615  1
  Bi  Bi109  1  0.00140003  -0.01393877  0.03147691  1
  Bi  Bi110  1  0.29139729  0.49305791  0.26186113  1
  Bi  Bi111  1  0.25359746  0.74239166  0.48242467  1
  Bi  Bi112  1  0.76490832  0.74086595  0.48240851  1
  Bi  Bi113  1  0.01724318  0.26012418  0.51435839  1
  Bi  Bi114  1  0.02225094  0.50750901  0.52190284  1
  Bi  Bi115  1  0.76605779  0.48264215  0.23516608  1
  Bi  Bi116  1  0.24825041  -0.01344014  0.02271914  1
  Bi  Bi117  1  0.00065595  -0.02543450  0.26847091  1
  Bi  Bi118  1  0.00272365  0.74843535  0.46756520  1
  Bi  Bi119  1  0.51680247  0.76029894  -0.02844246  1
  Bi  Bi120  1  0.51301543  -0.02383925  0.51498557  1
  Bi  Bi121  1  0.26164685  0.00263125  0.76675846  1
  Bi  Bi122  1  0.74647989  0.47518610  0.74407089  1
  Bi  Bi123  1  0.49381353  0.28671250  -0.01150085  1
  Bi  Bi124  1  0.74229388  0.23103169  0.00333306  1
  O  O125  1  0.10170360  0.13771463  -0.00612950  1
  O  O126  1  0.14451601  0.11142016  0.24458749  1
  O  O127  1  0.10408949  0.14468017  0.49347602  1
  O  O128  1  0.11836825  0.12335047  0.75124856  1
  O  O129  1  0.11191971  0.36781665  0.00764812  1
  O  O130  1  0.10557347  0.38070901  0.25194025  1
  O  O131  1  0.12487257  0.34676931  0.49286502  1
  O  O132  1  0.13218608  0.38140133  0.74981410  1
  O  O133  1  0.11312041  0.64960837  0.01359581  1
  O  O134  1  0.16345639  0.61627742  0.26612375  1
  O  O135  1  0.09138584  0.63679608  0.49794958  1
  O  O136  1  0.13384518  0.61449032  0.75431700  1
  O  O137  1  0.10208611  0.86919322  -0.00377071  1
  O  O138  1  0.13994603  0.90459260  0.25997397  1
  O  O139  1  0.09155995  0.87369041  0.50102669  1
  O  O140  1  0.12260241  0.88182379  0.74150802  1
  O  O141  1  0.39160859  0.13363576  -0.00994253  1
  O  O142  1  0.34959974  0.10968287  0.23993726  1
  O  O143  1  0.39567347  0.15064939  0.50624193  1
  O  O144  1  0.35503853  0.10283683  0.74874820  1
  O  O145  1  0.36636102  0.35033076  0.00160703  1
  O  O146  1  0.36973079  0.37163858  0.25055813  1
  O  O147  1  0.38843458  0.32930388  0.50388773  1
  O  O148  1  0.36020655  0.38591309  0.73686356  1
  O  O149  1  0.37671915  0.65096944  0.00749370  1
  O  O150  1  0.34444846  0.62614346  0.25077423  1
  O  O151  1  0.40033533  0.64269123  0.50852494  1
  O  O152  1  0.34382828  0.61224729  0.74463555  1
  O  O153  1  0.36966746  0.85281422  -0.00826540  1
  O  O154  1  0.35109944  0.88541514  0.24803433  1
  O  O155  1  0.40579758  0.86507017  0.49514126  1
  O  O156  1  0.34667743  0.89038419  0.75409040  1
  O  O157  1  0.62060595  0.15378187  0.00313507  1
  O  O158  1  0.63578114  0.09037426  0.24066513  1
  O  O159  1  0.58756655  0.17433149  0.49693450  1
  O  O160  1  0.65591546  0.09955278  0.74657069  1
  O  O161  1  0.64008605  0.34237517  -0.00381681  1
  O  O162  1  0.60283348  0.39204348  0.24004634  1
  O  O163  1  0.64065956  0.35549119  0.50005095  1
  O  O164  1  0.60380025  0.41381351  0.75497906  1
  O  O165  1  0.58619326  0.64234825  0.00331966  1
  O  O166  1  0.64833881  0.59334670  0.23474150  1
  O  O167  1  0.58394409  0.65259841  0.51861875  1
  O  O168  1  0.63737682  0.60050672  0.74361459  1
  O  O169  1  0.62609283  0.83172438  0.00776738  1
  O  O170  1  0.65165014  0.90029337  0.25734932  1
  O  O171  1  0.59436345  0.86363288  0.50252037  1
  O  O172  1  0.64392938  0.91730466  0.73730551  1
  O  O173  1  0.88600923  0.14932511  -0.00165194  1
  O  O174  1  0.85538056  0.11039765  0.24539245  1
  O  O175  1  0.88840907  0.14619278  0.49292513  1
  O  O176  1  0.83029313  0.10041913  0.74059140  1
  O  O177  1  0.87542634  0.36086593  0.00085540  1
  O  O178  1  0.88237431  0.40600666  0.26027085  1
  O  O179  1  0.84343311  0.33947722  0.49907909  1
  O  O180  1  0.87744553  0.41045719  0.73685030  1
  O  O181  1  0.89563400  0.62225009  0.01296851  1
  O  O182  1  0.83994165  0.60424452  0.25660699  1
  O  O183  1  0.88974570  0.66073710  0.50437224  1
  O  O184  1  0.84914058  0.60634681  0.74287158  1
  O  O185  1  0.90994120  0.86990149  0.00087677  1
  O  O186  1  0.86165357  0.90619149  0.24273323  1
  O  O187  1  0.89806559  0.86393039  0.50079188  1
  O  O188  1  0.83084639  0.89709769  0.75363732  1
  O  O189  1  0.00213731  0.10687079  0.13433868  1
  O  O190  1  -0.00034299  0.14141962  0.34837875  1
  O  O191  1  -0.02244614  0.11041360  0.64777040  1
  O  O192  1  -0.00977274  0.10541161  0.85290092  1
  O  O193  1  -0.01093267  0.40054302  0.12964350  1
  O  O194  1  -0.00672350  0.35742318  0.38333779  1
  O  O195  1  -0.01672234  0.38790322  0.59794990  1
  O  O196  1  0.00349838  0.40692865  0.87216821  1
  O  O197  1  0.00585762  0.61775704  0.16284305  1
  O  O198  1  0.00742283  0.65495568  0.34926773  1
  O  O199  1  -0.01313516  0.59633448  0.63543671  1
  O  O200  1  0.01361418  0.60369373  0.88913600  1
  O  O201  1  -0.00059194  0.90111192  0.14009966  1
  O  O202  1  0.00289383  0.84988977  0.33752207  1
  O  O203  1  -0.02435982  0.89845338  0.64944635  1
  O  O204  1  -0.00562069  0.89385898  0.84606348  1
  O  O205  1  0.24887765  0.12321572  0.09404583  1
  O  O206  1  0.24151544  0.10011405  0.39398214  1
  O  O207  1  0.25557103  0.13472698  0.59924816  1
  O  O208  1  0.23696927  0.13773248  0.87478537  1
  O  O209  1  0.24183957  0.36567714  0.13359850  1
  O  O210  1  0.24702249  0.38423452  0.37148556  1
  O  O211  1  0.26113257  0.33275809  0.61490915  1
  O  O212  1  0.23763036  0.35188198  0.88863771  1
  O  O213  1  0.24803307  0.65578762  0.11942310  1
  O  O214  1  0.24266994  0.61227086  0.42332893  1
  O  O215  1  0.25604881  0.64366940  0.60127389  1
  O  O216  1  0.24668742  0.66342587  0.88242898  1
  O  O217  1  0.25164437  0.86659905  0.10607040  1
  O  O218  1  0.24289816  0.90199577  0.39740511  1
  O  O219  1  0.24809832  0.86527737  0.60177553  1
  O  O220  1  0.23660129  0.84906543  0.87790335  1
  O  O221  1  0.49748569  0.09971191  0.13065607  1
  O  O222  1  0.50015231  0.13987173  0.34195988  1
  O  O223  1  0.50963636  0.10320760  0.64375399  1
  O  O224  1  0.50479122  0.08691391  0.84382176  1
  O  O225  1  0.50627762  0.37428794  0.09519552  1
  O  O226  1  0.50861549  0.33583761  0.38370340  1
  O  O227  1  0.49905640  0.38833696  0.62634384  1
  O  O228  1  0.51093506  0.38797457  0.89600606  1
  O  O229  1  0.49378209  0.61426008  0.15214401  1
  O  O230  1  0.50054960  0.65556808  0.34301069  1
  O  O231  1  0.48869582  0.59460642  0.65297942  1
  O  O232  1  0.49811882  0.58737775  0.85374916  1
  O  O233  1  0.49361290  0.89855640  0.12896243  1
  O  O234  1  0.49694985  0.83069170  0.34490641  1
  O  O235  1  0.51276078  0.91495474  0.64463041  1
  O  O236  1  0.49567388  0.89604635  0.88035990  1
  O  O237  1  0.74879581  0.13811968  0.11372144  1
  O  O238  1  0.75758301  0.14741463  0.38683205  1
  O  O239  1  0.74456634  0.16411696  0.59307469  1
  O  O240  1  0.75113410  0.15366076  0.88618928  1
  O  O241  1  0.74786322  0.36135251  0.13850468  1
  O  O242  1  0.74630636  0.37450391  0.35664539  1
  O  O243  1  0.74036390  0.37647899  0.64318038  1
  O  O244  1  0.74906462  0.37267363  0.84674298  1
  O  O245  1  0.73488343  0.66087117  0.09096133  1
  O  O246  1  0.75090559  0.62381617  0.40711476  1
  O  O247  1  0.74115884  0.64667221  0.60272514  1
  O  O248  1  0.73917363  0.66468939  0.90852869  1
  O  O249  1  0.76164908  0.86934651  0.10187216  1
  O  O250  1  0.74759258  0.91736297  0.41175925  1
  O  O251  1  0.73922289  0.86753430  0.60113424  1
  O  O252  1  0.76343222  0.84526642  0.91094996  1
  O  O253  1  0.13292050  0.00329317  0.10254861  1
  O  O254  1  0.09308332  0.00290899  0.38761367  1
  O  O255  1  0.13643375  -0.00187254  0.61500142  1
  O  O256  1  0.13259201  -0.00130133  0.87360237  1
  O  O257  1  0.10348065  0.24817172  0.12886491  1
  O  O258  1  0.12920920  0.24839386  0.35082791  1
  O  O259  1  0.09090026  0.25050762  0.63078834  1
  O  O260  1  0.09064029  0.25323834  0.87181565  1
  O  O261  1  0.12592979  0.50300271  0.13248960  1
  O  O262  1  0.10585988  0.49768266  0.38753737  1
  O  O263  1  0.14195545  0.49984783  0.58909522  1
  O  O264  1  0.15839717  0.50260066  0.88656884  1
  O  O265  1  0.11058238  0.74589705  0.17031402  1
  O  O266  1  0.14817758  0.75642573  0.38180431  1
  O  O267  1  0.10240745  0.75743461  0.63019958  1
  O  O268  1  0.09224139  0.75100559  0.86263219  1
  O  O269  1  0.36427418  -0.00352153  0.09922499  1
  O  O270  1  0.39114328  -0.00883305  0.36866414  1
  O  O271  1  0.36418446  0.00409085  0.60788739  1
  O  O272  1  0.34542596  -0.00154141  0.88235802  1
  O  O273  1  0.37697676  0.23975190  0.14175245  1
  O  O274  1  0.35667453  0.24328578  0.36410154  1
  O  O275  1  0.39549981  0.23847872  0.66093984  1
  O  O276  1  0.38011981  0.23329512  0.85970293  1
  O  O277  1  0.35755436  0.50580894  0.12867958  1
  O  O278  1  0.39187606  0.50221530  0.36247148  1
  O  O279  1  0.34914503  0.49054676  0.58481790  1
  O  O280  1  0.34188781  0.50406945  0.88125053  1
  O  O281  1  0.39501453  0.75413802  0.15443822  1
  O  O282  1  0.33951405  0.75549098  0.37286294  1
  O  O283  1  0.39889681  0.74972534  0.66290523  1
  O  O284  1  0.39541365  0.75415161  0.84056505  1
  O  O285  1  0.63559759  -0.00523711  0.08800663  1
  O  O286  1  0.59231136  -0.00052674  0.38858579  1
  O  O287  1  0.64068043  0.02424944  0.57201981  1
  O  O288  1  0.66356956  -0.01087740  0.89290402  1
  O  O289  1  0.61439884  0.24302693  0.14940933  1
  O  O290  1  0.63382854  0.25100197  0.33385740  1
  O  O291  1  0.60997458  0.26026052  0.65643314  1
  O  O292  1  0.61522770  0.25902267  0.84218616  1
  O  O293  1  0.63243295  0.49786474  0.09367297  1
  O  O294  1  0.60388615  0.48642437  0.39278140  1
  O  O295  1  0.62880378  0.50425540  0.59734134  1
  O  O296  1  0.63964785  0.50010592  0.90584238  1
  O  O297  1  0.59744601  0.74285025  0.16941668  1
  O  O298  1  0.65798950  0.76765049  0.37997773  1
  O  O299  1  0.59592678  0.75129836  0.66602400  1
  O  O300  1  0.58144888  0.75105217  0.84913163  1
  O  O301  1  0.86964319  0.01013617  0.10158920  1
  O  O302  1  0.90407610  0.00436927  0.38709295  1
  O  O303  1  0.84554037  0.00331264  0.59133307  1
  O  O304  1  0.84894718  0.00254303  0.88646258  1
  O  O305  1  0.88875640  0.25301291  0.14175150  1
  O  O306  1  0.87439885  0.25299173  0.34690806  1
  O  O307  1  0.88281347  0.25296395  0.64612427  1
  O  O308  1  0.88881985  0.24088154  0.84626108  1
  O  O309  1  0.84437281  0.49857750  0.11711104  1
  O  O310  1  0.87415735  0.49298361  0.41246815  1
  O  O311  1  0.84215043  0.51129487  0.59393042  1
  O  O312  1  0.87207452  0.49976189  0.89062705  1
  O  O313  1  0.90152100  0.75503503  0.16113088  1
  O  O314  1  0.84225886  0.75340599  0.36346237  1
  O  O315  1  0.87285333  0.75470513  0.65644498  1
  O  O316  1  0.90119961  0.75902230  0.85428434  1
