# generated using pymatgen
data_Mg32Ti42(Bi17O64)3
_symmetry_space_group_name_H-M   'P 1'
_cell_length_a   15.94548106
_cell_length_b   15.98268145
_cell_length_c   15.93151663
_cell_angle_alpha   89.83560893
_cell_angle_beta   89.97992205
_cell_angle_gamma   89.98857143
_symmetry_Int_Tables_number   1
_chemical_formula_structural   Mg32Ti42(Bi17O64)3
_chemical_formula_sum   'Mg32 Ti42 Bi51 O192'
_cell_volume   4060.15457714
_cell_formula_units_Z   1
loop_
 _symmetry_equiv_pos_site_id
 _symmetry_equiv_pos_as_xyz
  1  'x, y, z'
loop_
 _atom_site_type_symbol
 _atom_site_label
 _atom_site_symmetry_multiplicity
 _atom_site_fract_x
 _atom_site_fract_y
 _atom_site_fract_z
 _atom_site_occupancy
  Mg  Mg0  1  0.63108246  0.63271565  0.61949656  1
  Mg  Mg1  1  0.87098373  0.86193294  0.62168382  1
  Mg  Mg2  1  0.63461726  0.87808261  0.37017902  1
  Mg  Mg3  1  0.87768274  0.87964192  0.11813519  1
  Mg  Mg4  1  0.62436407  0.87877292  0.12812223  1
  Mg  Mg5  1  0.87405957  0.61806316  0.13223083  1
  Mg  Mg6  1  0.61767936  0.61965491  0.13556926  1
  Mg  Mg7  1  0.62425692  0.38001043  0.61086663  1
  Mg  Mg8  1  0.88037341  0.37609168  0.63507671  1
  Mg  Mg9  1  0.61917936  0.38084579  0.87599513  1
  Mg  Mg10  1  0.36771056  0.12463478  0.11792011  1
  Mg  Mg11  1  0.87769787  0.12499836  0.11857750  1
  Mg  Mg12  1  0.36591436  0.64019887  0.63512082  1
  Mg  Mg13  1  0.62298041  0.37314266  0.14173150  1
  Mg  Mg14  1  0.13062346  0.87649654  0.12196517  1
  Mg  Mg15  1  0.13347612  0.62725596  0.36503475  1
  Mg  Mg16  1  0.63488670  0.87885209  0.86930892  1
  Mg  Mg17  1  0.37185825  0.37720374  0.62525483  1
  Mg  Mg18  1  0.37961717  0.12056967  0.86741302  1
  Mg  Mg19  1  0.47970452  0.55354932  0.26728489  1
  Mg  Mg20  1  0.48708027  0.58609787  0.51886146  1
  Mg  Mg21  1  0.56731343  0.77407278  0.49401146  1
  Mg  Mg22  1  0.77611066  0.56318220  0.31353709  1
  Mg  Mg23  1  0.75254390  -0.06766232  0.49716859  1
  Mg  Mg24  1  0.80439043  0.69912610  0.48063953  1
  Mg  Mg25  1  -0.03697116  0.26449392  0.76284807  1
  Mg  Mg26  1  0.25630160  0.21792732  0.28593115  1
  Mg  Mg27  1  -0.05523071  0.71165265  0.28518457  1
  Mg  Mg28  1  0.74203282  0.72018803  0.80508059  1
  Mg  Mg29  1  0.50438316  0.00614743  -0.05959373  1
  Mg  Mg30  1  0.26191175  0.20427682  -0.02847674  1
  Mg  Mg31  1  0.29965683  -0.01679146  0.76240725  1
  Ti  Ti32  1  0.86185449  0.63460748  0.63776708  1
  Ti  Ti33  1  0.36983651  0.64178629  0.39091504  1
  Ti  Ti34  1  0.88074724  0.61759988  0.87017631  1
  Ti  Ti35  1  0.12630393  0.36378174  0.63451605  1
  Ti  Ti36  1  0.86467351  0.37537963  0.87843506  1
  Ti  Ti37  1  0.62032558  0.61484941  0.88289949  1
  Ti  Ti38  1  0.62130360  0.62830841  0.38296997  1
  Ti  Ti39  1  0.87864777  0.37041664  0.11632749  1
  Ti  Ti40  1  0.86992984  0.86414155  0.86651521  1
  Ti  Ti41  1  0.12869444  0.38083510  0.87481109  1
  Ti  Ti42  1  0.62494626  0.12936696  0.11699290  1
  Ti  Ti43  1  0.63144382  0.13056977  0.37040214  1
  Ti  Ti44  1  0.37264326  0.63032392  0.12505924  1
  Ti  Ti45  1  0.12556183  0.62379486  0.13373650  1
  Ti  Ti46  1  0.38154281  0.63373228  0.87466058  1
  Ti  Ti47  1  0.38343188  0.88125750  0.12272330  1
  Ti  Ti48  1  0.37702358  0.12620273  0.37979340  1
  Ti  Ti49  1  0.11773951  0.87718240  0.88528009  1
  Ti  Ti50  1  0.12110047  0.12053306  0.87340046  1
  Ti  Ti51  1  0.13399120  0.11325206  0.37529758  1
  Ti  Ti52  1  0.37500414  0.36709951  0.37245562  1
  Ti  Ti53  1  0.63473487  0.12133715  0.61683343  1
  Ti  Ti54  1  0.13412225  0.12566344  0.11303644  1
  Ti  Ti55  1  0.87988796  0.87634694  0.38330357  1
  Ti  Ti56  1  0.12301376  0.63084231  0.87759015  1
  Ti  Ti57  1  0.12512114  0.12099406  0.63887157  1
  Ti  Ti58  1  0.12025576  0.87838993  0.36220553  1
  Ti  Ti59  1  0.38102520  0.12462675  0.63239477  1
  Ti  Ti60  1  0.63049574  0.11899941  0.86600789  1
  Ti  Ti61  1  0.64361919  0.38749567  0.37290186  1
  Ti  Ti62  1  0.89124474  0.11667758  0.37411605  1
  Ti  Ti63  1  0.38810556  0.87124549  0.88115006  1
  Ti  Ti64  1  0.12859885  0.36314610  0.11890713  1
  Ti  Ti65  1  0.37573007  0.38083387  0.87590755  1
  Ti  Ti66  1  0.36252332  0.37182970  0.12707169  1
  Ti  Ti67  1  0.63667425  0.87779812  0.62443214  1
  Ti  Ti68  1  0.87336463  0.13232440  0.87975062  1
  Ti  Ti69  1  0.37316396  0.87524555  0.60670289  1
  Ti  Ti70  1  0.13902850  0.36497143  0.37095847  1
  Ti  Ti71  1  0.38276958  0.87724910  0.37373795  1
  Ti  Ti72  1  0.88167649  0.12693313  0.62859148  1
  Ti  Ti73  1  0.87460853  0.36977057  0.35706399  1
  Bi  Bi74  1  0.73936037  0.49652216  0.71420686  1
  Bi  Bi75  1  0.53700072  0.73894650  0.74545739  1
  Bi  Bi76  1  0.24444483  0.79028580  0.73066572  1
  Bi  Bi77  1  0.52876594  0.26930092  0.73986721  1
  Bi  Bi78  1  0.77193940  0.76487731  0.22701665  1
  Bi  Bi79  1  0.50017574  0.50348679  0.72188878  1
  Bi  Bi80  1  0.27159076  0.51017037  0.26635294  1
  Bi  Bi81  1  0.74634276  0.49876222  0.03364253  1
  Bi  Bi82  1  0.27406497  0.50842469  -0.00041934  1
  Bi  Bi83  1  0.52571184  0.75785064  0.25053164  1
  Bi  Bi84  1  0.76520590  0.71982717  0.00629928  1
  Bi  Bi85  1  0.01638060  0.52989765  0.72060728  1
  Bi  Bi86  1  0.00544406  -0.01073888  0.22158722  1
  Bi  Bi87  1  0.26904409  0.26064382  0.51158873  1
  Bi  Bi88  1  0.51710638  0.26900698  0.47754887  1
  Bi  Bi89  1  0.00377255  0.49346900  -0.00725289  1
  Bi  Bi90  1  0.26961541  0.51646092  0.74222446  1
  Bi  Bi91  1  0.77224888  0.00283030  0.74768309  1
  Bi  Bi92  1  0.78711513  0.48447618  0.49503402  1
  Bi  Bi93  1  0.73959896  0.25733532  0.74927787  1
  Bi  Bi94  1  0.51008047  0.48840149  0.03748191  1
  Bi  Bi95  1  0.26513618  -0.00980517  -0.02064740  1
  Bi  Bi96  1  0.22407570  0.52944698  0.52059999  1
  Bi  Bi97  1  0.76930083  0.00282827  0.24142789  1
  Bi  Bi98  1  0.01228849  0.48301442  0.47419990  1
  Bi  Bi99  1  0.02385245  0.47534552  0.24770946  1
  Bi  Bi100  1  0.76535845  0.23781073  0.22840613  1
  Bi  Bi101  1  0.00205437  0.73096319  0.03101987  1
  Bi  Bi102  1  0.77266777  0.22837530  0.48525792  1
  Bi  Bi103  1  0.23988894  0.77110161  0.25848612  1
  Bi  Bi104  1  0.01708321  0.22193478  0.24202893  1
  Bi  Bi105  1  0.25420659  -0.00413011  0.23954615  1
  Bi  Bi106  1  0.26249864  0.25862036  0.76069484  1
  Bi  Bi107  1  0.51349976  -0.00618679  0.47999322  1
  Bi  Bi108  1  0.02901567  -0.04756515  0.52587281  1
  Bi  Bi109  1  0.52349689  0.00303257  0.24029611  1
  Bi  Bi110  1  0.47717684  0.22602000  -0.00316308  1
  Bi  Bi111  1  0.54029126  0.77080427  0.00227572  1
  Bi  Bi112  1  0.47119173  0.25001096  0.22952453  1
  Bi  Bi113  1  0.01341563  0.25416989  -0.02764186  1
  Bi  Bi114  1  0.25758002  0.01458558  0.52003855  1
  Bi  Bi115  1  0.03370266  0.76101734  0.70996061  1
  Bi  Bi116  1  0.00085124  0.25582454  0.53054402  1
  Bi  Bi117  1  -0.01682240  -0.01071889  -0.01145702  1
  Bi  Bi118  1  0.50509252  -0.01676358  0.71697481  1
  Bi  Bi119  1  0.21551808  0.75748261  0.50933096  1
  Bi  Bi120  1  0.23925947  0.75126765  0.00204504  1
  Bi  Bi121  1  0.73051020  -0.01810219  0.01053174  1
  Bi  Bi122  1  -0.00695503  0.70262432  0.48351943  1
  Bi  Bi123  1  -0.00024349  -0.02014649  0.74901769  1
  Bi  Bi124  1  0.71677762  0.27297314  0.00206680  1
  O  O125  1  0.09506787  0.10961178  0.00165167  1
  O  O126  1  0.14648995  0.15623625  0.24061041  1
  O  O127  1  0.13560379  0.09895572  0.48861300  1
  O  O128  1  0.12245460  0.13820172  0.75280939  1
  O  O129  1  0.09428417  0.38378181  0.00058393  1
  O  O130  1  0.12649946  0.37568137  0.24520911  1
  O  O131  1  0.09778247  0.37308421  0.48774693  1
  O  O132  1  0.14626596  0.36359774  0.75103601  1
  O  O133  1  0.07882064  0.61869671  0.00079035  1
  O  O134  1  0.15669653  0.63552326  0.24135834  1
  O  O135  1  0.13418925  0.63424095  0.49497568  1
  O  O136  1  0.12868381  0.62805978  0.76480599  1
  O  O137  1  0.16257276  0.88714311  -0.00163157  1
  O  O138  1  0.11865334  0.84845009  0.24770381  1
  O  O139  1  0.14869323  0.88974754  0.48581937  1
  O  O140  1  0.11405057  0.86478761  0.76826171  1
  O  O141  1  0.37685325  0.13725499  -0.00804131  1
  O  O142  1  0.37285142  0.14645306  0.25106554  1
  O  O143  1  0.34801806  0.13330235  0.50257668  1
  O  O144  1  0.36420371  0.09449609  0.74615883  1
  O  O145  1  0.38039620  0.39498642  -0.00309551  1
  O  O146  1  0.35101515  0.33106842  0.24286470  1
  O  O147  1  0.38236153  0.35628207  0.49429651  1
  O  O148  1  0.33809198  0.36991973  0.75525040  1
  O  O149  1  0.38278136  0.60170055  -0.00011072  1
  O  O150  1  0.36259887  0.62090205  0.24977647  1
  O  O151  1  0.36946459  0.62324591  0.50702888  1
  O  O152  1  0.33938621  0.63521747  0.76477294  1
  O  O153  1  0.34612236  0.87372161  0.00769028  1
  O  O154  1  0.41059716  0.87471019  0.25824319  1
  O  O155  1  0.33727333  0.87514484  0.49825246  1
  O  O156  1  0.39761531  0.88933955  0.76545194  1
  O  O157  1  0.64762619  0.13527582  0.00221187  1
  O  O158  1  0.60099394  0.12651922  0.25387569  1
  O  O159  1  0.62910147  0.11620775  0.50101571  1
  O  O160  1  0.61719663  0.10416142  0.75125444  1
  O  O161  1  0.60740542  0.35608028  -0.00010694  1
  O  O162  1  0.64099720  0.36448792  0.26411800  1
  O  O163  1  0.59590758  0.37983136  0.48837582  1
  O  O164  1  0.64468416  0.36186326  0.74931300  1
  O  O165  1  0.59492184  0.62979102  -0.00382277  1
  O  O166  1  0.59405172  0.62302356  0.26276807  1
  O  O167  1  0.59126982  0.64644533  0.49958891  1
  O  O168  1  0.64309992  0.65120021  0.75126186  1
  O  O169  1  0.65510898  0.86371799  0.00207261  1
  O  O170  1  0.59515502  0.88068507  0.25140354  1
  O  O171  1  0.63801707  0.88288001  0.50001056  1
  O  O172  1  0.60292165  0.88558664  0.74335690  1
  O  O173  1  0.87631103  0.09912289  -0.00824774  1
  O  O174  1  0.88052904  0.15816612  0.25798313  1
  O  O175  1  0.86591503  0.11266317  0.49031550  1
  O  O176  1  0.88540285  0.16301736  0.73887266  1
  O  O177  1  0.90510450  0.37158261  -0.00226006  1
  O  O178  1  0.85391484  0.35664762  0.24648973  1
  O  O179  1  0.90102213  0.40210492  0.50795116  1
  O  O180  1  0.85851928  0.34764647  0.76051278  1
  O  O181  1  0.88349338  0.63674726  -0.00519091  1
  O  O182  1  0.84271785  0.64729168  0.25049109  1
  O  O183  1  0.88897836  0.60800320  0.51110204  1
  O  O184  1  0.83687307  0.64431425  0.75703627  1
  O  O185  1  0.85567264  0.90816424  -0.01406632  1
  O  O186  1  0.88833900  0.83137144  0.25671137  1
  O  O187  1  0.87231296  0.90613345  0.49669607  1
  O  O188  1  0.91438691  0.86270472  0.75241939  1
  O  O189  1  0.00558869  0.11481056  0.15254642  1
  O  O190  1  0.01040997  0.13542900  0.36161085  1
  O  O191  1  -0.00101054  0.14086439  0.60912432  1
  O  O192  1  -0.00381458  0.15400347  0.86737459  1
  O  O193  1  -0.00604184  0.37745981  0.14689558  1
  O  O194  1  -0.00589020  0.37832959  0.35466660  1
  O  O195  1  0.00196596  0.32802879  0.65082986  1
  O  O196  1  0.00419697  0.33916163  0.85860874  1
  O  O197  1  0.00021323  0.65521797  0.15010591  1
  O  O198  1  0.00924160  0.64304068  0.36505595  1
  O  O199  1  -0.01385267  0.63937322  0.64518733  1
  O  O200  1  -0.01067607  0.63980189  0.85281602  1
  O  O201  1  0.00401508  0.90072508  0.10309769  1
  O  O202  1  0.00716506  0.87928808  0.38569857  1
  O  O203  1  -0.00315509  0.84451299  0.60230188  1
  O  O204  1  -0.00034462  0.86949975  0.90687625  1
  O  O205  1  0.24328041  0.14291929  0.08542596  1
  O  O206  1  0.25311138  0.10436782  0.36105482  1
  O  O207  1  0.23990421  0.10113106  0.62784122  1
  O  O208  1  0.23850653  0.10849364  0.88580802  1
  O  O209  1  0.24016749  0.36176569  0.10327417  1
  O  O210  1  0.24934036  0.39258906  0.38291823  1
  O  O211  1  0.23761818  0.38399852  0.60178726  1
  O  O212  1  0.23909613  0.39377925  0.89284993  1
  O  O213  1  0.24476066  0.62619783  0.09302044  1
  O  O214  1  0.26160397  0.59364241  0.38261872  1
  O  O215  1  0.24513826  0.59843833  0.62985707  1
  O  O216  1  0.23654016  0.62015310  0.90929153  1
  O  O217  1  0.26030125  0.87252511  0.15982505  1
  O  O218  1  0.25868631  0.89078207  0.33892439  1
  O  O219  1  0.26823473  0.90984294  0.66316112  1
  O  O220  1  0.25226495  0.91052274  0.86098532  1
  O  O221  1  0.50508926  0.14245722  0.10956966  1
  O  O222  1  0.49166984  0.13929384  0.39325154  1
  O  O223  1  0.49296812  0.14489616  0.62819141  1
  O  O224  1  0.51019449  0.12386567  0.88968014  1
  O  O225  1  0.48578394  0.39225105  0.13897593  1
  O  O226  1  0.48792920  0.33451729  0.35867064  1
  O  O227  1  0.49719028  0.36879885  0.65379328  1
  O  O228  1  0.48771714  0.35934469  0.85092599  1
  O  O229  1  0.48451296  0.58816468  0.13907601  1
  O  O230  1  0.48233686  0.60358499  0.38590630  1
  O  O231  1  0.49406627  0.62761165  0.64579880  1
  O  O232  1  0.49389476  0.63693310  0.84900701  1
  O  O233  1  0.49639404  0.87512357  0.09894752  1
  O  O234  1  0.49131600  0.86502307  0.42183377  1
  O  O235  1  0.49204918  0.88003884  0.61333859  1
  O  O236  1  0.50158191  0.88007460  0.90855957  1
  O  O237  1  0.74881667  0.11215327  0.15044331  1
  O  O238  1  0.74741389  0.12458812  0.36049673  1
  O  O239  1  0.75057737  0.11261816  0.63401181  1
  O  O240  1  0.75671167  0.10793310  0.85232730  1
  O  O241  1  0.75299563  0.37716911  0.09912780  1
  O  O242  1  0.75523075  0.36413104  0.41001518  1
  O  O243  1  0.75339590  0.40269410  0.61360171  1
  O  O244  1  0.75404191  0.38542627  0.89897654  1
  O  O245  1  0.74408239  0.62230227  0.10388930  1
  O  O246  1  0.73444711  0.64306080  0.39879440  1
  O  O247  1  0.75126143  0.59333237  0.61003588  1
  O  O248  1  0.74148398  0.62403559  0.89577608  1
  O  O249  1  0.75088053  0.89741395  0.14580141  1
  O  O250  1  0.76034954  0.89250567  0.37344793  1
  O  O251  1  0.74941614  0.90239204  0.62546060  1
  O  O252  1  0.75907699  0.88213693  0.83302240  1
  O  O253  1  0.14128411  0.00745313  0.14830091  1
  O  O254  1  0.12415933  0.00029758  0.33793191  1
  O  O255  1  0.09658781  0.00680045  0.63503813  1
  O  O256  1  0.09469362  0.00196055  0.87288901  1
  O  O257  1  0.10139134  0.25090079  0.11085996  1
  O  O258  1  0.15440740  0.24918068  0.37386566  1
  O  O259  1  0.13486415  0.24437063  0.59925099  1
  O  O260  1  0.14390300  0.24502102  0.90676427  1
  O  O261  1  0.11060146  0.50440653  0.13006269  1
  O  O262  1  0.11298816  0.49544498  0.36223085  1
  O  O263  1  0.08851576  0.47891515  0.61204253  1
  O  O264  1  0.09679405  0.49746219  0.87990600  1
  O  O265  1  0.13022151  0.74802443  0.09515878  1
  O  O266  1  0.15549332  0.75896211  0.37973638  1
  O  O267  1  0.15236431  0.76193800  0.63446004  1
  O  O268  1  0.13259823  0.75231105  0.90125116  1
  O  O269  1  0.37025008  -0.00226707  0.13449320  1
  O  O270  1  0.39378522  0.00116469  0.38621010  1
  O  O271  1  0.38785770  0.00599678  0.60181448  1
  O  O272  1  0.38682868  -0.00398059  0.89726322  1
  O  O273  1  0.38943160  0.25659588  0.10633446  1
  O  O274  1  0.34095238  0.24413790  0.37987536  1
  O  O275  1  0.34193856  0.24343679  0.63692924  1
  O  O276  1  0.34430251  0.25409414  0.87799559  1
  O  O277  1  0.34055672  0.49256954  0.13562317  1
  O  O278  1  0.39168932  0.47370746  0.32560278  1
  O  O279  1  0.37999243  0.50157365  0.65089510  1
  O  O280  1  0.36686203  0.50276716  0.86273625  1
  O  O281  1  0.38104471  0.74294749  0.12265649  1
  O  O282  1  0.35862868  0.75360792  0.37555038  1
  O  O283  1  0.34759199  0.76423156  0.63453619  1
  O  O284  1  0.36737611  0.75228983  0.88916124  1
  O  O285  1  0.61467106  0.00734687  0.12781949  1
  O  O286  1  0.59874122  0.00393434  0.36736189  1
  O  O287  1  0.60406073  0.00156448  0.61872587  1
  O  O288  1  0.62648267  0.00103420  0.90332817  1
  O  O289  1  0.64660629  0.24679262  0.13081731  1
  O  O290  1  0.62834797  0.24522165  0.39209075  1
  O  O291  1  0.63535883  0.24293686  0.63555289  1
  O  O292  1  0.64515670  0.24053316  0.86064733  1
  O  O293  1  0.62881311  0.49554822  0.11047167  1
  O  O294  1  0.65715755  0.50517592  0.37020299  1
  O  O295  1  0.61262835  0.50429218  0.64189130  1
  O  O296  1  0.61000853  0.50471302  0.86924575  1
  O  O297  1  0.60981134  0.74846500  0.13539517  1
  O  O298  1  0.60529300  0.75151573  0.36897385  1
  O  O299  1  0.61809693  0.76332776  0.61908044  1
  O  O300  1  0.62406098  0.75336038  0.87049050  1
  O  O301  1  0.87992457  0.00157024  0.15771828  1
  O  O302  1  0.88950907  0.00400189  0.34064027  1
  O  O303  1  0.88953614  0.00840262  0.65545700  1
  O  O304  1  0.88953555  0.00645165  0.83986569  1
  O  O305  1  0.85638240  0.25016352  0.11657995  1
  O  O306  1  0.87605431  0.25181173  0.39830764  1
  O  O307  1  0.86250863  0.24834855  0.59143719  1
  O  O308  1  0.85724308  0.24692889  0.89315799  1
  O  O309  1  0.86861911  0.49389425  0.11336651  1
  O  O310  1  0.85829663  0.48731174  0.36322693  1
  O  O311  1  0.88684973  0.50415512  0.66609209  1
  O  O312  1  0.89167553  0.49847530  0.87703432  1
  O  O313  1  0.85311876  0.75620924  0.11058389  1
  O  O314  1  0.88448143  0.75829019  0.40460386  1
  O  O315  1  0.83975494  0.74098112  0.59714225  1
  O  O316  1  0.84886499  0.75312799  0.88104495  1
