# generated using pymatgen
data_Mg32Ti42(Bi17O64)3
_symmetry_space_group_name_H-M   'P 1'
_cell_length_a   15.95337133
_cell_length_b   15.90323978
_cell_length_c   15.93341499
_cell_angle_alpha   89.99010540
_cell_angle_beta   90.13186649
_cell_angle_gamma   89.84140408
_symmetry_Int_Tables_number   1
_chemical_formula_structural   Mg32Ti42(Bi17O64)3
_chemical_formula_sum   'Mg32 Ti42 Bi51 O192'
_cell_volume   4042.44507438
_cell_formula_units_Z   1
loop_
 _symmetry_equiv_pos_site_id
 _symmetry_equiv_pos_as_xyz
  1  'x, y, z'
loop_
 _atom_site_type_symbol
 _atom_site_label
 _atom_site_symmetry_multiplicity
 _atom_site_fract_x
 _atom_site_fract_y
 _atom_site_fract_z
 _atom_site_occupancy
  Mg  Mg0  1  0.11651724  0.12547579  0.63419108  1
  Mg  Mg1  1  0.88231732  0.36784895  0.87569090  1
  Mg  Mg2  1  0.87869828  0.61534291  0.61932770  1
  Mg  Mg3  1  0.63946075  0.12314448  0.36905003  1
  Mg  Mg4  1  0.87200016  0.38611366  0.12070973  1
  Mg  Mg5  1  0.38146216  0.88282627  0.87272886  1
  Mg  Mg6  1  0.36249625  0.87691983  0.12122970  1
  Mg  Mg7  1  0.62447505  0.62078785  0.12908348  1
  Mg  Mg8  1  0.38670975  0.88718091  0.37857161  1
  Mg  Mg9  1  0.12352028  0.62218451  0.88065967  1
  Mg  Mg10  1  0.62571138  0.12480267  0.87552047  1
  Mg  Mg11  1  0.36312940  0.12815620  0.11720843  1
  Mg  Mg12  1  0.63293339  0.86447675  0.87544454  1
  Mg  Mg13  1  0.86937650  0.13084884  0.12307418  1
  Mg  Mg14  1  0.38350784  0.61904452  0.86854886  1
  Mg  Mg15  1  0.87743849  0.63532205  0.12300542  1
  Mg  Mg16  1  0.37915062  0.62197352  0.12965362  1
  Mg  Mg17  1  0.11725629  0.37658439  0.62534344  1
  Mg  Mg18  1  0.38627370  0.88542925  0.62835131  1
  Mg  Mg19  1  -0.02482290  0.24927404  0.05602891  1
  Mg  Mg20  1  0.69830356  -0.05342461  0.02490999  1
  Mg  Mg21  1  0.52108074  -0.00826382  0.77100098  1
  Mg  Mg22  1  0.00520121  0.22281334  0.51920541  1
  Mg  Mg23  1  0.02411577  0.76660040  0.81673254  1
  Mg  Mg24  1  0.55073629  0.00544713  0.46877421  1
  Mg  Mg25  1  -0.03637983  0.49190042  0.24473843  1
  Mg  Mg26  1  0.09527609  0.76392871  -0.00616413  1
  Mg  Mg27  1  0.78684089  0.72926011  0.26661260  1
  Mg  Mg28  1  0.70620984  0.77637549  0.09959373  1
  Mg  Mg29  1  0.20106437  0.49938586  0.53706826  1
  Mg  Mg30  1  0.79577975  0.27923863  0.00091784  1
  Mg  Mg31  1  -0.01860417  0.45205944  0.00124553  1
  Ti  Ti32  1  0.11833088  0.13453264  0.88068013  1
  Ti  Ti33  1  0.87634839  0.87240725  0.37653884  1
  Ti  Ti34  1  0.12968701  0.38383989  0.37545168  1
  Ti  Ti35  1  0.87089462  0.86579213  0.88585298  1
  Ti  Ti36  1  0.36996828  0.37136072  0.37720513  1
  Ti  Ti37  1  0.61798910  0.62913638  0.86955640  1
  Ti  Ti38  1  0.12070716  0.86867705  0.37364421  1
  Ti  Ti39  1  0.87188456  0.11699420  0.37512288  1
  Ti  Ti40  1  0.62381592  0.36092623  0.37326529  1
  Ti  Ti41  1  0.12228142  0.12156460  0.12527381  1
  Ti  Ti42  1  0.62828812  0.10817286  0.62380806  1
  Ti  Ti43  1  0.87888818  0.62054046  0.38296994  1
  Ti  Ti44  1  0.12023199  0.10978248  0.36900885  1
  Ti  Ti45  1  0.36705738  0.12539150  0.62374025  1
  Ti  Ti46  1  0.36318350  0.37963744  0.61698306  1
  Ti  Ti47  1  0.12934509  0.86777338  0.62524987  1
  Ti  Ti48  1  0.37803917  0.37145231  0.88393093  1
  Ti  Ti49  1  0.88798672  0.63183440  0.89310594  1
  Ti  Ti50  1  0.11154819  0.38807392  0.13201533  1
  Ti  Ti51  1  0.87757095  0.12343933  0.63497975  1
  Ti  Ti52  1  0.88150254  0.13265414  0.89049512  1
  Ti  Ti53  1  0.63365751  0.12266689  0.11936461  1
  Ti  Ti54  1  0.62586338  0.87751068  0.63911768  1
  Ti  Ti55  1  0.63334823  0.37035128  0.11916592  1
  Ti  Ti56  1  0.12548232  0.86619161  0.13951721  1
  Ti  Ti57  1  0.37109420  0.62254802  0.62182744  1
  Ti  Ti58  1  0.63962928  0.87287856  0.36725254  1
  Ti  Ti59  1  0.37704169  0.13201259  0.87491115  1
  Ti  Ti60  1  0.88001140  0.86736486  0.12809657  1
  Ti  Ti61  1  0.12956431  0.62115944  0.38548595  1
  Ti  Ti62  1  0.38206300  0.61397147  0.38285347  1
  Ti  Ti63  1  0.36715554  0.37380865  0.12876954  1
  Ti  Ti64  1  0.36801629  0.11961312  0.38136148  1
  Ti  Ti65  1  0.61959297  0.61901029  0.62271442  1
  Ti  Ti66  1  0.63078036  0.35534030  0.62792654  1
  Ti  Ti67  1  0.12138334  0.37857759  0.87808511  1
  Ti  Ti68  1  0.11714436  0.62497468  0.62876071  1
  Ti  Ti69  1  0.11589620  0.62164354  0.11763796  1
  Ti  Ti70  1  0.61530903  0.36448158  0.88217656  1
  Ti  Ti71  1  0.63152259  0.62034653  0.37649241  1
  Ti  Ti72  1  0.87600209  0.36978736  0.63739046  1
  Ti  Ti73  1  0.86876261  0.87537535  0.63712806  1
  Bi  Bi74  1  0.73474770  0.52267605  -0.00571283  1
  Bi  Bi75  1  0.50639648  0.47420120  0.48941553  1
  Bi  Bi76  1  0.51877444  0.77505809  0.48778899  1
  Bi  Bi77  1  0.24793743  0.25258006  0.76552276  1
  Bi  Bi78  1  0.25520635  0.50944484  -0.00438643  1
  Bi  Bi79  1  0.23861739  0.52344628  0.75433101  1
  Bi  Bi80  1  0.00991287  0.25487585  0.27841982  1
  Bi  Bi81  1  -0.00989534  -0.03142409  0.00334710  1
  Bi  Bi82  1  0.21679512  0.25298301  0.01156343  1
  Bi  Bi83  1  0.79409091  0.25718794  0.49147053  1
  Bi  Bi84  1  0.49688575  0.23733765  0.02735457  1
  Bi  Bi85  1  0.02211985  -0.02916614  0.77337645  1
  Bi  Bi86  1  0.29644773  0.72993031  0.00403676  1
  Bi  Bi87  1  0.25447396  0.00102333  0.76715385  1
  Bi  Bi88  1  0.51813603  0.00844672  -0.01791074  1
  Bi  Bi89  1  0.24167595  0.51663625  0.24637408  1
  Bi  Bi90  1  0.76090596  -0.01230269  0.51327819  1
  Bi  Bi91  1  0.74690056  0.49204524  0.51407405  1
  Bi  Bi92  1  0.27454819  0.74085918  0.26000127  1
  Bi  Bi93  1  0.01573388  0.26436857  0.75224065  1
  Bi  Bi94  1  0.50334941  0.21667802  0.48712754  1
  Bi  Bi95  1  0.74673762  0.73687378  0.52193423  1
  Bi  Bi96  1  0.25721911  0.23356700  0.25538072  1
  Bi  Bi97  1  -0.02698741  0.45306463  0.47217542  1
  Bi  Bi98  1  0.00495241  0.74466970  0.51409428  1
  Bi  Bi99  1  0.50864088  0.48190464  0.24262461  1
  Bi  Bi100  1  0.74730823  0.50432657  0.76887312  1
  Bi  Bi101  1  0.00730499  0.72451759  0.25801053  1
  Bi  Bi102  1  0.47170440  0.76583199  0.74282426  1
  Bi  Bi103  1  0.76273468  0.51724567  0.22614401  1
  Bi  Bi104  1  -0.00822764  0.51165650  0.77634530  1
  Bi  Bi105  1  0.76534083  0.00538374  0.79080201  1
  Bi  Bi106  1  0.79017351  0.28565967  0.25766582  1
  Bi  Bi107  1  0.50640308  0.20891822  0.24418410  1
  Bi  Bi108  1  0.00981417  -0.01202778  0.51858419  1
  Bi  Bi109  1  0.51949190  0.73612067  0.25106358  1
  Bi  Bi110  1  0.51191712  -0.02699178  0.20924964  1
  Bi  Bi111  1  0.47942160  0.48911214  0.73614514  1
  Bi  Bi112  1  0.76713905  0.72239866  0.75537949  1
  Bi  Bi113  1  0.49138765  0.24439952  0.72672653  1
  Bi  Bi114  1  0.48600552  0.51627341  0.01505458  1
  Bi  Bi115  1  -0.01721995  0.01048885  0.22570202  1
  Bi  Bi116  1  0.24601231  -0.02441051  -0.01000140  1
  Bi  Bi117  1  0.52238068  0.78575482  0.01803867  1
  Bi  Bi118  1  0.27034371  -0.00800147  0.23819729  1
  Bi  Bi119  1  0.27608602  0.75331736  0.48095549  1
  Bi  Bi120  1  0.23531799  0.76686831  0.78018938  1
  Bi  Bi121  1  0.21445093  0.23014303  0.50544374  1
  Bi  Bi122  1  0.75793132  -0.00330954  0.23257284  1
  Bi  Bi123  1  0.26298352  -0.01744563  0.51403286  1
  Bi  Bi124  1  0.75001808  0.25628040  0.78183106  1
  O  O125  1  0.13868549  0.12234482  0.00251327  1
  O  O126  1  0.13321678  0.15779846  0.24813029  1
  O  O127  1  0.11234517  0.12213465  0.48679336  1
  O  O128  1  0.12937910  0.16035392  0.75778278  1
  O  O129  1  0.10148370  0.41308858  -0.01182461  1
  O  O130  1  0.13250862  0.36257580  0.24222068  1
  O  O131  1  0.11995808  0.41085449  0.48905548  1
  O  O132  1  0.13705514  0.34208313  0.74932248  1
  O  O133  1  0.09833647  0.63372799  0.00488247  1
  O  O134  1  0.16329985  0.63853594  0.24292073  1
  O  O135  1  0.12732044  0.60169816  0.49803426  1
  O  O136  1  0.15239246  0.63799705  0.73999335  1
  O  O137  1  0.13145047  0.88403785  0.01903497  1
  O  O138  1  0.08975270  0.86320254  0.25945752  1
  O  O139  1  0.12789075  0.89534621  0.50072522  1
  O  O140  1  0.08480093  0.84950961  0.73551851  1
  O  O141  1  0.38688217  0.14717287  -0.01060778  1
  O  O142  1  0.35111900  0.12081315  0.25431073  1
  O  O143  1  0.36811290  0.15577255  0.49571593  1
  O  O144  1  0.36378326  0.11995585  0.74089624  1
  O  O145  1  0.38394197  0.34477126  -0.00547177  1
  O  O146  1  0.37156520  0.40484247  0.24384456  1
  O  O147  1  0.39862237  0.36814789  0.49590216  1
  O  O148  1  0.36737291  0.40555314  0.74140048  1
  O  O149  1  0.40483605  0.64395997  -0.00598072  1
  O  O150  1  0.35544611  0.61889614  0.25695495  1
  O  O151  1  0.38025610  0.65277352  0.50270512  1
  O  O152  1  0.36933202  0.59012989  0.74338270  1
  O  O153  1  0.33560424  0.87260730  -0.00456611  1
  O  O154  1  0.38667758  0.91148904  0.25015708  1
  O  O155  1  0.34784338  0.87260799  0.50536179  1
  O  O156  1  0.42439364  0.90146629  0.75068953  1
  O  O157  1  0.60566850  0.14586758  0.00245535  1
  O  O158  1  0.61370631  0.11529387  0.24396346  1
  O  O159  1  0.60620029  0.12395226  0.49578771  1
  O  O160  1  0.61307184  0.08415112  0.73674029  1
  O  O161  1  0.60329992  0.35756445  -0.00311455  1
  O  O162  1  0.62813181  0.39243715  0.24717190  1
  O  O163  1  0.59868341  0.36333725  0.49683147  1
  O  O164  1  0.65651036  0.38355558  0.73927074  1
  O  O165  1  0.63127184  0.61838253  -0.00814206  1
  O  O166  1  0.60885586  0.61572291  0.25970700  1
  O  O167  1  0.61992159  0.65282709  0.50148850  1
  O  O168  1  0.65465872  0.60783620  0.74401701  1
  O  O169  1  0.64869427  0.83351025  0.00282576  1
  O  O170  1  0.58408112  0.86868583  0.25852149  1
  O  O171  1  0.64524555  0.84454676  0.49111751  1
  O  O172  1  0.61027660  0.90184757  0.74910327  1
  O  O173  1  0.87301004  0.17355116  -0.00073192  1
  O  O174  1  0.86649758  0.08861739  0.24920572  1
  O  O175  1  0.89826724  0.15065053  0.48741544  1
  O  O176  1  0.87415245  0.09119248  0.74391136  1
  O  O177  1  0.90664006  0.34955922  0.00245514  1
  O  O178  1  0.85142169  0.40987107  0.24425217  1
  O  O179  1  0.91704755  0.32991236  0.50775543  1
  O  O180  1  0.84764709  0.38647182  0.74868476  1
  O  O181  1  0.88956587  0.65153223  -0.00048072  1
  O  O182  1  0.87425455  0.59321579  0.25909127  1
  O  O183  1  0.88624669  0.65915625  0.49426930  1
  O  O184  1  0.85461410  0.60765447  0.74279698  1
  O  O185  1  0.88325229  0.86543770  0.00307911  1
  O  O186  1  0.87976602  0.91351709  0.24825121  1
  O  O187  1  0.83793939  0.86001232  0.48665874  1
  O  O188  1  0.88865426  0.89970293  0.74652071  1
  O  O189  1  0.00657835  0.13368249  0.12566486  1
  O  O190  1  0.00196308  0.11929675  0.34267495  1
  O  O191  1  -0.00926401  0.13804624  0.62301737  1
  O  O192  1  0.00176700  0.11181767  0.88408295  1
  O  O193  1  -0.00121561  0.42350320  0.13384189  1
  O  O194  1  0.00980456  0.41309852  0.34429378  1
  O  O195  1  -0.00941386  0.36982066  0.65694102  1
  O  O196  1  0.00448080  0.37549610  0.84171008  1
  O  O197  1  0.00766482  0.61108432  0.16083143  1
  O  O198  1  0.00291404  0.61427497  0.36105923  1
  O  O199  1  0.00386483  0.64473113  0.62270742  1
  O  O200  1  0.00232795  0.63806061  0.84184817  1
  O  O201  1  0.00224021  0.88799707  0.11975842  1
  O  O202  1  -0.01088583  0.88531070  0.40220431  1
  O  O203  1  -0.01583066  0.86547330  0.59112031  1
  O  O204  1  -0.00318901  0.87925206  0.88036309  1
  O  O205  1  0.24060270  0.16988067  0.12413444  1
  O  O206  1  0.23841774  0.15273406  0.37601778  1
  O  O207  1  0.24343421  0.13357113  0.60668969  1
  O  O208  1  0.25070401  0.15900924  0.87481323  1
  O  O209  1  0.25046582  0.36391766  0.11066493  1
  O  O210  1  0.25013891  0.36099464  0.37522435  1
  O  O211  1  0.25309431  0.39718786  0.59895136  1
  O  O212  1  0.25085253  0.36082383  0.87394264  1
  O  O213  1  0.25179415  0.62263848  0.08667406  1
  O  O214  1  0.24720121  0.65240127  0.38377436  1
  O  O215  1  0.25906613  0.59401866  0.60974286  1
  O  O216  1  0.25138895  0.60152580  0.88472225  1
  O  O217  1  0.23863005  0.86977953  0.16672359  1
  O  O218  1  0.23544236  0.85118775  0.36871426  1
  O  O219  1  0.24020254  0.89204259  0.64436627  1
  O  O220  1  0.25545103  0.88625365  0.83841445  1
  O  O221  1  0.49064713  0.12359611  0.12729064  1
  O  O222  1  0.48568407  0.10829433  0.38318350  1
  O  O223  1  0.49097338  0.14620374  0.61747396  1
  O  O224  1  0.49286337  0.08480336  0.85960117  1
  O  O225  1  0.50104859  0.40451342  0.12458972  1
  O  O226  1  0.49694694  0.39704755  0.36312481  1
  O  O227  1  0.50999238  0.36426936  0.64959903  1
  O  O228  1  0.50203083  0.38729635  0.85447524  1
  O  O229  1  0.50010478  0.58911092  0.13136490  1
  O  O230  1  0.49593993  0.60935915  0.37858447  1
  O  O231  1  0.50813203  0.63821240  0.64258696  1
  O  O232  1  0.51024501  0.60115555  0.85393767  1
  O  O233  1  0.48503519  0.89530566  0.09731691  1
  O  O234  1  0.50635660  0.89751822  0.41793247  1
  O  O235  1  0.51209106  0.84286524  0.61457183  1
  O  O236  1  0.50466508  0.88856949  0.90965502  1
  O  O237  1  0.74591992  0.11244985  0.13015874  1
  O  O238  1  0.76057214  0.14684976  0.38025998  1
  O  O239  1  0.74515086  0.10300973  0.60934620  1
  O  O240  1  0.75569961  0.13244525  0.86259117  1
  O  O241  1  0.74448504  0.34193576  0.10007198  1
  O  O242  1  0.73912346  0.35170662  0.38818133  1
  O  O243  1  0.74919223  0.36924583  0.58926211  1
  O  O244  1  0.75336908  0.33718385  0.89599232  1
  O  O245  1  0.74728985  0.67021070  0.15546828  1
  O  O246  1  0.75082989  0.64857823  0.36767856  1
  O  O247  1  0.75034721  0.60914422  0.59649023  1
  O  O248  1  0.76458105  0.61323692  0.87717727  1
  O  O249  1  0.76093520  0.88944333  0.12497763  1
  O  O250  1  0.74692520  0.84886580  0.32821515  1
  O  O251  1  0.75025049  0.90603424  0.63319774  1
  O  O252  1  0.75923540  0.87139811  0.85900795  1
  O  O253  1  0.13292603  0.00952717  0.14657680  1
  O  O254  1  0.13230514  -0.00212162  0.35921358  1
  O  O255  1  0.09544443  -0.00658773  0.63711648  1
  O  O256  1  0.14045203  0.01639078  0.85032951  1
  O  O257  1  0.09723841  0.27431653  0.09037041  1
  O  O258  1  0.09305968  0.26755368  0.39427855  1
  O  O259  1  0.10857146  0.25448975  0.59012464  1
  O  O260  1  0.10945083  0.25696717  0.89904466  1
  O  O261  1  0.15064966  0.50435809  0.13420405  1
  O  O262  1  0.15319931  0.50821953  0.35342946  1
  O  O263  1  0.11983166  0.50636025  0.64098618  1
  O  O264  1  0.11801300  0.49748233  0.84104827  1
  O  O265  1  0.11403254  0.75070252  0.12074169  1
  O  O266  1  0.09972674  0.74794700  0.38834930  1
  O  O267  1  0.13259639  0.75030974  0.59563536  1
  O  O268  1  0.13668823  0.74920232  0.87828822  1
  O  O269  1  0.32453899  0.00684015  0.11088560  1
  O  O270  1  0.33862917  0.00808845  0.39468589  1
  O  O271  1  0.36955372  0.01060841  0.60226673  1
  O  O272  1  0.33930930  0.01423094  0.88050275  1
  O  O273  1  0.39550912  0.25987143  0.14216026  1
  O  O274  1  0.38422578  0.25728324  0.35456772  1
  O  O275  1  0.36918642  0.26303384  0.64247736  1
  O  O276  1  0.39249214  0.25193166  0.84309268  1
  O  O277  1  0.36503499  0.49451519  0.08665343  1
  O  O278  1  0.35972976  0.50311635  0.39349553  1
  O  O279  1  0.41027217  0.50028221  0.60625998  1
  O  O280  1  0.37239677  0.48893668  0.90660227  1
  O  O281  1  0.36304947  0.74940383  0.12851446  1
  O  O282  1  0.37563338  0.75524930  0.36938037  1
  O  O283  1  0.36758423  0.74255490  0.65427906  1
  O  O284  1  0.36635647  0.74992102  0.84450502  1
  O  O285  1  0.62089415  0.00479319  0.10648278  1
  O  O286  1  0.64681186  -0.00964061  0.38132142  1
  O  O287  1  0.60487610  -0.01005438  0.58805869  1
  O  O288  1  0.64307970  -0.00493000  0.91837573  1
  O  O289  1  0.59777573  0.25258752  0.14028502  1
  O  O290  1  0.59839092  0.24925938  0.36183307  1
  O  O291  1  0.63148167  0.23972186  0.63872362  1
  O  O292  1  0.61482234  0.25038061  0.84306928  1
  O  O293  1  0.65332535  0.49237833  0.10783017  1
  O  O294  1  0.63501164  0.50477608  0.39662645  1
  O  O295  1  0.61693596  0.50182701  0.60085847  1
  O  O296  1  0.65308053  0.48401341  0.87962573  1
  O  O297  1  0.59104000  0.74388645  0.13510858  1
  O  O298  1  0.59996232  0.74785741  0.36356870  1
  O  O299  1  0.66221287  0.75420900  0.64018435  1
  O  O300  1  0.61954035  0.73964180  0.85040812  1
  O  O301  1  0.89728244  0.00455205  0.10642686  1
  O  O302  1  0.85756101  -0.00105228  0.39495044  1
  O  O303  1  0.88160701  0.00001869  0.58897626  1
  O  O304  1  0.86564759  0.00255228  0.89170576  1
  O  O305  1  0.89085841  0.25787926  0.15705525  1
  O  O306  1  0.88780457  0.24517488  0.34394938  1
  O  O307  1  0.85191619  0.24266779  0.63766196  1
  O  O308  1  0.88680411  0.23935370  0.84067975  1
  O  O309  1  0.83737283  0.51211658  0.10973406  1
  O  O310  1  0.85927572  0.51049156  0.41097126  1
  O  O311  1  0.87242203  0.48283697  0.59297743  1
  O  O312  1  0.91459897  0.50474630  0.89829151  1
  O  O313  1  0.88775516  0.76001018  0.16689331  1
  O  O314  1  0.89001976  0.75290408  0.34239438  1
  O  O315  1  0.84737606  0.75895559  0.63960923  1
  O  O316  1  0.88683976  0.75337467  0.84904508  1
