# generated using pymatgen
data_Mg32Ti42(Bi17O64)3
_symmetry_space_group_name_H-M   'P 1'
_cell_length_a   15.97076903
_cell_length_b   15.95683907
_cell_length_c   15.95276701
_cell_angle_alpha   89.96928322
_cell_angle_beta   90.06752139
_cell_angle_gamma   90.06316008
_symmetry_Int_Tables_number   1
_chemical_formula_structural   Mg32Ti42(Bi17O64)3
_chemical_formula_sum   'Mg32 Ti42 Bi51 O192'
_cell_volume   4065.44498863
_cell_formula_units_Z   1
loop_
 _symmetry_equiv_pos_site_id
 _symmetry_equiv_pos_as_xyz
  1  'x, y, z'
loop_
 _atom_site_type_symbol
 _atom_site_label
 _atom_site_symmetry_multiplicity
 _atom_site_fract_x
 _atom_site_fract_y
 _atom_site_fract_z
 _atom_site_occupancy
  Mg  Mg0  1  0.37487868  0.63231578  0.87373011  1
  Mg  Mg1  1  0.37962416  0.87940958  0.37499543  1
  Mg  Mg2  1  0.62568731  0.62540041  0.87468487  1
  Mg  Mg3  1  0.62791095  0.62198068  0.13053612  1
  Mg  Mg4  1  0.11991008  0.12366665  0.61904958  1
  Mg  Mg5  1  0.86271992  0.63342861  0.36945456  1
  Mg  Mg6  1  0.61621235  0.62862171  0.62388467  1
  Mg  Mg7  1  0.12366430  0.88136769  0.12540117  1
  Mg  Mg8  1  0.86951185  0.62949404  0.62625338  1
  Mg  Mg9  1  0.86963917  0.37344649  0.86609606  1
  Mg  Mg10  1  0.62479337  0.37097375  0.63220449  1
  Mg  Mg11  1  0.12786519  0.61908675  0.86444097  1
  Mg  Mg12  1  0.36782290  0.63110869  0.12522213  1
  Mg  Mg13  1  0.38105841  0.62442720  0.38040352  1
  Mg  Mg14  1  0.61793192  0.38259594  0.37257385  1
  Mg  Mg15  1  0.86392349  0.13332143  0.86752089  1
  Mg  Mg16  1  0.86857783  0.12910571  0.37398423  1
  Mg  Mg17  1  0.62368499  0.11926905  0.87546670  1
  Mg  Mg18  1  0.11487085  0.62426047  0.13532186  1
  Mg  Mg19  1  0.46881859  0.29110071  0.21959099  1
  Mg  Mg20  1  0.47928374  -0.01371941  0.19666324  1
  Mg  Mg21  1  0.30285620  0.42895142  0.21984348  1
  Mg  Mg22  1  0.48033471  0.20613060  0.74668557  1
  Mg  Mg23  1  0.49159590  0.52270350  0.78982064  1
  Mg  Mg24  1  0.71683489  0.72581057  0.24336679  1
  Mg  Mg25  1  0.55199808  0.69783705  0.00670078  1
  Mg  Mg26  1  0.75222723  0.79406855  0.05798790  1
  Mg  Mg27  1  0.69606265  0.25089265  0.78245563  1
  Mg  Mg28  1  -0.02382646  -0.03645219  0.19668176  1
  Mg  Mg29  1  0.72244519  -0.02721940  0.76516513  1
  Mg  Mg30  1  0.49097830  0.76310445  0.44947952  1
  Mg  Mg31  1  0.50501664  0.49068607  0.54445700  1
  Ti  Ti32  1  0.87098166  0.37784502  0.62906464  1
  Ti  Ti33  1  0.12276163  0.86967864  0.62619131  1
  Ti  Ti34  1  0.37434721  0.87376599  0.61416112  1
  Ti  Ti35  1  0.62131766  0.11624262  0.11879690  1
  Ti  Ti36  1  0.37069064  0.87620080  0.88522933  1
  Ti  Ti37  1  0.37105836  0.86629975  0.11893043  1
  Ti  Ti38  1  0.86613172  0.37556891  0.37733868  1
  Ti  Ti39  1  0.12349944  0.12543958  0.37633964  1
  Ti  Ti40  1  0.38532219  0.37353834  0.63881283  1
  Ti  Ti41  1  0.38861503  0.12955507  0.13016341  1
  Ti  Ti42  1  0.86290220  0.13434599  0.62947650  1
  Ti  Ti43  1  0.13263116  0.60638201  0.37199210  1
  Ti  Ti44  1  0.86951026  0.61204377  0.87945605  1
  Ti  Ti45  1  0.11452761  0.37767294  0.13670608  1
  Ti  Ti46  1  0.38376260  0.12228026  0.38001006  1
  Ti  Ti47  1  0.61745001  0.61956541  0.37014349  1
  Ti  Ti48  1  0.38307673  0.39008899  0.38770929  1
  Ti  Ti49  1  0.37775363  0.12656429  0.62036220  1
  Ti  Ti50  1  0.38936412  0.62688944  0.62651568  1
  Ti  Ti51  1  0.62818973  0.86766497  0.63010731  1
  Ti  Ti52  1  0.11952874  0.38135260  0.61705550  1
  Ti  Ti53  1  0.86300804  0.87758453  0.62615379  1
  Ti  Ti54  1  0.37195030  0.12219231  0.87726078  1
  Ti  Ti55  1  0.62830790  0.12476167  0.64356202  1
  Ti  Ti56  1  0.12722380  0.62780232  0.62770835  1
  Ti  Ti57  1  0.11605260  0.12729542  0.87605707  1
  Ti  Ti58  1  0.87568802  0.62722820  0.13415165  1
  Ti  Ti59  1  0.60982234  0.86712784  0.12467032  1
  Ti  Ti60  1  0.61859273  0.36627486  0.12463903  1
  Ti  Ti61  1  0.12025211  0.88917052  0.37365508  1
  Ti  Ti62  1  0.12429663  0.13038152  0.13837071  1
  Ti  Ti63  1  0.12558694  0.38105850  0.37400467  1
  Ti  Ti64  1  0.61668278  0.88254707  0.36353488  1
  Ti  Ti65  1  0.61858951  0.37803881  0.87173139  1
  Ti  Ti66  1  0.61603117  0.86031048  0.87836501  1
  Ti  Ti67  1  0.13199413  0.88112971  0.88269520  1
  Ti  Ti68  1  0.12354325  0.37859446  0.87542776  1
  Ti  Ti69  1  0.86933339  0.88438691  0.38406035  1
  Ti  Ti70  1  0.37254942  0.37177883  0.86167908  1
  Ti  Ti71  1  0.87682124  0.37751597  0.12465530  1
  Ti  Ti72  1  0.61909445  0.12936352  0.36424146  1
  Ti  Ti73  1  0.86190100  0.12218448  0.12918433  1
  Bi  Bi74  1  0.01030251  0.02428986  0.01578282  1
  Bi  Bi75  1  -0.00164834  0.76040519  0.78527815  1
  Bi  Bi76  1  0.52400578  0.00304569  0.49581990  1
  Bi  Bi77  1  0.22992009  -0.00118682  0.51141259  1
  Bi  Bi78  1  -0.01369626  0.25155222  0.50633905  1
  Bi  Bi79  1  0.50112406  0.00537435  -0.01951619  1
  Bi  Bi80  1  0.71897566  0.52235097  0.74761819  1
  Bi  Bi81  1  -0.00530613  0.77931932  0.27775982  1
  Bi  Bi82  1  0.76174381  -0.02337727  -0.04195807  1
  Bi  Bi83  1  0.25600818  0.27541384  0.03263798  1
  Bi  Bi84  1  0.72918968  0.73780143  0.48294859  1
  Bi  Bi85  1  0.23163283  0.24992590  0.49665809  1
  Bi  Bi86  1  0.47825785  0.73698633  0.24931864  1
  Bi  Bi87  1  -0.05140924  0.80020237  0.00846788  1
  Bi  Bi88  1  0.24045733  0.52037567  0.02870159  1
  Bi  Bi89  1  0.78339742  0.76597934  0.77961031  1
  Bi  Bi90  1  0.00583795  0.52460616  0.00402159  1
  Bi  Bi91  1  0.22624078  0.02227236  0.75163765  1
  Bi  Bi92  1  0.49413987  0.27161639  0.50264195  1
  Bi  Bi93  1  0.21557434  0.73494909  0.01710093  1
  Bi  Bi94  1  0.26459160  0.51427344  0.51750054  1
  Bi  Bi95  1  0.27759460  -0.00999140  0.26468492  1
  Bi  Bi96  1  0.48192878  0.26548934  -0.01910168  1
  Bi  Bi97  1  0.24852232  0.00599023  0.03158948  1
  Bi  Bi98  1  0.24712690  0.75741842  0.76895898  1
  Bi  Bi99  1  0.22199025  0.74239425  0.25911499  1
  Bi  Bi100  1  0.72573265  0.50284661  0.00350612  1
  Bi  Bi101  1  -0.02407556  0.52110804  0.50851021  1
  Bi  Bi102  1  0.71986148  0.25370019  0.23913881  1
  Bi  Bi103  1  0.48930373  0.00066738  0.73425613  1
  Bi  Bi104  1  -0.02486549  0.24321992  0.25337551  1
  Bi  Bi105  1  0.26808232  0.24302420  0.26566484  1
  Bi  Bi106  1  0.73132021  0.50186720  0.52890671  1
  Bi  Bi107  1  -0.01978958  0.50641957  0.27155586  1
  Bi  Bi108  1  0.45886319  0.51515798  -0.00109665  1
  Bi  Bi109  1  0.48275917  0.77078399  0.74638385  1
  Bi  Bi110  1  0.26599732  0.51438152  0.76193427  1
  Bi  Bi111  1  0.72151457  0.26085731  0.49507105  1
  Bi  Bi112  1  0.24515562  0.73808302  0.48894615  1
  Bi  Bi113  1  -0.02808265  0.26048733  0.00187365  1
  Bi  Bi114  1  0.77333094  -0.04238180  0.22934396  1
  Bi  Bi115  1  -0.02823099  0.02078215  0.50388404  1
  Bi  Bi116  1  0.22298413  0.26178824  0.73551643  1
  Bi  Bi117  1  -0.01715714  0.51816009  0.75649860  1
  Bi  Bi118  1  -0.02444005  0.75255473  0.51200857  1
  Bi  Bi119  1  0.48288919  0.50523256  0.21421622  1
  Bi  Bi120  1  -0.04440903  -0.00559977  0.77182595  1
  Bi  Bi121  1  0.74520486  0.49650698  0.23936602  1
  Bi  Bi122  1  0.73354891  0.25336506  -0.02459188  1
  Bi  Bi123  1  -0.00831596  0.24898181  0.76126032  1
  Bi  Bi124  1  0.74224725  0.01718755  0.47512144  1
  O  O125  1  0.12067518  0.12679072  -0.00695718  1
  O  O126  1  0.12424229  0.13058076  0.25416183  1
  O  O127  1  0.15662379  0.12051210  0.49485939  1
  O  O128  1  0.12504134  0.11564868  0.74561092  1
  O  O129  1  0.15658361  0.36538844  -0.01114262  1
  O  O130  1  0.10507379  0.37515418  0.25003415  1
  O  O131  1  0.15967451  0.37414622  0.49577476  1
  O  O132  1  0.11963574  0.35883603  0.73820712  1
  O  O133  1  0.13934235  0.61478983  -0.00911901  1
  O  O134  1  0.12299278  0.62827908  0.25772850  1
  O  O135  1  0.15711459  0.62669485  0.49571259  1
  O  O136  1  0.09760323  0.62517237  0.73857437  1
  O  O137  1  0.15588965  0.87316667  -0.00608066  1
  O  O138  1  0.07748259  0.89569873  0.24807227  1
  O  O139  1  0.15222470  0.87828747  0.48922798  1
  O  O140  1  0.11796412  0.86891370  0.74117940  1
  O  O141  1  0.37407252  0.15482695  -0.00718239  1
  O  O142  1  0.39661212  0.08590539  0.24013455  1
  O  O143  1  0.37299154  0.13912331  0.50050031  1
  O  O144  1  0.39353521  0.10716780  0.75042060  1
  O  O145  1  0.36242698  0.34964334  -0.01720601  1
  O  O146  1  0.41465524  0.39618334  0.26735454  1
  O  O147  1  0.36082032  0.33591842  0.49294411  1
  O  O148  1  0.41428565  0.40192983  0.74614540  1
  O  O149  1  0.35337434  0.60990561  -0.00321020  1
  O  O150  1  0.40842429  0.61688527  0.25281322  1
  O  O151  1  0.34055868  0.63686618  0.50949659  1
  O  O152  1  0.39794549  0.59347175  0.74143336  1
  O  O153  1  0.35306525  0.85685770  -0.00087944  1
  O  O154  1  0.38976439  0.90736862  0.23969791  1
  O  O155  1  0.37946044  0.84237240  0.50477654  1
  O  O156  1  0.40306498  0.88409076  0.75457558  1
  O  O157  1  0.62878951  0.10226508  0.00721211  1
  O  O158  1  0.61812811  0.14624805  0.25450784  1
  O  O159  1  0.63530577  0.09471422  0.51960469  1
  O  O160  1  0.60356296  0.17046988  0.75181286  1
  O  O161  1  0.64966406  0.38160968  0.00835668  1
  O  O162  1  0.60662296  0.33963459  0.24958790  1
  O  O163  1  0.66141388  0.38202913  0.49396955  1
  O  O164  1  0.62052708  0.35732450  0.75900634  1
  O  O165  1  0.64933970  0.61235194  0.00372931  1
  O  O166  1  0.60533614  0.66020024  0.25431335  1
  O  O167  1  0.65763047  0.62111339  0.49037903  1
  O  O168  1  0.59860741  0.59235232  0.75210535  1
  O  O169  1  0.65796732  0.88840611  0.01656743  1
  O  O170  1  0.59237017  0.86677551  0.25522254  1
  O  O171  1  0.63778248  0.91334551  0.52303150  1
  O  O172  1  0.60714765  0.85331911  0.76184690  1
  O  O173  1  0.88660868  0.13331285  0.00737559  1
  O  O174  1  0.87857966  0.14453702  0.24985700  1
  O  O175  1  0.86029099  0.10626322  0.50816444  1
  O  O176  1  0.90606884  0.13559600  0.74028153  1
  O  O177  1  0.86329008  0.35883349  0.00624829  1
  O  O178  1  0.90991331  0.36710594  0.25193950  1
  O  O179  1  0.86967293  0.38896707  0.49401078  1
  O  O180  1  0.90330182  0.35703667  0.73958405  1
  O  O181  1  0.86465513  0.58815216  -0.00675083  1
  O  O182  1  0.90771991  0.63272479  0.24671091  1
  O  O183  1  0.87241201  0.61240083  0.49563910  1
  O  O184  1  0.91098712  0.63562771  0.74673650  1
  O  O185  1  0.83654734  0.86914164  0.00176041  1
  O  O186  1  0.89212562  0.88907856  0.26094218  1
  O  O187  1  0.86137796  0.88958800  0.50659281  1
  O  O188  1  0.90127105  0.85405589  0.74163670  1
  O  O189  1  0.00289920  0.09824423  0.13378697  1
  O  O190  1  0.01022107  0.12012358  0.40023445  1
  O  O191  1  -0.00182451  0.13391876  0.58852483  1
  O  O192  1  0.00251250  0.09935032  0.87241896  1
  O  O193  1  -0.00034893  0.38083941  0.10014498  1
  O  O194  1  0.01461242  0.40078286  0.38823776  1
  O  O195  1  0.00786200  0.36155167  0.59823596  1
  O  O196  1  0.01198401  0.39167364  0.89134304  1
  O  O197  1  -0.00725262  0.61991389  0.10185557  1
  O  O198  1  0.01375839  0.59794735  0.38595219  1
  O  O199  1  0.01021496  0.63475160  0.58919497  1
  O  O200  1  -0.00153902  0.60126730  0.88505802  1
  O  O201  1  -0.00002677  0.89741237  0.09132734  1
  O  O202  1  0.00277994  0.87734706  0.39510606  1
  O  O203  1  0.00911224  0.85947292  0.60179771  1
  O  O204  1  0.01229588  0.87350662  0.88170055  1
  O  O205  1  0.25145695  0.11618640  0.12470348  1
  O  O206  1  0.26148674  0.14336276  0.36390932  1
  O  O207  1  0.26297773  0.11111810  0.63504678  1
  O  O208  1  0.25609264  0.12570790  0.85304397  1
  O  O209  1  0.23786063  0.36339324  0.13794667  1
  O  O210  1  0.26585877  0.36623287  0.33190277  1
  O  O211  1  0.26527455  0.36849329  0.64818646  1
  O  O212  1  0.26099987  0.34987030  0.83995992  1
  O  O213  1  0.24243087  0.62552435  0.11838757  1
  O  O214  1  0.25209367  0.65913643  0.36668434  1
  O  O215  1  0.24957064  0.60012847  0.64290772  1
  O  O216  1  0.25333067  0.63005378  0.83337455  1
  O  O217  1  0.25678654  0.90573140  0.13491292  1
  O  O218  1  0.24333670  0.86823353  0.33608295  1
  O  O219  1  0.26055974  0.88219574  0.62943953  1
  O  O220  1  0.25724632  0.87719325  0.84669635  1
  O  O221  1  0.50290872  0.15041633  0.11893645  1
  O  O222  1  0.50225199  0.10808274  0.39547637  1
  O  O223  1  0.50541479  0.11489467  0.62985574  1
  O  O224  1  0.49867550  0.09811797  0.87837400  1
  O  O225  1  0.50615310  0.36639244  0.11664418  1
  O  O226  1  0.49926023  0.38924283  0.42204279  1
  O  O227  1  0.50077889  0.37214832  0.59667278  1
  O  O228  1  0.50297672  0.39159637  0.89684687  1
  O  O229  1  0.49936690  0.61685030  0.09433981  1
  O  O230  1  0.50872105  0.63917821  0.40019709  1
  O  O231  1  0.49426652  0.61809927  0.58985316  1
  O  O232  1  0.49840174  0.59996411  0.89792455  1
  O  O233  1  0.49438643  0.87539440  0.11222459  1
  O  O234  1  0.50587420  0.89122942  0.40456495  1
  O  O235  1  0.50879631  0.86637847  0.63188020  1
  O  O236  1  0.49899036  0.89096982  0.89746915  1
  O  O237  1  0.74699086  0.12245523  0.13614392  1
  O  O238  1  0.74033299  0.13071670  0.38494155  1
  O  O239  1  0.75264424  0.13086637  0.65224237  1
  O  O240  1  0.74345355  0.16468943  0.86579377  1
  O  O241  1  0.76029919  0.36860066  0.15910527  1
  O  O242  1  0.75667535  0.35683170  0.35200984  1
  O  O243  1  0.75960271  0.39348173  0.63886587  1
  O  O244  1  0.74530358  0.34026417  0.86672930  1
  O  O245  1  0.75328386  0.62443673  0.16858860  1
  O  O246  1  0.74071377  0.66777423  0.35405209  1
  O  O247  1  0.74685119  0.60515692  0.64133527  1
  O  O248  1  0.75450566  0.63322683  0.84136139  1
  O  O249  1  0.73151799  0.84168509  0.17394479  1
  O  O250  1  0.74991815  0.88040121  0.36400142  1
  O  O251  1  0.75417399  0.88765849  0.66788375  1
  O  O252  1  0.73926216  0.86304488  0.86256781  1
  O  O253  1  0.12822438  0.00814134  0.10215068  1
  O  O254  1  0.14887916  0.00583702  0.37871038  1
  O  O255  1  0.13239552  -0.00773640  0.61286638  1
  O  O256  1  0.14228598  -0.00071348  0.86977021  1
  O  O257  1  0.11220814  0.24559843  0.12109168  1
  O  O258  1  0.13087221  0.25343500  0.38604015  1
  O  O259  1  0.14325677  0.25136063  0.61017965  1
  O  O260  1  0.11314970  0.24516153  0.85812010  1
  O  O261  1  0.12309886  0.49386721  0.11408051  1
  O  O262  1  0.15937817  0.49633665  0.37340767  1
  O  O263  1  0.11607266  0.49730065  0.61494360  1
  O  O264  1  0.15222789  0.48998065  0.85632917  1
  O  O265  1  0.13265731  0.75485264  0.12289717  1
  O  O266  1  0.11590762  0.76180889  0.35397645  1
  O  O267  1  0.14931831  0.74647639  0.61515703  1
  O  O268  1  0.14288068  0.75293132  0.86785313  1
  O  O269  1  0.39218525  0.00937919  0.09150464  1
  O  O270  1  0.35432605  0.00429614  0.38554787  1
  O  O271  1  0.39569634  -0.00621815  0.61637635  1
  O  O272  1  0.37099323  0.00045092  0.90032375  1
  O  O273  1  0.36678550  0.24437499  0.15287518  1
  O  O274  1  0.39605659  0.23701766  0.33027030  1
  O  O275  1  0.39689496  0.24398236  0.64881535  1
  O  O276  1  0.41656518  0.24609417  0.85217081  1
  O  O277  1  0.36869283  0.49925467  0.13793811  1
  O  O278  1  0.36014418  0.49932716  0.40554747  1
  O  O279  1  0.38330686  0.48921836  0.59421157  1
  O  O280  1  0.36285166  0.48844404  0.87611175  1
  O  O281  1  0.36537816  0.75639967  0.14698978  1
  O  O282  1  0.40030449  0.75605628  0.36085179  1
  O  O283  1  0.37890186  0.74502468  0.65169047  1
  O  O284  1  0.37578988  0.75646318  0.85037998  1
  O  O285  1  0.59799963  0.00341401  0.14910522  1
  O  O286  1  0.62950270  0.00373517  0.37900303  1
  O  O287  1  0.63218668  0.00801799  0.67842742  1
  O  O288  1  0.64647916  -0.00892829  0.86827885  1
  O  O289  1  0.64514702  0.24872418  0.11614753  1
  O  O290  1  0.61482489  0.24325416  0.40698157  1
  O  O291  1  0.63027361  0.24561737  0.59687571  1
  O  O292  1  0.60823549  0.25507418  0.90763686  1
  O  O293  1  0.64389886  0.49055802  0.13986093  1
  O  O294  1  0.63287737  0.50842961  0.34443063  1
  O  O295  1  0.61859034  0.49702504  0.60436291  1
  O  O296  1  0.65219046  0.49243751  0.88266424  1
  O  O297  1  0.62091826  0.75226285  0.10098857  1
  O  O298  1  0.61553781  0.77218268  0.41241199  1
  O  O299  1  0.64486888  0.75698613  0.60658130  1
  O  O300  1  0.59976308  0.74908928  0.90278007  1
  O  O301  1  0.86756398  0.00441885  0.13874375  1
  O  O302  1  0.87572379  0.00233317  0.38383182  1
  O  O303  1  0.89458450  -0.00211870  0.63889302  1
  O  O304  1  0.83368669  0.00877854  0.83240226  1
  O  O305  1  0.89791276  0.24990191  0.12978870  1
  O  O306  1  0.90066118  0.25655173  0.38102570  1
  O  O307  1  0.87520600  0.25168718  0.59859916  1
  O  O308  1  0.91189249  0.25149307  0.87401148  1
  O  O309  1  0.87037458  0.49598642  0.14500034  1
  O  O310  1  0.86741396  0.49816479  0.34932554  1
  O  O311  1  0.90169672  0.49672735  0.63369232  1
  O  O312  1  0.86553409  0.49858442  0.84027717  1
  O  O313  1  0.85722936  0.73434717  0.09663412  1
  O  O314  1  0.89270784  0.76028024  0.38251524  1
  O  O315  1  0.86873068  0.75674727  0.60286069  1
  O  O316  1  0.88589540  0.73741672  0.87306899  1
