# generated using pymatgen
data_Mg32Ti42(Bi17O64)3
_symmetry_space_group_name_H-M   'P 1'
_cell_length_a   15.93499756
_cell_length_b   15.96467206
_cell_length_c   15.94868475
_cell_angle_alpha   90.07513862
_cell_angle_beta   89.94252763
_cell_angle_gamma   89.97507421
_symmetry_Int_Tables_number   1
_chemical_formula_structural   Mg32Ti42(Bi17O64)3
_chemical_formula_sum   'Mg32 Ti42 Bi51 O192'
_cell_volume   4057.29180284
_cell_formula_units_Z   1
loop_
 _symmetry_equiv_pos_site_id
 _symmetry_equiv_pos_as_xyz
  1  'x, y, z'
loop_
 _atom_site_type_symbol
 _atom_site_label
 _atom_site_symmetry_multiplicity
 _atom_site_fract_x
 _atom_site_fract_y
 _atom_site_fract_z
 _atom_site_occupancy
  Mg  Mg0  1  0.13097469  0.11684249  0.11802141  1
  Mg  Mg1  1  0.37127960  0.11666108  0.37295087  1
  Mg  Mg2  1  0.61050202  0.88775314  0.64177786  1
  Mg  Mg3  1  0.88066218  0.13456124  0.12851922  1
  Mg  Mg4  1  0.86737265  0.88373000  0.88165685  1
  Mg  Mg5  1  0.62259266  0.37840595  0.87557683  1
  Mg  Mg6  1  0.38350141  0.36848046  0.13571005  1
  Mg  Mg7  1  0.12751410  0.61659649  0.87444955  1
  Mg  Mg8  1  0.87863302  0.63295979  0.37193016  1
  Mg  Mg9  1  0.86179517  0.61298858  0.87475718  1
  Mg  Mg10  1  0.38091039  0.12346948  0.62601471  1
  Mg  Mg11  1  0.63099121  0.11163408  0.37822992  1
  Mg  Mg12  1  0.87535412  0.62291320  0.62871531  1
  Mg  Mg13  1  0.61926835  0.11744814  0.13169133  1
  Mg  Mg14  1  0.37900016  0.38926252  0.87140720  1
  Mg  Mg15  1  0.38474267  0.38580851  0.62322324  1
  Mg  Mg16  1  0.62165013  0.12149814  0.86990207  1
  Mg  Mg17  1  0.87994958  0.86860306  0.12189633  1
  Mg  Mg18  1  0.11284668  0.88257137  0.88147800  1
  Mg  Mg19  1  0.49026525  0.00804498  -0.04475293  1
  Mg  Mg20  1  0.51947865  0.55193298  -0.00395437  1
  Mg  Mg21  1  0.45394479  0.80513738  -0.00842041  1
  Mg  Mg22  1  0.54126411  0.79456112  0.49742941  1
  Mg  Mg23  1  0.24407303  -0.03878544  0.23286995  1
  Mg  Mg24  1  0.48548932  0.57644379  0.75522920  1
  Mg  Mg25  1  0.73242014  0.56277921  0.73763070  1
  Mg  Mg26  1  0.72549091  -0.00072332  0.51997051  1
  Mg  Mg27  1  0.36969254  0.76663041  0.79662837  1
  Mg  Mg28  1  0.51397686  0.21966132  0.48478354  1
  Mg  Mg29  1  0.46917098  -0.06858011  0.79695393  1
  Mg  Mg30  1  0.17150893  0.75242886  0.75706788  1
  Mg  Mg31  1  0.26298834  0.49583698  0.28787353  1
  Ti  Ti32  1  0.61442986  0.37523398  0.12756856  1
  Ti  Ti33  1  0.37575918  0.60984266  0.89421068  1
  Ti  Ti34  1  0.12643122  0.37875593  0.14002191  1
  Ti  Ti35  1  0.38172191  0.12859603  0.85746359  1
  Ti  Ti36  1  0.86715657  0.37510984  0.36910417  1
  Ti  Ti37  1  0.11925958  0.88548486  0.37030108  1
  Ti  Ti38  1  0.12946028  0.13642479  0.62359187  1
  Ti  Ti39  1  0.12181921  0.12215126  0.38369828  1
  Ti  Ti40  1  0.14049356  0.12956194  0.87722935  1
  Ti  Ti41  1  0.86632364  0.37181633  0.62133807  1
  Ti  Ti42  1  0.36743607  0.85555384  0.13050432  1
  Ti  Ti43  1  0.86662146  0.37019644  0.88526597  1
  Ti  Ti44  1  0.61560109  0.63983162  0.61972259  1
  Ti  Ti45  1  0.87152468  0.11512999  0.37582479  1
  Ti  Ti46  1  0.63428245  0.39155019  0.62946002  1
  Ti  Ti47  1  0.11924867  0.37398105  0.62694137  1
  Ti  Ti48  1  0.11493326  0.61794843  0.63337157  1
  Ti  Ti49  1  0.14145812  0.62673189  0.11857562  1
  Ti  Ti50  1  0.87692681  0.36845980  0.12245684  1
  Ti  Ti51  1  0.38508173  0.62422766  0.13659865  1
  Ti  Ti52  1  0.12983572  0.87808248  0.11221034  1
  Ti  Ti53  1  0.13232128  0.37256388  0.87295237  1
  Ti  Ti54  1  0.13003687  0.62262595  0.38453258  1
  Ti  Ti55  1  0.37326877  0.64523265  0.62539526  1
  Ti  Ti56  1  0.62827280  0.37933737  0.38572555  1
  Ti  Ti57  1  0.61825400  0.63385630  0.86996009  1
  Ti  Ti58  1  0.62938669  0.62314948  0.37561011  1
  Ti  Ti59  1  0.87304906  0.14316294  0.62365558  1
  Ti  Ti60  1  0.37612388  0.37165248  0.37950276  1
  Ti  Ti61  1  0.87502251  0.62038792  0.11866672  1
  Ti  Ti62  1  0.37649442  0.62347069  0.38124874  1
  Ti  Ti63  1  0.61741241  0.86618973  0.12012585  1
  Ti  Ti64  1  0.37567535  0.11059601  0.13214123  1
  Ti  Ti65  1  0.37011616  0.87046935  0.37771257  1
  Ti  Ti66  1  0.38917753  0.86650685  0.61499595  1
  Ti  Ti67  1  0.64129905  0.88013511  0.36729885  1
  Ti  Ti68  1  0.86896421  0.12468069  0.87497538  1
  Ti  Ti69  1  0.62208571  0.63043620  0.13097950  1
  Ti  Ti70  1  0.87767588  0.87317617  0.36013345  1
  Ti  Ti71  1  0.61970539  0.12677206  0.62372222  1
  Ti  Ti72  1  0.61516643  0.87240923  0.87189082  1
  Ti  Ti73  1  0.13235918  0.38036807  0.38659909  1
  Bi  Bi74  1  0.46917787  0.00690732  0.50265019  1
  Bi  Bi75  1  0.28659440  -0.00592383  -0.03567228  1
  Bi  Bi76  1  0.76333050  0.49543307  0.22223695  1
  Bi  Bi77  1  0.77078772  -0.00647309  0.21621365  1
  Bi  Bi78  1  -0.01516066  0.80982809  0.72028720  1
  Bi  Bi79  1  0.50362212  0.27734887  0.74834912  1
  Bi  Bi80  1  0.24465747  0.22105451  0.25025818  1
  Bi  Bi81  1  0.24684853  0.75446255  -0.04540735  1
  Bi  Bi82  1  0.49991164  0.47340659  0.26875901  1
  Bi  Bi83  1  0.76589607  0.53723774  0.49723697  1
  Bi  Bi84  1  0.48516417  -0.02197552  0.24765846  1
  Bi  Bi85  1  0.00756826  0.52654027  0.25242221  1
  Bi  Bi86  1  0.73282943  0.23178960  0.24202679  1
  Bi  Bi87  1  0.50726200  0.49689868  0.51240168  1
  Bi  Bi88  1  0.76249431  0.74843477  0.23954095  1
  Bi  Bi89  1  0.72627704  0.23647426  0.50395947  1
  Bi  Bi90  1  0.01998885  0.26738888  0.01577677  1
  Bi  Bi91  1  0.26846332  0.48976506  0.04390880  1
  Bi  Bi92  1  0.71626274  0.00284079  -0.00349757  1
  Bi  Bi93  1  -0.04299699  -0.00519008  0.52149600  1
  Bi  Bi94  1  0.72031457  0.24339225  0.00938117  1
  Bi  Bi95  1  -0.03674872  0.01582458  0.00967970  1
  Bi  Bi96  1  0.77354639  0.77366169  0.75547828  1
  Bi  Bi97  1  0.21834555  0.76275525  0.53384386  1
  Bi  Bi98  1  0.26980440  0.26518661  0.01439825  1
  Bi  Bi99  1  0.01296625  0.02223608  0.24439361  1
  Bi  Bi100  1  0.01360140  0.03183715  0.75489273  1
  Bi  Bi101  1  0.50969483  0.74924527  0.28807531  1
  Bi  Bi102  1  -0.01737096  0.26377781  0.48615008  1
  Bi  Bi103  1  0.01224140  0.51644265  -0.01442871  1
  Bi  Bi104  1  0.75468662  0.78312417  0.53394967  1
  Bi  Bi105  1  0.25985648  0.50213179  0.51895237  1
  Bi  Bi106  1  0.75907799  0.75451520  -0.01706953  1
  Bi  Bi107  1  0.00056024  0.26210718  0.77206767  1
  Bi  Bi108  1  0.77372476  -0.00990318  0.71727065  1
  Bi  Bi109  1  -0.00985647  0.74904677  -0.04211426  1
  Bi  Bi110  1  0.22579121  -0.05003421  0.73775090  1
  Bi  Bi111  1  0.28274653  0.23216952  0.50633279  1
  Bi  Bi112  1  0.49084886  0.24919298  -0.01555118  1
  Bi  Bi113  1  0.50376152  0.21810676  0.26659657  1
  Bi  Bi114  1  0.27687914  0.26405872  0.73181695  1
  Bi  Bi115  1  0.71811158  0.50108196  -0.01526475  1
  Bi  Bi116  1  0.25550562  0.49799468  0.74649252  1
  Bi  Bi117  1  -0.02154308  0.77533322  0.52037876  1
  Bi  Bi118  1  0.23732051  -0.01072728  0.52499238  1
  Bi  Bi119  1  0.01750923  0.25059677  0.25501183  1
  Bi  Bi120  1  0.73174835  0.24467988  0.77041200  1
  Bi  Bi121  1  -0.01701584  0.50267351  0.50022165  1
  Bi  Bi122  1  -0.02802368  0.50397225  0.76014492  1
  Bi  Bi123  1  0.24221837  0.74657833  0.27710410  1
  Bi  Bi124  1  0.01707460  0.75423556  0.21561283  1
  O  O125  1  0.12528334  0.13533121  -0.01056788  1
  O  O126  1  0.10864034  0.13808518  0.25204760  1
  O  O127  1  0.13632990  0.10877968  0.49928938  1
  O  O128  1  0.11072193  0.13024449  0.74017650  1
  O  O129  1  0.13558062  0.35685379  -0.00762901  1
  O  O130  1  0.10613238  0.36547879  0.25374057  1
  O  O131  1  0.16124748  0.37943636  0.49881775  1
  O  O132  1  0.09476323  0.37486414  0.74328246  1
  O  O133  1  0.12504289  0.60232872  0.00546051  1
  O  O134  1  0.10538861  0.63683847  0.24216796  1
  O  O135  1  0.13973410  0.61504450  0.49905880  1
  O  O136  1  0.12966025  0.63372043  0.74813458  1
  O  O137  1  0.15718099  0.88338491  0.00094044  1
  O  O138  1  0.11323050  0.84735176  0.25245922  1
  O  O139  1  0.15222121  0.88484146  0.48420317  1
  O  O140  1  0.12016898  0.86803661  0.75251333  1
  O  O141  1  0.38861898  0.06874292  0.01892003  1
  O  O142  1  0.37157640  0.16220673  0.25385140  1
  O  O143  1  0.35200954  0.11369228  0.49696180  1
  O  O144  1  0.39053167  0.15215732  0.74882360  1
  O  O145  1  0.34669615  0.38305660  -0.00245664  1
  O  O146  1  0.40808667  0.36086579  0.26070881  1
  O  O147  1  0.36720205  0.41360686  0.49716404  1
  O  O148  1  0.38658376  0.35064995  0.74755473  1
  O  O149  1  0.38690997  0.56802256  0.00112489  1
  O  O150  1  0.38923633  0.64709775  0.24417165  1
  O  O151  1  0.36096400  0.60682217  0.49520466  1
  O  O152  1  0.39114745  0.65995727  0.74050874  1
  O  O153  1  0.35563746  0.88665965  0.01518758  1
  O  O154  1  0.40929703  0.85688638  0.24503250  1
  O  O155  1  0.34978480  0.88967412  0.48759993  1
  O  O156  1  0.40438750  0.85932091  0.72764849  1
  O  O157  1  0.64348015  0.12474254  0.00565163  1
  O  O158  1  0.62588722  0.14626329  0.25790000  1
  O  O159  1  0.66550354  0.10940436  0.49981141  1
  O  O160  1  0.61700059  0.15200533  0.73870333  1
  O  O161  1  0.65485476  0.36992266  0.01061728  1
  O  O162  1  0.60455701  0.36937909  0.25460316  1
  O  O163  1  0.63413121  0.41175098  0.50071647  1
  O  O164  1  0.62131682  0.35124900  0.74389474  1
  O  O165  1  0.63309967  0.62030077  0.00843203  1
  O  O166  1  0.61185646  0.64115044  0.25567098  1
  O  O167  1  0.61982560  0.60440295  0.50425591  1
  O  O168  1  0.60881431  0.62118350  0.75143516  1
  O  O169  1  0.65837021  0.87031196  0.00592568  1
  O  O170  1  0.59844660  0.86173535  0.25081083  1
  O  O171  1  0.66627043  0.88520764  0.49140833  1
  O  O172  1  0.58403788  0.89178564  0.76335720  1
  O  O173  1  0.88953951  0.13789135  -0.00690948  1
  O  O174  1  0.89215913  0.09991665  0.25689768  1
  O  O175  1  0.88151669  0.14998002  0.50065462  1
  O  O176  1  0.88243691  0.09740370  0.74017457  1
  O  O177  1  0.86649007  0.35181052  0.00255713  1
  O  O178  1  0.89399629  0.40103880  0.25802006  1
  O  O179  1  0.87027108  0.34488698  0.49991488  1
  O  O180  1  0.90039891  0.38622942  0.74141253  1
  O  O181  1  0.85260433  0.63801743  0.00606856  1
  O  O182  1  0.88569252  0.59271372  0.25020496  1
  O  O183  1  0.86443173  0.63575241  0.49994393  1
  O  O184  1  0.86115936  0.58446018  0.74807569  1
  O  O185  1  0.85542188  0.84586723  0.00204027  1
  O  O186  1  0.89586064  0.91206586  0.25117711  1
  O  O187  1  0.86514907  0.85525195  0.48723450  1
  O  O188  1  0.86932680  0.88039724  0.75145925  1
  O  O189  1  0.00352130  0.09366425  0.12025934  1
  O  O190  1  0.00241537  0.10112370  0.38159883  1
  O  O191  1  -0.00188581  0.09265785  0.61887235  1
  O  O192  1  -0.00087471  0.12742076  0.85726968  1
  O  O193  1  0.00527579  0.38615617  0.10254953  1
  O  O194  1  0.01122385  0.39013485  0.40632440  1
  O  O195  1  0.00797572  0.39396938  0.59249825  1
  O  O196  1  0.00184287  0.34451867  0.88664803  1
  O  O197  1  -0.00693709  0.60732699  0.11731285  1
  O  O198  1  0.00970722  0.60435351  0.37573948  1
  O  O199  1  0.00319978  0.59698522  0.62734922  1
  O  O200  1  -0.00674243  0.62254158  0.89283139  1
  O  O201  1  0.01090021  0.87136311  0.11343554  1
  O  O202  1  0.00249013  0.88188761  0.39207670  1
  O  O203  1  -0.00343258  0.88467580  0.60325881  1
  O  O204  1  -0.00876570  0.86392134  0.88345709  1
  O  O205  1  0.25522029  0.14098931  0.13494189  1
  O  O206  1  0.24239556  0.14174985  0.36206922  1
  O  O207  1  0.24568888  0.15317501  0.62883754  1
  O  O208  1  0.26026152  0.11887599  0.87445707  1
  O  O209  1  0.24603880  0.35871368  0.12881440  1
  O  O210  1  0.25904485  0.37494315  0.35045308  1
  O  O211  1  0.24505385  0.37432287  0.65632027  1
  O  O212  1  0.24585987  0.38498469  0.84235986  1
  O  O213  1  0.25622799  0.63617701  0.11678285  1
  O  O214  1  0.24922516  0.61385862  0.34459742  1
  O  O215  1  0.25534186  0.66162476  0.63107723  1
  O  O216  1  0.25766746  0.62834392  0.88393010  1
  O  O217  1  0.25460089  0.85507436  0.15434206  1
  O  O218  1  0.25517151  0.87987457  0.33240746  1
  O  O219  1  0.26207176  0.86689473  0.62541396  1
  O  O220  1  0.25890057  0.81160577  0.82975786  1
  O  O221  1  0.49346078  0.11337915  0.15826900  1
  O  O222  1  0.50151829  0.13641435  0.38365753  1
  O  O223  1  0.50683068  0.11977831  0.58396080  1
  O  O224  1  0.49691635  0.12997804  0.89802560  1
  O  O225  1  0.50556629  0.38409176  0.10539441  1
  O  O226  1  0.50241364  0.40058508  0.38969767  1
  O  O227  1  0.51256840  0.40399324  0.61905870  1
  O  O228  1  0.49945772  0.34145054  0.87475117  1
  O  O229  1  0.50331218  0.60007044  0.11657982  1
  O  O230  1  0.49296239  0.63216911  0.38316310  1
  O  O231  1  0.49793003  0.59560166  0.62720540  1
  O  O232  1  0.49962153  0.61415365  0.88060426  1
  O  O233  1  0.50451192  0.88023719  0.09888482  1
  O  O234  1  0.49175307  0.85137251  0.39498227  1
  O  O235  1  0.50367843  0.89032563  0.57648900  1
  O  O236  1  0.50082269  0.88289228  0.90899752  1
  O  O237  1  0.75662187  0.13558172  0.14760641  1
  O  O238  1  0.76118137  0.15255518  0.36185748  1
  O  O239  1  0.75703014  0.16307764  0.63458229  1
  O  O240  1  0.75324436  0.12246732  0.85164086  1
  O  O241  1  0.76238118  0.36508156  0.15269737  1
  O  O242  1  0.75043946  0.36900914  0.36394711  1
  O  O243  1  0.75477134  0.34753559  0.62866627  1
  O  O244  1  0.75679584  0.39006791  0.86707197  1
  O  O245  1  0.74755967  0.62608577  0.15222615  1
  O  O246  1  0.74516955  0.62385394  0.37653230  1
  O  O247  1  0.73722978  0.64304562  0.63467450  1
  O  O248  1  0.73397968  0.59729928  0.86381402  1
  O  O249  1  0.75130528  0.86251386  0.15899797  1
  O  O250  1  0.75389974  0.87312859  0.34029677  1
  O  O251  1  0.73589005  0.86114488  0.64912289  1
  O  O252  1  0.73843222  0.86923200  0.85207055  1
  O  O253  1  0.14783558  -0.01258051  0.15157607  1
  O  O254  1  0.13642063  -0.00135410  0.34908003  1
  O  O255  1  0.15502073  0.00804697  0.63569934  1
  O  O256  1  0.13388521  0.00619042  0.85437581  1
  O  O257  1  0.10591923  0.25277386  0.12767180  1
  O  O258  1  0.10429757  0.24867212  0.37970927  1
  O  O259  1  0.10894269  0.25381524  0.61477208  1
  O  O260  1  0.13691532  0.24795646  0.85312789  1
  O  O261  1  0.14054658  0.49676082  0.14036568  1
  O  O262  1  0.14362548  0.49507941  0.35884719  1
  O  O263  1  0.15070230  0.50193144  0.62861215  1
  O  O264  1  0.10372455  0.48886189  0.87719314  1
  O  O265  1  0.11517699  0.74398312  0.11380316  1
  O  O266  1  0.14367072  0.74363738  0.38284369  1
  O  O267  1  0.10579457  0.74268873  0.61389353  1
  O  O268  1  0.11774279  0.74636110  0.88908383  1
  O  O269  1  0.35734161  -0.00227253  0.17434857  1
  O  O270  1  0.39313493  -0.00933890  0.35392326  1
  O  O271  1  0.37730859  -0.00500449  0.61210520  1
  O  O272  1  0.38871582  0.00455458  0.86320281  1
  O  O273  1  0.38583821  0.23921272  0.08995239  1
  O  O274  1  0.39407580  0.26327512  0.41949042  1
  O  O275  1  0.37082602  0.25715633  0.60885561  1
  O  O276  1  0.37093323  0.23797432  0.91162510  1
  O  O277  1  0.34568880  0.50157915  0.15750264  1
  O  O278  1  0.37499318  0.50563461  0.34821120  1
  O  O279  1  0.34242111  0.51361848  0.63696240  1
  O  O280  1  0.38241495  0.51087123  0.82495939  1
  O  O281  1  0.39321254  0.74561220  0.09880693  1
  O  O282  1  0.35203364  0.74719682  0.37239378  1
  O  O283  1  0.40028752  0.75190095  0.58374301  1
  O  O284  1  0.38741790  0.73104802  0.91409464  1
  O  O285  1  0.64955062  -0.00856682  0.12622672  1
  O  O286  1  0.61460004  -0.01092712  0.36370771  1
  O  O287  1  0.65428590  0.01073334  0.63070517  1
  O  O288  1  0.61392842  -0.00308976  0.90087151  1
  O  O289  1  0.63091334  0.25261048  0.12335742  1
  O  O290  1  0.61309152  0.26419532  0.40733638  1
  O  O291  1  0.61044854  0.24755952  0.58292697  1
  O  O292  1  0.64816689  0.24960678  0.88702502  1
  O  O293  1  0.64758662  0.49689352  0.12992698  1
  O  O294  1  0.62133027  0.50557492  0.35637801  1
  O  O295  1  0.66695342  0.49478313  0.65254116  1
  O  O296  1  0.60382271  0.49656841  0.91170826  1
  O  O297  1  0.62512543  0.74635089  0.12368545  1
  O  O298  1  0.61780333  0.75121630  0.39284230  1
  O  O299  1  0.60257691  0.75053146  0.59962290  1
  O  O300  1  0.62420883  0.74830201  0.88036162  1
  O  O301  1  0.85862940  -0.00304895  0.10130457  1
  O  O302  1  0.85126159  0.00468712  0.40417623  1
  O  O303  1  0.83416868  0.01304921  0.59334478  1
  O  O304  1  0.87164172  0.00716667  0.89467997  1
  O  O305  1  0.90272272  0.25733848  0.14430631  1
  O  O306  1  0.90715342  0.25700334  0.36400324  1
  O  O307  1  0.90958233  0.25195286  0.63822868  1
  O  O308  1  0.86749253  0.24966510  0.84627653  1
  O  O309  1  0.85364245  0.49659634  0.11325044  1
  O  O310  1  0.86958146  0.49141700  0.40846091  1
  O  O311  1  0.86591336  0.48926737  0.59357596  1
  O  O312  1  0.90294923  0.48571568  0.88693337  1
  O  O313  1  0.87416269  0.73975925  0.15207056  1
  O  O314  1  0.88001119  0.75888975  0.33830906  1
  O  O315  1  0.89357924  0.74795613  0.62991811  1
  O  O316  1  0.85607189  0.74184990  0.87023404  1
