# generated using pymatgen
data_Mg32Ti42(Bi17O64)3
_symmetry_space_group_name_H-M   'P 1'
_cell_length_a   15.97106189
_cell_length_b   15.99964351
_cell_length_c   16.00307211
_cell_angle_alpha   90.03846295
_cell_angle_beta   90.11694465
_cell_angle_gamma   90.04948058
_symmetry_Int_Tables_number   1
_chemical_formula_structural   Mg32Ti42(Bi17O64)3
_chemical_formula_sum   'Mg32 Ti42 Bi51 O192'
_cell_volume   4089.27479645
_cell_formula_units_Z   1
loop_
 _symmetry_equiv_pos_site_id
 _symmetry_equiv_pos_as_xyz
  1  'x, y, z'
loop_
 _atom_site_type_symbol
 _atom_site_label
 _atom_site_symmetry_multiplicity
 _atom_site_fract_x
 _atom_site_fract_y
 _atom_site_fract_z
 _atom_site_occupancy
  Mg  Mg0  1  0.88436411  0.86950774  0.87988473  1
  Mg  Mg1  1  0.62993827  0.87291018  0.37065236  1
  Mg  Mg2  1  0.36853323  0.13092300  0.37394077  1
  Mg  Mg3  1  0.12516125  0.87898309  0.61105563  1
  Mg  Mg4  1  0.36777449  0.11858624  0.11445711  1
  Mg  Mg5  1  0.38101918  0.87005711  0.38247706  1
  Mg  Mg6  1  0.61638594  0.63519225  0.62167182  1
  Mg  Mg7  1  0.87056026  0.87796225  0.37478519  1
  Mg  Mg8  1  0.13888942  0.87473716  0.37906027  1
  Mg  Mg9  1  0.63353797  0.62723880  0.37289216  1
  Mg  Mg10  1  0.62183406  0.12823246  0.36896769  1
  Mg  Mg11  1  0.38221416  0.88043913  0.62345364  1
  Mg  Mg12  1  0.88260404  0.62666103  0.62397679  1
  Mg  Mg13  1  0.63028697  0.13082947  0.63512794  1
  Mg  Mg14  1  0.62166716  0.86735730  0.87567268  1
  Mg  Mg15  1  0.61727123  0.37060084  0.36904459  1
  Mg  Mg16  1  0.11460086  0.13532666  0.12109151  1
  Mg  Mg17  1  0.12809828  0.13221404  0.62433952  1
  Mg  Mg18  1  0.13128252  0.62627362  0.13496276  1
  Mg  Mg19  1  0.20205280  0.00948396  0.00508441  1
  Mg  Mg20  1  0.46196694  0.19515747  0.24248637  1
  Mg  Mg21  1  0.78628863  0.45962669  -0.07718953  1
  Mg  Mg22  1  0.23684686  0.06538177  0.23174245  1
  Mg  Mg23  1  -0.00101908  0.80015007  0.47730292  1
  Mg  Mg24  1  0.01906429  -0.02526986  0.44559062  1
  Mg  Mg25  1  0.52748443  0.79171673  0.49904849  1
  Mg  Mg26  1  0.77664270  0.44359092  0.31522016  1
  Mg  Mg27  1  0.73851750  0.29858292  0.76293448  1
  Mg  Mg28  1  0.18188432  0.25667175  0.48521078  1
  Mg  Mg29  1  0.52706402  0.49110342  0.45919451  1
  Mg  Mg30  1  0.25140668  0.44842697  0.47724762  1
  Mg  Mg31  1  0.80965000  0.27684127  -0.03944580  1
  Ti  Ti32  1  0.37399299  0.12512525  0.61831567  1
  Ti  Ti33  1  0.13198754  0.37730808  0.36475269  1
  Ti  Ti34  1  0.62223707  0.85658930  0.12163315  1
  Ti  Ti35  1  0.36863505  0.88509272  0.87462556  1
  Ti  Ti36  1  0.37322006  0.87952148  0.12454519  1
  Ti  Ti37  1  0.13049571  0.62483591  0.87737001  1
  Ti  Ti38  1  0.62878339  0.13418987  0.13926245  1
  Ti  Ti39  1  0.37891799  0.63019910  0.13054221  1
  Ti  Ti40  1  0.87192191  0.12011018  0.37230352  1
  Ti  Ti41  1  0.11311598  0.12791830  0.36703073  1
  Ti  Ti42  1  0.11351197  0.38120254  0.12067803  1
  Ti  Ti43  1  0.61313666  0.37600018  0.63289658  1
  Ti  Ti44  1  0.12084763  0.87802225  0.87230209  1
  Ti  Ti45  1  0.12248206  0.61842041  0.60934531  1
  Ti  Ti46  1  0.85862811  0.37165235  0.62744957  1
  Ti  Ti47  1  0.85663407  0.37973329  0.11674933  1
  Ti  Ti48  1  0.38075669  0.62099123  0.61628410  1
  Ti  Ti49  1  0.86879790  0.12428903  0.86924299  1
  Ti  Ti50  1  0.64663436  0.13547571  0.87709396  1
  Ti  Ti51  1  0.36640970  0.61593849  0.87593363  1
  Ti  Ti52  1  0.37844789  0.38262191  0.87475050  1
  Ti  Ti53  1  0.87685228  0.64307749  0.38926630  1
  Ti  Ti54  1  0.38608769  0.61611415  0.38517119  1
  Ti  Ti55  1  0.37844342  0.11833789  0.87730003  1
  Ti  Ti56  1  0.62752858  0.37556355  0.12660762  1
  Ti  Ti57  1  0.86105106  0.11889776  0.61872341  1
  Ti  Ti58  1  0.62084556  0.37785071  0.89076984  1
  Ti  Ti59  1  0.88288893  0.87833073  0.60793315  1
  Ti  Ti60  1  0.37970604  0.36894870  0.11458373  1
  Ti  Ti61  1  0.14025771  0.39343051  0.86543992  1
  Ti  Ti62  1  0.62282311  0.62552217  0.88530769  1
  Ti  Ti63  1  0.11957496  0.63308619  0.38037766  1
  Ti  Ti64  1  0.62454367  0.87221242  0.63445802  1
  Ti  Ti65  1  0.12791574  0.12024712  0.87879458  1
  Ti  Ti66  1  0.88958687  0.62885621  0.86412745  1
  Ti  Ti67  1  0.14063183  0.88141553  0.13299689  1
  Ti  Ti68  1  0.12217334  0.37030111  0.61879163  1
  Ti  Ti69  1  0.88588402  0.87398103  0.12140978  1
  Ti  Ti70  1  0.37758864  0.37606813  0.60867235  1
  Ti  Ti71  1  0.62771902  0.60963172  0.13243779  1
  Ti  Ti72  1  0.38195506  0.36237855  0.36972037  1
  Ti  Ti73  1  0.86640021  0.13640798  0.11353424  1
  Bi  Bi74  1  -0.00747423  0.01897008  -0.00693827  1
  Bi  Bi75  1  0.27241344  0.76538895  0.26526571  1
  Bi  Bi76  1  0.50238342  0.01022649  0.72726074  1
  Bi  Bi77  1  0.51254150  0.23390058  0.50954778  1
  Bi  Bi78  1  0.73320757  0.25199216  0.48346547  1
  Bi  Bi79  1  0.72121871  0.49734159  0.49862001  1
  Bi  Bi80  1  0.48937550  0.48842425  0.24217765  1
  Bi  Bi81  1  0.01518804  0.78142085  0.26732804  1
  Bi  Bi82  1  0.52139162  0.00556027  0.03311911  1
  Bi  Bi83  1  0.73000371  0.53367333  0.74481846  1
  Bi  Bi84  1  -0.02845980  0.28853675  0.27023144  1
  Bi  Bi85  1  -0.02396214  0.54808457  0.23655213  1
  Bi  Bi86  1  0.25701047  0.51482901  0.27770858  1
  Bi  Bi87  1  0.02232351  0.72318822  0.01373103  1
  Bi  Bi88  1  -0.03863524  0.51076204  0.02497032  1
  Bi  Bi89  1  0.51276356  0.23193816  0.01444669  1
  Bi  Bi90  1  0.24021433  0.75571320  0.72188048  1
  Bi  Bi91  1  0.52060083  0.24260716  0.76743806  1
  Bi  Bi92  1  -0.02863612  0.24618518  0.50325108  1
  Bi  Bi93  1  0.47815171  0.77250634  0.75367334  1
  Bi  Bi94  1  0.27958982  0.76620359  0.50742980  1
  Bi  Bi95  1  0.74982624  -0.03057522  -0.00941733  1
  Bi  Bi96  1  0.23689325  0.03557738  0.47420841  1
  Bi  Bi97  1  0.26079117  0.24710017  -0.02308493  1
  Bi  Bi98  1  0.51773128  0.76158125  0.27671712  1
  Bi  Bi99  1  0.02271866  0.74564230  0.72155985  1
  Bi  Bi100  1  0.25107488  0.49572808  0.71082655  1
  Bi  Bi101  1  0.23827111  0.77085711  -0.00314221  1
  Bi  Bi102  1  0.48467901  0.75803271  -0.01787574  1
  Bi  Bi103  1  0.75279565  0.72929325  0.51736823  1
  Bi  Bi104  1  0.75827722  -0.03387645  0.76288554  1
  Bi  Bi105  1  -0.01620862  0.02674292  0.23768176  1
  Bi  Bi106  1  0.01063372  0.28647947  -0.02682956  1
  Bi  Bi107  1  0.49100307  0.51779899  0.00518365  1
  Bi  Bi108  1  0.45604089  -0.00149942  0.26587460  1
  Bi  Bi109  1  -0.03592951  0.47571523  0.45874137  1
  Bi  Bi110  1  0.72679221  -0.02393190  0.49181470  1
  Bi  Bi111  1  0.76485443  0.72030506  0.23623314  1
  Bi  Bi112  1  0.23805858  0.01998181  0.73644632  1
  Bi  Bi113  1  0.74080923  0.25745284  0.25811916  1
  Bi  Bi114  1  0.00376127  0.00192555  0.72209346  1
  Bi  Bi115  1  0.50807313  0.00997188  0.46572957  1
  Bi  Bi116  1  -0.02989274  0.24021587  0.74076716  1
  Bi  Bi117  1  0.76840674  0.74687891  0.75824654  1
  Bi  Bi118  1  0.50029607  0.52223785  0.74364322  1
  Bi  Bi119  1  0.75634900  -0.03152539  0.23579084  1
  Bi  Bi120  1  -0.03521957  0.46057116  0.75753930  1
  Bi  Bi121  1  0.24112082  0.51028789  0.02901561  1
  Bi  Bi122  1  0.24343490  0.25979310  0.20909205  1
  Bi  Bi123  1  0.77970731  0.70484358  0.01285527  1
  Bi  Bi124  1  0.27084310  0.25542673  0.74437358  1
  O  O125  1  0.11211308  0.09564331  0.00133558  1
  O  O126  1  0.11522399  0.11368411  0.25091508  1
  O  O127  1  0.13823875  0.13339863  0.49574654  1
  O  O128  1  0.15571529  0.13004223  0.76259909  1
  O  O129  1  0.11493647  0.38933166  0.00191864  1
  O  O130  1  0.14383506  0.37573221  0.25207188  1
  O  O131  1  0.10865972  0.36887432  0.50255197  1
  O  O132  1  0.15832332  0.37289712  0.75235036  1
  O  O133  1  0.12097443  0.61990019  -0.00058006  1
  O  O134  1  0.09692487  0.62345417  0.25848097  1
  O  O135  1  0.13677813  0.61969769  0.49874486  1
  O  O136  1  0.12826173  0.65526332  0.76380661  1
  O  O137  1  0.14750092  0.89133270  0.00668484  1
  O  O138  1  0.14108122  0.84709772  0.25103600  1
  O  O139  1  0.09089129  0.88157727  0.49451126  1
  O  O140  1  0.13321304  0.85076690  0.75863979  1
  O  O141  1  0.39519217  0.13886185  -0.00731315  1
  O  O142  1  0.36220909  0.10328610  0.24354477  1
  O  O143  1  0.39108860  0.13206391  0.50458633  1
  O  O144  1  0.34057806  0.12482537  0.75670270  1
  O  O145  1  0.38954525  0.34648871  0.00186490  1
  O  O146  1  0.36474800  0.40692523  0.25775152  1
  O  O147  1  0.38949965  0.37201494  0.49664813  1
  O  O148  1  0.35002089  0.38042264  0.75866035  1
  O  O149  1  0.40224024  0.63408379  0.00325436  1
  O  O150  1  0.37732031  0.59009110  0.25024029  1
  O  O151  1  0.37263969  0.63830989  0.50090850  1
  O  O152  1  0.37730887  0.59527126  0.76151388  1
  O  O153  1  0.37300899  0.84550562  -0.00135512  1
  O  O154  1  0.36253046  0.87815588  0.24430697  1
  O  O155  1  0.40380431  0.83364174  0.50412800  1
  O  O156  1  0.37002055  0.86405636  0.75749833  1
  O  O157  1  0.60245182  0.12003799  -0.00562664  1
  O  O158  1  0.62621378  0.16212642  0.24911563  1
  O  O159  1  0.58552576  0.11694476  0.50862501  1
  O  O160  1  0.64644795  0.17838692  0.76048166  1
  O  O161  1  0.60688980  0.39502009  0.00135901  1
  O  O162  1  0.63953315  0.35313296  0.24420199  1
  O  O163  1  0.61108622  0.41017310  0.50393803  1
  O  O164  1  0.62544092  0.35507104  0.74970615  1
  O  O165  1  0.61488843  0.60196273  0.00211817  1
  O  O166  1  0.62583378  0.65216861  0.24550343  1
  O  O167  1  0.64315635  0.60622566  0.50014501  1
  O  O168  1  0.61223151  0.61317385  0.75508179  1
  O  O169  1  0.61737281  0.90725871  0.00019118  1
  O  O170  1  0.63844279  0.85063394  0.24065892  1
  O  O171  1  0.60255758  0.90171101  0.51128441  1
  O  O172  1  0.65070408  0.85715472  0.74935412  1
  O  O173  1  0.87689258  0.09921607  0.00099401  1
  O  O174  1  0.89335690  0.14599479  0.24946976  1
  O  O175  1  0.88610698  0.12858064  0.50009672  1
  O  O176  1  0.86239271  0.14611297  0.75421720  1
  O  O177  1  0.86853474  0.38994676  -0.00619291  1
  O  O178  1  0.85475431  0.35964894  0.24108208  1
  O  O179  1  0.88590435  0.36062526  0.51051164  1
  O  O180  1  0.87347957  0.35085979  0.74869392  1
  O  O181  1  0.85176497  0.58854738  -0.02049598  1
  O  O182  1  0.88767164  0.64897638  0.26403918  1
  O  O183  1  0.84532288  0.62002277  0.50336020  1
  O  O184  1  0.88267967  0.66131720  0.74951609  1
  O  O185  1  0.87939267  0.90456959  0.00803139  1
  O  O186  1  0.84387124  0.86077234  0.24522670  1
  O  O187  1  0.91424741  0.90709136  0.49861560  1
  O  O188  1  0.85618223  0.86169592  0.74786440  1
  O  O189  1  -0.00945173  0.10070644  0.11841771  1
  O  O190  1  -0.00229547  0.08795675  0.38213849  1
  O  O191  1  0.00194565  0.12613907  0.65212782  1
  O  O192  1  0.00400748  0.09877863  0.87220066  1
  O  O193  1  -0.00209423  0.38553941  0.12912913  1
  O  O194  1  0.00932701  0.39602521  0.35602678  1
  O  O195  1  0.00836985  0.36170763  0.65075480  1
  O  O196  1  0.02021739  0.37238836  0.86338299  1
  O  O197  1  0.00089912  0.60995331  0.11480880  1
  O  O198  1  -0.00164810  0.59525492  0.38947372  1
  O  O199  1  0.00811540  0.63801764  0.62818447  1
  O  O200  1  0.00255947  0.61490384  0.88080265  1
  O  O201  1  0.00249777  0.88747165  0.14555772  1
  O  O202  1  -0.00219434  0.89302184  0.34562215  1
  O  O203  1  -0.00371760  0.87607706  0.64883150  1
  O  O204  1  0.00873815  0.89435101  0.87382093  1
  O  O205  1  0.24360765  0.14579589  0.12798150  1
  O  O206  1  0.24181577  0.12670190  0.36676274  1
  O  O207  1  0.25745919  0.10175478  0.61868731  1
  O  O208  1  0.24855529  0.12035430  0.91450432  1
  O  O209  1  0.25540785  0.35917588  0.11441399  1
  O  O210  1  0.24705469  0.34270882  0.40507738  1
  O  O211  1  0.25149944  0.40212487  0.59936099  1
  O  O212  1  0.25040720  0.36714563  0.90191651  1
  O  O213  1  0.25956156  0.62630303  0.11240729  1
  O  O214  1  0.23961310  0.64111520  0.35142300  1
  O  O215  1  0.25094371  0.62463901  0.63873865  1
  O  O216  1  0.25390083  0.63798434  0.88907076  1
  O  O217  1  0.25464677  0.84281697  0.12369559  1
  O  O218  1  0.25828472  0.83782047  0.38932956  1
  O  O219  1  0.25626895  0.85867901  0.61121875  1
  O  O220  1  0.25576859  0.84869050  0.88151909  1
  O  O221  1  0.50057456  0.13527346  0.13212448  1
  O  O222  1  0.49675026  0.10625221  0.35001535  1
  O  O223  1  0.49576790  0.13989629  0.66189600  1
  O  O224  1  0.49212217  0.12528195  0.84653125  1
  O  O225  1  0.49838962  0.39050004  0.13824298  1
  O  O226  1  0.49402310  0.40682639  0.36855928  1
  O  O227  1  0.49510706  0.37338955  0.63810499  1
  O  O228  1  0.49496590  0.39025934  0.86280079  1
  O  O229  1  0.49934550  0.59728532  0.13102191  1
  O  O230  1  0.49620411  0.58560049  0.38536476  1
  O  O231  1  0.49485966  0.60961945  0.63134016  1
  O  O232  1  0.50438335  0.58558650  0.87478754  1
  O  O233  1  0.49951996  0.87988854  0.12154036  1
  O  O234  1  0.50275798  0.88509279  0.35152457  1
  O  O235  1  0.50521741  0.87816909  0.66009713  1
  O  O236  1  0.49308072  0.86705301  0.87145279  1
  O  O237  1  0.74950789  0.12797535  0.12861869  1
  O  O238  1  0.75517063  0.15595360  0.38078776  1
  O  O239  1  0.75129647  0.12254243  0.60396266  1
  O  O240  1  0.75720515  0.16376035  0.90173739  1
  O  O241  1  0.74426121  0.36998522  0.11026924  1
  O  O242  1  0.74467865  0.33771360  0.37497087  1
  O  O243  1  0.74729084  0.35359116  0.63631617  1
  O  O244  1  0.73850828  0.34543589  0.88252806  1
  O  O245  1  0.74441171  0.63245617  0.12625761  1
  O  O246  1  0.75938217  0.66948264  0.36898311  1
  O  O247  1  0.74655645  0.65485502  0.64601994  1
  O  O248  1  0.74256394  0.63780050  0.85626155  1
  O  O249  1  0.74319764  0.88714908  0.10926801  1
  O  O250  1  0.74982051  0.86865234  0.41432314  1
  O  O251  1  0.74930929  0.88396015  0.60421677  1
  O  O252  1  0.74979654  0.87904431  0.88612952  1
  O  O253  1  0.16911108  -0.00741099  0.13935112  1
  O  O254  1  0.13729071  0.00188172  0.38625218  1
  O  O255  1  0.12402173  0.00070594  0.65163782  1
  O  O256  1  0.15392042  -0.00569725  0.86971750  1
  O  O257  1  0.11915771  0.26104847  0.13068442  1
  O  O258  1  0.10184421  0.24720601  0.37797193  1
  O  O259  1  0.15313640  0.25808466  0.61577532  1
  O  O260  1  0.12554849  0.24015179  0.90169767  1
  O  O261  1  0.14901258  0.49687945  0.13148662  1
  O  O262  1  0.15891379  0.48916635  0.38775295  1
  O  O263  1  0.12411735  0.50298569  0.63951284  1
  O  O264  1  0.14519271  0.50723177  0.86277009  1
  O  O265  1  0.11278711  0.75345330  0.10838655  1
  O  O266  1  0.09040633  0.74508257  0.38621647  1
  O  O267  1  0.13041482  0.74724696  0.62863415  1
  O  O268  1  0.11472760  0.75396405  0.90887796  1
  O  O269  1  0.36409625  -0.01092006  0.10374234  1
  O  O270  1  0.37452024  -0.00415107  0.38121872  1
  O  O271  1  0.39961596  0.00770138  0.62959630  1
  O  O272  1  0.36658190  -0.00181869  0.87740732  1
  O  O273  1  0.38214226  0.25746133  0.15768508  1
  O  O274  1  0.40373814  0.25520239  0.34559744  1
  O  O275  1  0.36064715  0.25566530  0.63545861  1
  O  O276  1  0.35649923  0.24864618  0.86626813  1
  O  O277  1  0.36393178  0.49280601  0.09870935  1
  O  O278  1  0.33464693  0.50343527  0.39473095  1
  O  O279  1  0.37374954  0.49750887  0.62782204  1
  O  O280  1  0.36388119  0.49511418  0.90642911  1
  O  O281  1  0.38973061  0.74028246  0.14628740  1
  O  O282  1  0.39185806  0.73164114  0.34947914  1
  O  O283  1  0.37896686  0.73527676  0.65150409  1
  O  O284  1  0.40173222  0.73124267  0.87000613  1
  O  O285  1  0.61472680  0.01423925  0.13530044  1
  O  O286  1  0.63460420  0.00309527  0.38526100  1
  O  O287  1  0.61844540  0.00306220  0.65598992  1
  O  O288  1  0.65244065  0.02304830  0.85772908  1
  O  O289  1  0.61903889  0.25481495  0.10392743  1
  O  O290  1  0.61021818  0.25077476  0.41387288  1
  O  O291  1  0.61925116  0.25873595  0.59392631  1
  O  O292  1  0.59238529  0.25496804  0.89425339  1
  O  O293  1  0.63048965  0.49762697  0.14985637  1
  O  O294  1  0.67019334  0.49598260  0.36803207  1
  O  O295  1  0.64052484  0.49347934  0.64063347  1
  O  O296  1  0.66498335  0.49059440  0.86729750  1
  O  O297  1  0.62003165  0.74868001  0.09706467  1
  O  O298  1  0.58583170  0.74890444  0.39415352  1
  O  O299  1  0.60653938  0.76074007  0.59636200  1
  O  O300  1  0.60276181  0.73806612  0.89026924  1
  O  O301  1  0.86397068  -0.00007785  0.15510403  1
  O  O302  1  0.84949668  0.00827348  0.34600348  1
  O  O303  1  0.87798337  0.00418160  0.64713387  1
  O  O304  1  0.85459844  0.00698051  0.85997409  1
  O  O305  1  0.87177524  0.24914302  0.08825736  1
  O  O306  1  0.90874928  0.24171190  0.38131936  1
  O  O307  1  0.88911982  0.24329271  0.62277506  1
  O  O308  1  0.90786502  0.23677750  0.89239310  1
  O  O309  1  0.87551682  0.49318286  0.13025270  1
  O  O310  1  0.86089924  0.50757580  0.37710191  1
  O  O311  1  0.87462608  0.48870052  0.64339190  1
  O  O312  1  0.86193683  0.50896616  0.83633760  1
  O  O313  1  0.87137779  0.75889197  0.10319886  1
  O  O314  1  0.91194780  0.75287808  0.40011837  1
  O  O315  1  0.87727680  0.76469584  0.58884329  1
  O  O316  1  0.87646739  0.74176545  0.90192592  1
