# generated using pymatgen
data_Mg32Ti42(Bi17O64)3
_symmetry_space_group_name_H-M   'P 1'
_cell_length_a   15.90195792
_cell_length_b   15.94728918
_cell_length_c   15.93357585
_cell_angle_alpha   90.15641810
_cell_angle_beta   90.01668726
_cell_angle_gamma   89.95029552
_symmetry_Int_Tables_number   1
_chemical_formula_structural   Mg32Ti42(Bi17O64)3
_chemical_formula_sum   'Mg32 Ti42 Bi51 O192'
_cell_volume   4040.62849063
_cell_formula_units_Z   1
loop_
 _symmetry_equiv_pos_site_id
 _symmetry_equiv_pos_as_xyz
  1  'x, y, z'
loop_
 _atom_site_type_symbol
 _atom_site_label
 _atom_site_symmetry_multiplicity
 _atom_site_fract_x
 _atom_site_fract_y
 _atom_site_fract_z
 _atom_site_occupancy
  Mg  Mg0  1  0.62507055  0.61946138  0.63078392  1
  Mg  Mg1  1  0.87166683  0.87969994  0.13014625  1
  Mg  Mg2  1  0.87900835  0.87023006  0.37609446  1
  Mg  Mg3  1  0.13749113  0.88019653  0.12344427  1
  Mg  Mg4  1  0.87509205  0.62769003  0.62482492  1
  Mg  Mg5  1  0.87531885  0.62061664  0.87303996  1
  Mg  Mg6  1  0.37300731  0.87301283  0.88053819  1
  Mg  Mg7  1  0.87345222  0.87339883  0.87922787  1
  Mg  Mg8  1  0.37308136  0.12153434  0.86692121  1
  Mg  Mg9  1  0.62258085  0.12082962  0.87573072  1
  Mg  Mg10  1  0.87546002  0.61882494  0.12556254  1
  Mg  Mg11  1  0.86618767  0.12463554  0.87576119  1
  Mg  Mg12  1  0.12252754  0.13309643  0.86481739  1
  Mg  Mg13  1  0.87028867  0.37732754  0.62844267  1
  Mg  Mg14  1  0.62463270  0.12463193  0.12403526  1
  Mg  Mg15  1  0.12678021  0.62440409  0.87983460  1
  Mg  Mg16  1  0.61833590  0.62289731  0.87923943  1
  Mg  Mg17  1  0.86417358  0.12609975  0.14530779  1
  Mg  Mg18  1  0.13003245  0.86439299  0.88486577  1
  Mg  Mg19  1  0.01074086  0.21819309  0.54500431  1
  Mg  Mg20  1  0.25875490  0.80603328  0.25726562  1
  Mg  Mg21  1  0.50451182  0.75288555  0.04309574  1
  Mg  Mg22  1  0.71831528  0.16952420  0.30398125  1
  Mg  Mg23  1  0.77039062  0.52362878  0.74337388  1
  Mg  Mg24  1  0.22412176  0.26182813  0.78290349  1
  Mg  Mg25  1  0.76518491  0.25134254  0.72614758  1
  Mg  Mg26  1  -0.00042828  0.73773518  -0.00331250  1
  Mg  Mg27  1  0.79622128  0.52360626  0.28139784  1
  Mg  Mg28  1  0.73647035  -0.01882993  0.24566572  1
  Mg  Mg29  1  0.19929909  0.00528449  -0.04200003  1
  Mg  Mg30  1  0.49148529  0.48476461  0.80217816  1
  Mg  Mg31  1  0.47145982  0.05454347  0.44947100  1
  Ti  Ti32  1  0.37141333  0.36675997  0.85927133  1
  Ti  Ti33  1  0.12989810  0.12028415  0.12406234  1
  Ti  Ti34  1  0.87559354  0.12451382  0.62557753  1
  Ti  Ti35  1  0.62615548  0.39488874  0.65603117  1
  Ti  Ti36  1  0.12659908  0.86468010  0.37790349  1
  Ti  Ti37  1  0.65092188  0.38180912  0.35941701  1
  Ti  Ti38  1  0.89629225  0.63690966  0.37779522  1
  Ti  Ti39  1  0.62029018  0.36785849  0.12806727  1
  Ti  Ti40  1  0.87604433  0.36952266  0.37171664  1
  Ti  Ti41  1  0.14550708  0.12714485  0.63224086  1
  Ti  Ti42  1  0.37686132  0.37424286  0.11246316  1
  Ti  Ti43  1  0.12394765  0.62771495  0.35823386  1
  Ti  Ti44  1  0.10854249  0.36973207  0.86496079  1
  Ti  Ti45  1  0.63300573  0.62227872  0.37075564  1
  Ti  Ti46  1  0.62332369  0.37586282  0.88573520  1
  Ti  Ti47  1  0.37247251  0.61800852  0.36868276  1
  Ti  Ti48  1  0.13047661  0.62156189  0.11605112  1
  Ti  Ti49  1  0.38243875  0.11896243  0.62941180  1
  Ti  Ti50  1  0.85902390  0.37767012  0.12744642  1
  Ti  Ti51  1  0.12681725  0.37155692  0.11075371  1
  Ti  Ti52  1  0.36576840  0.36189958  0.62931722  1
  Ti  Ti53  1  0.62927429  0.10253013  0.62249602  1
  Ti  Ti54  1  0.38419294  0.12078184  0.12621468  1
  Ti  Ti55  1  0.62663375  0.87250511  0.13054338  1
  Ti  Ti56  1  0.11565737  0.35790525  0.61884404  1
  Ti  Ti57  1  0.38045915  0.88892519  0.12941286  1
  Ti  Ti58  1  0.38450606  0.87603753  0.62390544  1
  Ti  Ti59  1  0.36956041  0.61178057  0.13578044  1
  Ti  Ti60  1  0.38300174  0.61278493  0.62355657  1
  Ti  Ti61  1  0.37641304  0.62009054  0.87867555  1
  Ti  Ti62  1  0.11826812  0.36631331  0.37843577  1
  Ti  Ti63  1  0.63046848  0.87680450  0.63247949  1
  Ti  Ti64  1  0.11170591  0.13220593  0.38774661  1
  Ti  Ti65  1  0.62121410  0.87888016  0.38478454  1
  Ti  Ti66  1  0.37069353  0.37867135  0.37075438  1
  Ti  Ti67  1  0.63074741  0.62579087  0.11933413  1
  Ti  Ti68  1  0.88102044  0.13404421  0.37694127  1
  Ti  Ti69  1  0.38247429  0.87519348  0.37011268  1
  Ti  Ti70  1  0.86106603  0.37418360  0.87384431  1
  Ti  Ti71  1  0.86942097  0.87000873  0.62676010  1
  Ti  Ti72  1  0.13036690  0.88363115  0.62232000  1
  Ti  Ti73  1  0.61766198  0.86232191  0.87878202  1
  Bi  Bi74  1  0.24007795  0.49110592  -0.03602082  1
  Bi  Bi75  1  0.03593374  0.70931566  0.53978001  1
  Bi  Bi76  1  0.50372809  0.74024135  0.51682740  1
  Bi  Bi77  1  0.27142229  0.73827356  0.48233506  1
  Bi  Bi78  1  0.51357144  0.25037813  0.27514110  1
  Bi  Bi79  1  0.77356661  0.75179635  0.26171389  1
  Bi  Bi80  1  0.73009571  0.24354891  0.00400252  1
  Bi  Bi81  1  0.50820119  0.24199017  0.51322559  1
  Bi  Bi82  1  0.22577795  0.50619951  0.73313949  1
  Bi  Bi83  1  0.76759070  -0.00358607  0.47902755  1
  Bi  Bi84  1  0.78523882  0.75274524  0.01109144  1
  Bi  Bi85  1  0.76210316  0.51270708  -0.02367617  1
  Bi  Bi86  1  0.51121360  0.51760341  0.01537436  1
  Bi  Bi87  1  0.76726489  0.01345514  0.02700791  1
  Bi  Bi88  1  -0.00624975  0.48731879  0.23417593  1
  Bi  Bi89  1  0.74238347  0.73442172  0.52134023  1
  Bi  Bi90  1  0.29204175  0.75133688  0.02378381  1
  Bi  Bi91  1  -0.02326612  0.48588336  0.50181228  1
  Bi  Bi92  1  0.21546159  0.50598015  0.49046311  1
  Bi  Bi93  1  0.01159965  0.76512112  0.21234313  1
  Bi  Bi94  1  0.50450441  -0.02136463  -0.00199126  1
  Bi  Bi95  1  0.23223525  -0.02125331  0.76482100  1
  Bi  Bi96  1  0.73981848  0.71843423  0.76616428  1
  Bi  Bi97  1  0.23844362  0.47129499  0.24219380  1
  Bi  Bi98  1  0.51578061  0.50643767  0.25781164  1
  Bi  Bi99  1  0.01234897  0.52953480  0.72813768  1
  Bi  Bi100  1  0.27406732  -0.01390327  0.50205786  1
  Bi  Bi101  1  -0.00196420  -0.02854375  0.49727960  1
  Bi  Bi102  1  0.24034286  0.71853124  0.71012392  1
  Bi  Bi103  1  0.26093332  0.22410308  -0.01727544  1
  Bi  Bi104  1  -0.02562945  0.21845838  -0.00437790  1
  Bi  Bi105  1  0.26688903  0.24170644  0.23553222  1
  Bi  Bi106  1  0.74950361  0.23567533  0.50938092  1
  Bi  Bi107  1  0.00047598  -0.02942748  -0.00056653  1
  Bi  Bi108  1  0.53042693  0.02705815  0.27143432  1
  Bi  Bi109  1  0.49697025  0.24091246  -0.01595560  1
  Bi  Bi110  1  0.27956853  0.22111016  0.47720693  1
  Bi  Bi111  1  0.48616259  0.73867160  0.76766954  1
  Bi  Bi112  1  -0.00053777  0.24929243  0.22646308  1
  Bi  Bi113  1  0.00079244  0.74382437  0.79509033  1
  Bi  Bi114  1  0.24372709  0.03016917  0.27965373  1
  Bi  Bi115  1  0.01176724  0.00043627  0.24430045  1
  Bi  Bi116  1  0.49036052  -0.01378593  0.77384179  1
  Bi  Bi117  1  0.51088421  0.74673751  0.25963846  1
  Bi  Bi118  1  -0.00556001  -0.02361939  0.76503828  1
  Bi  Bi119  1  0.49396283  0.46387997  0.50734843  1
  Bi  Bi120  1  0.73483519  0.49024557  0.51756226  1
  Bi  Bi121  1  -0.00536878  0.50168033  0.00817218  1
  Bi  Bi122  1  0.53913274  0.23784381  0.75196232  1
  Bi  Bi123  1  0.75321899  -0.00407810  0.78301809  1
  Bi  Bi124  1  -0.02627602  0.23941074  0.75623297  1
  O  O125  1  0.10762829  0.09720222  0.01227721  1
  O  O126  1  0.15736495  0.14550107  0.25487886  1
  O  O127  1  0.08682114  0.12196507  0.49878577  1
  O  O128  1  0.16855607  0.15519398  0.74037905  1
  O  O129  1  0.13180808  0.38782537  -0.00392013  1
  O  O130  1  0.12540856  0.37097340  0.25730067  1
  O  O131  1  0.12544301  0.39738665  0.50140665  1
  O  O132  1  0.12542626  0.34433790  0.74754087  1
  O  O133  1  0.11931290  0.58984666  0.00204286  1
  O  O134  1  0.13250089  0.64386023  0.24396786  1
  O  O135  1  0.10369630  0.60377790  0.49160148  1
  O  O136  1  0.14987485  0.62346083  0.75139208  1
  O  O137  1  0.12742660  0.91229888  0.00420808  1
  O  O138  1  0.12892443  0.83834976  0.25317420  1
  O  O139  1  0.13446857  0.90719510  0.49544930  1
  O  O140  1  0.13737151  0.87022357  0.74315483  1
  O  O141  1  0.38620743  0.14944276  0.00634498  1
  O  O142  1  0.34498867  0.12582764  0.24069857  1
  O  O143  1  0.40007182  0.14997231  0.49706887  1
  O  O144  1  0.37476395  0.09341096  0.73899042  1
  O  O145  1  0.36438325  0.35738653  -0.00188071  1
  O  O146  1  0.36734124  0.39533937  0.25339654  1
  O  O147  1  0.38100666  0.36420936  0.50304598  1
  O  O148  1  0.39598283  0.39190552  0.74619890  1
  O  O149  1  0.39322669  0.63166203  -0.00662124  1
  O  O150  1  0.35182172  0.60586881  0.25004755  1
  O  O151  1  0.38999053  0.64974119  0.49301280  1
  O  O152  1  0.35576655  0.61784828  0.73831440  1
  O  O153  1  0.39604038  0.85737955  0.00774214  1
  O  O154  1  0.37022946  0.87255907  0.24825001  1
  O  O155  1  0.36276495  0.85835429  0.49044176  1
  O  O156  1  0.37695960  0.90235548  0.73730450  1
  O  O157  1  0.61087841  0.15914106  -0.00177748  1
  O  O158  1  0.65500864  0.08048748  0.24478435  1
  O  O159  1  0.62116851  0.16463662  0.52014780  1
  O  O160  1  0.61939180  0.11792224  0.74189052  1
  O  O161  1  0.61411405  0.34647148  0.00220308  1
  O  O162  1  0.61511765  0.40790597  0.23967852  1
  O  O163  1  0.65558669  0.36625061  0.47558116  1
  O  O164  1  0.59628538  0.42094404  0.76148189  1
  O  O165  1  0.57867369  0.64534295  0.00821726  1
  O  O166  1  0.62236298  0.60497342  0.24149729  1
  O  O167  1  0.61454545  0.65350608  0.48569384  1
  O  O168  1  0.66837398  0.60418737  0.75008106  1
  O  O169  1  0.58872194  0.84839080  -0.00798031  1
  O  O170  1  0.63577186  0.89818539  0.24343130  1
  O  O171  1  0.63497964  0.84788542  0.49328531  1
  O  O172  1  0.62559142  0.89760565  0.74350954  1
  O  O173  1  0.89706253  0.10721046  0.00801012  1
  O  O174  1  0.83942244  0.14605777  0.26914749  1
  O  O175  1  0.90390385  0.14809383  0.51088290  1
  O  O176  1  0.85569326  0.16055458  0.74954033  1
  O  O177  1  0.87255233  0.40992599  0.01328952  1
  O  O178  1  0.90164028  0.36256971  0.25133230  1
  O  O179  1  0.86030087  0.40577473  0.49222415  1
  O  O180  1  0.85138438  0.34211155  0.76467042  1
  O  O181  1  0.88487934  0.58758706  -0.00085072  1
  O  O182  1  0.85871102  0.64295134  0.25173220  1
  O  O183  1  0.91069115  0.61640086  0.49516240  1
  O  O184  1  0.84369479  0.62729517  0.74750928  1
  O  O185  1  0.87234272  0.90041002  0.00421934  1
  O  O186  1  0.87479744  0.84395580  0.25153017  1
  O  O187  1  0.87397727  0.89706496  0.50248547  1
  O  O188  1  0.89436521  0.86577575  0.74331851  1
  O  O189  1  0.00092382  0.11702028  0.16372361  1
  O  O190  1  -0.00214113  0.14835505  0.34693566  1
  O  O191  1  -0.00097901  0.15131213  0.65248794  1
  O  O192  1  -0.00482774  0.15316862  0.86202920  1
  O  O193  1  0.00550833  0.40092923  0.12052943  1
  O  O194  1  -0.00018335  0.37132178  0.38736171  1
  O  O195  1  0.00058029  0.33993671  0.60588741  1
  O  O196  1  -0.00793422  0.37222486  0.87517038  1
  O  O197  1  0.00134200  0.58458886  0.12784116  1
  O  O198  1  0.00502536  0.66193212  0.35505516  1
  O  O199  1  0.00014276  0.64782741  0.65697787  1
  O  O200  1  -0.00076361  0.61590698  0.84779859  1
  O  O201  1  0.00291671  0.89365818  0.14015926  1
  O  O202  1  0.00698972  0.87947773  0.38481203  1
  O  O203  1  0.00879110  0.87789332  0.60797221  1
  O  O204  1  0.00267861  0.89260866  0.87681092  1
  O  O205  1  0.24401826  0.14713740  0.10879666  1
  O  O206  1  0.23529002  0.10937547  0.40363188  1
  O  O207  1  0.25788780  0.11147225  0.59172316  1
  O  O208  1  0.24898722  0.10977705  0.90711769  1
  O  O209  1  0.24521438  0.36470312  0.13602655  1
  O  O210  1  0.24669052  0.40428031  0.38313424  1
  O  O211  1  0.25457659  0.38626109  0.63166029  1
  O  O212  1  0.25423320  0.39190222  0.85930922  1
  O  O213  1  0.24832687  0.64447372  0.10757297  1
  O  O214  1  0.24755377  0.61578600  0.39687623  1
  O  O215  1  0.26136343  0.62011422  0.60871861  1
  O  O216  1  0.25732449  0.60885831  0.88911571  1
  O  O217  1  0.26049534  0.84160820  0.12877643  1
  O  O218  1  0.24468043  0.89146249  0.36026720  1
  O  O219  1  0.25589938  0.90381627  0.61849179  1
  O  O220  1  0.25174098  0.90720373  0.88211374  1
  O  O221  1  0.49683919  0.11231520  0.14757883  1
  O  O222  1  0.51008185  0.13539696  0.35331869  1
  O  O223  1  0.50344873  0.15034333  0.62675153  1
  O  O224  1  0.49832549  0.16369544  0.86625579  1
  O  O225  1  0.49384677  0.39705580  0.11855491  1
  O  O226  1  0.49499165  0.35665490  0.37142413  1
  O  O227  1  0.51474247  0.36099286  0.60804098  1
  O  O228  1  0.49659016  0.35360760  0.87822269  1
  O  O229  1  0.48876127  0.59392043  0.14136019  1
  O  O230  1  0.49136309  0.63802401  0.34845917  1
  O  O231  1  0.50036953  0.65242714  0.62546562  1
  O  O232  1  0.49647741  0.61192619  0.83372781  1
  O  O233  1  0.49946822  0.88391738  0.13548361  1
  O  O234  1  0.49749025  0.84390193  0.36701781  1
  O  O235  1  0.50543216  0.85433327  0.61973764  1
  O  O236  1  0.49863082  0.86267571  0.84344930  1
  O  O237  1  0.74819710  0.14040384  0.09479628  1
  O  O238  1  0.75883576  0.12385752  0.41425213  1
  O  O239  1  0.74911541  0.11497130  0.61001657  1
  O  O240  1  0.74381668  0.09058366  0.88336081  1
  O  O241  1  0.74542718  0.35610441  0.11750292  1
  O  O242  1  0.76104505  0.41405867  0.34065533  1
  O  O243  1  0.74708911  0.43508869  0.64796371  1
  O  O244  1  0.74245014  0.38043314  0.90238308  1
  O  O245  1  0.74431836  0.64573067  0.10061521  1
  O  O246  1  0.74513203  0.60251178  0.37380013  1
  O  O247  1  0.75167435  0.61305435  0.58958613  1
  O  O248  1  0.74687722  0.64218078  0.90271186  1
  O  O249  1  0.74174446  0.83985541  0.11812793  1
  O  O250  1  0.74067861  0.91769678  0.36632137  1
  O  O251  1  0.75411160  0.89515405  0.62699936  1
  O  O252  1  0.73969313  0.88473392  0.87124762  1
  O  O253  1  0.13424776  0.00627344  0.16735362  1
  O  O254  1  0.11141536  0.01193840  0.34919308  1
  O  O255  1  0.12114769  0.01214619  0.64204924  1
  O  O256  1  0.11986497  0.00963368  0.84722676  1
  O  O257  1  0.10140483  0.25292231  0.11996797  1
  O  O258  1  0.13806250  0.25399500  0.39200671  1
  O  O259  1  0.13759852  0.24558946  0.59355572  1
  O  O260  1  0.14542019  0.25670281  0.88682743  1
  O  O261  1  0.14281438  0.49733485  0.14108888  1
  O  O262  1  0.12129758  0.51037810  0.36011037  1
  O  O263  1  0.11820798  0.48388216  0.64476204  1
  O  O264  1  0.13202486  0.48943534  0.85641740  1
  O  O265  1  0.08668224  0.73605951  0.09649348  1
  O  O266  1  0.14172206  0.75233546  0.40374343  1
  O  O267  1  0.14911509  0.76481715  0.60588203  1
  O  O268  1  0.09218642  0.74604884  0.90170824  1
  O  O269  1  0.36319819  0.00172698  0.11436022  1
  O  O270  1  0.38555772  -0.01021684  0.38472695  1
  O  O271  1  0.39646326  0.00410834  0.58202275  1
  O  O272  1  0.41318554  0.00051933  0.88738067  1
  O  O273  1  0.38296004  0.25653691  0.14381637  1
  O  O274  1  0.34465313  0.26272746  0.36115198  1
  O  O275  1  0.36315581  0.24775864  0.63713711  1
  O  O276  1  0.33522031  0.25097576  0.85105683  1
  O  O277  1  0.34618742  0.49751210  0.11109737  1
  O  O278  1  0.38862745  0.50451320  0.39101549  1
  O  O279  1  0.39936395  0.50058494  0.60633825  1
  O  O280  1  0.38902211  0.49321046  0.88163438  1
  O  O281  1  0.39468891  0.73499114  0.11861673  1
  O  O282  1  0.33869640  0.74869795  0.35621154  1
  O  O283  1  0.36302964  0.76022963  0.62842924  1
  O  O284  1  0.37686077  0.74089821  0.85740904  1
  O  O285  1  0.63705615  -0.01415460  0.08930785  1
  O  O286  1  0.57769241  -0.01460658  0.40044278  1
  O  O287  1  0.61525156  -0.00535214  0.59803393  1
  O  O288  1  0.59197971  -0.00840532  0.88841764  1
  O  O289  1  0.60612751  0.25732438  0.15089910  1
  O  O290  1  0.64421865  0.26628536  0.33059498  1
  O  O291  1  0.65890913  0.28206704  0.66350749  1
  O  O292  1  0.64611842  0.26225213  0.84148646  1
  O  O293  1  0.62976983  0.50671864  0.09270285  1
  O  O294  1  0.60188865  0.50339964  0.37934400  1
  O  O295  1  0.60823255  0.49944358  0.59016155  1
  O  O296  1  0.61091680  0.49618572  0.90715231  1
  O  O297  1  0.59575236  0.74701120  0.13842744  1
  O  O298  1  0.62908713  0.74776333  0.33854502  1
  O  O299  1  0.65691380  0.75335374  0.63605395  1
  O  O300  1  0.61417540  0.74820031  0.84307407  1
  O  O301  1  0.82568222  -0.00145433  0.15555320  1
  O  O302  1  0.88532311  0.01601783  0.39088198  1
  O  O303  1  0.89116387  0.01113721  0.63418743  1
  O  O304  1  0.88021540  0.00219243  0.84250651  1
  O  O305  1  0.90034018  0.25668329  0.12007039  1
  O  O306  1  0.85280285  0.26242822  0.39278405  1
  O  O307  1  0.83763405  0.25707527  0.61889595  1
  O  O308  1  0.86292049  0.25625164  0.92046008  1
  O  O309  1  0.85725406  0.49294127  0.17082470  1
  O  O310  1  0.90080039  0.51543766  0.35692838  1
  O  O311  1  0.91195531  0.49894323  0.63132798  1
  O  O312  1  0.84199379  0.49364925  0.85497944  1
  O  O313  1  0.90233512  0.74280086  0.08768181  1
  O  O314  1  0.84117126  0.74582893  0.38721709  1
  O  O315  1  0.85879001  0.75663577  0.60662240  1
  O  O316  1  0.90496843  0.74835713  0.90087135  1
