# generated using pymatgen
data_Mg32Ti42(Bi17O64)3
_symmetry_space_group_name_H-M   'P 1'
_cell_length_a   15.93777325
_cell_length_b   15.91353513
_cell_length_c   15.89766504
_cell_angle_alpha   89.90712589
_cell_angle_beta   89.98097105
_cell_angle_gamma   90.01777911
_symmetry_Int_Tables_number   1
_chemical_formula_structural   Mg32Ti42(Bi17O64)3
_chemical_formula_sum   'Mg32 Ti42 Bi51 O192'
_cell_volume   4032.06047683
_cell_formula_units_Z   1
loop_
 _symmetry_equiv_pos_site_id
 _symmetry_equiv_pos_as_xyz
  1  'x, y, z'
loop_
 _atom_site_type_symbol
 _atom_site_label
 _atom_site_symmetry_multiplicity
 _atom_site_fract_x
 _atom_site_fract_y
 _atom_site_fract_z
 _atom_site_occupancy
  Mg  Mg0  1  0.35466293  0.63329667  0.62832362  1
  Mg  Mg1  1  0.87648042  0.87757790  0.12361852  1
  Mg  Mg2  1  0.63159218  0.63305170  0.37967106  1
  Mg  Mg3  1  0.12235784  0.86872410  0.37619883  1
  Mg  Mg4  1  0.12497174  0.38361808  0.37171530  1
  Mg  Mg5  1  0.37003256  0.87019973  0.87525682  1
  Mg  Mg6  1  0.36742004  0.62055056  0.86563586  1
  Mg  Mg7  1  0.88110279  0.37127678  0.86242637  1
  Mg  Mg8  1  0.38004852  0.63040216  0.37137048  1
  Mg  Mg9  1  0.61797721  0.87377798  0.12100995  1
  Mg  Mg10  1  0.62710390  0.37802422  0.13307624  1
  Mg  Mg11  1  0.88046938  0.62818894  0.87635261  1
  Mg  Mg12  1  0.38345386  0.37208421  0.61628280  1
  Mg  Mg13  1  0.85031456  0.10809141  0.37442113  1
  Mg  Mg14  1  0.61638954  0.12769748  0.61335743  1
  Mg  Mg15  1  0.12226927  0.12849804  0.87465914  1
  Mg  Mg16  1  0.36846036  0.13565653  0.86958606  1
  Mg  Mg17  1  0.62855736  0.38033320  0.86096687  1
  Mg  Mg18  1  0.12419747  0.11477040  0.62872970  1
  Mg  Mg19  1  0.49636334  0.72582644  0.19895763  1
  Mg  Mg20  1  0.24942890  0.76134146  0.76678046  1
  Mg  Mg21  1  -0.00922502  0.24792525  0.04556357  1
  Mg  Mg22  1  0.24163001  0.03905628  0.73751705  1
  Mg  Mg23  1  -0.00534226  0.44910027  -0.00577435  1
  Mg  Mg24  1  0.75790859  0.53003524  0.75663526  1
  Mg  Mg25  1  0.50549610  0.48026434  0.48524818  1
  Mg  Mg26  1  0.50229235  0.21941370  0.49474228  1
  Mg  Mg27  1  -0.02506687  0.18179837  0.50317988  1
  Mg  Mg28  1  0.69891975  0.76450768  0.50598989  1
  Mg  Mg29  1  0.72381720  0.24665358  0.20610347  1
  Mg  Mg30  1  0.49124003  0.00556889  0.52858788  1
  Mg  Mg31  1  0.77707449  0.05291610  0.56067337  1
  Ti  Ti32  1  0.37510481  0.87040868  0.11560999  1
  Ti  Ti33  1  0.37546751  0.14140859  0.61444555  1
  Ti  Ti34  1  0.61090095  0.12049850  0.14075962  1
  Ti  Ti35  1  0.13589469  0.88165171  0.86490726  1
  Ti  Ti36  1  0.12633121  0.87632698  0.11832129  1
  Ti  Ti37  1  0.12614531  0.38753241  0.62070608  1
  Ti  Ti38  1  0.88589094  0.38343915  0.62884270  1
  Ti  Ti39  1  0.89056403  0.13284137  0.88981133  1
  Ti  Ti40  1  0.86909383  0.87438036  0.88377412  1
  Ti  Ti41  1  0.62447442  0.10857528  0.38634201  1
  Ti  Ti42  1  0.37911863  0.87458099  0.38739636  1
  Ti  Ti43  1  0.64245838  0.61314552  0.62372998  1
  Ti  Ti44  1  0.36298348  0.61957581  0.13322274  1
  Ti  Ti45  1  0.12988130  0.62636763  0.37781022  1
  Ti  Ti46  1  0.87969780  0.62030310  0.63253977  1
  Ti  Ti47  1  0.11985183  0.62030065  0.12714503  1
  Ti  Ti48  1  0.12612119  0.13625950  0.11281875  1
  Ti  Ti49  1  0.85535956  0.86142091  0.61932217  1
  Ti  Ti50  1  0.38193729  0.37579170  0.86414614  1
  Ti  Ti51  1  0.86702910  0.62732419  0.38295249  1
  Ti  Ti52  1  0.85811196  0.86420397  0.38176165  1
  Ti  Ti53  1  0.87573968  0.37412331  0.13901057  1
  Ti  Ti54  1  0.61344996  0.87327971  0.38522006  1
  Ti  Ti55  1  0.13122634  0.63627778  0.63845040  1
  Ti  Ti56  1  0.37911482  0.11147031  0.37933756  1
  Ti  Ti57  1  0.87514708  0.62674778  0.11821175  1
  Ti  Ti58  1  0.86493192  0.12596979  0.14056973  1
  Ti  Ti59  1  0.61368930  0.87708362  0.87269362  1
  Ti  Ti60  1  0.62363106  0.61682421  0.12238002  1
  Ti  Ti61  1  0.12717125  0.62096959  0.88166978  1
  Ti  Ti62  1  0.88564817  0.37697274  0.37545920  1
  Ti  Ti63  1  0.63405717  0.36935264  0.37559506  1
  Ti  Ti64  1  0.61439068  0.89042418  0.61668529  1
  Ti  Ti65  1  0.37195609  0.13438008  0.12873487  1
  Ti  Ti66  1  0.38245701  0.37191194  0.13158730  1
  Ti  Ti67  1  0.35798459  0.87690436  0.61617026  1
  Ti  Ti68  1  0.13242905  0.88306386  0.62993241  1
  Ti  Ti69  1  0.11933913  0.36696921  0.87708740  1
  Ti  Ti70  1  0.12377184  0.38005369  0.12219344  1
  Ti  Ti71  1  0.62470618  0.61518841  0.87006475  1
  Ti  Ti72  1  0.38465308  0.36691816  0.38080751  1
  Ti  Ti73  1  0.61482131  0.35889057  0.61836330  1
  Bi  Bi74  1  -0.00395211  0.22427235  0.29643505  1
  Bi  Bi75  1  0.00600525  0.75687683  0.01308328  1
  Bi  Bi76  1  0.25827486  0.77376960  0.25309168  1
  Bi  Bi77  1  0.77606812  0.26405452  -0.00741071  1
  Bi  Bi78  1  -0.03789275  -0.00992958  0.75565770  1
  Bi  Bi79  1  0.22813118  0.24816797  0.72021019  1
  Bi  Bi80  1  0.25793507  0.25220258  -0.01710838  1
  Bi  Bi81  1  0.48576695  0.51667432  0.71544867  1
  Bi  Bi82  1  -0.01322308  -0.00131309  0.27843463  1
  Bi  Bi83  1  0.71610715  0.75886295  -0.00581666  1
  Bi  Bi84  1  0.72543048  0.74544223  0.75784179  1
  Bi  Bi85  1  0.00635994  0.49413971  0.49708551  1
  Bi  Bi86  1  0.25742323  0.47402081  0.74093918  1
  Bi  Bi87  1  0.77285327  0.49456316  -0.03193684  1
  Bi  Bi88  1  -0.00328002  0.73823643  0.51264005  1
  Bi  Bi89  1  -0.01991784  0.22507667  0.70497929  1
  Bi  Bi90  1  0.23093538  0.01733907  0.24239778  1
  Bi  Bi91  1  0.01008082  0.51714834  0.77788974  1
  Bi  Bi92  1  0.74959014  0.24531312  0.75837161  1
  Bi  Bi93  1  0.27011848  0.49585448  0.48239777  1
  Bi  Bi94  1  0.45240424  0.00842909  0.74368044  1
  Bi  Bi95  1  -0.01366427  0.76239592  0.75648579  1
  Bi  Bi96  1  0.53295507  0.21457839  0.78015450  1
  Bi  Bi97  1  0.25503483  0.47891004  -0.00797706  1
  Bi  Bi98  1  0.72252260  0.04089431  -0.01739794  1
  Bi  Bi99  1  0.47035427  0.75754613  0.74797897  1
  Bi  Bi100  1  0.53207646  0.25884637  0.00801238  1
  Bi  Bi101  1  -0.01294628  0.51988725  0.26147001  1
  Bi  Bi102  1  0.19748552  0.23541875  0.49173520  1
  Bi  Bi103  1  0.48387224  -0.02783514  0.23708969  1
  Bi  Bi104  1  0.51941407  0.24147665  0.27815241  1
  Bi  Bi105  1  0.48138449  0.01905960  -0.02875321  1
  Bi  Bi106  1  0.00347090  0.76083421  0.26809371  1
  Bi  Bi107  1  0.50193857  0.71542156  0.51241476  1
  Bi  Bi108  1  0.23587394  0.73530861  -0.01696593  1
  Bi  Bi109  1  0.50265061  0.48138074  -0.00846344  1
  Bi  Bi110  1  0.78368474  0.23884971  0.51326988  1
  Bi  Bi111  1  -0.02809326  -0.00587422  0.52950821  1
  Bi  Bi112  1  -0.00627609  0.01372924  0.01732134  1
  Bi  Bi113  1  0.71762187  0.01308103  0.75441910  1
  Bi  Bi114  1  0.23240828  0.24136332  0.28270662  1
  Bi  Bi115  1  0.46983973  0.72678499  -0.00630614  1
  Bi  Bi116  1  0.51463116  0.52432629  0.27572585  1
  Bi  Bi117  1  0.24396602  0.01386164  -0.02230089  1
  Bi  Bi118  1  0.20336742  0.01301804  0.47554890  1
  Bi  Bi119  1  0.74978657  0.51221982  0.25273222  1
  Bi  Bi120  1  0.25656640  0.47772672  0.25342070  1
  Bi  Bi121  1  0.73785732  -0.02843811  0.24024661  1
  Bi  Bi122  1  0.74756641  0.75986908  0.21935212  1
  Bi  Bi123  1  0.74760752  0.47507894  0.51447395  1
  Bi  Bi124  1  0.25669537  0.73504140  0.48370370  1
  O  O125  1  0.12068021  0.08783827  0.00184050  1
  O  O126  1  0.14989821  0.13537465  0.23421673  1
  O  O127  1  0.11560452  0.12144873  0.50068158  1
  O  O128  1  0.15076512  0.13737421  0.75073855  1
  O  O129  1  0.12067331  0.41498300  -0.00804122  1
  O  O130  1  0.13759849  0.36574481  0.23691990  1
  O  O131  1  0.11714694  0.39592314  0.50474432  1
  O  O132  1  0.14096913  0.36435878  0.75606822  1
  O  O133  1  0.15737481  0.60870852  -0.00450482  1
  O  O134  1  0.09875093  0.63961175  0.24273922  1
  O  O135  1  0.14897805  0.61971217  0.49510722  1
  O  O136  1  0.09044028  0.64202513  0.74972502  1
  O  O137  1  0.12140963  0.89759186  -0.00556496  1
  O  O138  1  0.13645949  0.84055283  0.24101662  1
  O  O139  1  0.11546773  0.90915364  0.50174445  1
  O  O140  1  0.14852593  0.84177082  0.74643388  1
  O  O141  1  0.40411417  0.12289586  0.01037478  1
  O  O142  1  0.34568852  0.13220550  0.24998261  1
  O  O143  1  0.40052845  0.10268927  0.49891428  1
  O  O144  1  0.35014017  0.12575130  0.74126843  1
  O  O145  1  0.38551205  0.40087793  0.00364015  1
  O  O146  1  0.35991965  0.36929998  0.25168179  1
  O  O147  1  0.39014289  0.41592262  0.49265274  1
  O  O148  1  0.36168417  0.36397175  0.75105956  1
  O  O149  1  0.36437825  0.63079050  0.00317064  1
  O  O150  1  0.40577899  0.64360931  0.24572829  1
  O  O151  1  0.34034314  0.61652009  0.50147393  1
  O  O152  1  0.40763032  0.63602485  0.74323722  1
  O  O153  1  0.39908674  0.86458217  0.00328715  1
  O  O154  1  0.36226215  0.87283913  0.25906467  1
  O  O155  1  0.39551982  0.90875236  0.50293474  1
  O  O156  1  0.35586123  0.83677107  0.74053228  1
  O  O157  1  0.60426589  0.10417349  0.01822914  1
  O  O158  1  0.63790398  0.15925277  0.25813034  1
  O  O159  1  0.57622929  0.10308509  0.49280708  1
  O  O160  1  0.63837547  0.13584321  0.74317795  1
  O  O161  1  0.60631861  0.38470835  -0.00058821  1
  O  O162  1  0.63818616  0.33844377  0.26073186  1
  O  O163  1  0.61797075  0.41604476  0.49674373  1
  O  O164  1  0.63329502  0.33576349  0.73546921  1
  O  O165  1  0.65315702  0.62077544  -0.00581664  1
  O  O166  1  0.59362122  0.64649897  0.24476632  1
  O  O167  1  0.66539708  0.63498245  0.51057503  1
  O  O168  1  0.61469229  0.64990757  0.74433986  1
  O  O169  1  0.62369381  0.87180033  -0.00697573  1
  O  O170  1  0.65406373  0.86119800  0.26595345  1
  O  O171  1  0.60016788  0.90870869  0.49958365  1
  O  O172  1  0.64447202  0.88888065  0.74631083  1
  O  O173  1  0.87687500  0.09253126  0.00731576  1
  O  O174  1  0.86026343  0.15698786  0.25357291  1
  O  O175  1  0.87253502  0.10760093  0.49873010  1
  O  O176  1  0.87639467  0.15468982  0.77061245  1
  O  O177  1  0.87003960  0.40156485  0.00147465  1
  O  O178  1  0.89181345  0.35290116  0.25689177  1
  O  O179  1  0.88436577  0.41389031  0.50051435  1
  O  O180  1  0.87015536  0.33869268  0.73702731  1
  O  O181  1  0.85505275  0.60012214  0.00216405  1
  O  O182  1  0.90746829  0.63353302  0.24376328  1
  O  O183  1  0.86142960  0.61508267  0.49799248  1
  O  O184  1  0.91302903  0.63312780  0.74673105  1
  O  O185  1  0.89284840  0.89034403  -0.00564108  1
  O  O186  1  0.85015954  0.85153453  0.25795196  1
  O  O187  1  0.90205321  0.87063690  0.50227440  1
  O  O188  1  0.87668911  0.86568785  0.74194886  1
  O  O189  1  0.00534065  0.13322671  0.11334164  1
  O  O190  1  -0.01445687  0.10964251  0.36860727  1
  O  O191  1  -0.00046437  0.11640082  0.62439761  1
  O  O192  1  -0.00026174  0.08804987  0.88245996  1
  O  O193  1  0.00185235  0.36605328  0.09784405  1
  O  O194  1  0.00068486  0.41185193  0.37538977  1
  O  O195  1  0.00077339  0.40447203  0.63549024  1
  O  O196  1  0.00327718  0.40151138  0.87403390  1
  O  O197  1  0.00177563  0.63414430  0.09414928  1
  O  O198  1  0.00272111  0.59539299  0.38655498  1
  O  O199  1  -0.00152221  0.61491594  0.59608310  1
  O  O200  1  0.00626003  0.58806423  0.89556316  1
  O  O201  1  0.00680855  0.85859651  0.12603242  1
  O  O202  1  -0.00426821  0.88216808  0.35149540  1
  O  O203  1  0.01387982  0.90322788  0.64070455  1
  O  O204  1  0.01237187  0.89500246  0.84531067  1
  O  O205  1  0.25493578  0.11268519  0.10066680  1
  O  O206  1  0.26366364  0.15638284  0.39472528  1
  O  O207  1  0.25428615  0.15387487  0.60420246  1
  O  O208  1  0.24964023  0.13563975  0.90646903  1
  O  O209  1  0.24619008  0.38461630  0.10265577  1
  O  O210  1  0.25866730  0.35860876  0.38416590  1
  O  O211  1  0.24701391  0.37237566  0.62131127  1
  O  O212  1  0.24901442  0.36831254  0.89753558  1
  O  O213  1  0.24790530  0.62581226  0.14659243  1
  O  O214  1  0.24318145  0.66538883  0.35825184  1
  O  O215  1  0.23855508  0.66839997  0.66225977  1
  O  O216  1  0.24140806  0.66269911  0.85482841  1
  O  O217  1  0.25533905  0.86869338  0.11754342  1
  O  O218  1  0.25337757  0.84436619  0.38243757  1
  O  O219  1  0.25096963  0.85101886  0.59350337  1
  O  O220  1  0.24672536  0.83847633  0.88213036  1
  O  O221  1  0.49687560  0.13351056  0.15794255  1
  O  O222  1  0.49496104  0.11678559  0.34490340  1
  O  O223  1  0.48934709  0.09330888  0.64046781  1
  O  O224  1  0.49202675  0.10740931  0.85791572  1
  O  O225  1  0.49554588  0.36823164  0.13174482  1
  O  O226  1  0.50068702  0.40554203  0.36658805  1
  O  O227  1  0.50869276  0.40920730  0.62510394  1
  O  O228  1  0.49649181  0.40951992  0.86843665  1
  O  O229  1  0.50737995  0.62771196  0.10234212  1
  O  O230  1  0.50347415  0.58684785  0.40207264  1
  O  O231  1  0.52213633  0.59075919  0.59945831  1
  O  O232  1  0.51150266  0.60206124  0.89463300  1
  O  O233  1  0.49965163  0.85683294  0.16043902  1
  O  O234  1  0.49872065  0.88751083  0.35929096  1
  O  O235  1  0.50374938  0.91736683  0.63635276  1
  O  O236  1  0.50333828  0.88691564  0.85567073  1
  O  O237  1  0.74804366  0.12737403  0.12633747  1
  O  O238  1  0.73224980  0.13467799  0.41421036  1
  O  O239  1  0.74270802  0.16147898  0.61387119  1
  O  O240  1  0.76102941  0.14771026  0.90153500  1
  O  O241  1  0.75950819  0.35825753  0.14116142  1
  O  O242  1  0.75425729  0.37329235  0.39567326  1
  O  O243  1  0.75090261  0.35960722  0.59636309  1
  O  O244  1  0.75575611  0.33896788  0.87509936  1
  O  O245  1  0.75405325  0.61461595  0.14931405  1
  O  O246  1  0.75622887  0.62796137  0.34387102  1
  O  O247  1  0.76212731  0.64658362  0.65787022  1
  O  O248  1  0.75471311  0.64267820  0.84284195  1
  O  O249  1  0.74765598  0.87757629  0.12871938  1
  O  O250  1  0.75041563  0.84672882  0.41342462  1
  O  O251  1  0.74747585  0.83969749  0.60104077  1
  O  O252  1  0.75719497  0.85251684  0.88035893  1
  O  O253  1  0.12317232  -0.00830134  0.14909587  1
  O  O254  1  0.14735613  -0.00641510  0.35115644  1
  O  O255  1  0.16348813  -0.00540329  0.64436673  1
  O  O256  1  0.17363148  -0.00877465  0.84946214  1
  O  O257  1  0.12409529  0.25041311  0.09129135  1
  O  O258  1  0.11698831  0.25533165  0.37003224  1
  O  O259  1  0.11732900  0.26114892  0.62599464  1
  O  O260  1  0.11969785  0.25665277  0.90367841  1
  O  O261  1  0.11559859  0.50258924  0.13616898  1
  O  O262  1  0.15709140  0.50916667  0.35808844  1
  O  O263  1  0.14261356  0.51110857  0.64042900  1
  O  O264  1  0.14277261  0.50880727  0.84405136  1
  O  O265  1  0.12781950  0.74632472  0.08933458  1
  O  O266  1  0.09003490  0.74334622  0.38318620  1
  O  O267  1  0.10141837  0.75273228  0.60214556  1
  O  O268  1  0.10514031  0.74633705  0.90687581  1
  O  O269  1  0.39190419  -0.00676841  0.12835115  1
  O  O270  1  0.34999287  0.00214302  0.36618262  1
  O  O271  1  0.34212632  -0.01254991  0.65666806  1
  O  O272  1  0.36363395  -0.00109324  0.88652913  1
  O  O273  1  0.36544463  0.25184396  0.11597813  1
  O  O274  1  0.41295997  0.25675042  0.39719434  1
  O  O275  1  0.40635991  0.24662683  0.59407035  1
  O  O276  1  0.38009328  0.26089253  0.89798005  1
  O  O277  1  0.37204055  0.50218544  0.14222373  1
  O  O278  1  0.34030402  0.50723752  0.35952071  1
  O  O279  1  0.36506160  0.50557952  0.64962478  1
  O  O280  1  0.34470253  0.49692992  0.86216886  1
  O  O281  1  0.38662152  0.74651143  0.12068657  1
  O  O282  1  0.38869371  0.75759088  0.41185599  1
  O  O283  1  0.40785796  0.75515041  0.60924477  1
  O  O284  1  0.40290795  0.74393024  0.87359048  1
  O  O285  1  0.61679826  0.00137169  0.16015535  1
  O  O286  1  0.64146689  -0.00110682  0.35351568  1
  O  O287  1  0.67125019  0.00419563  0.62126767  1
  O  O288  1  0.64584111  -0.00410781  0.87492495  1
  O  O289  1  0.62961848  0.24465307  0.10782534  1
  O  O290  1  0.59151869  0.25811170  0.40072798  1
  O  O291  1  0.58720816  0.25529496  0.58680198  1
  O  O292  1  0.59990944  0.25476750  0.88839038  1
  O  O293  1  0.62627832  0.50313952  0.14971729  1
  O  O294  1  0.63901954  0.49745600  0.34112973  1
  O  O295  1  0.67129979  0.50560898  0.64740222  1
  O  O296  1  0.65836173  0.50555462  0.84443034  1
  O  O297  1  0.63852995  0.74454761  0.11491701  1
  O  O298  1  0.60972480  0.75844322  0.40973492  1
  O  O299  1  0.60286709  0.76804194  0.60213703  1
  O  O300  1  0.62601148  0.75011926  0.87777337  1
  O  O301  1  0.88916901  0.00773082  0.15655898  1
  O  O302  1  0.86176935  -0.01571232  0.35295994  1
  O  O303  1  0.86183217  -0.01652623  0.62165221  1
  O  O304  1  0.85880131  -0.00429389  0.85421168  1
  O  O305  1  0.87981888  0.24677778  0.10511273  1
  O  O306  1  0.91753119  0.26246468  0.40520328  1
  O  O307  1  0.90992935  0.26491735  0.58913658  1
  O  O308  1  0.90699451  0.24393955  0.92933360  1
  O  O309  1  0.88554337  0.49261235  0.15073553  1
  O  O310  1  0.86670607  0.50194530  0.34610861  1
  O  O311  1  0.85288683  0.50242475  0.64896665  1
  O  O312  1  0.84505873  0.49769365  0.84976395  1
  O  O313  1  0.85915769  0.74181478  0.11062938  1
  O  O314  1  0.89753521  0.74220584  0.37958125  1
  O  O315  1  0.90288006  0.74821126  0.62299326  1
  O  O316  1  0.90786382  0.75638608  0.87493449  1
