# generated using pymatgen
data_Mg32Ti42(Bi17O64)3
_symmetry_space_group_name_H-M   'P 1'
_cell_length_a   15.94343323
_cell_length_b   16.00687674
_cell_length_c   15.93650453
_cell_angle_alpha   89.79978467
_cell_angle_beta   89.83170510
_cell_angle_gamma   90.02284983
_symmetry_Int_Tables_number   1
_chemical_formula_structural   Mg32Ti42(Bi17O64)3
_chemical_formula_sum   'Mg32 Ti42 Bi51 O192'
_cell_volume   4067.02607647
_cell_formula_units_Z   1
loop_
 _symmetry_equiv_pos_site_id
 _symmetry_equiv_pos_as_xyz
  1  'x, y, z'
loop_
 _atom_site_type_symbol
 _atom_site_label
 _atom_site_symmetry_multiplicity
 _atom_site_fract_x
 _atom_site_fract_y
 _atom_site_fract_z
 _atom_site_occupancy
  Mg  Mg0  1  0.87362049  0.38661941  0.13559721  1
  Mg  Mg1  1  0.37816744  0.12477369  0.87822482  1
  Mg  Mg2  1  0.36678540  0.87824803  0.61920912  1
  Mg  Mg3  1  0.36993767  0.61930659  0.37523241  1
  Mg  Mg4  1  0.62569129  0.12719130  0.61968781  1
  Mg  Mg5  1  0.12933039  0.11619875  0.87670311  1
  Mg  Mg6  1  0.12138832  0.88161906  0.12626694  1
  Mg  Mg7  1  0.62729750  0.13378176  0.11927490  1
  Mg  Mg8  1  0.13753092  0.63688311  0.88182115  1
  Mg  Mg9  1  0.38108172  0.37173247  0.12896294  1
  Mg  Mg10  1  0.36874815  0.87362266  0.88232248  1
  Mg  Mg11  1  0.36917910  0.12697764  0.37833366  1
  Mg  Mg12  1  0.88015071  0.12100961  0.11862686  1
  Mg  Mg13  1  0.12018810  0.61916698  0.36701614  1
  Mg  Mg14  1  0.62096141  0.88723177  0.13449159  1
  Mg  Mg15  1  0.63804802  0.15264588  0.38324575  1
  Mg  Mg16  1  0.62055733  0.61380788  0.87769640  1
  Mg  Mg17  1  0.13382288  0.62728024  0.12768125  1
  Mg  Mg18  1  0.12153288  0.62005971  0.62348209  1
  Mg  Mg19  1  -0.01249429  0.25520476  0.17175423  1
  Mg  Mg20  1  0.21794929  0.29140367  -0.07522728  1
  Mg  Mg21  1  0.77035625  0.53953862  0.25067502  1
  Mg  Mg22  1  0.00928170  0.34247292  -0.00919068  1
  Mg  Mg23  1  0.23534260  0.81190420  0.24259145  1
  Mg  Mg24  1  0.77538770  0.29113555  0.52420721  1
  Mg  Mg25  1  0.26875975  0.01393401  0.79484299  1
  Mg  Mg26  1  0.06138556  0.06349233  0.70819296  1
  Mg  Mg27  1  0.03390861  0.77520914  0.00231614  1
  Mg  Mg28  1  0.19933126  0.48075779  -0.03109779  1
  Mg  Mg29  1  0.47639364  0.22468103  0.50259518  1
  Mg  Mg30  1  0.54460641  0.05528965  0.25306884  1
  Mg  Mg31  1  0.76332959  0.23458834  0.21735935  1
  Ti  Ti32  1  0.11837375  0.37792686  0.62438174  1
  Ti  Ti33  1  0.11648366  0.13844262  0.36717409  1
  Ti  Ti34  1  0.62607324  0.14413039  0.87714977  1
  Ti  Ti35  1  0.37726166  0.89251092  0.12283392  1
  Ti  Ti36  1  0.63139908  0.62922353  0.37414334  1
  Ti  Ti37  1  0.87056221  0.64047299  0.37520375  1
  Ti  Ti38  1  0.86743766  0.11527410  0.63761703  1
  Ti  Ti39  1  0.13153955  0.37957683  0.11651086  1
  Ti  Ti40  1  0.88195054  0.87676943  0.12029674  1
  Ti  Ti41  1  0.13098444  0.87280140  0.63107691  1
  Ti  Ti42  1  0.36717294  0.88400227  0.37142996  1
  Ti  Ti43  1  0.62341515  0.37314260  0.62076742  1
  Ti  Ti44  1  0.87434695  0.87087794  0.64223614  1
  Ti  Ti45  1  0.62433278  0.63140189  0.13214664  1
  Ti  Ti46  1  0.36427719  0.37515163  0.38330190  1
  Ti  Ti47  1  0.62724464  0.87130057  0.36525829  1
  Ti  Ti48  1  0.86442612  0.35996281  0.36349829  1
  Ti  Ti49  1  0.88830965  0.87968456  0.87424354  1
  Ti  Ti50  1  0.12386240  0.13218631  0.11685414  1
  Ti  Ti51  1  0.36714635  0.61823356  0.89528832  1
  Ti  Ti52  1  0.87443656  0.13707519  0.37317077  1
  Ti  Ti53  1  0.87032851  0.38875292  0.86888071  1
  Ti  Ti54  1  0.87334345  0.88517862  0.36908688  1
  Ti  Ti55  1  0.35870356  0.61634358  0.61472826  1
  Ti  Ti56  1  0.11862313  0.88445721  0.38068904  1
  Ti  Ti57  1  0.10242784  0.36990864  0.36166501  1
  Ti  Ti58  1  0.63416492  0.37244065  0.38509536  1
  Ti  Ti59  1  0.86950870  0.62667828  0.62430889  1
  Ti  Ti60  1  0.89161245  0.11887664  0.86367483  1
  Ti  Ti61  1  0.87989239  0.39613044  0.63452875  1
  Ti  Ti62  1  0.36893437  0.36948455  0.61505731  1
  Ti  Ti63  1  0.37752686  0.63183370  0.12853736  1
  Ti  Ti64  1  0.62103237  0.37345366  0.87475153  1
  Ti  Ti65  1  0.38105454  0.38246933  0.88734614  1
  Ti  Ti66  1  0.63100830  0.36502106  0.14669016  1
  Ti  Ti67  1  0.86697222  0.62783923  0.12414709  1
  Ti  Ti68  1  0.63256615  0.62268831  0.61870878  1
  Ti  Ti69  1  0.86067001  0.63368773  0.87901183  1
  Ti  Ti70  1  0.12117771  0.87180157  0.86486175  1
  Ti  Ti71  1  0.39380329  0.12636760  0.12836334  1
  Ti  Ti72  1  0.62084474  0.88687888  0.61823242  1
  Ti  Ti73  1  0.38801533  0.11555154  0.62057751  1
  Bi  Bi74  1  0.52021410  0.75002579  -0.03656159  1
  Bi  Bi75  1  0.73832332  0.79619796  -0.01408138  1
  Bi  Bi76  1  0.49703128  0.23477210  0.74377213  1
  Bi  Bi77  1  0.21604454  0.25868398  0.50482384  1
  Bi  Bi78  1  0.23976709  0.76124914  0.03956002  1
  Bi  Bi79  1  0.49678214  0.26183517  0.29590168  1
  Bi  Bi80  1  0.20579564  0.03866345  0.51315507  1
  Bi  Bi81  1  0.73544645  0.02957297  0.23747714  1
  Bi  Bi82  1  0.52931686  -0.02013721  -0.03176524  1
  Bi  Bi83  1  0.25903461  0.51772644  0.22859246  1
  Bi  Bi84  1  -0.02042040  -0.01731531  0.51951720  1
  Bi  Bi85  1  0.49007829  0.50423220  0.26410888  1
  Bi  Bi86  1  0.02837267  0.49221970  0.78586023  1
  Bi  Bi87  1  0.77587553  0.27637856  0.01636526  1
  Bi  Bi88  1  0.74777473  0.02624036  0.49711633  1
  Bi  Bi89  1  0.00357998  0.51511601  0.23809266  1
  Bi  Bi90  1  0.73972873  0.26077130  0.72720853  1
  Bi  Bi91  1  0.23792825  -0.00936542  -0.01338699  1
  Bi  Bi92  1  0.46294945  0.24616996  -0.00852969  1
  Bi  Bi93  1  0.49895462  0.49476011  0.73036544  1
  Bi  Bi94  1  0.48661159  0.77448118  0.24365848  1
  Bi  Bi95  1  0.48297973  -0.03792631  0.75027428  1
  Bi  Bi96  1  0.02067511  0.74881873  0.51723979  1
  Bi  Bi97  1  0.73121558  0.51190133  0.75656164  1
  Bi  Bi98  1  0.23116930  0.49975165  0.49087923  1
  Bi  Bi99  1  0.47645784  0.73260387  0.72786910  1
  Bi  Bi100  1  0.71979863  0.75403221  0.76235271  1
  Bi  Bi101  1  0.00722248  0.01140803  0.00082242  1
  Bi  Bi102  1  0.26698718  0.75830271  0.76703767  1
  Bi  Bi103  1  0.75468325  0.77102682  0.22969901  1
  Bi  Bi104  1  0.50633766  0.48646038  0.03847890  1
  Bi  Bi105  1  0.50260626  0.50683133  0.48628550  1
  Bi  Bi106  1  0.00754831  0.25933633  0.78327823  1
  Bi  Bi107  1  0.00303805  0.71574439  0.75542849  1
  Bi  Bi108  1  0.47234795  0.77159258  0.49391039  1
  Bi  Bi109  1  0.75053463  0.78081995  0.51128385  1
  Bi  Bi110  1  0.26193813  0.26140153  0.22164878  1
  Bi  Bi111  1  0.26140713  0.03125658  0.24590467  1
  Bi  Bi112  1  0.26823907  0.47575824  0.76409101  1
  Bi  Bi113  1  0.50921068  0.01783870  0.45728670  1
  Bi  Bi114  1  0.75154483  0.02248770  -0.00125003  1
  Bi  Bi115  1  0.72800065  0.50442849  0.01797828  1
  Bi  Bi116  1  0.71479402  -0.01483235  0.77869315  1
  Bi  Bi117  1  0.00498237  0.51241646  0.48562106  1
  Bi  Bi118  1  0.23830765  0.74239122  0.46279657  1
  Bi  Bi119  1  -0.01403903  0.23551920  0.53701800  1
  Bi  Bi120  1  0.00914948  0.02362155  0.24191330  1
  Bi  Bi121  1  0.01391864  0.77538470  0.25158750  1
  Bi  Bi122  1  0.01040071  0.55551142  0.00017323  1
  Bi  Bi123  1  0.76289031  0.50161301  0.47478376  1
  Bi  Bi124  1  0.23136970  0.20998957  0.72785234  1
  O  O125  1  0.09137154  0.12652066  0.00346403  1
  O  O126  1  0.13552028  0.10180902  0.25136944  1
  O  O127  1  0.11614647  0.14263498  0.49210893  1
  O  O128  1  0.17493266  0.08702562  0.75114167  1
  O  O129  1  0.13657148  0.34853295  0.00251538  1
  O  O130  1  0.12332484  0.39471263  0.24972138  1
  O  O131  1  0.10717843  0.34110491  0.49220480  1
  O  O132  1  0.13611565  0.40789023  0.73596575  1
  O  O133  1  0.09726273  0.66422318  0.00755040  1
  O  O134  1  0.13431076  0.58542225  0.24636950  1
  O  O135  1  0.08539958  0.62356463  0.49477308  1
  O  O136  1  0.10630344  0.61677037  0.75270448  1
  O  O137  1  0.13627616  0.85218549  0.00232574  1
  O  O138  1  0.11803846  0.87544559  0.25368333  1
  O  O139  1  0.11844620  0.86421976  0.49846718  1
  O  O140  1  0.10679829  0.88045597  0.74958281  1
  O  O141  1  0.40918770  0.11659684  0.01134859  1
  O  O142  1  0.34340237  0.14132314  0.25075648  1
  O  O143  1  0.41289810  0.11158480  0.49927146  1
  O  O144  1  0.37952651  0.15041083  0.74081318  1
  O  O145  1  0.39655098  0.39130698  0.00082896  1
  O  O146  1  0.37036303  0.34231395  0.25997575  1
  O  O147  1  0.38818899  0.40786189  0.49853903  1
  O  O148  1  0.34701699  0.36474280  0.74320193  1
  O  O149  1  0.40399465  0.61019576  0.00288027  1
  O  O150  1  0.35972787  0.62508665  0.24689150  1
  O  O151  1  0.39529014  0.59510414  0.50426365  1
  O  O152  1  0.36017093  0.64881961  0.74436602  1
  O  O153  1  0.36515769  0.90460279  0.00719258  1
  O  O154  1  0.36363514  0.84780186  0.25212957  1
  O  O155  1  0.38719623  0.88099382  0.49337833  1
  O  O156  1  0.38392397  0.84852746  0.74863557  1
  O  O157  1  0.62335177  0.09540314  -0.00534819  1
  O  O158  1  0.66034735  0.14441795  0.25745694  1
  O  O159  1  0.61683365  0.09315884  0.49479110  1
  O  O160  1  0.62905162  0.16091366  0.75377056  1
  O  O161  1  0.61995342  0.40313562  -0.01158060  1
  O  O162  1  0.64138805  0.34815774  0.26014698  1
  O  O163  1  0.61737973  0.39606453  0.50869962  1
  O  O164  1  0.63001489  0.34232425  0.74962622  1
  O  O165  1  0.61463110  0.59948665  0.01004661  1
  O  O166  1  0.65206360  0.62098714  0.25744676  1
  O  O167  1  0.61627648  0.60085236  0.50556152  1
  O  O168  1  0.64671747  0.63592840  0.74963789  1
  O  O169  1  0.63437516  0.90532178  0.00932596  1
  O  O170  1  0.61768324  0.83655322  0.25180855  1
  O  O171  1  0.63200988  0.87911352  0.49329163  1
  O  O172  1  0.63762108  0.86240374  0.74103959  1
  O  O173  1  0.88612600  0.10040795  -0.01318124  1
  O  O174  1  0.84555637  0.14504213  0.26061445  1
  O  O175  1  0.88852066  0.09029332  0.50158240  1
  O  O176  1  0.84828986  0.11803212  0.75036883  1
  O  O177  1  0.88368434  0.37243352  -0.01086749  1
  O  O178  1  0.84716695  0.33238183  0.25713508  1
  O  O179  1  0.86814395  0.38997172  0.51546198  1
  O  O180  1  0.87865552  0.35430155  0.75081650  1
  O  O181  1  0.86964972  0.60975978  0.00644858  1
  O  O182  1  0.84548883  0.64304065  0.26028469  1
  O  O183  1  0.88106244  0.59806907  0.50275897  1
  O  O184  1  0.87164701  0.64789649  0.75301031  1
  O  O185  1  0.87206781  0.88185447  0.00236641  1
  O  O186  1  0.88757606  0.84248306  0.24715952  1
  O  O187  1  0.86698057  0.88886034  0.48770046  1
  O  O188  1  0.87745195  0.85084747  0.75423014  1
  O  O189  1  -0.00150814  0.13453244  0.15859594  1
  O  O190  1  -0.00138926  0.12323144  0.35565352  1
  O  O191  1  -0.01187923  0.13821776  0.64075338  1
  O  O192  1  0.00750034  0.11886365  0.82444886  1
  O  O193  1  0.00325280  0.36562433  0.11743283  1
  O  O194  1  -0.01343197  0.38100030  0.36152862  1
  O  O195  1  -0.00068876  0.35374750  0.62757084  1
  O  O196  1  0.00199680  0.36916482  0.86800621  1
  O  O197  1  -0.00877826  0.62262684  0.14532568  1
  O  O198  1  -0.01632105  0.59275396  0.35684965  1
  O  O199  1  -0.01132218  0.65299311  0.62966909  1
  O  O200  1  -0.01508096  0.64094299  0.87859076  1
  O  O201  1  -0.00051778  0.83018901  0.11630175  1
  O  O202  1  -0.00137324  0.86898242  0.36661951  1
  O  O203  1  -0.01307478  0.85512810  0.61123269  1
  O  O204  1  0.00324420  0.83813784  0.89401133  1
  O  O205  1  0.23879706  0.10232692  0.11800296  1
  O  O206  1  0.24121801  0.11585199  0.39155694  1
  O  O207  1  0.27036616  0.12923819  0.60090773  1
  O  O208  1  0.25708820  0.09180279  0.89809833  1
  O  O209  1  0.24923599  0.38002869  0.13834346  1
  O  O210  1  0.25076763  0.36848888  0.39575947  1
  O  O211  1  0.24753589  0.37802435  0.59592952  1
  O  O212  1  0.25952154  0.40375955  0.88860985  1
  O  O213  1  0.26320890  0.59962695  0.11292559  1
  O  O214  1  0.24406657  0.61663933  0.40360625  1
  O  O215  1  0.24689682  0.61066695  0.59793489  1
  O  O216  1  0.25465063  0.58809807  0.90564445  1
  O  O217  1  0.25379690  0.88000423  0.13119391  1
  O  O218  1  0.24526668  0.86278563  0.36849332  1
  O  O219  1  0.24204053  0.88290141  0.63248080  1
  O  O220  1  0.24450291  0.90779684  0.86340857  1
  O  O221  1  0.50185270  0.13810465  0.16069691  1
  O  O222  1  0.50208992  0.11392657  0.35419981  1
  O  O223  1  0.50506931  0.16358016  0.62181772  1
  O  O224  1  0.50343088  0.16404991  0.87442590  1
  O  O225  1  0.51558798  0.35657475  0.12534325  1
  O  O226  1  0.50499985  0.39550968  0.35855656  1
  O  O227  1  0.50136418  0.37802167  0.64100445  1
  O  O228  1  0.49926740  0.35465742  0.86679409  1
  O  O229  1  0.50774889  0.63645130  0.15011926  1
  O  O230  1  0.50874119  0.59841768  0.37180248  1
  O  O231  1  0.50982205  0.61563985  0.64665462  1
  O  O232  1  0.49462457  0.65862307  0.86376637  1
  O  O233  1  0.49274201  0.86142550  0.13384867  1
  O  O234  1  0.49433957  0.85717610  0.36537326  1
  O  O235  1  0.50930172  0.85090773  0.62108646  1
  O  O236  1  0.49616381  0.85998369  0.89033005  1
  O  O237  1  0.75676292  0.09877006  0.11547651  1
  O  O238  1  0.75833828  0.12639950  0.40715537  1
  O  O239  1  0.75047450  0.09589358  0.61299233  1
  O  O240  1  0.74715648  0.09705745  0.87853049  1
  O  O241  1  0.75060759  0.38884467  0.10010001  1
  O  O242  1  0.74490972  0.34082726  0.41016097  1
  O  O243  1  0.75628365  0.38480720  0.63930216  1
  O  O244  1  0.75142616  0.38701036  0.87021059  1
  O  O245  1  0.74703676  0.59412683  0.12738537  1
  O  O246  1  0.75129774  0.62588583  0.40313296  1
  O  O247  1  0.75309277  0.59454045  0.62380386  1
  O  O248  1  0.74982408  0.59292187  0.87813649  1
  O  O249  1  0.75964900  0.88486484  0.14418572  1
  O  O250  1  0.74950069  0.86388543  0.35614257  1
  O  O251  1  0.75210323  0.88043552  0.61336140  1
  O  O252  1  0.76078446  0.89530120  0.87556007  1
  O  O253  1  0.09178456  0.00254423  0.11838641  1
  O  O254  1  0.11687902  -0.00141812  0.39284132  1
  O  O255  1  0.09922503  -0.00751553  0.61019715  1
  O  O256  1  0.11052145  -0.01092604  0.90519588  1
  O  O257  1  0.12151583  0.24680431  0.14280279  1
  O  O258  1  0.12751019  0.25106672  0.34976424  1
  O  O259  1  0.13870715  0.25513158  0.63266087  1
  O  O260  1  0.14397208  0.23770491  0.84103396  1
  O  O261  1  0.12686278  0.49482423  0.08047032  1
  O  O262  1  0.12064778  0.48585220  0.40152928  1
  O  O263  1  0.11403517  0.49127311  0.58559934  1
  O  O264  1  0.10110858  0.51457000  0.89888932  1
  O  O265  1  0.16550749  0.74612794  0.15431134  1
  O  O266  1  0.12565680  0.74669455  0.37413698  1
  O  O267  1  0.12362119  0.75108910  0.61491379  1
  O  O268  1  0.15756110  0.75765309  0.85924868  1
  O  O269  1  0.38025146  0.00430443  0.15426078  1
  O  O270  1  0.36986353  -0.00532901  0.35734231  1
  O  O271  1  0.39514603  0.00318825  0.64477956  1
  O  O272  1  0.39021177  0.00123523  0.84171933  1
  O  O273  1  0.36047003  0.24270077  0.11605574  1
  O  O274  1  0.40160296  0.25673874  0.39995101  1
  O  O275  1  0.37932907  0.26182715  0.58927119  1
  O  O276  1  0.35029168  0.26049603  0.90650169  1
  O  O277  1  0.40367532  0.49611627  0.14491703  1
  O  O278  1  0.37186943  0.49134120  0.34429649  1
  O  O279  1  0.37439969  0.50167063  0.65159003  1
  O  O280  1  0.39232631  0.50180129  0.85202890  1
  O  O281  1  0.36659448  0.74614390  0.11290398  1
  O  O282  1  0.36724799  0.74324297  0.40158082  1
  O  O283  1  0.38443656  0.73771799  0.60584395  1
  O  O284  1  0.33926159  0.74098945  0.88457076  1
  O  O285  1  0.61891422  0.00783368  0.16598617  1
  O  O286  1  0.61394175  -0.01509547  0.34694458  1
  O  O287  1  0.60733232  -0.00460708  0.64232796  1
  O  O288  1  0.59757256  0.01473858  0.84814726  1
  O  O289  1  0.67240885  0.25339798  0.11780930  1
  O  O290  1  0.58029035  0.25961388  0.41034721  1
  O  O291  1  0.66764079  0.25832365  0.60346334  1
  O  O292  1  0.64677051  0.25374815  0.90177349  1
  O  O293  1  0.61704233  0.48938395  0.13517226  1
  O  O294  1  0.65134388  0.48908945  0.37372519  1
  O  O295  1  0.62412572  0.49346006  0.65603827  1
  O  O296  1  0.61428335  0.49020898  0.83877819  1
  O  O297  1  0.64839099  0.74156947  0.11278124  1
  O  O298  1  0.62041941  0.73951574  0.39103073  1
  O  O299  1  0.65474601  0.73864651  0.61443515  1
  O  O300  1  0.64461304  0.74278394  0.89497464  1
  O  O301  1  0.90637810  -0.01193162  0.13831298  1
  O  O302  1  0.87654162  -0.00389468  0.34976684  1
  O  O303  1  0.89526570  -0.01117721  0.63419407  1
  O  O304  1  0.90779787  -0.01222792  0.86461462  1
  O  O305  1  0.86564805  0.24820274  0.11655571  1
  O  O306  1  0.88448567  0.24643765  0.41355592  1
  O  O307  1  0.85656435  0.23436312  0.60468444  1
  O  O308  1  0.89574589  0.23418063  0.87350632  1
  O  O309  1  0.87381502  0.50596912  0.17128741  1
  O  O310  1  0.83432592  0.48037441  0.35671637  1
  O  O311  1  0.89968296  0.50513706  0.65138266  1
  O  O312  1  0.89051389  0.49980178  0.85989898  1
  O  O313  1  0.84559316  0.74171365  0.11723285  1
  O  O314  1  0.88384605  0.74779426  0.39479216  1
  O  O315  1  0.84843456  0.74573646  0.60712694  1
  O  O316  1  0.83874208  0.74622925  0.89282577  1
