# generated using pymatgen
data_Mg32Ti42(Bi17O64)3
_symmetry_space_group_name_H-M   'P 1'
_cell_length_a   15.96023824
_cell_length_b   15.96315230
_cell_length_c   16.00025769
_cell_angle_alpha   90.06157464
_cell_angle_beta   89.98136648
_cell_angle_gamma   90.00652742
_symmetry_Int_Tables_number   1
_chemical_formula_structural   Mg32Ti42(Bi17O64)3
_chemical_formula_sum   'Mg32 Ti42 Bi51 O192'
_cell_volume   4076.47447822
_cell_formula_units_Z   1
loop_
 _symmetry_equiv_pos_site_id
 _symmetry_equiv_pos_as_xyz
  1  'x, y, z'
loop_
 _atom_site_type_symbol
 _atom_site_label
 _atom_site_symmetry_multiplicity
 _atom_site_fract_x
 _atom_site_fract_y
 _atom_site_fract_z
 _atom_site_occupancy
  Mg  Mg0  1  0.12848343  0.12198856  0.86039147  1
  Mg  Mg1  1  0.63710008  0.62317213  0.62939925  1
  Mg  Mg2  1  0.11682563  0.87961373  0.11918083  1
  Mg  Mg3  1  0.37437507  0.62373452  0.36670539  1
  Mg  Mg4  1  0.62508889  0.62567625  0.37471291  1
  Mg  Mg5  1  0.62314260  0.87828134  0.38307313  1
  Mg  Mg6  1  0.87305149  0.88089232  0.87581775  1
  Mg  Mg7  1  0.64963012  0.12146326  0.84785441  1
  Mg  Mg8  1  0.37525052  0.87745900  0.13461639  1
  Mg  Mg9  1  0.11977290  0.87077455  0.37701453  1
  Mg  Mg10  1  0.37765000  0.87314229  0.86574337  1
  Mg  Mg11  1  0.37318692  0.13587891  0.12739333  1
  Mg  Mg12  1  0.62596337  0.88351320  0.12725116  1
  Mg  Mg13  1  0.62776138  0.37768490  0.10998205  1
  Mg  Mg14  1  0.13638655  0.86945647  0.63119762  1
  Mg  Mg15  1  0.11623429  0.62679344  0.37684255  1
  Mg  Mg16  1  0.87021153  0.87654506  0.39204321  1
  Mg  Mg17  1  0.37154927  0.36481879  0.88181373  1
  Mg  Mg18  1  0.11444763  0.62056295  0.87069197  1
  Mg  Mg19  1  0.25415027  0.00577496  0.07277855  1
  Mg  Mg20  1  -0.03831898  0.53300197  0.77176964  1
  Mg  Mg21  1  0.18237718  0.28087846  0.27147523  1
  Mg  Mg22  1  0.79941100  0.02616283  -0.01198692  1
  Mg  Mg23  1  0.47873956  0.68564104  0.70425286  1
  Mg  Mg24  1  -0.06039104  0.23453028  0.69628378  1
  Mg  Mg25  1  0.24960286  0.02127746  0.71144478  1
  Mg  Mg26  1  0.74364501  0.24613577  0.69515342  1
  Mg  Mg27  1  0.47811925  0.04061116  0.48726774  1
  Mg  Mg28  1  0.74733250  0.53565272  0.76399219  1
  Mg  Mg29  1  0.68961943  0.00866477  0.49701277  1
  Mg  Mg30  1  0.72759610  0.01322744  0.70686275  1
  Mg  Mg31  1  -0.02334935  0.75996446  0.29419902  1
  Ti  Ti32  1  0.10758298  0.60820599  0.64451479  1
  Ti  Ti33  1  0.63525080  0.36141754  0.85802756  1
  Ti  Ti34  1  0.87091068  0.88489981  0.63097518  1
  Ti  Ti35  1  0.61171484  0.12324919  0.62535261  1
  Ti  Ti36  1  0.37921171  0.62920908  0.88210882  1
  Ti  Ti37  1  0.88035319  0.39309704  0.62619442  1
  Ti  Ti38  1  0.12295664  0.12595166  0.14392926  1
  Ti  Ti39  1  0.62363600  0.62787971  0.11870716  1
  Ti  Ti40  1  0.62240219  0.38778241  0.37843002  1
  Ti  Ti41  1  0.64134173  0.38470699  0.63024402  1
  Ti  Ti42  1  0.35870192  0.12652814  0.87640037  1
  Ti  Ti43  1  0.62432160  0.12316372  0.37047865  1
  Ti  Ti44  1  0.88509347  0.63418677  0.37896667  1
  Ti  Ti45  1  0.86824459  0.64014454  0.87756410  1
  Ti  Ti46  1  0.86165930  0.10415549  0.59718100  1
  Ti  Ti47  1  0.10743782  0.37540329  0.62960735  1
  Ti  Ti48  1  0.87029163  0.37566487  0.84886626  1
  Ti  Ti49  1  0.86819652  0.63450696  0.62947196  1
  Ti  Ti50  1  0.12089720  0.12952708  0.61887377  1
  Ti  Ti51  1  0.38449353  0.87767567  0.63403109  1
  Ti  Ti52  1  0.88076528  0.86883418  0.12044423  1
  Ti  Ti53  1  0.36269660  0.62985168  0.12601291  1
  Ti  Ti54  1  0.62820735  0.89487631  0.86239027  1
  Ti  Ti55  1  0.12215011  0.38188656  0.12124407  1
  Ti  Ti56  1  0.37790985  0.88025495  0.37549459  1
  Ti  Ti57  1  0.37515752  0.12344423  0.62381913  1
  Ti  Ti58  1  0.86347097  0.12862403  0.37828156  1
  Ti  Ti59  1  0.36469588  0.36910300  0.11665119  1
  Ti  Ti60  1  0.13334692  0.88209343  0.87032943  1
  Ti  Ti61  1  0.61408157  0.87833805  0.62871061  1
  Ti  Ti62  1  0.37540665  0.37993994  0.36725464  1
  Ti  Ti63  1  0.62842397  0.11774731  0.12447249  1
  Ti  Ti64  1  0.12215886  0.37099359  0.86712082  1
  Ti  Ti65  1  0.87225611  0.11612066  0.13506367  1
  Ti  Ti66  1  0.87596863  0.37804895  0.11598275  1
  Ti  Ti67  1  0.37005052  0.13102355  0.37249159  1
  Ti  Ti68  1  0.12346863  0.12381891  0.37399430  1
  Ti  Ti69  1  0.87070042  0.37473697  0.36832660  1
  Ti  Ti70  1  0.11877613  0.62258987  0.10910979  1
  Ti  Ti71  1  0.87315255  0.63383635  0.10762659  1
  Ti  Ti72  1  0.87897950  0.12596371  0.86085875  1
  Ti  Ti73  1  0.62457131  0.64364125  0.87667085  1
  Bi  Bi74  1  0.73444275  0.26696380  0.22814927  1
  Bi  Bi75  1  0.46414418  0.46882020  0.53523587  1
  Bi  Bi76  1  0.49215061  0.77162290  0.02292607  1
  Bi  Bi77  1  0.25882276  0.78832381  -0.00044482  1
  Bi  Bi78  1  0.02879045  0.72892411  0.51752165  1
  Bi  Bi79  1  0.21900654  0.49920482  0.27358652  1
  Bi  Bi80  1  0.46779250  -0.01010516  0.00328535  1
  Bi  Bi81  1  0.28061744  0.71001750  0.73754983  1
  Bi  Bi82  1  0.02166264  0.00661615  0.72539104  1
  Bi  Bi83  1  0.24622417  0.53713005  0.49032669  1
  Bi  Bi84  1  -0.01965122  -0.02283316  0.26514920  1
  Bi  Bi85  1  0.49079026  0.25887720  0.48269682  1
  Bi  Bi86  1  0.01362396  0.47388654  0.46381811  1
  Bi  Bi87  1  0.51274587  0.21516312  -0.03779668  1
  Bi  Bi88  1  -0.02017446  0.25012839  0.23259582  1
  Bi  Bi89  1  0.01162958  -0.04041872  0.50776955  1
  Bi  Bi90  1  0.72749980  0.76759116  0.26199711  1
  Bi  Bi91  1  0.23240153  -0.02088782  0.27024811  1
  Bi  Bi92  1  0.00804720  0.25068528  0.46581016  1
  Bi  Bi93  1  -0.01503844  0.51817180  0.23286278  1
  Bi  Bi94  1  0.75093471  0.52140342  0.47809969  1
  Bi  Bi95  1  0.73733975  0.26561669  0.49300511  1
  Bi  Bi96  1  0.74582276  -0.01332486  0.25767340  1
  Bi  Bi97  1  0.49539614  0.75635380  0.28019076  1
  Bi  Bi98  1  0.27199015  -0.01649012  0.51311313  1
  Bi  Bi99  1  0.48243031  0.01955569  0.24160448  1
  Bi  Bi100  1  0.74017634  0.52398283  0.23476289  1
  Bi  Bi101  1  0.24668138  0.50204332  -0.03352593  1
  Bi  Bi102  1  0.28831685  0.48319424  0.71304548  1
  Bi  Bi103  1  0.25259316  0.27489498  0.72565066  1
  Bi  Bi104  1  0.72468758  0.49172992  -0.01357166  1
  Bi  Bi105  1  0.75108876  0.77964417  0.74333213  1
  Bi  Bi106  1  0.01774970  0.76372989  -0.01807706  1
  Bi  Bi107  1  0.47165560  0.28201412  0.73363016  1
  Bi  Bi108  1  0.19493688  0.74485900  0.24519076  1
  Bi  Bi109  1  0.75878767  0.24554222  -0.02310520  1
  Bi  Bi110  1  0.47974942  0.50077345  0.22263401  1
  Bi  Bi111  1  0.00544546  0.76617299  0.74667955  1
  Bi  Bi112  1  0.73498638  0.79314028  -0.00853071  1
  Bi  Bi113  1  0.72599366  0.75615166  0.50292712  1
  Bi  Bi114  1  0.22846650  0.27184544  0.47534642  1
  Bi  Bi115  1  0.00335924  0.48482658  -0.01968998  1
  Bi  Bi116  1  0.48257110  0.71652114  0.51077888  1
  Bi  Bi117  1  0.00337728  0.00191020  -0.02644822  1
  Bi  Bi118  1  0.47462263  0.49666924  -0.00249710  1
  Bi  Bi119  1  0.50753290  0.26516311  0.22093214  1
  Bi  Bi120  1  0.26342557  0.74894519  0.46918247  1
  Bi  Bi121  1  0.22344041  0.23036404  0.00701590  1
  Bi  Bi122  1  0.52994894  0.50862199  0.76773235  1
  Bi  Bi123  1  0.48115398  0.01078095  0.77423140  1
  Bi  Bi124  1  0.00557499  0.23589937  -0.02241536  1
  O  O125  1  0.10937563  0.14938650  0.01899937  1
  O  O126  1  0.15999254  0.13852990  0.25874230  1
  O  O127  1  0.11767243  0.13657191  0.50054854  1
  O  O128  1  0.14603423  0.09160533  0.74066252  1
  O  O129  1  0.09373625  0.35905570  0.00541269  1
  O  O130  1  0.13856110  0.39691902  0.24220555  1
  O  O131  1  0.11233469  0.35385812  0.51409655  1
  O  O132  1  0.13176299  0.37496349  0.75513632  1
  O  O133  1  0.12306061  0.64523679  -0.00133382  1
  O  O134  1  0.12716527  0.59987886  0.24618624  1
  O  O135  1  0.13832672  0.64448932  0.50876492  1
  O  O136  1  0.07790534  0.59263323  0.75151016  1
  O  O137  1  0.13237429  0.84626018  -0.00587914  1
  O  O138  1  0.13950960  0.87921829  0.24524368  1
  O  O139  1  0.11532991  0.86109880  0.50357957  1
  O  O140  1  0.10545016  0.88391039  0.75602410  1
  O  O141  1  0.40038505  0.13572317  -0.00887595  1
  O  O142  1  0.36629704  0.10024173  0.26039840  1
  O  O143  1  0.40656179  0.14525661  0.50430687  1
  O  O144  1  0.35600243  0.08950188  0.74649507  1
  O  O145  1  0.39838889  0.36327134  0.00610973  1
  O  O146  1  0.37874948  0.40328528  0.25134220  1
  O  O147  1  0.38810214  0.35627644  0.49252834  1
  O  O148  1  0.36608781  0.37277760  0.75427719  1
  O  O149  1  0.38201093  0.62109576  0.00358622  1
  O  O150  1  0.38664462  0.61006415  0.24185654  1
  O  O151  1  0.35959272  0.65576975  0.49668535  1
  O  O152  1  0.38581110  0.61690879  0.75764765  1
  O  O153  1  0.38371332  0.86773327  -0.00575195  1
  O  O154  1  0.37423884  0.90380665  0.25924205  1
  O  O155  1  0.35338394  0.85870748  0.50458984  1
  O  O156  1  0.38822211  0.90594043  0.74448161  1
  O  O157  1  0.59953282  0.11574614  0.01471816  1
  O  O158  1  0.64876679  0.14370927  0.26101251  1
  O  O159  1  0.59309562  0.09060373  0.50806967  1
  O  O160  1  0.68123224  0.13577716  0.72565693  1
  O  O161  1  0.62181165  0.39850789  -0.01613860  1
  O  O162  1  0.63977136  0.36316273  0.26115585  1
  O  O163  1  0.63196070  0.38156504  0.50666142  1
  O  O164  1  0.65305520  0.33309640  0.74225040  1
  O  O165  1  0.64357474  0.60431584  -0.00845170  1
  O  O166  1  0.62664298  0.62310174  0.24082792  1
  O  O167  1  0.66445585  0.62111746  0.50329517  1
  O  O168  1  0.58815068  0.63909780  0.75520592  1
  O  O169  1  0.64597124  0.89381504  -0.00813091  1
  O  O170  1  0.60953594  0.83869863  0.25328133  1
  O  O171  1  0.65527100  0.88772191  0.51008581  1
  O  O172  1  0.62206589  0.84643803  0.74988334  1
  O  O173  1  0.89678652  0.10669204  0.02338445  1
  O  O174  1  0.86597078  0.15819860  0.25684798  1
  O  O175  1  0.90477852  0.10002788  0.49087210  1
  O  O176  1  0.86868728  0.14334617  0.75382138  1
  O  O177  1  0.88303385  0.39852399  0.00462894  1
  O  O178  1  0.86641536  0.35393622  0.25571136  1
  O  O179  1  0.88951831  0.40007509  0.51041223  1
  O  O180  1  0.86325451  0.32984961  0.74484716  1
  O  O181  1  0.85021079  0.60475467  0.00116335  1
  O  O182  1  0.91742265  0.64394603  0.26347588  1
  O  O183  1  0.84994722  0.61278552  0.51056132  1
  O  O184  1  0.89752622  0.64519155  0.76002153  1
  O  O185  1  0.83011205  0.90418322  0.01413193  1
  O  O186  1  0.91825333  0.85615786  0.23798502  1
  O  O187  1  0.87429120  0.89845272  0.51460204  1
  O  O188  1  0.88178935  0.85152979  0.75323026  1
  O  O189  1  0.00546146  0.12586353  0.16270311  1
  O  O190  1  0.00803067  0.14221039  0.36035360  1
  O  O191  1  0.00390778  0.13455426  0.64412614  1
  O  O192  1  0.00023044  0.12393859  0.88174381  1
  O  O193  1  -0.00094672  0.39224931  0.14518700  1
  O  O194  1  -0.00500807  0.36179568  0.37980911  1
  O  O195  1  -0.00816787  0.33839252  0.64038360  1
  O  O196  1  -0.00977621  0.40128995  0.86556487  1
  O  O197  1  -0.00336851  0.60401675  0.11656982  1
  O  O198  1  -0.00219813  0.61450304  0.41511109  1
  O  O199  1  -0.00705527  0.62792219  0.60630302  1
  O  O200  1  -0.02190510  0.59090021  0.89045587  1
  O  O201  1  -0.00889529  0.88951363  0.08643506  1
  O  O202  1  -0.00454104  0.89313372  0.37825420  1
  O  O203  1  -0.00483151  0.88232076  0.62996302  1
  O  O204  1  -0.00050712  0.88054029  0.90164192  1
  O  O205  1  0.24971866  0.13287269  0.09935073  1
  O  O206  1  0.25966003  0.14315333  0.40079278  1
  O  O207  1  0.25849613  0.09924743  0.60876705  1
  O  O208  1  0.24842212  0.13829857  0.90024597  1
  O  O209  1  0.24997758  0.36838621  0.10575705  1
  O  O210  1  0.26561388  0.33876814  0.35951172  1
  O  O211  1  0.23709710  0.37712296  0.63506929  1
  O  O212  1  0.24007658  0.37635949  0.89596078  1
  O  O213  1  0.24988292  0.64004344  0.12649351  1
  O  O214  1  0.24650745  0.63114357  0.37922696  1
  O  O215  1  0.22994570  0.61460205  0.65619635  1
  O  O216  1  0.25662718  0.61548559  0.87146551  1
  O  O217  1  0.25141655  0.87983770  0.10335867  1
  O  O218  1  0.24969556  0.88842144  0.37560379  1
  O  O219  1  0.25899251  0.91337166  0.63833995  1
  O  O220  1  0.24809484  0.85767792  0.87537945  1
  O  O221  1  0.50482012  0.13107071  0.15942470  1
  O  O222  1  0.50678021  0.09930488  0.36154464  1
  O  O223  1  0.50093809  0.13569007  0.65459494  1
  O  O224  1  0.51976389  0.12816707  0.85711680  1
  O  O225  1  0.50614841  0.38467309  0.14176084  1
  O  O226  1  0.50538273  0.37905919  0.37675902  1
  O  O227  1  0.51540889  0.37907505  0.63383911  1
  O  O228  1  0.51683065  0.37142412  0.84596778  1
  O  O229  1  0.51236979  0.60054077  0.11362855  1
  O  O230  1  0.50042081  0.65318815  0.38480870  1
  O  O231  1  0.51024835  0.62119169  0.60084924  1
  O  O232  1  0.50678232  0.59345067  0.88758867  1
  O  O233  1  0.50214174  0.88024874  0.10600788  1
  O  O234  1  0.49547936  0.85725114  0.38061111  1
  O  O235  1  0.50154704  0.86694120  0.61117157  1
  O  O236  1  0.51158823  0.90580514  0.87612854  1
  O  O237  1  0.75440069  0.11899143  0.11117294  1
  O  O238  1  0.75256277  0.13062267  0.40624961  1
  O  O239  1  0.75321298  0.07106017  0.58419596  1
  O  O240  1  0.76349149  0.12199871  0.91092172  1
  O  O241  1  0.75774118  0.35811703  0.12060771  1
  O  O242  1  0.75295793  0.37078604  0.38907504  1
  O  O243  1  0.76045332  0.36732527  0.61624776  1
  O  O244  1  0.75763931  0.36100830  0.89235910  1
  O  O245  1  0.76332220  0.63395774  0.15123875  1
  O  O246  1  0.76699161  0.60580835  0.36248335  1
  O  O247  1  0.75986296  0.61269756  0.66472565  1
  O  O248  1  0.74514301  0.63242677  0.85259676  1
  O  O249  1  0.75371155  0.87050765  0.16532981  1
  O  O250  1  0.75619594  0.87506602  0.34266213  1
  O  O251  1  0.75180384  0.89186632  0.65775788  1
  O  O252  1  0.74907669  0.85114659  0.86486985  1
  O  O253  1  0.14050344  0.01056418  0.12892817  1
  O  O254  1  0.13145226  0.00704116  0.36903184  1
  O  O255  1  0.10776360  0.00114655  0.61473609  1
  O  O256  1  0.12410195  -0.00474698  0.89392987  1
  O  O257  1  0.12331261  0.25956208  0.15409276  1
  O  O258  1  0.12884217  0.24982663  0.38155717  1
  O  O259  1  0.14625522  0.24265133  0.63846240  1
  O  O260  1  0.10946485  0.25302004  0.88006661  1
  O  O261  1  0.13583698  0.50100939  0.10105104  1
  O  O262  1  0.14554915  0.49892468  0.39405874  1
  O  O263  1  0.10673028  0.49116720  0.61107991  1
  O  O264  1  0.12448025  0.49424353  0.90089774  1
  O  O265  1  0.10844480  0.74189507  0.14314718  1
  O  O266  1  0.09472294  0.74726489  0.34251601  1
  O  O267  1  0.10782634  0.74144399  0.64351031  1
  O  O268  1  0.09122486  0.74728762  0.86095655  1
  O  O269  1  0.37531387  0.00702484  0.10872005  1
  O  O270  1  0.38045756  0.00341910  0.40943934  1
  O  O271  1  0.39703972  0.00234035  0.58637137  1
  O  O272  1  0.38596290  0.00832339  0.88457908  1
  O  O273  1  0.38694352  0.25891729  0.14892529  1
  O  O274  1  0.41102979  0.24335759  0.36638667  1
  O  O275  1  0.36181778  0.23853706  0.64546050  1
  O  O276  1  0.38722827  0.23969389  0.85269707  1
  O  O277  1  0.38305444  0.49906607  0.11607781  1
  O  O278  1  0.35837384  0.49443131  0.39963167  1
  O  O279  1  0.35831260  0.50375263  0.60282880  1
  O  O280  1  0.37389117  0.49328883  0.89701352  1
  O  O281  1  0.39741526  0.74463143  0.12659021  1
  O  O282  1  0.35851686  0.76113949  0.36034084  1
  O  O283  1  0.38180271  0.75733537  0.65494592  1
  O  O284  1  0.38751020  0.74247919  0.87162152  1
  O  O285  1  0.62368466  0.00653305  0.16071653  1
  O  O286  1  0.64988492  0.00329477  0.37259460  1
  O  O287  1  0.61534435  -0.00437078  0.64724061  1
  O  O288  1  0.65884417  -0.00296633  0.82643803  1
  O  O289  1  0.62544906  0.24824327  0.13259642  1
  O  O290  1  0.62169221  0.24228425  0.40322266  1
  O  O291  1  0.64556227  0.23519123  0.59989273  1
  O  O292  1  0.64304970  0.24506953  0.89426397  1
  O  O293  1  0.66189364  0.50260800  0.11863117  1
  O  O294  1  0.63429595  0.49959242  0.37566010  1
  O  O295  1  0.64033976  0.49336179  0.66297806  1
  O  O296  1  0.64994145  0.48833019  0.83788988  1
  O  O297  1  0.61950432  0.74356367  0.09727447  1
  O  O298  1  0.64970360  0.75018884  0.38915665  1
  O  O299  1  0.64211958  0.75381108  0.61016204  1
  O  O300  1  0.61577797  0.75047835  0.90141650  1
  O  O301  1  0.87477670  0.00161304  0.16199465  1
  O  O302  1  0.87059643  0.00943246  0.34363538  1
  O  O303  1  0.88282958  0.00225370  0.66051858  1
  O  O304  1  0.88224965  0.00697592  0.88629973  1
  O  O305  1  0.89736523  0.25521643  0.11878545  1
  O  O306  1  0.87571872  0.25043575  0.40298989  1
  O  O307  1  0.84367171  0.21892138  0.61120703  1
  O  O308  1  0.87813803  0.24723657  0.89895110  1
  O  O309  1  0.86654858  0.50160558  0.15657967  1
  O  O310  1  0.89710408  0.49258808  0.36449563  1
  O  O311  1  0.89723889  0.49800041  0.66069521  1
  O  O312  1  0.84812804  0.48831777  0.82845485  1
  O  O313  1  0.88002262  0.75109039  0.09996970  1
  O  O314  1  0.88888494  0.74865808  0.38985856  1
  O  O315  1  0.86527803  0.75064353  0.62011933  1
  O  O316  1  0.88512650  0.74773611  0.90425583  1
