# generated using pymatgen
data_Mg32Ti42(Bi17O64)3
_symmetry_space_group_name_H-M   'P 1'
_cell_length_a   15.92086170
_cell_length_b   15.92539796
_cell_length_c   15.96479453
_cell_angle_alpha   90.03382825
_cell_angle_beta   89.93206804
_cell_angle_gamma   89.93658602
_symmetry_Int_Tables_number   1
_chemical_formula_structural   Mg32Ti42(Bi17O64)3
_chemical_formula_sum   'Mg32 Ti42 Bi51 O192'
_cell_volume   4047.80469382
_cell_formula_units_Z   1
loop_
 _symmetry_equiv_pos_site_id
 _symmetry_equiv_pos_as_xyz
  1  'x, y, z'
loop_
 _atom_site_type_symbol
 _atom_site_label
 _atom_site_symmetry_multiplicity
 _atom_site_fract_x
 _atom_site_fract_y
 _atom_site_fract_z
 _atom_site_occupancy
  Mg  Mg0  1  0.36397646  0.38469817  0.86798504  1
  Mg  Mg1  1  0.12726023  0.37766275  0.12702656  1
  Mg  Mg2  1  0.13294509  0.13701572  0.36813040  1
  Mg  Mg3  1  0.37710037  0.37886081  0.13563890  1
  Mg  Mg4  1  0.12986721  0.36913294  0.63369348  1
  Mg  Mg5  1  0.87260736  0.13075550  0.37241009  1
  Mg  Mg6  1  0.62392928  0.62922115  0.12353282  1
  Mg  Mg7  1  0.88263619  0.62739920  0.12235214  1
  Mg  Mg8  1  0.62472759  0.37740426  0.86981665  1
  Mg  Mg9  1  0.87427690  0.86546003  0.37064835  1
  Mg  Mg10  1  0.12549043  0.86945430  0.63297733  1
  Mg  Mg11  1  0.62745405  0.63309207  0.88047645  1
  Mg  Mg12  1  0.62489296  0.62404546  0.62459294  1
  Mg  Mg13  1  0.62924840  0.62541001  0.36881970  1
  Mg  Mg14  1  0.86986235  0.36942084  0.61738926  1
  Mg  Mg15  1  0.62270423  0.87876710  0.10975244  1
  Mg  Mg16  1  0.88203171  0.62835650  0.86686325  1
  Mg  Mg17  1  0.87613453  0.12536996  0.11678336  1
  Mg  Mg18  1  0.37415876  0.87166312  0.13040131  1
  Mg  Mg19  1  -0.03770905  0.52370156  -0.00982744  1
  Mg  Mg20  1  0.00341375  -0.01225717  -0.03860371  1
  Mg  Mg21  1  0.49039483  0.51609060  0.31288084  1
  Mg  Mg22  1  0.02293402  0.26880663  0.79657443  1
  Mg  Mg23  1  0.47830458  0.73921059  0.04005641  1
  Mg  Mg24  1  0.78445055  0.49742125  0.46543035  1
  Mg  Mg25  1  0.22494441  -0.03441032  0.74879566  1
  Mg  Mg26  1  0.79521988  0.50320841  0.23878583  1
  Mg  Mg27  1  0.26481089  0.77875562  0.79126835  1
  Mg  Mg28  1  0.00661441  0.25254427  0.55391147  1
  Mg  Mg29  1  0.31099237  0.23232992  0.26403608  1
  Mg  Mg30  1  0.30366624  0.51476181  0.73927483  1
  Mg  Mg31  1  0.03864020  0.77880556  0.30983915  1
  Ti  Ti32  1  0.37227441  0.36126986  0.64016997  1
  Ti  Ti33  1  0.12127405  0.11102685  0.88533236  1
  Ti  Ti34  1  0.62969632  0.12137434  0.13237602  1
  Ti  Ti35  1  0.38222777  0.88059585  0.37392640  1
  Ti  Ti36  1  0.12535336  0.12199001  0.13119317  1
  Ti  Ti37  1  0.63454647  0.87538374  0.88118104  1
  Ti  Ti38  1  0.87855491  0.87885949  0.61928184  1
  Ti  Ti39  1  0.11372995  0.62747188  0.14182857  1
  Ti  Ti40  1  0.37360198  0.11905715  0.38932191  1
  Ti  Ti41  1  0.88259265  0.36561071  0.87610570  1
  Ti  Ti42  1  0.37721145  0.11680870  0.13103025  1
  Ti  Ti43  1  0.39136105  0.62008741  0.14384862  1
  Ti  Ti44  1  0.87861269  0.87326432  0.86489526  1
  Ti  Ti45  1  0.12969821  0.35974872  0.38092739  1
  Ti  Ti46  1  0.12337777  0.61696863  0.39269411  1
  Ti  Ti47  1  0.12333955  0.12806468  0.63847472  1
  Ti  Ti48  1  0.13402901  0.60972341  0.63852625  1
  Ti  Ti49  1  0.37132644  0.62584492  0.38478118  1
  Ti  Ti50  1  0.13736375  0.62047900  0.87490551  1
  Ti  Ti51  1  0.88201275  0.11704525  0.87615072  1
  Ti  Ti52  1  0.62997255  0.37786888  0.63100354  1
  Ti  Ti53  1  0.36542629  0.62818082  0.87329739  1
  Ti  Ti54  1  0.63779487  0.86707892  0.62570351  1
  Ti  Ti55  1  0.36711485  0.88143030  0.63601646  1
  Ti  Ti56  1  0.13211182  0.39304360  0.88176260  1
  Ti  Ti57  1  0.36505418  0.11495703  0.87739686  1
  Ti  Ti58  1  0.62261615  0.39129317  0.37043478  1
  Ti  Ti59  1  0.36277310  0.11420004  0.64139885  1
  Ti  Ti60  1  0.61819352  0.12162576  0.37146352  1
  Ti  Ti61  1  0.88384912  0.87171118  0.11994890  1
  Ti  Ti62  1  0.87416522  0.61636803  0.62617696  1
  Ti  Ti63  1  0.37229652  0.63136708  0.62600166  1
  Ti  Ti64  1  0.63073500  0.39700490  0.12932189  1
  Ti  Ti65  1  0.13435047  0.87424387  0.88074081  1
  Ti  Ti66  1  0.37992526  0.87198702  0.89597982  1
  Ti  Ti67  1  0.88658888  0.62851594  0.35864489  1
  Ti  Ti68  1  0.38128991  0.36509565  0.36892632  1
  Ti  Ti69  1  0.88029125  0.12939543  0.61234693  1
  Ti  Ti70  1  0.87868464  0.38047185  0.37603003  1
  Ti  Ti71  1  0.11539533  0.86984119  0.11893136  1
  Ti  Ti72  1  0.63280145  0.87928231  0.38169926  1
  Ti  Ti73  1  0.88312968  0.38031336  0.11805976  1
  Bi  Bi74  1  0.24079132  0.75578397  0.28450796  1
  Bi  Bi75  1  0.50793789  -0.00128958  0.76245417  1
  Bi  Bi76  1  0.76984083  0.25716393  0.21932476  1
  Bi  Bi77  1  0.27071351  0.48994033  0.01565079  1
  Bi  Bi78  1  0.23270072  0.22307554  0.50890303  1
  Bi  Bi79  1  0.52425544  0.01340240  0.53651411  1
  Bi  Bi80  1  0.77692760  -0.01446181  -0.00046596  1
  Bi  Bi81  1  0.50009113  0.49143381  -0.01398584  1
  Bi  Bi82  1  0.53227368  0.22008816  0.72320004  1
  Bi  Bi83  1  0.00670778  0.72252698  -0.00879781  1
  Bi  Bi84  1  0.52249605  0.27043775  0.22734967  1
  Bi  Bi85  1  0.27020032  0.76891108  0.50496353  1
  Bi  Bi86  1  -0.01843792  0.47288295  0.74699377  1
  Bi  Bi87  1  0.72515188  0.03441865  0.72996044  1
  Bi  Bi88  1  0.75133996  0.50861852  0.01595928  1
  Bi  Bi89  1  0.52017782  0.72672169  0.49581194  1
  Bi  Bi90  1  0.24460156  -0.00532832  0.02629444  1
  Bi  Bi91  1  0.02279421  0.75053558  0.75036486  1
  Bi  Bi92  1  0.02795176  0.47578333  0.25633516  1
  Bi  Bi93  1  0.51092557  0.25582958  0.49538996  1
  Bi  Bi94  1  -0.00371143  0.22012847  0.24718124  1
  Bi  Bi95  1  0.21527927  -0.01968442  0.48600181  1
  Bi  Bi96  1  0.26214005  0.46545666  0.50656519  1
  Bi  Bi97  1  -0.00036417  -0.00261063  0.26537458  1
  Bi  Bi98  1  0.74746420  0.71403210  0.49918755  1
  Bi  Bi99  1  0.26018809  0.25210749  0.02881997  1
  Bi  Bi100  1  0.02050490  0.27092822  0.00437744  1
  Bi  Bi101  1  0.00101846  -0.01702695  0.46994432  1
  Bi  Bi102  1  0.76732307  -0.02067051  0.24711067  1
  Bi  Bi103  1  0.70636216  0.22458308  -0.01659884  1
  Bi  Bi104  1  0.76301064  0.73656683  0.01322153  1
  Bi  Bi105  1  0.51551627  0.76121541  0.76706256  1
  Bi  Bi106  1  0.23358053  0.24845446  0.77806089  1
  Bi  Bi107  1  0.75164045  0.50062453  0.77568879  1
  Bi  Bi108  1  0.22979590  -0.03468226  0.26850065  1
  Bi  Bi109  1  0.74371538  0.73808225  0.24983920  1
  Bi  Bi110  1  0.50955958  0.03207207  -0.01016988  1
  Bi  Bi111  1  -0.00141642  -0.00436780  0.73362711  1
  Bi  Bi112  1  0.25282509  0.73005394  0.03454525  1
  Bi  Bi113  1  0.76035872  0.24265223  0.75568696  1
  Bi  Bi114  1  0.74898939  0.26030351  0.48546253  1
  Bi  Bi115  1  0.00431534  0.73393357  0.52058007  1
  Bi  Bi116  1  0.76552248  0.73824915  0.74774085  1
  Bi  Bi117  1  0.75206430  0.02747451  0.49496042  1
  Bi  Bi118  1  0.48410424  0.26827060  -0.03656215  1
  Bi  Bi119  1  0.49111144  0.48569805  0.53343902  1
  Bi  Bi120  1  0.51930135  0.52377465  0.76216444  1
  Bi  Bi121  1  0.00954581  0.47573432  0.51678847  1
  Bi  Bi122  1  0.52658201  0.76830260  0.23578297  1
  Bi  Bi123  1  0.25751717  0.49135589  0.26561378  1
  Bi  Bi124  1  0.51329346  -0.00198212  0.24263184  1
  O  O125  1  0.10553890  0.08527322  -0.00465222  1
  O  O126  1  0.13300208  0.15526944  0.23941895  1
  O  O127  1  0.14898222  0.10696364  0.50943105  1
  O  O128  1  0.11485439  0.16286671  0.75581884  1
  O  O129  1  0.10173692  0.38717700  -0.00355871  1
  O  O130  1  0.11652424  0.36385936  0.25860105  1
  O  O131  1  0.12670542  0.40484134  0.49380081  1
  O  O132  1  0.12765222  0.34292917  0.76184873  1
  O  O133  1  0.15642794  0.62771913  -0.00959234  1
  O  O134  1  0.08373352  0.66325679  0.24317567  1
  O  O135  1  0.14227603  0.60837640  0.50415805  1
  O  O136  1  0.09348411  0.62952364  0.75175412  1
  O  O137  1  0.09855727  0.90135177  -0.00684126  1
  O  O138  1  0.13543631  0.85698861  0.23946328  1
  O  O139  1  0.10330947  0.90345927  0.51184388  1
  O  O140  1  0.15542639  0.84980009  0.75844749  1
  O  O141  1  0.39489800  0.13462956  -0.00296448  1
  O  O142  1  0.37195073  0.12017611  0.24631653  1
  O  O143  1  0.36532434  0.13628952  0.50425826  1
  O  O144  1  0.35407514  0.09600907  0.75768807  1
  O  O145  1  0.38373009  0.40558873  0.00195191  1
  O  O146  1  0.33968910  0.36202323  0.25651156  1
  O  O147  1  0.38857742  0.38114819  0.49423760  1
  O  O148  1  0.34146133  0.39154051  0.74548823  1
  O  O149  1  0.35342617  0.62900604  -0.00913378  1
  O  O150  1  0.41832659  0.60932503  0.25275630  1
  O  O151  1  0.34500401  0.62865091  0.49796951  1
  O  O152  1  0.39296250  0.61038469  0.74209009  1
  O  O153  1  0.41143993  0.84420670  -0.00063333  1
  O  O154  1  0.34488486  0.86898035  0.25614552  1
  O  O155  1  0.38215004  0.85244072  0.49295225  1
  O  O156  1  0.32848244  0.88730094  0.74617205  1
  O  O157  1  0.62955991  0.10689214  0.00821971  1
  O  O158  1  0.61530263  0.14969200  0.25374346  1
  O  O159  1  0.62261583  0.09389558  0.49467202  1
  O  O160  1  0.65558964  0.15310178  0.74183936  1
  O  O161  1  0.61422131  0.40555165  0.01090085  1
  O  O162  1  0.63659696  0.34795529  0.25580681  1
  O  O163  1  0.58345290  0.38117530  0.49289425  1
  O  O164  1  0.63139411  0.35178870  0.74311829  1
  O  O165  1  0.66134776  0.61294412  -0.00006650  1
  O  O166  1  0.62429043  0.66297422  0.24824042  1
  O  O167  1  0.63690627  0.62876318  0.49647027  1
  O  O168  1  0.59472954  0.63881295  0.74852855  1
  O  O169  1  0.60905443  0.91249458  -0.01421168  1
  O  O170  1  0.64079498  0.84706694  0.25114017  1
  O  O171  1  0.61119665  0.90393006  0.49974839  1
  O  O172  1  0.63357576  0.84093258  0.74140703  1
  O  O173  1  0.87758011  0.10209340  -0.00896509  1
  O  O174  1  0.87160125  0.15802116  0.24649993  1
  O  O175  1  0.88009706  0.09037179  0.49479791  1
  O  O176  1  0.86354326  0.14491354  0.73736719  1
  O  O177  1  0.89915778  0.40364739  -0.00529192  1
  O  O178  1  0.85069461  0.37828604  0.24880981  1
  O  O179  1  0.87539870  0.41351954  0.49294366  1
  O  O180  1  0.90179899  0.35722596  0.74824778  1
  O  O181  1  0.85457468  0.60341145  -0.00770593  1
  O  O182  1  0.87734200  0.61969681  0.24658898  1
  O  O183  1  0.83960103  0.60542717  0.50458055  1
  O  O184  1  0.89101167  0.66183568  0.73950568  1
  O  O185  1  0.89705609  0.91622983  -0.00875079  1
  O  O186  1  0.85004095  0.86346008  0.23314538  1
  O  O187  1  0.89907604  0.89430512  0.50201887  1
  O  O188  1  0.86175031  0.85517932  0.75059769  1
  O  O189  1  0.00421695  0.12969745  0.13839338  1
  O  O190  1  0.00277546  0.12111530  0.34611490  1
  O  O191  1  0.00465037  0.12871319  0.61578647  1
  O  O192  1  0.00000513  0.08616262  0.86748326  1
  O  O193  1  -0.00419212  0.38625769  0.14058693  1
  O  O194  1  -0.00470485  0.38954554  0.37422318  1
  O  O195  1  -0.00029759  0.37167325  0.60675715  1
  O  O196  1  0.00970848  0.39134542  0.86110143  1
  O  O197  1  0.00539616  0.60612875  0.08459556  1
  O  O198  1  0.00221975  0.60191222  0.39309917  1
  O  O199  1  -0.00976486  0.61623062  0.59557592  1
  O  O200  1  0.00794126  0.60763908  0.90317532  1
  O  O201  1  -0.00234468  0.89073255  0.14032701  1
  O  O202  1  -0.00002901  0.89375227  0.35582395  1
  O  O203  1  -0.00196601  0.87706377  0.65627872  1
  O  O204  1  -0.00237429  0.90463968  0.85192407  1
  O  O205  1  0.24798899  0.12408735  0.09842543  1
  O  O206  1  0.26135745  0.16112190  0.36744691  1
  O  O207  1  0.24886782  0.15087176  0.63764759  1
  O  O208  1  0.24393589  0.14346523  0.88461362  1
  O  O209  1  0.24881697  0.37459175  0.09678275  1
  O  O210  1  0.24894445  0.36973696  0.39250821  1
  O  O211  1  0.25543820  0.36462864  0.59996085  1
  O  O212  1  0.24147825  0.34450972  0.89116974  1
  O  O213  1  0.23770578  0.64995913  0.14470922  1
  O  O214  1  0.24799635  0.61799756  0.34402873  1
  O  O215  1  0.24552101  0.60697202  0.65825454  1
  O  O216  1  0.24468707  0.66099778  0.84101596  1
  O  O217  1  0.23998321  0.86912716  0.09921429  1
  O  O218  1  0.24863044  0.86800951  0.38377273  1
  O  O219  1  0.24577078  0.87150618  0.59403452  1
  O  O220  1  0.24873034  0.85320954  0.89994488  1
  O  O221  1  0.49638636  0.09857093  0.12555252  1
  O  O222  1  0.49693178  0.11351714  0.38697653  1
  O  O223  1  0.48777556  0.11270485  0.64250568  1
  O  O224  1  0.49038372  0.09620939  0.86418793  1
  O  O225  1  0.50755538  0.38901728  0.15089919  1
  O  O226  1  0.49452771  0.39076659  0.34477719  1
  O  O227  1  0.49032387  0.39199495  0.63587487  1
  O  O228  1  0.49427369  0.39236657  0.88094338  1
  O  O229  1  0.49447271  0.61193736  0.09426417  1
  O  O230  1  0.49069190  0.61425257  0.40009949  1
  O  O231  1  0.48855101  0.62672558  0.59959335  1
  O  O232  1  0.48879639  0.59890023  0.88162426  1
  O  O233  1  0.49808821  0.89144445  0.15874805  1
  O  O234  1  0.49623529  0.88534059  0.35045131  1
  O  O235  1  0.48337900  0.87719012  0.64583610  1
  O  O236  1  0.49016627  0.88854374  0.84801173  1
  O  O237  1  0.74354355  0.14506442  0.12589654  1
  O  O238  1  0.74248082  0.12579380  0.39236645  1
  O  O239  1  0.75912888  0.11241157  0.60363952  1
  O  O240  1  0.76758383  0.16923477  0.87362442  1
  O  O241  1  0.74135332  0.35121634  0.11196378  1
  O  O242  1  0.73389731  0.38487707  0.41166310  1
  O  O243  1  0.74146652  0.35980952  0.60576963  1
  O  O244  1  0.76474465  0.36874845  0.86749134  1
  O  O245  1  0.75304677  0.66660146  0.13024301  1
  O  O246  1  0.76013460  0.65359362  0.36922502  1
  O  O247  1  0.75203397  0.65018981  0.63849890  1
  O  O248  1  0.75371290  0.62797924  0.83749866  1
  O  O249  1  0.75351123  0.86321283  0.08411030  1
  O  O250  1  0.74792823  0.87780219  0.38394913  1
  O  O251  1  0.75304771  0.86904623  0.61436038  1
  O  O252  1  0.75126218  0.86837671  0.89315538  1
  O  O253  1  0.14131194  0.00012793  0.14299109  1
  O  O254  1  0.13955101  0.00989480  0.36468646  1
  O  O255  1  0.13476714  0.00818899  0.66677370  1
  O  O256  1  0.15299848  -0.00417320  0.85046785  1
  O  O257  1  0.12967611  0.24393311  0.08959668  1
  O  O258  1  0.10852102  0.25400622  0.41587032  1
  O  O259  1  0.12095478  0.24589184  0.60032336  1
  O  O260  1  0.09748355  0.23546338  0.89850226  1
  O  O261  1  0.13195653  0.51014636  0.16176814  1
  O  O262  1  0.13334824  0.50053348  0.34893081  1
  O  O263  1  0.11199684  0.49725753  0.63804021  1
  O  O264  1  0.15352777  0.50342395  0.86436462  1
  O  O265  1  0.11105051  0.75488110  0.09454097  1
  O  O266  1  0.13046076  0.73620517  0.38516080  1
  O  O267  1  0.10068345  0.73893790  0.62378961  1
  O  O268  1  0.09888956  0.75477631  0.88023918  1
  O  O269  1  0.35430194  -0.00107461  0.11203323  1
  O  O270  1  0.35760256  -0.00031442  0.38034935  1
  O  O271  1  0.35774175  -0.00036683  0.61337504  1
  O  O272  1  0.35678814  -0.00793927  0.90668218  1
  O  O273  1  0.36149307  0.24369678  0.13402110  1
  O  O274  1  0.39770591  0.25004818  0.36442571  1
  O  O275  1  0.39170576  0.24789287  0.64719960  1
  O  O276  1  0.39331996  0.24122346  0.86516941  1
  O  O277  1  0.34335365  0.50937011  0.13339672  1
  O  O278  1  0.36594530  0.49834505  0.36472928  1
  O  O279  1  0.36452254  0.50160720  0.61421951  1
  O  O280  1  0.33496736  0.51363777  0.86512383  1
  O  O281  1  0.38154595  0.73893741  0.12504803  1
  O  O282  1  0.36413436  0.74303127  0.36732450  1
  O  O283  1  0.35389592  0.74782770  0.62609628  1
  O  O284  1  0.38172462  0.75382187  0.85054782  1
  O  O285  1  0.63162953  0.00370485  0.15567307  1
  O  O286  1  0.62540879  0.00008896  0.34462724  1
  O  O287  1  0.61634442  -0.01160510  0.64582676  1
  O  O288  1  0.63022820  -0.01236691  0.82795251  1
  O  O289  1  0.59426853  0.24266095  0.11223100  1
  O  O290  1  0.61582836  0.24520098  0.40396049  1
  O  O291  1  0.59483903  0.25728983  0.60601049  1
  O  O292  1  0.60477420  0.25517565  0.89773033  1
  O  O293  1  0.67096008  0.50312264  0.15067648  1
  O  O294  1  0.61675324  0.50191156  0.34870067  1
  O  O295  1  0.61627310  0.49710066  0.63462951  1
  O  O296  1  0.63334173  0.50255048  0.85078923  1
  O  O297  1  0.58271036  0.75687325  0.10555837  1
  O  O298  1  0.61297956  0.76143131  0.39586014  1
  O  O299  1  0.61306959  0.75560866  0.59727741  1
  O  O300  1  0.59856452  0.75897949  0.88297068  1
  O  O301  1  0.84682380  -0.00185952  0.13178310  1
  O  O302  1  0.87489867  0.00191070  0.33349108  1
  O  O303  1  0.88217431  -0.00363292  0.64471661  1
  O  O304  1  0.84557820  0.00738254  0.85402309  1
  O  O305  1  0.87739936  0.26177058  0.11831306  1
  O  O306  1  0.85856341  0.26513858  0.39295496  1
  O  O307  1  0.88217192  0.24295637  0.58118046  1
  O  O308  1  0.91886656  0.25197803  0.88015474  1
  O  O309  1  0.84905523  0.49835634  0.12691330  1
  O  O310  1  0.84483115  0.50320899  0.35627726  1
  O  O311  1  0.86813385  0.50392092  0.65512662  1
  O  O312  1  0.87715520  0.49751157  0.84327469  1
  O  O313  1  0.88917711  0.75763204  0.08651761  1
  O  O314  1  0.91672540  0.74385805  0.36762374  1
  O  O315  1  0.88936685  0.75408055  0.59437409  1
  O  O316  1  0.89138270  0.76041267  0.89236360  1
