# generated using pymatgen
data_Mg32Ti42(Bi17O64)3
_symmetry_space_group_name_H-M   'P 1'
_cell_length_a   15.94646820
_cell_length_b   15.95263359
_cell_length_c   15.95605340
_cell_angle_alpha   90.17764554
_cell_angle_beta   89.94332739
_cell_angle_gamma   90.06308293
_symmetry_Int_Tables_number   1
_chemical_formula_structural   Mg32Ti42(Bi17O64)3
_chemical_formula_sum   'Mg32 Ti42 Bi51 O192'
_cell_volume   4059.00719021
_cell_formula_units_Z   1
loop_
 _symmetry_equiv_pos_site_id
 _symmetry_equiv_pos_as_xyz
  1  'x, y, z'
loop_
 _atom_site_type_symbol
 _atom_site_label
 _atom_site_symmetry_multiplicity
 _atom_site_fract_x
 _atom_site_fract_y
 _atom_site_fract_z
 _atom_site_occupancy
  Mg  Mg0  1  0.12292150  0.87608618  0.87536533  1
  Mg  Mg1  1  0.88296176  0.12127911  0.37392456  1
  Mg  Mg2  1  0.61911642  0.13260518  0.38003190  1
  Mg  Mg3  1  0.62797911  0.37342738  0.39024606  1
  Mg  Mg4  1  0.62379662  0.63159221  0.38723362  1
  Mg  Mg5  1  0.11122807  0.12104499  0.37699067  1
  Mg  Mg6  1  0.61852657  0.90189778  0.61179084  1
  Mg  Mg7  1  0.87987879  0.87370039  0.37206662  1
  Mg  Mg8  1  0.11971976  0.12438344  0.87616762  1
  Mg  Mg9  1  0.12778615  0.11418727  0.63161419  1
  Mg  Mg10  1  0.85820947  0.63542130  0.62590774  1
  Mg  Mg11  1  0.62499170  0.62078061  0.11786751  1
  Mg  Mg12  1  0.88235102  0.37815227  0.63134186  1
  Mg  Mg13  1  0.37290968  0.37626023  0.38042483  1
  Mg  Mg14  1  0.87674385  0.61826423  0.87053482  1
  Mg  Mg15  1  0.62321770  0.87731632  0.37449081  1
  Mg  Mg16  1  0.37800855  0.36138159  0.63218500  1
  Mg  Mg17  1  0.11988733  0.37779235  0.62940282  1
  Mg  Mg18  1  0.13776328  0.61898769  0.61844779  1
  Mg  Mg19  1  0.24480775  0.80776331  0.49500821  1
  Mg  Mg20  1  -0.03916707  0.51260004  0.70147659  1
  Mg  Mg21  1  -0.02554177  0.03334043  0.54556027  1
  Mg  Mg22  1  0.51417844  0.47418430  -0.01177727  1
  Mg  Mg23  1  0.16856188  0.00343992  0.49640836  1
  Mg  Mg24  1  0.26856941  0.44537976  0.52366835  1
  Mg  Mg25  1  0.48104656  0.26371620  0.49908798  1
  Mg  Mg26  1  -0.00123694  0.19810255  0.55397313  1
  Mg  Mg27  1  0.52775059  0.76583744  -0.08119199  1
  Mg  Mg28  1  0.48562618  0.79499424  0.71880598  1
  Mg  Mg29  1  0.00877267  0.73528674  0.30262072  1
  Mg  Mg30  1  0.51229575  0.02080367  0.47231039  1
  Mg  Mg31  1  -0.07571170  0.02291720  0.71237188  1
  Ti  Ti32  1  0.36917972  0.88700686  0.62107199  1
  Ti  Ti33  1  0.88483464  0.37941153  0.36825496  1
  Ti  Ti34  1  0.61991864  0.13454287  0.12682749  1
  Ti  Ti35  1  0.62399048  0.13602883  0.88875409  1
  Ti  Ti36  1  0.61566166  0.86527113  0.11571149  1
  Ti  Ti37  1  0.11695990  0.87411179  0.36713354  1
  Ti  Ti38  1  0.12676815  0.38020619  0.86381144  1
  Ti  Ti39  1  0.11808322  0.64024611  0.12834188  1
  Ti  Ti40  1  0.87117645  0.13396100  0.88065755  1
  Ti  Ti41  1  0.38954617  0.62098761  0.88302071  1
  Ti  Ti42  1  0.37340136  0.37981259  0.12851163  1
  Ti  Ti43  1  0.60635127  0.12640305  0.60079147  1
  Ti  Ti44  1  0.37193896  0.12146306  0.61422569  1
  Ti  Ti45  1  0.63082065  0.38817861  0.11226907  1
  Ti  Ti46  1  0.62720306  0.61239360  0.88483261  1
  Ti  Ti47  1  0.61719671  0.62843819  0.62443064  1
  Ti  Ti48  1  0.11421379  0.87914831  0.62211594  1
  Ti  Ti49  1  0.12275585  0.37698616  0.13663899  1
  Ti  Ti50  1  0.12950456  0.61558185  0.86748831  1
  Ti  Ti51  1  0.87592258  0.62916789  0.12781416  1
  Ti  Ti52  1  0.13193454  0.13099605  0.12268349  1
  Ti  Ti53  1  0.37564899  0.86782983  0.88130429  1
  Ti  Ti54  1  0.13036876  0.37145662  0.37652093  1
  Ti  Ti55  1  0.12151890  0.87274977  0.12551204  1
  Ti  Ti56  1  0.37811319  0.62837542  0.62113125  1
  Ti  Ti57  1  0.88153720  0.86367424  0.11571455  1
  Ti  Ti58  1  0.87604018  0.38257380  0.86575496  1
  Ti  Ti59  1  0.87572447  0.62911492  0.38296792  1
  Ti  Ti60  1  0.36924678  0.86974158  0.13044304  1
  Ti  Ti61  1  0.38277063  0.62253317  0.39193735  1
  Ti  Ti62  1  0.63776418  0.37091281  0.88121669  1
  Ti  Ti63  1  0.37467616  0.89123660  0.37660213  1
  Ti  Ti64  1  0.38797498  0.62926785  0.12359355  1
  Ti  Ti65  1  0.62487408  0.36504558  0.63186089  1
  Ti  Ti66  1  0.87060259  0.38664549  0.13088961  1
  Ti  Ti67  1  0.13120240  0.62961564  0.38367158  1
  Ti  Ti68  1  0.88658575  0.87676580  0.86355094  1
  Ti  Ti69  1  0.38218475  0.12500138  0.38729089  1
  Ti  Ti70  1  0.87437267  0.87580236  0.61131095  1
  Ti  Ti71  1  0.37739664  0.38182063  0.87759640  1
  Ti  Ti72  1  0.37882039  0.12420509  0.88481335  1
  Ti  Ti73  1  0.37087823  0.13137226  0.13544989  1
  Bi  Bi74  1  0.70694098  0.77024518  0.74178702  1
  Bi  Bi75  1  0.00039563  0.51061237  -0.00232089  1
  Bi  Bi76  1  0.23241000  -0.00280090  0.25248215  1
  Bi  Bi77  1  0.51122697  -0.00898576  0.78307236  1
  Bi  Bi78  1  0.24476814  0.23028868  0.28171720  1
  Bi  Bi79  1  0.00417824  0.27973518  -0.00174442  1
  Bi  Bi80  1  0.49914750  0.78654938  0.49548397  1
  Bi  Bi81  1  0.80573002  0.23146459  0.51903301  1
  Bi  Bi82  1  0.24573281  0.73846818  -0.02839561  1
  Bi  Bi83  1  0.78236505  0.23491070  0.03437697  1
  Bi  Bi84  1  0.75890832  0.01947697  0.48798179  1
  Bi  Bi85  1  0.25386601  0.50651170  0.71736537  1
  Bi  Bi86  1  0.73053481  0.77285627  -0.02322529  1
  Bi  Bi87  1  0.76975260  0.76266897  0.26004603  1
  Bi  Bi88  1  0.22863424  -0.00276495  0.75596557  1
  Bi  Bi89  1  0.76489983  0.53079102  0.00263540  1
  Bi  Bi90  1  0.74459616  0.77099139  0.49679163  1
  Bi  Bi91  1  0.51381570  0.00561238  0.24712819  1
  Bi  Bi92  1  0.22092451  0.00148963  0.00317694  1
  Bi  Bi93  1  -0.02738274  0.21214394  0.74317983  1
  Bi  Bi94  1  0.50013223  0.49826675  0.74959555  1
  Bi  Bi95  1  0.73452684  0.21278052  0.73625143  1
  Bi  Bi96  1  0.24713013  0.23024686  0.77716404  1
  Bi  Bi97  1  0.27337137  0.51652726  0.26561594  1
  Bi  Bi98  1  0.50791914  0.28362333  0.26634543  1
  Bi  Bi99  1  0.48290814  -0.00322885  0.02821039  1
  Bi  Bi100  1  0.75234086  0.51862395  0.27303400  1
  Bi  Bi101  1  -0.00320122  0.71929634  0.74422628  1
  Bi  Bi102  1  0.52303849  0.50264158  0.28038888  1
  Bi  Bi103  1  0.73991936  -0.00203070  0.26654010  1
  Bi  Bi104  1  0.75951900  0.47400338  0.51739509  1
  Bi  Bi105  1  0.49661563  0.47075562  0.51801220  1
  Bi  Bi106  1  -0.00545944  0.74422776  -0.02452712  1
  Bi  Bi107  1  0.48675324  0.27000167  0.00431005  1
  Bi  Bi108  1  0.00388760  0.47673871  0.50280134  1
  Bi  Bi109  1  0.72674208  -0.01125611  0.79111347  1
  Bi  Bi110  1  0.48173469  0.22491157  0.74265500  1
  Bi  Bi111  1  -0.03717624  0.01823654  0.22968065  1
  Bi  Bi112  1  0.01723543  0.51145377  0.25461346  1
  Bi  Bi113  1  0.74955258  0.00008143  0.02661563  1
  Bi  Bi114  1  0.00455392  0.71964536  0.52493848  1
  Bi  Bi115  1  0.73369694  0.51050341  0.74332345  1
  Bi  Bi116  1  0.23834511  0.27930735  0.00012832  1
  Bi  Bi117  1  -0.03366851  0.22022083  0.23231595  1
  Bi  Bi118  1  -0.01811391  0.00895180  -0.01196674  1
  Bi  Bi119  1  0.27200157  0.75566642  0.27328359  1
  Bi  Bi120  1  0.21163740  0.24993923  0.52193304  1
  Bi  Bi121  1  0.74710627  0.24828475  0.28786302  1
  Bi  Bi122  1  0.52106803  0.72805829  0.24729765  1
  Bi  Bi123  1  0.24754490  0.76829047  0.73810701  1
  Bi  Bi124  1  0.24617670  0.51980553  0.03029840  1
  O  O125  1  0.12200809  0.10720782  0.00474633  1
  O  O126  1  0.16364018  0.12478204  0.24835513  1
  O  O127  1  0.08383264  0.09602893  0.50317032  1
  O  O128  1  0.16278614  0.12293131  0.75122651  1
  O  O129  1  0.12437854  0.36584169  0.00577407  1
  O  O130  1  0.13861840  0.37924534  0.25063856  1
  O  O131  1  0.10472165  0.38131148  0.49299179  1
  O  O132  1  0.14138370  0.38539958  0.75383624  1
  O  O133  1  0.15159708  0.62455908  0.00606951  1
  O  O134  1  0.08057402  0.63822810  0.24205816  1
  O  O135  1  0.13903054  0.64658918  0.49373791  1
  O  O136  1  0.11159227  0.61375439  0.75379301  1
  O  O137  1  0.13226266  0.89269310  0.00811580  1
  O  O138  1  0.14562746  0.88039701  0.24778926  1
  O  O139  1  0.13874996  0.87792023  0.49436645  1
  O  O140  1  0.14200067  0.87599484  0.74354790  1
  O  O141  1  0.39950866  0.12007397  -0.00301053  1
  O  O142  1  0.35665015  0.13154710  0.25261510  1
  O  O143  1  0.40795608  0.09714599  0.50069824  1
  O  O144  1  0.36074454  0.14126014  0.74107723  1
  O  O145  1  0.36598172  0.34657724  0.00194637  1
  O  O146  1  0.37099999  0.37377877  0.24537474  1
  O  O147  1  0.39889005  0.37540778  0.50489279  1
  O  O148  1  0.37367432  0.38387556  0.76193442  1
  O  O149  1  0.33841967  0.62511438  0.00793656  1
  O  O150  1  0.38145193  0.60531079  0.24494051  1
  O  O151  1  0.36461015  0.63766839  0.50513973  1
  O  O152  1  0.39121422  0.60192795  0.76953348  1
  O  O153  1  0.38768408  0.88406801  -0.00371664  1
  O  O154  1  0.37458996  0.87659318  0.25326204  1
  O  O155  1  0.36460144  0.85826179  0.49949687  1
  O  O156  1  0.36040177  0.85800529  0.74051136  1
  O  O157  1  0.60153022  0.14288900  -0.00127440  1
  O  O158  1  0.62745576  0.09519703  0.24337059  1
  O  O159  1  0.57294371  0.16725800  0.50107139  1
  O  O160  1  0.65447218  0.10513853  0.74506686  1
  O  O161  1  0.63591185  0.33913922  -0.00388719  1
  O  O162  1  0.60379453  0.39190872  0.22961461  1
  O  O163  1  0.58938238  0.35891486  0.51247904  1
  O  O164  1  0.62984506  0.40285348  0.75155199  1
  O  O165  1  0.66048471  0.63744323  -0.00341665  1
  O  O166  1  0.60470948  0.61381705  0.24764696  1
  O  O167  1  0.62493698  0.65452850  0.51499280  1
  O  O168  1  0.61393807  0.58381616  0.75956037  1
  O  O169  1  0.60364744  0.82768897  0.00224296  1
  O  O170  1  0.63002342  0.90832806  0.24551153  1
  O  O171  1  0.62700898  0.84514175  0.50227302  1
  O  O172  1  0.63600040  0.90365462  0.73457347  1
  O  O173  1  0.88875049  0.15703717  -0.00346345  1
  O  O174  1  0.86731096  0.11656210  0.24257910  1
  O  O175  1  0.90492565  0.13492148  0.49599685  1
  O  O176  1  0.85834896  0.12060528  0.75590587  1
  O  O177  1  0.87900234  0.34422524  0.00308883  1
  O  O178  1  0.87508336  0.40927308  0.24544612  1
  O  O179  1  0.88573793  0.38563256  0.49095351  1
  O  O180  1  0.88908167  0.41230302  0.75657105  1
  O  O181  1  0.85129784  0.64193008  0.00125902  1
  O  O182  1  0.89868417  0.59782001  0.24138170  1
  O  O183  1  0.86339394  0.65156217  0.49483467  1
  O  O184  1  0.90701327  0.61370076  0.74752560  1
  O  O185  1  0.87966265  0.84153978  0.00075264  1
  O  O186  1  0.84430958  0.88670105  0.23601661  1
  O  O187  1  0.87212105  0.84957401  0.49890926  1
  O  O188  1  0.88904815  0.90720073  0.75143247  1
  O  O189  1  0.01310517  0.11307308  0.14232252  1
  O  O190  1  0.00028175  0.11204831  0.32605694  1
  O  O191  1  0.00159338  0.10292516  0.65395027  1
  O  O192  1  -0.00789836  0.11968237  0.86226835  1
  O  O193  1  -0.00097525  0.36061546  0.12243831  1
  O  O194  1  0.00022424  0.39688956  0.36258100  1
  O  O195  1  0.00189123  0.42386379  0.62670132  1
  O  O196  1  0.00501391  0.36849738  0.88596037  1
  O  O197  1  0.00000017  0.62979071  0.08748663  1
  O  O198  1  -0.00053183  0.63141627  0.38829255  1
  O  O199  1  0.00546138  0.60753254  0.60464382  1
  O  O200  1  0.00653046  0.62017386  0.90389259  1
  O  O201  1  0.00220569  0.87281936  0.12858667  1
  O  O202  1  0.00540046  0.86753686  0.35221962  1
  O  O203  1  0.00656231  0.91316445  0.60795081  1
  O  O204  1  -0.00022747  0.89682404  0.89877244  1
  O  O205  1  0.25841443  0.13199550  0.10485795  1
  O  O206  1  0.26315728  0.14926902  0.39123194  1
  O  O207  1  0.25934727  0.14145628  0.59554392  1
  O  O208  1  0.26303688  0.13688126  0.88544368  1
  O  O209  1  0.24791886  0.37018664  0.11431506  1
  O  O210  1  0.24504971  0.37506516  0.40642357  1
  O  O211  1  0.25265075  0.34540528  0.60652048  1
  O  O212  1  0.25411452  0.37226825  0.89054930  1
  O  O213  1  0.23468933  0.60532909  0.14779163  1
  O  O214  1  0.24826856  0.63388295  0.34707630  1
  O  O215  1  0.26255933  0.63886572  0.65728054  1
  O  O216  1  0.25010642  0.64260303  0.86769905  1
  O  O217  1  0.25629007  0.87365609  0.12094069  1
  O  O218  1  0.25648367  0.84784766  0.37663584  1
  O  O219  1  0.25334430  0.83412335  0.61623593  1
  O  O220  1  0.25745883  0.85430431  0.87539955  1
  O  O221  1  0.49976131  0.10143728  0.13672902  1
  O  O222  1  0.49994393  0.08527848  0.36228356  1
  O  O223  1  0.50476288  0.10995271  0.66208949  1
  O  O224  1  0.50489859  0.12510707  0.84711044  1
  O  O225  1  0.49453089  0.38234951  0.08993404  1
  O  O226  1  0.50188589  0.38586155  0.36305856  1
  O  O227  1  0.50494487  0.40372019  0.64164218  1
  O  O228  1  0.50167926  0.36908179  0.89958387  1
  O  O229  1  0.49555296  0.62657605  0.10645588  1
  O  O230  1  0.49541878  0.60146713  0.39018113  1
  O  O231  1  0.49865038  0.58281793  0.63101689  1
  O  O232  1  0.50641211  0.63580397  0.90318723  1
  O  O233  1  0.49886015  0.88668422  0.12676114  1
  O  O234  1  0.49487343  0.90442731  0.40894856  1
  O  O235  1  0.49100221  0.87739696  0.61755782  1
  O  O236  1  0.49264843  0.85436925  0.83589494  1
  O  O237  1  0.73721602  0.11685130  0.10481971  1
  O  O238  1  0.75119221  0.15296157  0.39575514  1
  O  O239  1  0.73241772  0.14735505  0.59986272  1
  O  O240  1  0.74655058  0.12925254  0.89332721  1
  O  O241  1  0.74957574  0.39469528  0.12219046  1
  O  O242  1  0.75459296  0.36165223  0.36863174  1
  O  O243  1  0.74528430  0.36237780  0.60616752  1
  O  O244  1  0.75349928  0.38786288  0.87175212  1
  O  O245  1  0.75879694  0.60010283  0.14179618  1
  O  O246  1  0.75355823  0.63977918  0.35005370  1
  O  O247  1  0.73502511  0.64834142  0.65961997  1
  O  O248  1  0.74891795  0.59348557  0.86053110  1
  O  O249  1  0.74360242  0.87172626  0.09317754  1
  O  O250  1  0.74871240  0.84123961  0.37571289  1
  O  O251  1  0.75629481  0.85258931  0.61971614  1
  O  O252  1  0.76478584  0.87001828  0.87531815  1
  O  O253  1  0.14642315  0.00079095  0.13395180  1
  O  O254  1  0.15037300  -0.00551282  0.37123119  1
  O  O255  1  0.16436516  -0.00928247  0.62317980  1
  O  O256  1  0.15431177  -0.00011766  0.87448510  1
  O  O257  1  0.12432907  0.24650146  0.12587968  1
  O  O258  1  0.12579741  0.25406669  0.36452045  1
  O  O259  1  0.10334146  0.24398129  0.60927182  1
  O  O260  1  0.13698791  0.25381399  0.87390818  1
  O  O261  1  0.10684689  0.49614424  0.12908035  1
  O  O262  1  0.12653292  0.51182952  0.35773555  1
  O  O263  1  0.17470081  0.49712591  0.60735584  1
  O  O264  1  0.13266003  0.49984271  0.88889126  1
  O  O265  1  0.13075963  0.75376118  0.11941957  1
  O  O266  1  0.12338934  0.75076327  0.35805824  1
  O  O267  1  0.09836406  0.75592349  0.62570177  1
  O  O268  1  0.11563894  0.74622299  0.88871050  1
  O  O269  1  0.37667456  -0.00012608  0.12153882  1
  O  O270  1  0.34985688  -0.00117555  0.37266498  1
  O  O271  1  0.35855216  -0.00219816  0.63231383  1
  O  O272  1  0.38905737  -0.00295964  0.86247594  1
  O  O273  1  0.39555397  0.24537840  0.12649013  1
  O  O274  1  0.41652728  0.23821489  0.38770857  1
  O  O275  1  0.41442994  0.23783471  0.60967582  1
  O  O276  1  0.38757508  0.24647653  0.86971861  1
  O  O277  1  0.36319992  0.49627278  0.11640305  1
  O  O278  1  0.35281105  0.50602894  0.38281445  1
  O  O279  1  0.35033935  0.49622019  0.61702273  1
  O  O280  1  0.39913355  0.49761962  0.91014977  1
  O  O281  1  0.37329002  0.74823088  0.13574055  1
  O  O282  1  0.38598150  0.74094838  0.35843058  1
  O  O283  1  0.40951775  0.73482250  0.63795146  1
  O  O284  1  0.38421272  0.74541573  0.89674137  1
  O  O285  1  0.62395312  -0.00851471  0.09015744  1
  O  O286  1  0.66009416  0.00293987  0.38844536  1
  O  O287  1  0.60998488  0.01586816  0.56133106  1
  O  O288  1  0.61956199  0.00937011  0.87752151  1
  O  O289  1  0.61839353  0.24583296  0.14453890  1
  O  O290  1  0.61704862  0.25316735  0.34412593  1
  O  O291  1  0.61331577  0.25244109  0.65760683  1
  O  O292  1  0.63161401  0.25028657  0.84410604  1
  O  O293  1  0.61278658  0.49487512  0.08194181  1
  O  O294  1  0.63634747  0.50115018  0.36956209  1
  O  O295  1  0.65213345  0.50348944  0.60858435  1
  O  O296  1  0.61073121  0.49065835  0.90421413  1
  O  O297  1  0.62322702  0.75443954  0.15666872  1
  O  O298  1  0.58908687  0.75406563  0.35994640  1
  O  O299  1  0.59222325  0.73887882  0.67386699  1
  O  O300  1  0.63771237  0.73226710  0.86058349  1
  O  O301  1  0.87898429  -0.01391532  0.09300671  1
  O  O302  1  0.84614616  -0.00270748  0.38188511  1
  O  O303  1  0.86691106  -0.00761572  0.60300457  1
  O  O304  1  0.87171850  0.00582084  0.90268213  1
  O  O305  1  0.85438714  0.26436161  0.14939584  1
  O  O306  1  0.88465616  0.26027351  0.34697645  1
  O  O307  1  0.90326266  0.25531135  0.62370594  1
  O  O308  1  0.87364167  0.25429703  0.84937779  1
  O  O309  1  0.89012103  0.49983504  0.09194241  1
  O  O310  1  0.85539383  0.50885072  0.38147817  1
  O  O311  1  0.84683885  0.50805777  0.61499148  1
  O  O312  1  0.88569047  0.49370862  0.91166638  1
  O  O313  1  0.87160126  0.74472874  0.14646671  1
  O  O314  1  0.88660393  0.74304011  0.33502540  1
  O  O315  1  0.91149259  0.75618988  0.63856919  1
  O  O316  1  0.90748884  0.75641700  0.85707097  1
