# generated using pymatgen
data_Mg32Ti42(Bi17O64)3
_symmetry_space_group_name_H-M   'P 1'
_cell_length_a   15.91776011
_cell_length_b   15.91738030
_cell_length_c   15.93893514
_cell_angle_alpha   89.87609007
_cell_angle_beta   89.99232169
_cell_angle_gamma   89.98925448
_symmetry_Int_Tables_number   1
_chemical_formula_structural   Mg32Ti42(Bi17O64)3
_chemical_formula_sum   'Mg32 Ti42 Bi51 O192'
_cell_volume   4038.42316307
_cell_formula_units_Z   1
loop_
 _symmetry_equiv_pos_site_id
 _symmetry_equiv_pos_as_xyz
  1  'x, y, z'
loop_
 _atom_site_type_symbol
 _atom_site_label
 _atom_site_symmetry_multiplicity
 _atom_site_fract_x
 _atom_site_fract_y
 _atom_site_fract_z
 _atom_site_occupancy
  Mg  Mg0  1  0.12823579  0.12438655  0.86972121  1
  Mg  Mg1  1  0.88882243  0.12233235  0.61469491  1
  Mg  Mg2  1  0.13750821  0.87037441  0.88482577  1
  Mg  Mg3  1  0.87456671  0.12706661  0.87999786  1
  Mg  Mg4  1  0.36588871  0.36447081  0.87012143  1
  Mg  Mg5  1  0.61530402  0.38142886  0.12112181  1
  Mg  Mg6  1  0.12533410  0.62288607  0.87581797  1
  Mg  Mg7  1  0.13922053  0.87691375  0.62363062  1
  Mg  Mg8  1  0.12803483  0.62091072  0.62300312  1
  Mg  Mg9  1  0.62781333  0.87957601  0.62863501  1
  Mg  Mg10  1  0.63944907  0.87508536  0.38601165  1
  Mg  Mg11  1  0.87123015  0.87373630  0.87083163  1
  Mg  Mg12  1  0.87955365  0.86810013  0.12684357  1
  Mg  Mg13  1  0.12215796  0.37540978  0.37747073  1
  Mg  Mg14  1  0.62249267  0.38156106  0.37433319  1
  Mg  Mg15  1  0.12516853  0.87206794  0.37338016  1
  Mg  Mg16  1  0.63067103  0.12696534  0.36794350  1
  Mg  Mg17  1  0.87545515  0.12291235  0.13286883  1
  Mg  Mg18  1  0.11661724  0.62589219  0.12482102  1
  Mg  Mg19  1  0.29964719  0.22262210  0.75981830  1
  Mg  Mg20  1  0.25546203  0.22149241  -0.04492381  1
  Mg  Mg21  1  0.22176205  0.03606457  0.47664378  1
  Mg  Mg22  1  0.81272415  -0.01505428  0.49602111  1
  Mg  Mg23  1  0.49443233  0.21943026  0.80190318  1
  Mg  Mg24  1  0.72024794  0.80027250  0.03555167  1
  Mg  Mg25  1  0.01040864  0.00373637  0.81858390  1
  Mg  Mg26  1  0.04020305  0.21764054  0.50663717  1
  Mg  Mg27  1  -0.01129190  0.76843094  0.27569590  1
  Mg  Mg28  1  0.26309291  0.49196504  0.46375037  1
  Mg  Mg29  1  0.56833714  0.78707039  0.20666909  1
  Mg  Mg30  1  0.25420763  0.76290967  0.72433281  1
  Mg  Mg31  1  0.50990179  0.01612726  0.80474259  1
  Ti  Ti32  1  0.62463671  0.62408988  0.86178711  1
  Ti  Ti33  1  0.12364019  0.86184556  0.13070201  1
  Ti  Ti34  1  0.11676065  0.13164720  0.35954981  1
  Ti  Ti35  1  0.61457815  0.63446537  0.36907372  1
  Ti  Ti36  1  0.61604714  0.36261831  0.87995206  1
  Ti  Ti37  1  0.61227252  0.61768054  0.62400193  1
  Ti  Ti38  1  0.63380907  0.61681471  0.10826634  1
  Ti  Ti39  1  0.37188929  0.88789137  0.62505433  1
  Ti  Ti40  1  0.37736504  0.11656158  0.88570166  1
  Ti  Ti41  1  0.63133753  0.13366166  0.12839066  1
  Ti  Ti42  1  0.38204760  0.61875833  0.38067543  1
  Ti  Ti43  1  0.87133759  0.62922848  0.86885714  1
  Ti  Ti44  1  0.61941469  0.36403773  0.62650400  1
  Ti  Ti45  1  0.88263443  0.12647827  0.37026042  1
  Ti  Ti46  1  0.87271375  0.36561269  0.38950979  1
  Ti  Ti47  1  0.37378868  0.87145969  0.13669665  1
  Ti  Ti48  1  0.87926679  0.62769719  0.62465046  1
  Ti  Ti49  1  0.12955425  0.37303309  0.62597499  1
  Ti  Ti50  1  0.12346391  0.63173430  0.36877524  1
  Ti  Ti51  1  0.63013044  0.87827619  0.87188973  1
  Ti  Ti52  1  0.87230497  0.87002974  0.37787708  1
  Ti  Ti53  1  0.37275378  0.87158521  0.38733046  1
  Ti  Ti54  1  0.88949150  0.37345360  0.86686562  1
  Ti  Ti55  1  0.38037726  0.87352532  0.88413762  1
  Ti  Ti56  1  0.87466756  0.62771053  0.38584370  1
  Ti  Ti57  1  0.36926518  0.63178895  0.85671279  1
  Ti  Ti58  1  0.36712026  0.12591469  0.38879010  1
  Ti  Ti59  1  0.36889074  0.37264255  0.37126024  1
  Ti  Ti60  1  0.13718226  0.12186649  0.63009863  1
  Ti  Ti61  1  0.37522823  0.12415219  0.62716341  1
  Ti  Ti62  1  0.13421210  0.36985069  0.86741372  1
  Ti  Ti63  1  0.37071625  0.37395359  0.11606911  1
  Ti  Ti64  1  0.88463944  0.37870294  0.61698397  1
  Ti  Ti65  1  0.87914659  0.64380969  0.12113860  1
  Ti  Ti66  1  0.37705241  0.12710953  0.14012458  1
  Ti  Ti67  1  0.12249488  0.37477846  0.11112493  1
  Ti  Ti68  1  0.12842302  0.13125191  0.12277123  1
  Ti  Ti69  1  0.36461222  0.36115123  0.62913081  1
  Ti  Ti70  1  0.63319960  0.12459795  0.88591310  1
  Ti  Ti71  1  0.37613552  0.61330148  0.62988543  1
  Ti  Ti72  1  0.61230353  0.12005237  0.64116312  1
  Ti  Ti73  1  0.88669869  0.87424815  0.62859879  1
  Bi  Bi74  1  -0.01567695  0.50155117  0.26315961  1
  Bi  Bi75  1  0.02184352  0.74997093  0.51282942  1
  Bi  Bi76  1  0.26931282  0.72987680  0.51969126  1
  Bi  Bi77  1  0.51420766  0.75169723  -0.00488678  1
  Bi  Bi78  1  0.72568062  0.49233076  0.48284561  1
  Bi  Bi79  1  0.01754973  0.23041768  -0.01678949  1
  Bi  Bi80  1  0.74635463  0.47296956  0.73494781  1
  Bi  Bi81  1  0.26253861  0.71644369  0.03205290  1
  Bi  Bi82  1  0.02623384  -0.00889224  0.51204617  1
  Bi  Bi83  1  0.50362967  0.47227687  0.75802492  1
  Bi  Bi84  1  0.77674002  0.24468610  0.72820232  1
  Bi  Bi85  1  0.75615199  0.21121012  0.49385223  1
  Bi  Bi86  1  0.25132605  0.00468107  0.03436278  1
  Bi  Bi87  1  -0.01537144  0.01045770  0.02119340  1
  Bi  Bi88  1  0.48818540  0.47406774  0.50008093  1
  Bi  Bi89  1  0.00091986  0.77702246  -0.02609982  1
  Bi  Bi90  1  0.76524531  0.48606387  0.22260340  1
  Bi  Bi91  1  0.46816558  0.52337365  -0.00368531  1
  Bi  Bi92  1  0.75328996  0.49471639  -0.04008405  1
  Bi  Bi93  1  0.24254953  0.50352757  0.00205754  1
  Bi  Bi94  1  0.00434720  -0.02158587  0.25092592  1
  Bi  Bi95  1  0.75129454  0.76225002  0.73607678  1
  Bi  Bi96  1  0.51696269  0.23030412  0.49242650  1
  Bi  Bi97  1  0.50159581  -0.01387325  0.27747424  1
  Bi  Bi98  1  0.48926928  0.77639044  0.74945083  1
  Bi  Bi99  1  0.78408561  0.02022743  0.74683241  1
  Bi  Bi100  1  -0.02414151  0.51018447  0.00727917  1
  Bi  Bi101  1  0.74602671  0.26409185  0.24502541  1
  Bi  Bi102  1  0.48122227  0.52011069  0.21169584  1
  Bi  Bi103  1  0.79208107  0.28214781  0.02587656  1
  Bi  Bi104  1  0.49225129  0.24368306  0.01998939  1
  Bi  Bi105  1  0.23909048  0.26506677  0.49000295  1
  Bi  Bi106  1  0.22993857  0.50766048  0.23751793  1
  Bi  Bi107  1  0.25714334  -0.01174056  0.27250017  1
  Bi  Bi108  1  0.03240928  0.49610967  0.49867617  1
  Bi  Bi109  1  0.23927528  0.51747262  0.75637142  1
  Bi  Bi110  1  0.23463202  0.27400395  0.24030030  1
  Bi  Bi111  1  0.28471628  0.72174320  0.24443859  1
  Bi  Bi112  1  0.03019078  0.78172955  0.75126000  1
  Bi  Bi113  1  0.50945590  0.77633983  0.50669932  1
  Bi  Bi114  1  0.73279888  0.73567899  0.51374566  1
  Bi  Bi115  1  0.01157418  0.22772919  0.73990667  1
  Bi  Bi116  1  0.52251114  0.26683540  0.25701188  1
  Bi  Bi117  1  0.24523054  -0.00721915  0.78341159  1
  Bi  Bi118  1  0.76817330  -0.01231597  -0.00428880  1
  Bi  Bi119  1  -0.02774506  0.27695002  0.21854460  1
  Bi  Bi120  1  0.73359152  -0.03840115  0.22768605  1
  Bi  Bi121  1  0.75784935  0.73072937  0.24675312  1
  Bi  Bi122  1  -0.00334759  0.51942244  0.74755943  1
  Bi  Bi123  1  0.53523266  0.00877507  0.50047713  1
  Bi  Bi124  1  0.51935365  -0.02186975  0.04634975  1
  O  O125  1  0.15022003  0.16385651  -0.00056332  1
  O  O126  1  0.10548763  0.11380526  0.24673055  1
  O  O127  1  0.15060418  0.14859985  0.50714771  1
  O  O128  1  0.08189104  0.10681274  0.74328308  1
  O  O129  1  0.10602598  0.36539339  -0.00260526  1
  O  O130  1  0.15390514  0.38667023  0.25162554  1
  O  O131  1  0.10508083  0.33273098  0.50541355  1
  O  O132  1  0.13685513  0.39438697  0.74886520  1
  O  O133  1  0.16555273  0.61879538  -0.00174735  1
  O  O134  1  0.11253357  0.58588627  0.25059905  1
  O  O135  1  0.12237990  0.65026527  0.49079026  1
  O  O136  1  0.11172899  0.59518541  0.74920585  1
  O  O137  1  0.09939028  0.87035344  0.01202702  1
  O  O138  1  0.14004301  0.90615344  0.24717742  1
  O  O139  1  0.09772754  0.86597258  0.49988976  1
  O  O140  1  0.15350479  0.84638187  0.75221300  1
  O  O141  1  0.34126636  0.12731166  -0.00606156  1
  O  O142  1  0.38949293  0.13268800  0.25077685  1
  O  O143  1  0.33541118  0.10257670  0.49964996  1
  O  O144  1  0.40060573  0.14684849  0.73927484  1
  O  O145  1  0.38927814  0.37662943  0.00159059  1
  O  O146  1  0.34964707  0.36574057  0.25625931  1
  O  O147  1  0.37068851  0.40304893  0.50458457  1
  O  O148  1  0.34678414  0.34210917  0.74088039  1
  O  O149  1  0.34955006  0.60994143  -0.01852647  1
  O  O150  1  0.39073812  0.63892755  0.26492426  1
  O  O151  1  0.33365224  0.59910897  0.50022365  1
  O  O152  1  0.40599296  0.64312420  0.74271140  1
  O  O153  1  0.40761805  0.88351693  -0.00356132  1
  O  O154  1  0.34866567  0.87226747  0.25012547  1
  O  O155  1  0.39606748  0.88826817  0.50047425  1
  O  O156  1  0.36116366  0.83866889  0.74270216  1
  O  O157  1  0.63853387  0.11882310  -0.00037605  1
  O  O158  1  0.60711737  0.15188285  0.24452557  1
  O  O159  1  0.62439847  0.12935361  0.50126925  1
  O  O160  1  0.57945462  0.12320018  0.75272380  1
  O  O161  1  0.60201600  0.38457220  -0.00903578  1
  O  O162  1  0.63140806  0.35165792  0.25174464  1
  O  O163  1  0.61730744  0.40091729  0.50591829  1
  O  O164  1  0.61609466  0.38036426  0.74386017  1
  O  O165  1  0.64573226  0.60259276  -0.00227792  1
  O  O166  1  0.60575000  0.66913539  0.25792179  1
  O  O167  1  0.64902704  0.61170982  0.50463155  1
  O  O168  1  0.61166757  0.64092848  0.74644851  1
  O  O169  1  0.59579973  0.87143698  -0.00739664  1
  O  O170  1  0.65380445  0.85876624  0.26108609  1
  O  O171  1  0.60006549  0.88477868  0.50458363  1
  O  O172  1  0.64436531  0.85348089  0.75469312  1
  O  O173  1  0.86495089  0.08862224  0.00570833  1
  O  O174  1  0.89133286  0.15399368  0.25717706  1
  O  O175  1  0.84470363  0.10701286  0.49890778  1
  O  O176  1  0.87223043  0.13636858  0.74176029  1
  O  O177  1  0.86081391  0.39903380  -0.01043614  1
  O  O178  1  0.86189128  0.35126151  0.26300442  1
  O  O179  1  0.88226331  0.40547012  0.50377195  1
  O  O180  1  0.86860068  0.35933857  0.74966373  1
  O  O181  1  0.85839308  0.58947015  -0.00612366  1
  O  O182  1  0.90006142  0.67854791  0.23376094  1
  O  O183  1  0.86078575  0.61435597  0.49874585  1
  O  O184  1  0.89707060  0.62858259  0.74921401  1
  O  O185  1  0.88361241  0.90607078  -0.00195816  1
  O  O186  1  0.84066565  0.86687437  0.25919282  1
  O  O187  1  0.90238427  0.88959180  0.50563873  1
  O  O188  1  0.84907347  0.86137247  0.74528557  1
  O  O189  1  0.01092779  0.13149583  0.09544532  1
  O  O190  1  0.00538027  0.15094073  0.39979361  1
  O  O191  1  0.01040968  0.12747143  0.59140755  1
  O  O192  1  0.00278771  0.10974997  0.90291699  1
  O  O193  1  0.01163663  0.39185092  0.14613639  1
  O  O194  1  -0.00667896  0.39625607  0.36229982  1
  O  O195  1  -0.00209921  0.38985375  0.63325607  1
  O  O196  1  -0.00008855  0.39920078  0.86910417  1
  O  O197  1  -0.00601885  0.63035856  0.08655772  1
  O  O198  1  -0.00482115  0.60043244  0.37940050  1
  O  O199  1  -0.00506948  0.58946373  0.61385890  1
  O  O200  1  -0.00833057  0.58683283  0.88802967  1
  O  O201  1  0.00367351  0.85292966  0.16939286  1
  O  O202  1  -0.00759010  0.87740979  0.34641973  1
  O  O203  1  -0.00071902  0.89396038  0.65790397  1
  O  O204  1  0.00210646  0.87788879  0.86328091  1
  O  O205  1  0.25178158  0.11637297  0.13693092  1
  O  O206  1  0.24426768  0.10231700  0.36233596  1
  O  O207  1  0.24861957  0.14357744  0.66182302  1
  O  O208  1  0.25432217  0.13231376  0.84547729  1
  O  O209  1  0.25148679  0.35688324  0.11675115  1
  O  O210  1  0.25046890  0.37857447  0.40190798  1
  O  O211  1  0.24359812  0.35706558  0.60656299  1
  O  O212  1  0.23950901  0.33059320  0.89226632  1
  O  O213  1  0.25081466  0.63242348  0.14346252  1
  O  O214  1  0.24263268  0.63102616  0.34900726  1
  O  O215  1  0.25469351  0.65478778  0.64603931  1
  O  O216  1  0.25745034  0.65020847  0.82845952  1
  O  O217  1  0.25065848  0.88389749  0.10571027  1
  O  O218  1  0.25232811  0.91024966  0.38949394  1
  O  O219  1  0.26054703  0.84376038  0.61370102  1
  O  O220  1  0.26426949  0.89049650  0.88839126  1
  O  O221  1  0.49242003  0.12160830  0.09705424  1
  O  O222  1  0.48529608  0.12590917  0.40270891  1
  O  O223  1  0.49012250  0.12043206  0.59520907  1
  O  O224  1  0.49538789  0.11058938  0.89101687  1
  O  O225  1  0.48944852  0.38750861  0.15509082  1
  O  O226  1  0.48868504  0.38707767  0.37868984  1
  O  O227  1  0.49229670  0.39553408  0.62594790  1
  O  O228  1  0.49205429  0.36979247  0.84594002  1
  O  O229  1  0.50660838  0.60785246  0.10252957  1
  O  O230  1  0.49777565  0.62166482  0.40038890  1
  O  O231  1  0.49977401  0.59704029  0.60638954  1
  O  O232  1  0.49942607  0.61981953  0.90070936  1
  O  O233  1  0.49564835  0.88067735  0.15064776  1
  O  O234  1  0.49008583  0.86866038  0.34847570  1
  O  O235  1  0.49229856  0.86168018  0.63704304  1
  O  O236  1  0.49997720  0.88981461  0.83854267  1
  O  O237  1  0.74549807  0.15479593  0.13593743  1
  O  O238  1  0.75713138  0.14634466  0.36859639  1
  O  O239  1  0.73085361  0.14043290  0.64355321  1
  O  O240  1  0.74369344  0.12804971  0.85458071  1
  O  O241  1  0.74369664  0.35621097  0.13060553  1
  O  O242  1  0.75335053  0.37912152  0.39057280  1
  O  O243  1  0.74171702  0.36365732  0.63473345  1
  O  O244  1  0.73427262  0.36706869  0.87314247  1
  O  O245  1  0.74961503  0.61699637  0.15648356  1
  O  O246  1  0.75492526  0.64807790  0.35848495  1
  O  O247  1  0.75822591  0.65253663  0.63415411  1
  O  O248  1  0.74636736  0.62463192  0.86115655  1
  O  O249  1  0.75286654  0.90139079  0.10656743  1
  O  O250  1  0.76422961  0.89719188  0.41628928  1
  O  O251  1  0.75464899  0.83817235  0.61602014  1
  O  O252  1  0.74148521  0.86202960  0.91226631  1
  O  O253  1  0.12711289  0.01060316  0.10399155  1
  O  O254  1  0.11192800  0.01242162  0.40363853  1
  O  O255  1  0.14927077  0.00579384  0.59183215  1
  O  O256  1  0.13425680  -0.00261294  0.86499463  1
  O  O257  1  0.12120486  0.25366919  0.14810950  1
  O  O258  1  0.14863621  0.24637167  0.36023674  1
  O  O259  1  0.11023315  0.24938348  0.64953148  1
  O  O260  1  0.09267962  0.25214873  0.85270824  1
  O  O261  1  0.14887157  0.49398677  0.11265114  1
  O  O262  1  0.14100203  0.50432348  0.40969690  1
  O  O263  1  0.13927957  0.48988302  0.59271126  1
  O  O264  1  0.16647740  0.49109384  0.88215762  1
  O  O265  1  0.14242383  0.75165142  0.13205711  1
  O  O266  1  0.09787113  0.74262686  0.34147585  1
  O  O267  1  0.09691343  0.74686049  0.62707411  1
  O  O268  1  0.09624126  0.74370368  0.88405979  1
  O  O269  1  0.37267124  0.00147351  0.11813326  1
  O  O270  1  0.38562091  0.00126892  0.35599745  1
  O  O271  1  0.36335483  -0.00030130  0.64254922  1
  O  O272  1  0.37802904  0.00075313  0.84567949  1
  O  O273  1  0.39005585  0.24775910  0.11827936  1
  O  O274  1  0.36488295  0.24865080  0.38951609  1
  O  O275  1  0.37647659  0.24838670  0.59769229  1
  O  O276  1  0.38213384  0.23619456  0.87286405  1
  O  O277  1  0.37012401  0.49510291  0.12799075  1
  O  O278  1  0.35938920  0.50357501  0.36721773  1
  O  O279  1  0.35559417  0.50060007  0.65066419  1
  O  O280  1  0.36313643  0.50706120  0.84843801  1
  O  O281  1  0.37271719  0.75762160  0.11834767  1
  O  O282  1  0.36069593  0.75227674  0.39541534  1
  O  O283  1  0.38918865  0.73321212  0.58919844  1
  O  O284  1  0.39688047  0.75380425  0.88501470  1
  O  O285  1  0.62141783  0.01460044  0.14169036  1
  O  O286  1  0.60591320  0.00187633  0.36927559  1
  O  O287  1  0.61755561  0.00590180  0.62532593  1
  O  O288  1  0.62614555  -0.00228744  0.86526906  1
  O  O289  1  0.58982525  0.25279377  0.11582284  1
  O  O290  1  0.60231985  0.25373190  0.38318505  1
  O  O291  1  0.60249469  0.25242012  0.61637077  1
  O  O292  1  0.60116143  0.24326820  0.87278361  1
  O  O293  1  0.62383447  0.50575644  0.15423647  1
  O  O294  1  0.64253506  0.51421417  0.36980276  1
  O  O295  1  0.64765571  0.50574046  0.63537396  1
  O  O296  1  0.61599729  0.50247728  0.85383020  1
  O  O297  1  0.62575939  0.74098891  0.10113238  1
  O  O298  1  0.62510160  0.74756731  0.41121271  1
  O  O299  1  0.61420191  0.74180736  0.59899877  1
  O  O300  1  0.60482331  0.74654666  0.88873079  1
  O  O301  1  0.90693303  -0.00276861  0.14589453  1
  O  O302  1  0.88924709  0.01024222  0.36820830  1
  O  O303  1  0.85195161  -0.00772345  0.62485534  1
  O  O304  1  0.88035080  0.00124134  0.84029118  1
  O  O305  1  0.89743101  0.24991294  0.10397163  1
  O  O306  1  0.87676583  0.25563433  0.41454725  1
  O  O307  1  0.86678880  0.25589243  0.61675821  1
  O  O308  1  0.88952824  0.25568490  0.89624018  1
  O  O309  1  0.87930062  0.51950704  0.15175317  1
  O  O310  1  0.85999642  0.51656576  0.33678043  1
  O  O311  1  0.85178593  0.49781160  0.64506820  1
  O  O312  1  0.84862497  0.49392678  0.85410118  1
  O  O313  1  0.83415508  0.74891014  0.08821760  1
  O  O314  1  0.88978547  0.75238920  0.38389109  1
  O  O315  1  0.90631779  0.74476924  0.61647978  1
  O  O316  1  0.88796664  0.74071141  0.88365630  1
