# generated using pymatgen
data_Mg32Ti42(Bi17O64)3
_symmetry_space_group_name_H-M   'P 1'
_cell_length_a   15.93839114
_cell_length_b   15.94578298
_cell_length_c   15.93485619
_cell_angle_alpha   90.01167915
_cell_angle_beta   89.99120583
_cell_angle_gamma   90.06551849
_symmetry_Int_Tables_number   1
_chemical_formula_structural   Mg32Ti42(Bi17O64)3
_chemical_formula_sum   'Mg32 Ti42 Bi51 O192'
_cell_volume   4049.84293304
_cell_formula_units_Z   1
loop_
 _symmetry_equiv_pos_site_id
 _symmetry_equiv_pos_as_xyz
  1  'x, y, z'
loop_
 _atom_site_type_symbol
 _atom_site_label
 _atom_site_symmetry_multiplicity
 _atom_site_fract_x
 _atom_site_fract_y
 _atom_site_fract_z
 _atom_site_occupancy
  Mg  Mg0  1  0.61425272  0.62081051  0.88100388  1
  Mg  Mg1  1  0.62956209  0.61422379  0.13159137  1
  Mg  Mg2  1  0.86733436  0.37433166  0.62314642  1
  Mg  Mg3  1  0.62314346  0.36724138  0.38060378  1
  Mg  Mg4  1  0.12166055  0.61963862  0.13284242  1
  Mg  Mg5  1  0.62558527  0.88108371  0.38443328  1
  Mg  Mg6  1  0.37720869  0.12272862  0.12446778  1
  Mg  Mg7  1  0.61338910  0.12921063  0.62773599  1
  Mg  Mg8  1  0.12987792  0.87456553  0.11832167  1
  Mg  Mg9  1  0.37501573  0.38238570  0.61463983  1
  Mg  Mg10  1  0.87641605  0.37360728  0.12841423  1
  Mg  Mg11  1  0.13332641  0.12284582  0.11926402  1
  Mg  Mg12  1  0.12791508  0.37813767  0.36648363  1
  Mg  Mg13  1  0.63006946  0.62757278  0.37974755  1
  Mg  Mg14  1  0.87827015  0.12007794  0.62117346  1
  Mg  Mg15  1  0.12780574  0.37585529  0.62500996  1
  Mg  Mg16  1  0.86918502  0.12106284  0.13027313  1
  Mg  Mg17  1  0.14130406  0.12262100  0.38168146  1
  Mg  Mg18  1  0.36912471  0.62765915  0.38060344  1
  Mg  Mg19  1  0.51202793  0.20421224  0.27374393  1
  Mg  Mg20  1  0.27576201  0.77542584  -0.05806329  1
  Mg  Mg21  1  0.24747457  0.28044598  0.46014109  1
  Mg  Mg22  1  0.00397962  0.75023285  0.21461859  1
  Mg  Mg23  1  0.46581367  -0.01545532  0.80738734  1
  Mg  Mg24  1  -0.06036270  0.48882535  0.75886270  1
  Mg  Mg25  1  0.70957190  0.00864904  0.55402691  1
  Mg  Mg26  1  -0.06355119  0.01364660  0.75834183  1
  Mg  Mg27  1  0.24563828  -0.04564595  0.45853635  1
  Mg  Mg28  1  0.72050879  0.74588653  0.03898719  1
  Mg  Mg29  1  0.28746171  -0.05137578  0.77136283  1
  Mg  Mg30  1  0.49876050  0.52541433  0.51885304  1
  Mg  Mg31  1  0.79357919  0.19925015  0.50101980  1
  Ti  Ti32  1  0.36393879  0.87519484  0.62049193  1
  Ti  Ti33  1  0.87952731  0.62140824  0.11090221  1
  Ti  Ti34  1  0.88443697  0.87794725  0.11630971  1
  Ti  Ti35  1  0.61503151  0.86765139  0.61953418  1
  Ti  Ti36  1  0.11085007  0.36849972  0.86974333  1
  Ti  Ti37  1  0.62036401  0.36777636  0.87605007  1
  Ti  Ti38  1  0.37541867  0.12094460  0.61153875  1
  Ti  Ti39  1  0.62226961  0.37036224  0.62018484  1
  Ti  Ti40  1  0.85906962  0.37520683  0.87174890  1
  Ti  Ti41  1  0.62625377  0.13783649  0.86922583  1
  Ti  Ti42  1  0.11501080  0.11150654  0.86320537  1
  Ti  Ti43  1  0.37777350  0.38144603  0.37209078  1
  Ti  Ti44  1  0.12761002  0.88383908  0.62803088  1
  Ti  Ti45  1  0.62821174  0.13492251  0.13412951  1
  Ti  Ti46  1  0.12401414  0.87588596  0.87170318  1
  Ti  Ti47  1  0.12303680  0.61330445  0.87773474  1
  Ti  Ti48  1  0.88643538  0.63292395  0.35470059  1
  Ti  Ti49  1  0.37984943  0.63139831  0.13342274  1
  Ti  Ti50  1  0.37544347  0.38064525  0.13114791  1
  Ti  Ti51  1  0.85839743  0.11967651  0.88072202  1
  Ti  Ti52  1  0.36954913  0.62337603  0.88171706  1
  Ti  Ti53  1  0.36815190  0.86656766  0.12158658  1
  Ti  Ti54  1  0.37746405  0.62664146  0.62768623  1
  Ti  Ti55  1  0.86783911  0.87913566  0.62151175  1
  Ti  Ti56  1  0.12913318  0.37407614  0.12597145  1
  Ti  Ti57  1  0.62503401  0.37700422  0.13757784  1
  Ti  Ti58  1  0.87822981  0.10199218  0.37267495  1
  Ti  Ti59  1  0.13190868  0.12448551  0.62201284  1
  Ti  Ti60  1  0.37470228  0.11885658  0.38027331  1
  Ti  Ti61  1  0.87549782  0.36577436  0.38526516  1
  Ti  Ti62  1  0.88886359  0.86982278  0.87731429  1
  Ti  Ti63  1  0.36916374  0.36982824  0.88361906  1
  Ti  Ti64  1  0.11823106  0.62631816  0.62462599  1
  Ti  Ti65  1  0.61998229  0.62931223  0.62446853  1
  Ti  Ti66  1  0.86505367  0.62736162  0.63454391  1
  Ti  Ti67  1  0.37821631  0.86234920  0.37670728  1
  Ti  Ti68  1  0.62528101  0.11904393  0.38676867  1
  Ti  Ti69  1  0.36495228  0.13590795  0.87085865  1
  Ti  Ti70  1  0.11204189  0.86851641  0.37639672  1
  Ti  Ti71  1  0.87716300  0.87102235  0.35781310  1
  Ti  Ti72  1  0.11763284  0.62392914  0.36964486  1
  Ti  Ti73  1  0.87772873  0.63215084  0.87149634  1
  Bi  Bi74  1  -0.01894087  0.74502425  0.49696882  1
  Bi  Bi75  1  0.00540595  0.02036399  0.52953979  1
  Bi  Bi76  1  0.74747461  0.73961287  0.46932880  1
  Bi  Bi77  1  0.21859136  0.75597030  0.23528050  1
  Bi  Bi78  1  0.71124113  0.76134249  0.78787445  1
  Bi  Bi79  1  0.46847933  0.25463544  0.72679265  1
  Bi  Bi80  1  -0.01892453  0.23844233  0.76705015  1
  Bi  Bi81  1  0.24677792  0.50618489  0.53385758  1
  Bi  Bi82  1  0.00457280  0.01782172  0.02733037  1
  Bi  Bi83  1  0.01296942  0.47755732  0.00893961  1
  Bi  Bi84  1  0.27879924  0.24021710  0.26177164  1
  Bi  Bi85  1  0.72888016  -0.04985618  -0.02094082  1
  Bi  Bi86  1  0.76875095  0.74403794  0.22130054  1
  Bi  Bi87  1  0.25201790  0.23706469  0.01611768  1
  Bi  Bi88  1  0.02163567  0.22870497  0.26386471  1
  Bi  Bi89  1  0.50672151  -0.01303729  0.51007939  1
  Bi  Bi90  1  -0.01058746  0.47518897  0.25008388  1
  Bi  Bi91  1  0.48344734  0.49470283  0.77767840  1
  Bi  Bi92  1  0.72020099  0.49838014  0.75536965  1
  Bi  Bi93  1  0.49415957  0.73339645  0.47867137  1
  Bi  Bi94  1  0.50047985  0.50765171  0.01800668  1
  Bi  Bi95  1  0.26043232  0.51584667  0.26976949  1
  Bi  Bi96  1  -0.00678715  0.23594961  0.01999091  1
  Bi  Bi97  1  0.22564268  0.73562145  0.75373483  1
  Bi  Bi98  1  0.72441183  0.49187308  0.51267034  1
  Bi  Bi99  1  0.71863838  -0.03101948  0.23796669  1
  Bi  Bi100  1  0.74133207  0.49115088  0.27915001  1
  Bi  Bi101  1  0.47240763  0.78803774  0.77470236  1
  Bi  Bi102  1  0.73712075  0.52370050  -0.00418473  1
  Bi  Bi103  1  0.52838240  0.79570974  -0.02339230  1
  Bi  Bi104  1  0.75529914  0.23341095  0.27552838  1
  Bi  Bi105  1  0.76290633  0.26388422  0.02286735  1
  Bi  Bi106  1  0.24518067  0.23318434  0.72263921  1
  Bi  Bi107  1  0.25868132  -0.02577822  -0.03255933  1
  Bi  Bi108  1  0.50756551  0.03308895  -0.01261466  1
  Bi  Bi109  1  0.50220987  -0.00435228  0.22310061  1
  Bi  Bi110  1  0.03893623  0.00721488  0.25821819  1
  Bi  Bi111  1  -0.01671421  0.48593934  0.52024293  1
  Bi  Bi112  1  0.25269865  0.52057105  0.02324007  1
  Bi  Bi113  1  0.48745979  0.27040395  0.48775344  1
  Bi  Bi114  1  0.27463998  -0.01215935  0.25075895  1
  Bi  Bi115  1  0.24313769  0.47155165  0.76593018  1
  Bi  Bi116  1  0.04232691  0.74333999  0.01181232  1
  Bi  Bi117  1  0.75510872  0.22803243  0.70951702  1
  Bi  Bi118  1  0.03461290  0.27032801  0.49785248  1
  Bi  Bi119  1  0.53813536  0.77034180  0.21861826  1
  Bi  Bi120  1  0.50731124  0.26550598  0.01996941  1
  Bi  Bi121  1  0.70084192  -0.01454292  0.75570223  1
  Bi  Bi122  1  0.23447164  0.74393937  0.49472370  1
  Bi  Bi123  1  -0.01388354  0.76168310  0.73338065  1
  Bi  Bi124  1  0.50608970  0.51718759  0.28955584  1
  O  O125  1  0.10178522  0.11335974  -0.01464451  1
  O  O126  1  0.12090496  0.12644986  0.24841935  1
  O  O127  1  0.12421018  0.10411630  0.50500508  1
  O  O128  1  0.14338401  0.13407400  0.75011896  1
  O  O129  1  0.13124711  0.39670652  -0.00780271  1
  O  O130  1  0.09604760  0.35797097  0.23937540  1
  O  O131  1  0.14757879  0.35156235  0.49322829  1
  O  O132  1  0.12801300  0.37817670  0.75223410  1
  O  O133  1  0.13838920  0.60987223  -0.00335117  1
  O  O134  1  0.09875145  0.66142107  0.25794417  1
  O  O135  1  0.15491299  0.62550637  0.49701026  1
  O  O136  1  0.12002243  0.64329460  0.74429879  1
  O  O137  1  0.15121730  0.88307451  -0.00703444  1
  O  O138  1  0.10350889  0.84435333  0.25831010  1
  O  O139  1  0.15069095  0.88959601  0.50722907  1
  O  O140  1  0.11917075  0.84847669  0.75213254  1
  O  O141  1  0.40656404  0.12621301  -0.00567138  1
  O  O142  1  0.34806475  0.11414569  0.25495120  1
  O  O143  1  0.38927255  0.14764992  0.49569573  1
  O  O144  1  0.36910847  0.14283416  0.75209399  1
  O  O145  1  0.36386861  0.36911998  -0.00205077  1
  O  O146  1  0.38656904  0.40271584  0.24429304  1
  O  O147  1  0.35836192  0.33844023  0.48460770  1
  O  O148  1  0.39326408  0.38900677  0.74919493  1
  O  O149  1  0.33732587  0.63898643  -0.00407910  1
  O  O150  1  0.39153226  0.59770476  0.24788719  1
  O  O151  1  0.35788141  0.65959386  0.50445617  1
  O  O152  1  0.39853802  0.61598941  0.74182750  1
  O  O153  1  0.34140339  0.85946944  0.01152308  1
  O  O154  1  0.38649650  0.89870686  0.26447082  1
  O  O155  1  0.34243135  0.87309917  0.50083155  1
  O  O156  1  0.40311882  0.90539223  0.73535969  1
  O  O157  1  0.59219352  0.14164942  0.00557726  1
  O  O158  1  0.64472120  0.14561538  0.25170171  1
  O  O159  1  0.61861651  0.09775625  0.50007767  1
  O  O160  1  0.64864467  0.12237405  0.75653950  1
  O  O161  1  0.62697448  0.34728602  -0.00687881  1
  O  O162  1  0.61472105  0.40130895  0.24836256  1
  O  O163  1  0.64947068  0.37010054  0.50564416  1
  O  O164  1  0.60736996  0.40577532  0.74824854  1
  O  O165  1  0.66167018  0.63754597  0.00394252  1
  O  O166  1  0.59965249  0.60954794  0.25596462  1
  O  O167  1  0.66490270  0.63142413  0.50718994  1
  O  O168  1  0.61732890  0.60690920  0.74197144  1
  O  O169  1  0.65005557  0.84398485  0.00396061  1
  O  O170  1  0.61145168  0.87762328  0.25728170  1
  O  O171  1  0.63879722  0.91080854  0.50806942  1
  O  O172  1  0.62072705  0.86928060  0.74363728  1
  O  O173  1  0.89609017  0.11241314  -0.00905615  1
  O  O174  1  0.85756723  0.14420465  0.25725630  1
  O  O175  1  0.88131970  0.10314982  0.49130646  1
  O  O176  1  0.87047180  0.13581115  0.74988513  1
  O  O177  1  0.84892285  0.37857529  -0.00973355  1
  O  O178  1  0.90448285  0.36577233  0.25694819  1
  O  O179  1  0.85982425  0.41270239  0.49436705  1
  O  O180  1  0.89839368  0.36403542  0.75060510  1
  O  O181  1  0.87034959  0.60384771  -0.00414730  1
  O  O182  1  0.90532649  0.66000026  0.24587606  1
  O  O183  1  0.86606423  0.64622576  0.51659325  1
  O  O184  1  0.90593291  0.61998746  0.75581260  1
  O  O185  1  0.87052231  0.89111013  -0.00141642  1
  O  O186  1  0.90248352  0.84383956  0.24736849  1
  O  O187  1  0.87439907  0.86584178  0.50979681  1
  O  O188  1  0.90982548  0.88309154  0.75909846  1
  O  O189  1  0.00060292  0.13254948  0.11853612  1
  O  O190  1  -0.00587138  0.11109955  0.35744097  1
  O  O191  1  0.00656265  0.13088082  0.61745891  1
  O  O192  1  0.00247551  0.09764064  0.83766862  1
  O  O193  1  0.00152608  0.36400365  0.09073766  1
  O  O194  1  -0.00166240  0.38364105  0.40571592  1
  O  O195  1  0.00083570  0.37132730  0.59203279  1
  O  O196  1  -0.00165007  0.40106483  0.88214723  1
  O  O197  1  -0.00303122  0.65802499  0.11049922  1
  O  O198  1  -0.00029305  0.62271022  0.40176969  1
  O  O199  1  0.00709600  0.65373096  0.61330125  1
  O  O200  1  0.00780784  0.61902890  0.88933853  1
  O  O201  1  -0.00110899  0.83558011  0.11038532  1
  O  O202  1  0.00117507  0.89284661  0.39348872  1
  O  O203  1  0.01346985  0.84517222  0.61842246  1
  O  O204  1  0.00923479  0.88417362  0.89645407  1
  O  O205  1  0.25482652  0.12661196  0.09266897  1
  O  O206  1  0.25987469  0.17537364  0.38659402  1
  O  O207  1  0.25457342  0.12444924  0.62805018  1
  O  O208  1  0.25198086  0.15261445  0.89633402  1
  O  O209  1  0.24708330  0.39500340  0.13119089  1
  O  O210  1  0.25638883  0.35258041  0.35151287  1
  O  O211  1  0.25250113  0.40763694  0.63163232  1
  O  O212  1  0.25373960  0.36113803  0.85794632  1
  O  O213  1  0.25113210  0.59806034  0.14333469  1
  O  O214  1  0.24429563  0.63564102  0.34460812  1
  O  O215  1  0.25796496  0.60286903  0.63697893  1
  O  O216  1  0.25259603  0.62399221  0.84531938  1
  O  O217  1  0.25169353  0.87673702  0.16050745  1
  O  O218  1  0.25109948  0.86032714  0.36031518  1
  O  O219  1  0.25427173  0.89676381  0.65910773  1
  O  O220  1  0.25383722  0.87619569  0.86521238  1
  O  O221  1  0.49950323  0.12630233  0.16701960  1
  O  O222  1  0.49206148  0.10473525  0.35712571  1
  O  O223  1  0.49118191  0.15017570  0.63162679  1
  O  O224  1  0.50513698  0.09246696  0.86041625  1
  O  O225  1  0.49717244  0.38632680  0.10494393  1
  O  O226  1  0.49449176  0.39327082  0.40671441  1
  O  O227  1  0.50202611  0.35458595  0.60644759  1
  O  O228  1  0.50207061  0.39881178  0.88615897  1
  O  O229  1  0.49435217  0.62607841  0.10212905  1
  O  O230  1  0.50058163  0.60155085  0.41370784  1
  O  O231  1  0.50455953  0.63937973  0.59506048  1
  O  O232  1  0.48866917  0.60132385  0.89422199  1
  O  O233  1  0.49145591  0.85971223  0.12317571  1
  O  O234  1  0.48981900  0.89384841  0.40673955  1
  O  O235  1  0.49980137  0.86942985  0.59513178  1
  O  O236  1  0.49394477  0.88312494  0.88032853  1
  O  O237  1  0.74129359  0.14407335  0.10918041  1
  O  O238  1  0.74481292  0.14996463  0.39170698  1
  O  O239  1  0.74806723  0.11870384  0.60953428  1
  O  O240  1  0.74636254  0.14515913  0.89596093  1
  O  O241  1  0.74217833  0.35348198  0.13380023  1
  O  O242  1  0.75708551  0.37302375  0.35113380  1
  O  O243  1  0.74083067  0.40971992  0.64293569  1
  O  O244  1  0.74449288  0.35817642  0.84976025  1
  O  O245  1  0.76562647  0.60760165  0.15158542  1
  O  O246  1  0.76320297  0.64678155  0.36273884  1
  O  O247  1  0.75428540  0.60451225  0.64789811  1
  O  O248  1  0.76079743  0.64032985  0.86023119  1
  O  O249  1  0.76509701  0.87661661  0.14505415  1
  O  O250  1  0.76008750  0.85910556  0.35695471  1
  O  O251  1  0.75543358  0.90679353  0.63239648  1
  O  O252  1  0.76176566  0.86335123  0.86936844  1
  O  O253  1  0.10476456  -0.00387921  0.13311742  1
  O  O254  1  0.14483840  -0.00885201  0.35843174  1
  O  O255  1  0.10487297  -0.00453144  0.63744541  1
  O  O256  1  0.15192464  -0.00208411  0.86184028  1
  O  O257  1  0.13531703  0.25496760  0.09850172  1
  O  O258  1  0.10226917  0.24640034  0.37140660  1
  O  O259  1  0.13906199  0.24381397  0.62269057  1
  O  O260  1  0.09106756  0.25200497  0.87133780  1
  O  O261  1  0.09674516  0.49415295  0.13301367  1
  O  O262  1  0.13306446  0.50820681  0.35229731  1
  O  O263  1  0.11499987  0.50894635  0.60568584  1
  O  O264  1  0.13834653  0.50047656  0.86134004  1
  O  O265  1  0.14371076  0.74629904  0.11158838  1
  O  O266  1  0.11263734  0.75340459  0.40713748  1
  O  O267  1  0.16200718  0.74721965  0.61565411  1
  O  O268  1  0.15247934  0.74993208  0.88496658  1
  O  O269  1  0.38239229  -0.00961900  0.13273617  1
  O  O270  1  0.33487738  0.01067593  0.39150228  1
  O  O271  1  0.38775344  0.00715851  0.60156373  1
  O  O272  1  0.35240756  0.01523980  0.86015699  1
  O  O273  1  0.36910509  0.26170444  0.12706218  1
  O  O274  1  0.40283608  0.25474707  0.33035678  1
  O  O275  1  0.36120133  0.25650305  0.63909298  1
  O  O276  1  0.39963853  0.25450733  0.87061444  1
  O  O277  1  0.37912100  0.50495213  0.09454466  1
  O  O278  1  0.35128228  0.49631054  0.38383469  1
  O  O279  1  0.39331163  0.51100537  0.58691741  1
  O  O280  1  0.36189784  0.49701091  0.87210209  1
  O  O281  1  0.36426601  0.74508683  0.15220038  1
  O  O282  1  0.40409533  0.75214589  0.36410328  1
  O  O283  1  0.36952484  0.76035132  0.64533410  1
  O  O284  1  0.37549216  0.74251487  0.86434659  1
  O  O285  1  0.62318225  0.01275948  0.13765511  1
  O  O286  1  0.63458965  0.00829249  0.35260904  1
  O  O287  1  0.61556028  -0.00121422  0.64490429  1
  O  O288  1  0.63623928  0.00887093  0.89352976  1
  O  O289  1  0.59358349  0.25739768  0.13340575  1
  O  O290  1  0.59146587  0.24191051  0.37277728  1
  O  O291  1  0.63823583  0.25624070  0.63803746  1
  O  O292  1  0.59845049  0.25092264  0.85846177  1
  O  O293  1  0.63018443  0.49179738  0.09350556  1
  O  O294  1  0.65140830  0.50061228  0.38400943  1
  O  O295  1  0.60319468  0.50717367  0.59193367  1
  O  O296  1  0.64485545  0.49549581  0.89262055  1
  O  O297  1  0.64737217  0.73844636  0.14474622  1
  O  O298  1  0.61612087  0.75341364  0.39897531  1
  O  O299  1  0.63755141  0.75253032  0.62110150  1
  O  O300  1  0.59820852  0.74279646  0.86317482  1
  O  O301  1  0.90320334  -0.00874340  0.13618575  1
  O  O302  1  0.86322230  -0.00733641  0.35037578  1
  O  O303  1  0.90722730  -0.00624864  0.63542031  1
  O  O304  1  0.85494943  0.00365921  0.85943272  1
  O  O305  1  0.87618534  0.24819930  0.10014128  1
  O  O306  1  0.87060078  0.25436760  0.40438536  1
  O  O307  1  0.84415616  0.25136576  0.60502418  1
  O  O308  1  0.89771325  0.24718220  0.87805459  1
  O  O309  1  0.90643475  0.50348016  0.13819752  1
  O  O310  1  0.87148248  0.51333690  0.34297147  1
  O  O311  1  0.90397650  0.50902037  0.63689752  1
  O  O312  1  0.85814952  0.49469335  0.85551746  1
  O  O313  1  0.83851282  0.74332020  0.09874824  1
  O  O314  1  0.88987046  0.75285975  0.38914769  1
  O  O315  1  0.86739642  0.75525905  0.65470656  1
  O  O316  1  0.89559646  0.75162619  0.87378998  1
