# generated using pymatgen
data_Mg32Ti42(Bi17O64)3
_symmetry_space_group_name_H-M   'P 1'
_cell_length_a   15.95116340
_cell_length_b   15.95925543
_cell_length_c   15.96296370
_cell_angle_alpha   89.78881707
_cell_angle_beta   89.99546268
_cell_angle_gamma   90.05610282
_symmetry_Int_Tables_number   1
_chemical_formula_structural   Mg32Ti42(Bi17O64)3
_chemical_formula_sum   'Mg32 Ti42 Bi51 O192'
_cell_volume   4063.64121135
_cell_formula_units_Z   1
loop_
 _symmetry_equiv_pos_site_id
 _symmetry_equiv_pos_as_xyz
  1  'x, y, z'
loop_
 _atom_site_type_symbol
 _atom_site_label
 _atom_site_symmetry_multiplicity
 _atom_site_fract_x
 _atom_site_fract_y
 _atom_site_fract_z
 _atom_site_occupancy
  Mg  Mg0  1  0.37931466  0.36950997  0.87276350  1
  Mg  Mg1  1  0.37267453  0.88491317  0.61297221  1
  Mg  Mg2  1  0.36280842  0.61559985  0.62706135  1
  Mg  Mg3  1  0.63068925  0.62256994  0.88537863  1
  Mg  Mg4  1  0.86759323  0.36862585  0.37333413  1
  Mg  Mg5  1  0.89103354  0.62094540  0.62317360  1
  Mg  Mg6  1  0.38287207  0.37697787  0.13194330  1
  Mg  Mg7  1  0.12583537  0.36062527  0.88672549  1
  Mg  Mg8  1  0.37190111  0.62642316  0.37702760  1
  Mg  Mg9  1  0.62508137  0.13131118  0.61904252  1
  Mg  Mg10  1  0.62295251  0.87733032  0.62495633  1
  Mg  Mg11  1  0.37970731  0.11930186  0.15208084  1
  Mg  Mg12  1  0.62156810  0.12304877  0.87497554  1
  Mg  Mg13  1  0.87881831  0.62345657  0.37585834  1
  Mg  Mg14  1  0.37833590  0.61798818  0.87461633  1
  Mg  Mg15  1  0.12028423  0.62289001  0.13080519  1
  Mg  Mg16  1  0.89764178  0.36000462  0.11218616  1
  Mg  Mg17  1  0.37854330  0.37204040  0.37828979  1
  Mg  Mg18  1  0.62298311  0.86684704  0.12054458  1
  Mg  Mg19  1  0.04751093  0.24210601  0.03154719  1
  Mg  Mg20  1  -0.00561409  0.30172643  0.52815417  1
  Mg  Mg21  1  0.79945199  0.45934054  0.24186410  1
  Mg  Mg22  1  0.25753281  0.75874591  0.57241156  1
  Mg  Mg23  1  0.27527976  0.25072626  0.78849650  1
  Mg  Mg24  1  0.75347102  0.29743143  0.02951884  1
  Mg  Mg25  1  0.25151589  -0.04707539  0.23356867  1
  Mg  Mg26  1  -0.01512597  0.47499948  0.46384394  1
  Mg  Mg27  1  0.70226105  0.75906252  -0.03231198  1
  Mg  Mg28  1  0.00283393  0.57341484  -0.00609322  1
  Mg  Mg29  1  0.50096902  0.27777601  0.27941404  1
  Mg  Mg30  1  0.20496169  0.03118729  0.51568943  1
  Mg  Mg31  1  0.25786418  0.24659413  0.50556635  1
  Ti  Ti32  1  0.12832714  0.35923212  0.38137470  1
  Ti  Ti33  1  0.11750300  0.12730168  0.37998794  1
  Ti  Ti34  1  0.11917193  0.14122888  0.63148446  1
  Ti  Ti35  1  0.61840817  0.38632634  0.12002996  1
  Ti  Ti36  1  0.63284533  0.36824492  0.63127812  1
  Ti  Ti37  1  0.37345892  0.11948006  0.86914563  1
  Ti  Ti38  1  0.13401533  0.12499775  0.88067511  1
  Ti  Ti39  1  0.86180952  0.63020586  0.87972373  1
  Ti  Ti40  1  0.62706240  0.37552547  0.38968973  1
  Ti  Ti41  1  0.36340741  0.87121340  0.37656845  1
  Ti  Ti42  1  0.37531053  0.61799575  0.12899637  1
  Ti  Ti43  1  0.87699561  0.63620179  0.13667372  1
  Ti  Ti44  1  0.63690253  0.62647542  0.13123131  1
  Ti  Ti45  1  0.36733028  0.88249827  0.87747103  1
  Ti  Ti46  1  0.86614116  0.38265675  0.87865434  1
  Ti  Ti47  1  0.12983324  0.36704388  0.61693121  1
  Ti  Ti48  1  0.12641575  0.87945833  0.61863644  1
  Ti  Ti49  1  0.13585131  0.11761336  0.14530729  1
  Ti  Ti50  1  0.12792959  0.60945434  0.61942398  1
  Ti  Ti51  1  0.87023712  0.88111475  0.12972414  1
  Ti  Ti52  1  0.63270310  0.37624952  0.88073026  1
  Ti  Ti53  1  0.86942187  0.12640736  0.88608063  1
  Ti  Ti54  1  0.64143093  0.60991433  0.37017584  1
  Ti  Ti55  1  0.35506814  0.11847773  0.38443099  1
  Ti  Ti56  1  0.87463643  0.87385017  0.63081051  1
  Ti  Ti57  1  0.87606555  0.87739032  0.87719109  1
  Ti  Ti58  1  0.62824992  0.13990729  0.12497284  1
  Ti  Ti59  1  0.12837574  0.38452784  0.13060114  1
  Ti  Ti60  1  0.60551277  0.88285501  0.87624494  1
  Ti  Ti61  1  0.87655730  0.12469238  0.63407986  1
  Ti  Ti62  1  0.12602242  0.88049805  0.88013289  1
  Ti  Ti63  1  0.61701575  0.13908062  0.37833731  1
  Ti  Ti64  1  0.88585529  0.37261624  0.64486858  1
  Ti  Ti65  1  0.38285633  0.37206012  0.62051243  1
  Ti  Ti66  1  0.87983315  0.87176096  0.38305039  1
  Ti  Ti67  1  0.86788370  0.13222755  0.12167030  1
  Ti  Ti68  1  0.35889049  0.13020673  0.62324297  1
  Ti  Ti69  1  0.13735845  0.88593357  0.38261778  1
  Ti  Ti70  1  0.11440501  0.61572038  0.38517924  1
  Ti  Ti71  1  0.86866882  0.12212588  0.37803738  1
  Ti  Ti72  1  0.38283096  0.86580379  0.12312261  1
  Ti  Ti73  1  0.12511368  0.87596974  0.12642345  1
  Bi  Bi74  1  0.77506964  0.50072845  0.03611607  1
  Bi  Bi75  1  -0.01113430  0.01677417  0.51309042  1
  Bi  Bi76  1  0.51501214  0.72464635  0.53430402  1
  Bi  Bi77  1  0.00173372  0.02042152  0.02272905  1
  Bi  Bi78  1  0.00213591  0.74905092  0.52228440  1
  Bi  Bi79  1  -0.00166652  0.00122555  0.76885109  1
  Bi  Bi80  1  0.51584617  0.74477787  0.26264821  1
  Bi  Bi81  1  0.73430824  0.23664771  0.77023564  1
  Bi  Bi82  1  0.27327668  0.49027419  0.50710746  1
  Bi  Bi83  1  0.54744516  0.52506608  0.72745049  1
  Bi  Bi84  1  -0.02428226  0.24654739  0.26659672  1
  Bi  Bi85  1  0.23934490  0.73025302  0.01411983  1
  Bi  Bi86  1  0.44970288  0.75329701  0.74289911  1
  Bi  Bi87  1  0.72855742  0.78234791  0.27001066  1
  Bi  Bi88  1  0.27685329  0.00580738  0.02567326  1
  Bi  Bi89  1  0.51157079  0.51320788  0.51371432  1
  Bi  Bi90  1  0.01188328  0.72843897  0.78627722  1
  Bi  Bi91  1  0.02961029  0.50029868  0.78085043  1
  Bi  Bi92  1  0.49091948  0.72785557  -0.01462860  1
  Bi  Bi93  1  0.50619495  -0.03212828  0.48390562  1
  Bi  Bi94  1  0.25248606  0.45150356  0.76156742  1
  Bi  Bi95  1  0.27536776  0.25938326  0.23887006  1
  Bi  Bi96  1  0.72150909  0.00158019  0.27003068  1
  Bi  Bi97  1  0.72268252  0.00337873  0.74737259  1
  Bi  Bi98  1  0.77509918  0.25497783  0.52068683  1
  Bi  Bi99  1  0.74097457  0.73440897  0.53335124  1
  Bi  Bi100  1  0.76041530  0.52873244  0.73411602  1
  Bi  Bi101  1  0.50003377  -0.02595358  0.26521278  1
  Bi  Bi102  1  -0.00041222  -0.01935917  0.26244951  1
  Bi  Bi103  1  0.48045154  0.26683211  -0.00327889  1
  Bi  Bi104  1  -0.01183825  0.76761023  0.02097150  1
  Bi  Bi105  1  0.25724391  0.27759451  0.01567093  1
  Bi  Bi106  1  -0.00711403  0.24923288  0.79471698  1
  Bi  Bi107  1  0.26951133  0.50467222  0.26351778  1
  Bi  Bi108  1  0.73694024  -0.03016261  0.49849289  1
  Bi  Bi109  1  0.78614707  0.50709648  0.50990167  1
  Bi  Bi110  1  0.23996099  0.73368146  0.27957600  1
  Bi  Bi111  1  0.50355362  0.02593225  0.02642291  1
  Bi  Bi112  1  -0.00538638  0.46410994  0.25968770  1
  Bi  Bi113  1  0.49234614  0.50061153  -0.03406455  1
  Bi  Bi114  1  0.72668494  0.27192498  0.25082489  1
  Bi  Bi115  1  0.47777857  0.23344749  0.48830812  1
  Bi  Bi116  1  0.00422627  0.74286568  0.26736160  1
  Bi  Bi117  1  0.72224309  0.75885982  0.77208201  1
  Bi  Bi118  1  0.50690641  0.51890729  0.25733765  1
  Bi  Bi119  1  0.21422091  0.52096384  -0.02288747  1
  Bi  Bi120  1  0.49507837  0.23221092  0.75545690  1
  Bi  Bi121  1  0.49419469  0.00408307  0.71642174  1
  Bi  Bi122  1  0.72360142  0.00089356  0.01858556  1
  Bi  Bi123  1  0.24227768  -0.02919410  0.73504002  1
  Bi  Bi124  1  0.22961145  0.70842714  0.78003787  1
  O  O125  1  0.13157320  0.09309670  -0.01031613  1
  O  O126  1  0.12813109  0.14696014  0.25342986  1
  O  O127  1  0.10258771  0.10303414  0.49535397  1
  O  O128  1  0.13206360  0.15793725  0.74175728  1
  O  O129  1  0.14993241  0.37900552  0.00878209  1
  O  O130  1  0.12202492  0.36247395  0.25524453  1
  O  O131  1  0.08263899  0.38939709  0.49296614  1
  O  O132  1  0.15178490  0.35651374  0.73248528  1
  O  O133  1  0.11845677  0.60868891  0.00114210  1
  O  O134  1  0.11508091  0.65341651  0.25598597  1
  O  O135  1  0.12808664  0.61145043  0.49908710  1
  O  O136  1  0.11866138  0.63223773  0.74609486  1
  O  O137  1  0.11085133  0.89135639  -0.00760054  1
  O  O138  1  0.13768797  0.88077059  0.24253664  1
  O  O139  1  0.13254160  0.92167623  0.49248573  1
  O  O140  1  0.13457340  0.86810901  0.73568841  1
  O  O141  1  0.38286963  0.11021225  -0.01457418  1
  O  O142  1  0.35556048  0.14855641  0.27080428  1
  O  O143  1  0.40598741  0.11071703  0.50188753  1
  O  O144  1  0.34794814  0.15854960  0.73728400  1
  O  O145  1  0.37465757  0.35702941  0.00368430  1
  O  O146  1  0.38964174  0.33401773  0.25571015  1
  O  O147  1  0.38069311  0.40657169  0.49946872  1
  O  O148  1  0.35031099  0.34901536  0.73602664  1
  O  O149  1  0.40208193  0.62095120  0.00991281  1
  O  O150  1  0.34072371  0.63764830  0.24313826  1
  O  O151  1  0.37789303  0.59092332  0.49768400  1
  O  O152  1  0.36307572  0.64790588  0.75288791  1
  O  O153  1  0.37132365  0.89442787  -0.00470133  1
  O  O154  1  0.35920419  0.88052435  0.23840355  1
  O  O155  1  0.38322067  0.89199378  0.48700597  1
  O  O156  1  0.37016508  0.86367240  0.75030070  1
  O  O157  1  0.61857243  0.11259028  -0.00076093  1
  O  O158  1  0.64454026  0.14293824  0.24292474  1
  O  O159  1  0.60784386  0.12367134  0.49121916  1
  O  O160  1  0.65220838  0.12183329  0.74859096  1
  O  O161  1  0.65114950  0.36822846  0.00011964  1
  O  O162  1  0.60557464  0.34629743  0.23902390  1
  O  O163  1  0.64149968  0.37154667  0.50211343  1
  O  O164  1  0.63141651  0.39867297  0.75040243  1
  O  O165  1  0.62133175  0.66367417  0.01611783  1
  O  O166  1  0.63897395  0.59117876  0.25131641  1
  O  O167  1  0.59585819  0.62350712  0.48338870  1
  O  O168  1  0.64706647  0.61483181  0.75778717  1
  O  O169  1  0.62956971  0.86198878  -0.00762939  1
  O  O170  1  0.64257044  0.88491065  0.24711789  1
  O  O171  1  0.62405768  0.89261483  0.49475051  1
  O  O172  1  0.64440143  0.87692750  0.75390012  1
  O  O173  1  0.87213938  0.09526226  -0.00476059  1
  O  O174  1  0.88089924  0.13332338  0.23805226  1
  O  O175  1  0.88610043  0.11357336  0.49450340  1
  O  O176  1  0.87323229  0.14777977  0.74601859  1
  O  O177  1  0.85360415  0.38424980  -0.00241121  1
  O  O178  1  0.88814988  0.36294220  0.23682306  1
  O  O179  1  0.89250715  0.38555918  0.49779699  1
  O  O180  1  0.87264098  0.34406436  0.75561309  1
  O  O181  1  0.87927452  0.59380882  -0.00778637  1
  O  O182  1  0.88667440  0.65724597  0.24796566  1
  O  O183  1  0.90337284  0.57312408  0.49500543  1
  O  O184  1  0.85275861  0.62994476  0.75340693  1
  O  O185  1  0.89948813  0.88241720  -0.00931080  1
  O  O186  1  0.87374614  0.87132604  0.24654625  1
  O  O187  1  0.87665250  0.90379229  0.49469397  1
  O  O188  1  0.86675141  0.85378471  0.74174074  1
  O  O189  1  -0.00018347  0.14090248  0.09705107  1
  O  O190  1  0.00454824  0.15475904  0.36918255  1
  O  O191  1  0.00050800  0.10591284  0.62971207  1
  O  O192  1  0.00065621  0.10821931  0.85652707  1
  O  O193  1  0.01870680  0.33822285  0.10851154  1
  O  O194  1  0.00021935  0.35691905  0.35889348  1
  O  O195  1  -0.00042951  0.37801173  0.64074211  1
  O  O196  1  -0.00742038  0.38784112  0.86252356  1
  O  O197  1  -0.00691231  0.63874909  0.10663609  1
  O  O198  1  0.00460311  0.66741430  0.38240269  1
  O  O199  1  0.01195387  0.64975374  0.62203185  1
  O  O200  1  -0.01030738  0.60108673  0.86488266  1
  O  O201  1  0.00258287  0.85481385  0.12913259  1
  O  O202  1  0.00557187  0.86785857  0.35969776  1
  O  O203  1  -0.00023419  0.87632838  0.61080026  1
  O  O204  1  0.00276362  0.88374607  0.84802408  1
  O  O205  1  0.24535744  0.07111308  0.14902199  1
  O  O206  1  0.24646745  0.09566299  0.40939630  1
  O  O207  1  0.24368868  0.14196949  0.58510426  1
  O  O208  1  0.24752430  0.15369575  0.87335166  1
  O  O209  1  0.25168752  0.36721011  0.13716435  1
  O  O210  1  0.23765115  0.40899675  0.37672534  1
  O  O211  1  0.23640117  0.35436459  0.57357838  1
  O  O212  1  0.25198918  0.35042153  0.86604549  1
  O  O213  1  0.25243540  0.61958200  0.09652908  1
  O  O214  1  0.23556667  0.61016796  0.36024852  1
  O  O215  1  0.23929062  0.65037366  0.63001727  1
  O  O216  1  0.25534935  0.63169703  0.89289432  1
  O  O217  1  0.24381296  0.89983298  0.11378383  1
  O  O218  1  0.25079388  0.91279462  0.35877313  1
  O  O219  1  0.24825854  0.87696738  0.61367879  1
  O  O220  1  0.24623657  0.86809050  0.87428395  1
  O  O221  1  0.50615987  0.13038375  0.12122233  1
  O  O222  1  0.50775505  0.17307988  0.35640886  1
  O  O223  1  0.49251411  0.12485277  0.65142335  1
  O  O224  1  0.49229947  0.11416919  0.83708548  1
  O  O225  1  0.50608992  0.35645892  0.10281702  1
  O  O226  1  0.51056231  0.34677786  0.38425710  1
  O  O227  1  0.49461863  0.38807003  0.63061874  1
  O  O228  1  0.51016255  0.36769938  0.90221192  1
  O  O229  1  0.49610104  0.63716100  0.15898171  1
  O  O230  1  0.49522721  0.62982762  0.34062476  1
  O  O231  1  0.49223411  0.61226469  0.62140082  1
  O  O232  1  0.50551898  0.62437672  0.88940905  1
  O  O233  1  0.49500767  0.85059685  0.12827237  1
  O  O234  1  0.48716466  0.87100928  0.35526885  1
  O  O235  1  0.49779162  0.90394470  0.61487798  1
  O  O236  1  0.49524084  0.90100547  0.86986323  1
  O  O237  1  0.75126719  0.09525542  0.11734668  1
  O  O238  1  0.75438479  0.09702718  0.37792308  1
  O  O239  1  0.75930441  0.14880946  0.60720549  1
  O  O240  1  0.75636852  0.14525126  0.87591053  1
  O  O241  1  0.74369850  0.39544868  0.13946848  1
  O  O242  1  0.74172092  0.39354527  0.33834666  1
  O  O243  1  0.75410026  0.35018387  0.62318882  1
  O  O244  1  0.75095490  0.34152158  0.87413728  1
  O  O245  1  0.75197452  0.62004487  0.12015075  1
  O  O246  1  0.75141258  0.60489882  0.40189656  1
  O  O247  1  0.76374574  0.61398401  0.60006017  1
  O  O248  1  0.75160770  0.66316737  0.89547319  1
  O  O249  1  0.75701522  0.89233004  0.11104664  1
  O  O250  1  0.76161133  0.90774627  0.37143860  1
  O  O251  1  0.75403477  0.86828428  0.60212348  1
  O  O252  1  0.76414560  0.84138198  0.88277169  1
  O  O253  1  0.09201657  0.00101753  0.13141779  1
  O  O254  1  0.10304166  0.01105341  0.35134099  1
  O  O255  1  0.14652968  0.01122927  0.63444844  1
  O  O256  1  0.13014711  0.00312355  0.83871935  1
  O  O257  1  0.15221114  0.22481342  0.10179448  1
  O  O258  1  0.15920034  0.25139201  0.40499027  1
  O  O259  1  0.09715012  0.25137278  0.59352813  1
  O  O260  1  0.08967822  0.23936973  0.90557449  1
  O  O261  1  0.11839992  0.49542488  0.14026044  1
  O  O262  1  0.07478358  0.50888766  0.37105667  1
  O  O263  1  0.13749415  0.49608510  0.63504331  1
  O  O264  1  0.13827084  0.48520583  0.85993837  1
  O  O265  1  0.13819189  0.75773213  0.10774100  1
  O  O266  1  0.14995463  0.77026532  0.38718246  1
  O  O267  1  0.12925191  0.76802399  0.58358022  1
  O  O268  1  0.11233219  0.75912898  0.87393717  1
  O  O269  1  0.39097217  -0.00191485  0.11754802  1
  O  O270  1  0.40452022  0.01127310  0.35813489  1
  O  O271  1  0.36239710  0.01261884  0.64689340  1
  O  O272  1  0.35175352  0.00357523  0.85221537  1
  O  O273  1  0.34370246  0.23355954  0.12121111  1
  O  O274  1  0.35434745  0.24496450  0.41840831  1
  O  O275  1  0.37618018  0.25294415  0.59297463  1
  O  O276  1  0.39623290  0.24280107  0.87221913  1
  O  O277  1  0.37930371  0.50327025  0.15041299  1
  O  O278  1  0.38198418  0.49739388  0.33710331  1
  O  O279  1  0.33719150  0.48718368  0.63641413  1
  O  O280  1  0.38927694  0.49327828  0.87481411  1
  O  O281  1  0.35260871  0.75344366  0.10138305  1
  O  O282  1  0.34600305  0.75672457  0.37652416  1
  O  O283  1  0.38292730  0.75266771  0.61174770  1
  O  O284  1  0.39408368  0.76048866  0.88146570  1
  O  O285  1  0.61419734  -0.00393873  0.11284004  1
  O  O286  1  0.60429400  0.01825416  0.34839671  1
  O  O287  1  0.63334004  0.00422090  0.64040987  1
  O  O288  1  0.64937542  -0.00560268  0.87012087  1
  O  O289  1  0.65916204  0.24812777  0.10775834  1
  O  O290  1  0.66247060  0.25174324  0.37602397  1
  O  O291  1  0.60759312  0.25715321  0.64037356  1
  O  O292  1  0.61222020  0.25250703  0.84584145  1
  O  O293  1  0.60739338  0.50231079  0.11092046  1
  O  O294  1  0.59701355  0.49290411  0.37954712  1
  O  O295  1  0.62044793  0.49383750  0.61581394  1
  O  O296  1  0.61919497  0.49467605  0.88997960  1
  O  O297  1  0.63644920  0.74232950  0.16935765  1
  O  O298  1  0.63183890  0.73207579  0.35200945  1
  O  O299  1  0.62362336  0.75068452  0.61288173  1
  O  O300  1  0.61624283  0.75754634  0.86441468  1
  O  O301  1  0.90160962  -0.00451604  0.12609156  1
  O  O302  1  0.90828607  0.00826337  0.36276942  1
  O  O303  1  0.86931100  0.00247858  0.63558343  1
  O  O304  1  0.87305091  -0.00573950  0.84998003  1
  O  O305  1  0.84535802  0.24188087  0.09966425  1
  O  O306  1  0.86346114  0.24202547  0.36241281  1
  O  O307  1  0.89408292  0.24991018  0.59537411  1
  O  O308  1  0.90036479  0.24193542  0.89353584  1
  O  O309  1  0.87063487  0.50898962  0.14046794  1
  O  O310  1  0.88887274  0.49676792  0.33978628  1
  O  O311  1  0.86413576  0.48887881  0.64132922  1
  O  O312  1  0.84215630  0.49409165  0.85679789  1
  O  O313  1  0.87068798  0.75295089  0.09767068  1
  O  O314  1  0.85996548  0.76109984  0.39508131  1
  O  O315  1  0.87431762  0.75279596  0.59318281  1
  O  O316  1  0.90767502  0.74168931  0.88465073  1
