# generated using pymatgen
data_Mg32Ti42(Bi17O64)3
_symmetry_space_group_name_H-M   'P 1'
_cell_length_a   15.97895266
_cell_length_b   15.95391152
_cell_length_c   15.95374946
_cell_angle_alpha   90.10453247
_cell_angle_beta   90.06054834
_cell_angle_gamma   90.01087757
_symmetry_Int_Tables_number   1
_chemical_formula_structural   Mg32Ti42(Bi17O64)3
_chemical_formula_sum   'Mg32 Ti42 Bi51 O192'
_cell_volume   4067.02913657
_cell_formula_units_Z   1
loop_
 _symmetry_equiv_pos_site_id
 _symmetry_equiv_pos_as_xyz
  1  'x, y, z'
loop_
 _atom_site_type_symbol
 _atom_site_label
 _atom_site_symmetry_multiplicity
 _atom_site_fract_x
 _atom_site_fract_y
 _atom_site_fract_z
 _atom_site_occupancy
  Mg  Mg0  1  0.11491549  0.86668633  0.63155947  1
  Mg  Mg1  1  0.88109946  0.12524364  0.87298365  1
  Mg  Mg2  1  0.88054597  0.37949966  0.88019571  1
  Mg  Mg3  1  0.37266265  0.86900459  0.12123999  1
  Mg  Mg4  1  0.88075252  0.11693531  0.63074225  1
  Mg  Mg5  1  0.63152947  0.87905156  0.62368908  1
  Mg  Mg6  1  0.88221374  0.14800858  0.37795582  1
  Mg  Mg7  1  0.62089694  0.61465698  0.37787824  1
  Mg  Mg8  1  0.38105098  0.61786251  0.62262179  1
  Mg  Mg9  1  0.36875757  0.13109377  0.37179830  1
  Mg  Mg10  1  0.37743539  0.61131774  0.86118232  1
  Mg  Mg11  1  0.62857187  0.36666203  0.12440516  1
  Mg  Mg12  1  0.12915181  0.63255997  0.13166358  1
  Mg  Mg13  1  0.36740625  0.12176978  0.12513879  1
  Mg  Mg14  1  0.38139941  0.37645035  0.62550002  1
  Mg  Mg15  1  0.36965902  0.86758188  0.63173733  1
  Mg  Mg16  1  0.86109351  0.62425159  0.12807062  1
  Mg  Mg17  1  0.12214749  0.61591356  0.86922911  1
  Mg  Mg18  1  0.12510745  0.12689365  0.86923356  1
  Mg  Mg19  1  -0.02549943  0.52769125  0.47290618  1
  Mg  Mg20  1  0.51165141  0.49866144  0.56809552  1
  Mg  Mg21  1  0.25380230  0.00115622  0.32162684  1
  Mg  Mg22  1  -0.02635498  0.74805500  0.69867248  1
  Mg  Mg23  1  0.31948317  0.48885755  0.49481711  1
  Mg  Mg24  1  0.49948674  0.19453751  0.75536483  1
  Mg  Mg25  1  0.54716131  0.73597574  0.74614300  1
  Mg  Mg26  1  0.68733193  0.25406030  0.25398509  1
  Mg  Mg27  1  0.48832207  0.49572898  0.23343927  1
  Mg  Mg28  1  0.79341990  0.04884485  0.49239108  1
  Mg  Mg29  1  0.24181734  0.52176663  0.70132677  1
  Mg  Mg30  1  0.22924525  0.24861812  0.29114355  1
  Mg  Mg31  1  0.05436829  0.76482026  0.47919983  1
  Ti  Ti32  1  0.61680076  0.63441487  0.12621871  1
  Ti  Ti33  1  0.37071835  0.12101133  0.62943562  1
  Ti  Ti34  1  0.12420512  0.13170954  0.63072663  1
  Ti  Ti35  1  0.88969329  0.62391056  0.85826477  1
  Ti  Ti36  1  0.14180923  0.39107919  0.61929383  1
  Ti  Ti37  1  0.86290084  0.88044126  0.13863701  1
  Ti  Ti38  1  0.11430098  0.63345788  0.36469870  1
  Ti  Ti39  1  0.61927665  0.88088098  0.87086096  1
  Ti  Ti40  1  0.37972198  0.62862329  0.11796533  1
  Ti  Ti41  1  0.12680071  0.86726722  0.13332703  1
  Ti  Ti42  1  0.63371193  0.62054358  0.62701290  1
  Ti  Ti43  1  0.87340548  0.13333748  0.13376204  1
  Ti  Ti44  1  0.62151195  0.13649551  0.38622924  1
  Ti  Ti45  1  0.36796878  0.37991790  0.12987700  1
  Ti  Ti46  1  0.87816385  0.87802257  0.37856724  1
  Ti  Ti47  1  0.36770722  0.37000120  0.36591017  1
  Ti  Ti48  1  0.86627804  0.87565613  0.60583137  1
  Ti  Ti49  1  0.63528546  0.89145895  0.38589211  1
  Ti  Ti50  1  0.62436722  0.11523479  0.62963373  1
  Ti  Ti51  1  0.13653310  0.40158778  0.38675271  1
  Ti  Ti52  1  0.12841770  0.36752775  0.13030920  1
  Ti  Ti53  1  0.86809997  0.37706062  0.12648435  1
  Ti  Ti54  1  0.87028022  0.63006338  0.60512301  1
  Ti  Ti55  1  0.13204499  0.86858069  0.88502598  1
  Ti  Ti56  1  0.60078754  0.37560762  0.36996739  1
  Ti  Ti57  1  0.11427370  0.63205748  0.60913506  1
  Ti  Ti58  1  0.61528832  0.88447034  0.12084570  1
  Ti  Ti59  1  0.11909327  0.87710006  0.36146398  1
  Ti  Ti60  1  0.63034828  0.36570212  0.88595012  1
  Ti  Ti61  1  0.12472510  0.12945673  0.38609236  1
  Ti  Ti62  1  0.62946019  0.61689667  0.86359321  1
  Ti  Ti63  1  0.39077109  0.61695314  0.37216435  1
  Ti  Ti64  1  0.62898298  0.12339500  0.12321459  1
  Ti  Ti65  1  0.13608294  0.12962185  0.13632340  1
  Ti  Ti66  1  0.36851114  0.37473667  0.88165425  1
  Ti  Ti67  1  0.11915805  0.37559212  0.86181439  1
  Ti  Ti68  1  0.62238891  0.12290597  0.88348597  1
  Ti  Ti69  1  0.85985619  0.37996748  0.36352957  1
  Ti  Ti70  1  0.36675446  0.87927952  0.86877469  1
  Ti  Ti71  1  0.85895346  0.62341653  0.36713062  1
  Ti  Ti72  1  0.36922354  0.12159916  0.87549212  1
  Ti  Ti73  1  0.61736978  0.36458420  0.63549773  1
  Bi  Bi74  1  0.72210679  0.76675461  0.25683231  1
  Bi  Bi75  1  0.73478484  0.76758648  -0.00580365  1
  Bi  Bi76  1  0.51224746  0.48200311  0.02366807  1
  Bi  Bi77  1  -0.01531793  0.50377805  0.24736096  1
  Bi  Bi78  1  0.49214089  0.74089070  -0.03786135  1
  Bi  Bi79  1  0.21566358  0.49980268  0.01204108  1
  Bi  Bi80  1  0.46541318  -0.00278916  0.25462959  1
  Bi  Bi81  1  -0.01809081  0.74645914  0.21465882  1
  Bi  Bi82  1  -0.00572124  0.02167403  0.27066126  1
  Bi  Bi83  1  0.46928112  0.24792075  0.01296020  1
  Bi  Bi84  1  0.22077100  -0.00617022  0.74517724  1
  Bi  Bi85  1  0.23822155  0.24834560  -0.02412937  1
  Bi  Bi86  1  0.74376933  0.03032256  0.27296218  1
  Bi  Bi87  1  0.00676046  0.24132247  0.00096515  1
  Bi  Bi88  1  0.49220312  0.77372699  0.28667950  1
  Bi  Bi89  1  0.49768386  0.22580627  0.50759218  1
  Bi  Bi90  1  0.76892324  0.00481598  0.78047737  1
  Bi  Bi91  1  0.49816550  0.45775139  0.77559530  1
  Bi  Bi92  1  0.25809814  0.52755864  0.25906013  1
  Bi  Bi93  1  0.70449885  0.49612190  0.24592944  1
  Bi  Bi94  1  0.74512039  0.24484954  0.77060855  1
  Bi  Bi95  1  0.77774611  0.00674354  0.00964846  1
  Bi  Bi96  1  0.49361274  -0.02602203  0.73923952  1
  Bi  Bi97  1  0.50261246  0.74747176  0.53247942  1
  Bi  Bi98  1  0.26783966  0.27639806  0.74009571  1
  Bi  Bi99  1  0.23517665  -0.01293038  0.02563790  1
  Bi  Bi100  1  -0.00761834  0.54201134  0.01401965  1
  Bi  Bi101  1  0.75013855  0.52783717  -0.00616454  1
  Bi  Bi102  1  0.77313212  0.47454394  0.74083079  1
  Bi  Bi103  1  0.47035541  0.23749514  0.24810526  1
  Bi  Bi104  1  0.47125545  -0.01141488  0.00738162  1
  Bi  Bi105  1  0.27325033  0.76653505  0.26291830  1
  Bi  Bi106  1  0.00328083  0.00623737  0.52596139  1
  Bi  Bi107  1  -0.03571123  0.27443022  0.74143014  1
  Bi  Bi108  1  0.25186931  0.71996575  -0.02025427  1
  Bi  Bi109  1  0.23061180  -0.03069986  0.52023770  1
  Bi  Bi110  1  0.77932761  0.77082123  0.76367458  1
  Bi  Bi111  1  0.73673330  0.48292750  0.51005020  1
  Bi  Bi112  1  0.77118990  0.24700639  0.54134578  1
  Bi  Bi113  1  -0.02115571  -0.04528348  0.77131091  1
  Bi  Bi114  1  0.01712582  0.26965635  0.25665471  1
  Bi  Bi115  1  -0.04146357  0.77955103  -0.01785395  1
  Bi  Bi116  1  -0.01456607  0.49111741  0.70604129  1
  Bi  Bi117  1  0.45679119  -0.03689865  0.48366010  1
  Bi  Bi118  1  0.74032845  0.75435625  0.48902835  1
  Bi  Bi119  1  0.26972994  0.73045731  0.50420268  1
  Bi  Bi120  1  0.76038771  0.25068291  0.01479832  1
  Bi  Bi121  1  -0.01936321  0.29831062  0.50025264  1
  Bi  Bi122  1  0.01155927  0.01201235  -0.00734869  1
  Bi  Bi123  1  0.25460986  0.25054983  0.51164413  1
  Bi  Bi124  1  0.24663221  0.70655866  0.75206051  1
  O  O125  1  0.12772838  0.17289248  0.02107170  1
  O  O126  1  0.09640848  0.10895368  0.24673878  1
  O  O127  1  0.14346841  0.13642377  0.49860347  1
  O  O128  1  0.12314606  0.10777167  0.74417311  1
  O  O129  1  0.14788914  0.35146238  0.01576762  1
  O  O130  1  0.08802860  0.39105961  0.27225138  1
  O  O131  1  0.17124075  0.36791130  0.50597682  1
  O  O132  1  0.11477318  0.38845070  0.74984854  1
  O  O133  1  0.15016709  0.62253324  0.00537497  1
  O  O134  1  0.10270619  0.60610532  0.25242210  1
  O  O135  1  0.13333603  0.66273243  0.49467770  1
  O  O136  1  0.14391632  0.61319188  0.74000617  1
  O  O137  1  0.14947592  0.86823491  0.00561471  1
  O  O138  1  0.09100747  0.89785945  0.24808265  1
  O  O139  1  0.14027276  0.86059563  0.49786550  1
  O  O140  1  0.11204111  0.90106529  0.76031963  1
  O  O141  1  0.38849263  0.11270648  -0.00217840  1
  O  O142  1  0.39948970  0.12057786  0.24492254  1
  O  O143  1  0.38121866  0.14155814  0.50406675  1
  O  O144  1  0.38194380  0.14317633  0.75190975  1
  O  O145  1  0.36564301  0.36706517  0.00301598  1
  O  O146  1  0.40968523  0.39226904  0.24340758  1
  O  O147  1  0.34864957  0.36217084  0.48440160  1
  O  O148  1  0.39534476  0.35360248  0.76059760  1
  O  O149  1  0.36506672  0.62964143  0.00030896  1
  O  O150  1  0.39470685  0.59263581  0.24874058  1
  O  O151  1  0.34103464  0.61576644  0.48388053  1
  O  O152  1  0.33617923  0.60138395  0.73897773  1
  O  O153  1  0.36064478  0.90377855  -0.00450174  1
  O  O154  1  0.40520812  0.86678878  0.24451855  1
  O  O155  1  0.34864579  0.88961520  0.50514945  1
  O  O156  1  0.40010134  0.86954691  0.75466052  1
  O  O157  1  0.64686415  0.11406847  -0.00058293  1
  O  O158  1  0.64245488  0.13473167  0.25228495  1
  O  O159  1  0.59854204  0.12425357  0.50175381  1
  O  O160  1  0.61875694  0.14729732  0.74605815  1
  O  O161  1  0.64830716  0.39483534  -0.00388323  1
  O  O162  1  0.61586053  0.35326390  0.25003512  1
  O  O163  1  0.62732997  0.40677737  0.48659684  1
  O  O164  1  0.60569164  0.35554174  0.75055948  1
  O  O165  1  0.62866603  0.60454151  -0.00705133  1
  O  O166  1  0.62569593  0.64416838  0.24216967  1
  O  O167  1  0.64897286  0.59866309  0.50641625  1
  O  O168  1  0.63441919  0.64725738  0.74870349  1
  O  O169  1  0.65975012  0.88504773  0.00134976  1
  O  O170  1  0.60835311  0.85476756  0.24388496  1
  O  O171  1  0.66219737  0.87838600  0.49637799  1
  O  O172  1  0.58671123  0.85619917  0.75828390  1
  O  O173  1  0.84648447  0.13522676  0.00412788  1
  O  O174  1  0.88024809  0.11275046  0.25237655  1
  O  O175  1  0.86948619  0.15405657  0.50296693  1
  O  O176  1  0.88364599  0.07699377  0.74853948  1
  O  O177  1  0.86479185  0.36057014  0.00665724  1
  O  O178  1  0.90606721  0.37717470  0.24652452  1
  O  O179  1  0.86158914  0.36620229  0.48776740  1
  O  O180  1  0.89407651  0.38835359  0.74646992  1
  O  O181  1  0.86694275  0.60947969  -0.00223013  1
  O  O182  1  0.89435488  0.62267703  0.25308723  1
  O  O183  1  0.86381625  0.60123221  0.49223518  1
  O  O184  1  0.91201711  0.64624693  0.74234226  1
  O  O185  1  0.85129757  0.86100845  0.01566242  1
  O  O186  1  0.90041317  0.87072373  0.25680255  1
  O  O187  1  0.83809821  0.85713651  0.49369094  1
  O  O188  1  0.89963689  0.84421448  0.73896684  1
  O  O189  1  -0.01082159  0.14304374  0.10723108  1
  O  O190  1  0.00425456  0.10629387  0.38152601  1
  O  O191  1  0.00875982  0.12633926  0.60949741  1
  O  O192  1  0.00234301  0.12976358  0.90909563  1
  O  O193  1  0.01402942  0.33994532  0.12261603  1
  O  O194  1  0.02474870  0.40926655  0.43771894  1
  O  O195  1  0.01950812  0.37771743  0.61811477  1
  O  O196  1  0.00669592  0.34805008  0.87774176  1
  O  O197  1  0.00097266  0.64485313  0.10557958  1
  O  O198  1  0.00196043  0.62265571  0.39449347  1
  O  O199  1  0.00255265  0.58776158  0.59066976  1
  O  O200  1  -0.00024217  0.63075550  0.89445090  1
  O  O201  1  0.00128236  0.84951166  0.10820511  1
  O  O202  1  -0.00871623  0.86187668  0.41043035  1
  O  O203  1  -0.01029795  0.89960192  0.62036083  1
  O  O204  1  0.00823877  0.87728090  0.89680701  1
  O  O205  1  0.24449307  0.10410224  0.12978022  1
  O  O206  1  0.23943522  0.12676511  0.34472240  1
  O  O207  1  0.25521787  0.09924173  0.62981957  1
  O  O208  1  0.25607950  0.11465508  0.88383095  1
  O  O209  1  0.25643227  0.39551856  0.14583180  1
  O  O210  1  0.24498273  0.36768736  0.34317367  1
  O  O211  1  0.25685151  0.39612322  0.66596393  1
  O  O212  1  0.25461683  0.37740438  0.86804641  1
  O  O213  1  0.25902949  0.59664215  0.13817394  1
  O  O214  1  0.24432304  0.64398736  0.33528633  1
  O  O215  1  0.23865866  0.65434071  0.61633398  1
  O  O216  1  0.25189214  0.63349730  0.87387308  1
  O  O217  1  0.24169325  0.90298063  0.13951641  1
  O  O218  1  0.23409415  0.87628641  0.34270660  1
  O  O219  1  0.24338542  0.89597090  0.64254768  1
  O  O220  1  0.25180931  0.89604010  0.85662568  1
  O  O221  1  0.51771191  0.15472406  0.11846282  1
  O  O222  1  0.50361087  0.15602933  0.37326544  1
  O  O223  1  0.49612577  0.15714210  0.63242056  1
  O  O224  1  0.51015251  0.14505748  0.87240319  1
  O  O225  1  0.50649386  0.35982477  0.09245620  1
  O  O226  1  0.49170996  0.34944604  0.38533250  1
  O  O227  1  0.50569035  0.37625994  0.60535311  1
  O  O228  1  0.51035955  0.36882662  0.88826113  1
  O  O229  1  0.50115241  0.64182463  0.10701967  1
  O  O230  1  0.49756522  0.62743615  0.39627306  1
  O  O231  1  0.50903428  0.62420654  0.61164910  1
  O  O232  1  0.50047226  0.65973105  0.84679440  1
  O  O233  1  0.50839474  0.86284288  0.08989131  1
  O  O234  1  0.51531421  0.86260053  0.39511737  1
  O  O235  1  0.50037150  0.87508417  0.59147034  1
  O  O236  1  0.50165532  0.86932004  0.90465572  1
  O  O237  1  0.75447774  0.09454626  0.13562821  1
  O  O238  1  0.74811494  0.11099005  0.38872084  1
  O  O239  1  0.73878072  0.11504882  0.59864225  1
  O  O240  1  0.74699525  0.12375587  0.85041560  1
  O  O241  1  0.75802808  0.39557058  0.14274576  1
  O  O242  1  0.74960102  0.38852783  0.34756899  1
  O  O243  1  0.73789009  0.39349659  0.62561855  1
  O  O244  1  0.74918352  0.37572305  0.84525913  1
  O  O245  1  0.73840936  0.59189933  0.12049985  1
  O  O246  1  0.75008424  0.58818478  0.35740759  1
  O  O247  1  0.75737838  0.63940719  0.63069837  1
  O  O248  1  0.74665202  0.60916952  0.87075982  1
  O  O249  1  0.75037582  0.88898683  0.15477310  1
  O  O250  1  0.74772767  0.88307495  0.34165555  1
  O  O251  1  0.75935179  0.86883212  0.65483643  1
  O  O252  1  0.73767159  0.86850147  0.84805289  1
  O  O253  1  0.10814874  0.01225365  0.09716820  1
  O  O254  1  0.13506651  -0.00249887  0.38411331  1
  O  O255  1  0.12041420  0.00367086  0.60697194  1
  O  O256  1  0.12137658  0.00336928  0.90856218  1
  O  O257  1  0.15360625  0.25373436  0.18158342  1
  O  O258  1  0.11863978  0.24869521  0.36497106  1
  O  O259  1  0.16172182  0.25052541  0.63054891  1
  O  O260  1  0.14958343  0.25311391  0.87106103  1
  O  O261  1  0.11479207  0.48799378  0.11132602  1
  O  O262  1  0.15242166  0.51251171  0.38966305  1
  O  O263  1  0.14792435  0.50587184  0.61350652  1
  O  O264  1  0.12328288  0.48811084  0.90379956  1
  O  O265  1  0.14437898  0.75800823  0.15337624  1
  O  O266  1  0.10880289  0.75507874  0.35836976  1
  O  O267  1  0.07879640  0.74369136  0.63335445  1
  O  O268  1  0.14320531  0.75588699  0.87230347  1
  O  O269  1  0.40239383  -0.00275613  0.13011884  1
  O  O270  1  0.37372242  0.00433845  0.36232864  1
  O  O271  1  0.40005687  0.00652624  0.63357435  1
  O  O272  1  0.40226800  0.00346495  0.86148231  1
  O  O273  1  0.37824314  0.25426870  0.12623405  1
  O  O274  1  0.35636599  0.25421356  0.33463035  1
  O  O275  1  0.34262417  0.25220435  0.62342857  1
  O  O276  1  0.36962361  0.24555632  0.89044604  1
  O  O277  1  0.40643816  0.49636721  0.11368931  1
  O  O278  1  0.35967481  0.49306355  0.37663407  1
  O  O279  1  0.38824538  0.49685003  0.59528257  1
  O  O280  1  0.40080708  0.48939834  0.87435240  1
  O  O281  1  0.35710642  0.74164504  0.13250147  1
  O  O282  1  0.37408962  0.73841442  0.35932773  1
  O  O283  1  0.38068121  0.74430259  0.60110472  1
  O  O284  1  0.36573595  0.76278930  0.89084419  1
  O  O285  1  0.60652177  0.00038523  0.13244432  1
  O  O286  1  0.61893650  0.00375150  0.36295629  1
  O  O287  1  0.61134150  0.00394754  0.64590183  1
  O  O288  1  0.62331048  0.00036585  0.86116605  1
  O  O289  1  0.66708965  0.24231592  0.12385328  1
  O  O290  1  0.64641999  0.25154216  0.37920063  1
  O  O291  1  0.63700660  0.25425557  0.60876468  1
  O  O292  1  0.64774840  0.24970355  0.89154714  1
  O  O293  1  0.58736260  0.50213682  0.14531703  1
  O  O294  1  0.59047743  0.49149942  0.33232669  1
  O  O295  1  0.61726156  0.50353191  0.64282686  1
  O  O296  1  0.61054680  0.50105104  0.85516443  1
  O  O297  1  0.64871431  0.74948814  0.10829194  1
  O  O298  1  0.65056665  0.74818284  0.38086213  1
  O  O299  1  0.61176809  0.74798685  0.61944015  1
  O  O300  1  0.62727681  0.75102863  0.89778172  1
  O  O301  1  0.88601551  -0.00420420  0.11225101  1
  O  O302  1  0.87086150  -0.00839684  0.39027838  1
  O  O303  1  0.86785845  -0.00481729  0.58083867  1
  O  O304  1  0.85644428  -0.00199787  0.88931277  1
  O  O305  1  0.85043184  0.24843673  0.13230751  1
  O  O306  1  0.91601304  0.27046069  0.36831023  1
  O  O307  1  0.85409537  0.23902825  0.65712462  1
  O  O308  1  0.86991580  0.24743852  0.83973567  1
  O  O309  1  0.90623344  0.49348696  0.12316543  1
  O  O310  1  0.89757539  0.49313833  0.36729953  1
  O  O311  1  0.86753807  0.51210120  0.64186780  1
  O  O312  1  0.87836293  0.50630483  0.85302765  1
  O  O313  1  0.86363789  0.75161644  0.14247683  1
  O  O314  1  0.83782923  0.73890143  0.37608809  1
  O  O315  1  0.89373114  0.74643191  0.60176985  1
  O  O316  1  0.85706219  0.73902379  0.88108586  1
