# generated using pymatgen
data_Mg32Ti42(Bi17O64)3
_symmetry_space_group_name_H-M   'P 1'
_cell_length_a   15.92280112
_cell_length_b   15.96747729
_cell_length_c   15.95297777
_cell_angle_alpha   90.14892703
_cell_angle_beta   90.00911101
_cell_angle_gamma   89.87067360
_symmetry_Int_Tables_number   1
_chemical_formula_structural   Mg32Ti42(Bi17O64)3
_chemical_formula_sum   'Mg32 Ti42 Bi51 O192'
_cell_volume   4055.97210163
_cell_formula_units_Z   1
loop_
 _symmetry_equiv_pos_site_id
 _symmetry_equiv_pos_as_xyz
  1  'x, y, z'
loop_
 _atom_site_type_symbol
 _atom_site_label
 _atom_site_symmetry_multiplicity
 _atom_site_fract_x
 _atom_site_fract_y
 _atom_site_fract_z
 _atom_site_occupancy
  Mg  Mg0  1  0.12441865  0.13724760  0.37874191  1
  Mg  Mg1  1  0.11494434  0.38197232  0.88461225  1
  Mg  Mg2  1  0.12868015  0.37505447  0.62044029  1
  Mg  Mg3  1  0.62004868  0.12431806  0.62781656  1
  Mg  Mg4  1  0.63197846  0.12194793  0.87894056  1
  Mg  Mg5  1  0.62408539  0.62187394  0.61903870  1
  Mg  Mg6  1  0.11663019  0.62280756  0.12827375  1
  Mg  Mg7  1  0.87286742  0.11821475  0.86513842  1
  Mg  Mg8  1  0.62924521  0.37106720  0.37022362  1
  Mg  Mg9  1  0.37304744  0.12455173  0.11600510  1
  Mg  Mg10  1  0.87329849  0.88538430  0.62894441  1
  Mg  Mg11  1  0.87144241  0.87152972  0.37611455  1
  Mg  Mg12  1  0.87342180  0.11933195  0.12924760  1
  Mg  Mg13  1  0.62513074  0.62471997  0.13176924  1
  Mg  Mg14  1  0.37660191  0.86920173  0.62949622  1
  Mg  Mg15  1  0.12517302  0.86163619  0.62776198  1
  Mg  Mg16  1  0.62715664  0.37582463  0.89072109  1
  Mg  Mg17  1  0.38251940  0.87913777  0.38305800  1
  Mg  Mg18  1  0.62697682  0.63164082  0.87399935  1
  Mg  Mg19  1  -0.02099699  0.19542917  0.00601888  1
  Mg  Mg20  1  0.49317718  0.22484200  0.54309055  1
  Mg  Mg21  1  0.72393868  0.55213925  0.00534222  1
  Mg  Mg22  1  0.73896459  0.70703773  0.73257048  1
  Mg  Mg23  1  0.75244886  0.74474037  0.06821629  1
  Mg  Mg24  1  0.02623004  0.51726527  0.25751840  1
  Mg  Mg25  1  0.52408711  0.00207901  0.76528961  1
  Mg  Mg26  1  0.51463414  0.56434490  0.00033952  1
  Mg  Mg27  1  0.28561575  0.70326354  0.49984575  1
  Mg  Mg28  1  0.56701090  0.75483140  0.00625580  1
  Mg  Mg29  1  -0.05244450  0.75576844  0.71872804  1
  Mg  Mg30  1  0.75733104  0.78754826  0.52961136  1
  Mg  Mg31  1  0.79654283  0.20917330  -0.00285150  1
  Ti  Ti32  1  0.12377497  0.37519294  0.37020741  1
  Ti  Ti33  1  0.11192152  0.38333594  0.11915654  1
  Ti  Ti34  1  0.38048435  0.36715351  0.62328033  1
  Ti  Ti35  1  0.87517910  0.36428836  0.89480461  1
  Ti  Ti36  1  0.37901673  0.37464784  0.89061660  1
  Ti  Ti37  1  0.37235292  0.36872209  0.37210524  1
  Ti  Ti38  1  0.63197924  0.38306755  0.11397633  1
  Ti  Ti39  1  0.63578082  0.12056874  0.11935844  1
  Ti  Ti40  1  0.38314966  0.62185655  0.36699781  1
  Ti  Ti41  1  0.62004774  0.62257481  0.37966407  1
  Ti  Ti42  1  0.87139492  0.36515274  0.12454304  1
  Ti  Ti43  1  0.10671936  0.61351753  0.87238094  1
  Ti  Ti44  1  0.85868073  0.86484227  0.85979296  1
  Ti  Ti45  1  0.62003901  0.37462084  0.63784621  1
  Ti  Ti46  1  0.61835984  0.87533468  0.38868942  1
  Ti  Ti47  1  0.86901267  0.61483353  0.38065394  1
  Ti  Ti48  1  0.38725334  0.37353211  0.12532474  1
  Ti  Ti49  1  0.37120083  0.13215643  0.37200777  1
  Ti  Ti50  1  0.36709224  0.87479793  0.11400149  1
  Ti  Ti51  1  0.63467068  0.86842951  0.87084274  1
  Ti  Ti52  1  0.86928651  0.11683969  0.61961628  1
  Ti  Ti53  1  0.37791710  0.62767768  0.87889858  1
  Ti  Ti54  1  0.86628700  0.62757093  0.62393136  1
  Ti  Ti55  1  0.37884268  0.11935999  0.64668658  1
  Ti  Ti56  1  0.62980050  0.87771088  0.14017222  1
  Ti  Ti57  1  0.12168363  0.11640361  0.11677380  1
  Ti  Ti58  1  0.37712226  0.86017073  0.86880516  1
  Ti  Ti59  1  0.11899515  0.13016642  0.86901301  1
  Ti  Ti60  1  0.87758947  0.12838929  0.37626922  1
  Ti  Ti61  1  0.86151844  0.63136953  0.87003671  1
  Ti  Ti62  1  0.12080944  0.63019324  0.63169928  1
  Ti  Ti63  1  0.11793712  0.86314664  0.12379340  1
  Ti  Ti64  1  0.62366851  0.12450602  0.38093824  1
  Ti  Ti65  1  0.37133133  0.62455481  0.63404044  1
  Ti  Ti66  1  0.88677844  0.37132581  0.35762358  1
  Ti  Ti67  1  0.62140850  0.86479266  0.62297661  1
  Ti  Ti68  1  0.38540687  0.63269731  0.13022441  1
  Ti  Ti69  1  0.87033804  0.61551945  0.14569246  1
  Ti  Ti70  1  0.36838055  0.11363311  0.88585166  1
  Ti  Ti71  1  0.11216068  0.12951414  0.62284888  1
  Ti  Ti72  1  0.12873156  0.62289173  0.37572733  1
  Ti  Ti73  1  0.88168496  0.86326875  0.13564968  1
  Bi  Bi74  1  0.27621940  0.49168744  0.51471260  1
  Bi  Bi75  1  0.22311600  -0.03674017  -0.02518615  1
  Bi  Bi76  1  0.22333648  0.26272391  0.76078182  1
  Bi  Bi77  1  -0.03189965  0.47050617  0.74401782  1
  Bi  Bi78  1  -0.00698434  0.73842907  0.27714569  1
  Bi  Bi79  1  0.46962327  0.00741406  0.50609366  1
  Bi  Bi80  1  0.21374089  0.75701074  0.76923189  1
  Bi  Bi81  1  0.76797374  -0.01416236  0.48938024  1
  Bi  Bi82  1  0.02818667  -0.01072300  0.26564374  1
  Bi  Bi83  1  0.46966176  0.01574228  0.24170711  1
  Bi  Bi84  1  0.26629245  0.51203647  0.01898880  1
  Bi  Bi85  1  -0.01308296  0.25175489  0.74541760  1
  Bi  Bi86  1  0.01320777  0.77503121  -0.04342926  1
  Bi  Bi87  1  0.48891220  0.48889517  0.77675442  1
  Bi  Bi88  1  0.23609007  -0.03404893  0.50002112  1
  Bi  Bi89  1  0.74724404  0.23966938  0.76807423  1
  Bi  Bi90  1  -0.02954940  0.50359950  0.00171256  1
  Bi  Bi91  1  0.76815689  -0.01663511  0.02377298  1
  Bi  Bi92  1  -0.02150143  -0.00745346  -0.03643929  1
  Bi  Bi93  1  0.74319293  0.23562962  0.26363170  1
  Bi  Bi94  1  0.72655741  0.00652080  0.73351101  1
  Bi  Bi95  1  0.23775696  0.48640657  0.23796503  1
  Bi  Bi96  1  0.48124007  0.77614502  0.24274138  1
  Bi  Bi97  1  0.49394796  0.23214271  0.77766596  1
  Bi  Bi98  1  0.78029435  0.46839475  0.53547170  1
  Bi  Bi99  1  0.25176140  0.24574339  0.21935230  1
  Bi  Bi100  1  0.25006019  0.21851068  0.51991304  1
  Bi  Bi101  1  0.24500774  -0.02214142  0.73961584  1
  Bi  Bi102  1  0.73375556  0.73910009  0.28651795  1
  Bi  Bi103  1  0.75617836  -0.00123678  0.25557387  1
  Bi  Bi104  1  0.49687708  -0.02401698  -0.02300539  1
  Bi  Bi105  1  0.53080364  0.24777800  0.00535916  1
  Bi  Bi106  1  0.50450390  0.48033057  0.26681118  1
  Bi  Bi107  1  -0.03422123  0.27455258  0.52473271  1
  Bi  Bi108  1  0.02664526  0.49674175  0.49712026  1
  Bi  Bi109  1  -0.01321329  0.73938793  0.51013970  1
  Bi  Bi110  1  0.51080996  0.23795854  0.24334404  1
  Bi  Bi111  1  0.23654923  -0.00809462  0.28221984  1
  Bi  Bi112  1  0.52843579  0.47717683  0.50305760  1
  Bi  Bi113  1  0.74745063  0.47907913  0.25106074  1
  Bi  Bi114  1  0.22593214  0.24755277  -0.00931414  1
  Bi  Bi115  1  0.73162489  0.25270654  0.51740873  1
  Bi  Bi116  1  0.01362703  -0.02385382  0.47633225  1
  Bi  Bi117  1  0.73430355  0.48478628  0.78149397  1
  Bi  Bi118  1  0.24896337  0.76619540  0.29797198  1
  Bi  Bi119  1  0.22478165  0.72930540  0.00182900  1
  Bi  Bi120  1  0.23650320  0.48422637  0.76832534  1
  Bi  Bi121  1  0.01545890  -0.03082086  0.74311642  1
  Bi  Bi122  1  0.01319466  0.22543878  0.24539408  1
  Bi  Bi123  1  0.48601279  0.73164269  0.52013633  1
  Bi  Bi124  1  0.52411016  0.74284622  0.75455535  1
  O  O125  1  0.10949579  0.16397631  -0.00019168  1
  O  O126  1  0.12709349  0.12270803  0.23875091  1
  O  O127  1  0.12355267  0.13756870  0.50653489  1
  O  O128  1  0.13607680  0.14160934  0.75140251  1
  O  O129  1  0.13888135  0.36432956  0.00841891  1
  O  O130  1  0.11305924  0.41986389  0.24920184  1
  O  O131  1  0.10336088  0.36928781  0.49066706  1
  O  O132  1  0.13607165  0.37869030  0.75004034  1
  O  O133  1  0.11360613  0.63846588  -0.00681205  1
  O  O134  1  0.13633084  0.59583522  0.25708103  1
  O  O135  1  0.08809716  0.63535873  0.49622841  1
  O  O136  1  0.14449966  0.61319535  0.74813390  1
  O  O137  1  0.11163875  0.87297693  0.00275116  1
  O  O138  1  0.14512317  0.90116312  0.23487875  1
  O  O139  1  0.11317442  0.88994370  0.50780780  1
  O  O140  1  0.14925484  0.88219561  0.75332753  1
  O  O141  1  0.39925728  0.12918717  -0.00641607  1
  O  O142  1  0.36444505  0.11417270  0.25004788  1
  O  O143  1  0.40860179  0.13765095  0.49213880  1
  O  O144  1  0.34990109  0.13331163  0.75414483  1
  O  O145  1  0.35451451  0.38103551  0.00250162  1
  O  O146  1  0.39908670  0.38645746  0.24548892  1
  O  O147  1  0.36354076  0.37639413  0.48796854  1
  O  O148  1  0.40093245  0.37470373  0.73622281  1
  O  O149  1  0.39189486  0.60525082  -0.00576329  1
  O  O150  1  0.35804038  0.64615702  0.24588173  1
  O  O151  1  0.39100695  0.62365072  0.48706181  1
  O  O152  1  0.35777222  0.63189388  0.74506518  1
  O  O153  1  0.40714606  0.87542986  -0.00144505  1
  O  O154  1  0.36614841  0.85494787  0.24269209  1
  O  O155  1  0.37692076  0.90747383  0.50606941  1
  O  O156  1  0.34589810  0.87303857  0.75551299  1
  O  O157  1  0.59941987  0.12531520  0.00351579  1
  O  O158  1  0.66565843  0.11478368  0.24470543  1
  O  O159  1  0.60052633  0.14878759  0.49364148  1
  O  O160  1  0.66012146  0.12756207  0.75093305  1
  O  O161  1  0.64114681  0.33465265  0.00728226  1
  O  O162  1  0.60751398  0.39169388  0.23883517  1
  O  O163  1  0.64750740  0.38797858  0.49661894  1
  O  O164  1  0.60982774  0.38239668  0.75238823  1
  O  O165  1  0.61601148  0.63721964  0.00051925  1
  O  O166  1  0.64789087  0.63450069  0.25645507  1
  O  O167  1  0.59347831  0.61892679  0.49455463  1
  O  O168  1  0.62506912  0.65007433  0.74368046  1
  O  O169  1  0.59632146  0.88103545  -0.00709144  1
  O  O170  1  0.65544154  0.87810977  0.25388149  1
  O  O171  1  0.59665020  0.88965207  0.50236804  1
  O  O172  1  0.63742788  0.83901713  0.74912553  1
  O  O173  1  0.88777500  0.10222672  -0.00385864  1
  O  O174  1  0.85207439  0.13640605  0.25450171  1
  O  O175  1  0.88634869  0.10629959  0.49889233  1
  O  O176  1  0.86758359  0.16409577  0.74358892  1
  O  O177  1  0.86125107  0.41363510  0.00409978  1
  O  O178  1  0.89604920  0.34593725  0.23927124  1
  O  O179  1  0.87702588  0.38218008  0.48571683  1
  O  O180  1  0.89595641  0.35348018  0.76786835  1
  O  O181  1  0.85531647  0.59126578  -0.01929849  1
  O  O182  1  0.85445580  0.64999932  0.25510757  1
  O  O183  1  0.90081203  0.61905291  0.49644581  1
  O  O184  1  0.86756987  0.66157751  0.73682580  1
  O  O185  1  0.88788821  0.89644953  0.00617530  1
  O  O186  1  0.85399330  0.86170463  0.24827134  1
  O  O187  1  0.89383649  0.90813618  0.50393629  1
  O  O188  1  0.84835555  0.83957602  0.75043306  1
  O  O189  1  0.00114238  0.13699685  0.12521139  1
  O  O190  1  -0.00687433  0.11124414  0.35205947  1
  O  O191  1  -0.00128107  0.15795214  0.63013001  1
  O  O192  1  0.00326467  0.11925421  0.87142824  1
  O  O193  1  -0.00340071  0.39833421  0.10631980  1
  O  O194  1  -0.00263593  0.41238993  0.36092047  1
  O  O195  1  0.00383647  0.34162859  0.63931333  1
  O  O196  1  -0.00960653  0.41159852  0.89250330  1
  O  O197  1  -0.00918832  0.59854179  0.14746209  1
  O  O198  1  -0.00634201  0.60956183  0.34172109  1
  O  O199  1  0.00534892  0.66602693  0.63973231  1
  O  O200  1  -0.00468025  0.59742597  0.86574503  1
  O  O201  1  0.00036742  0.87876261  0.14766911  1
  O  O202  1  -0.00540320  0.90068716  0.36156984  1
  O  O203  1  -0.00118079  0.85846891  0.66450516  1
  O  O204  1  -0.01392525  0.87753223  0.86858284  1
  O  O205  1  0.24191808  0.15545902  0.10884734  1
  O  O206  1  0.25722578  0.13302145  0.38862988  1
  O  O207  1  0.26558709  0.10556189  0.59713873  1
  O  O208  1  0.25141909  0.14446157  0.89539857  1
  O  O209  1  0.25234158  0.36529100  0.15141374  1
  O  O210  1  0.24508276  0.37470312  0.35317663  1
  O  O211  1  0.25963900  0.39905464  0.61940333  1
  O  O212  1  0.26383664  0.37115277  0.85494937  1
  O  O213  1  0.25953507  0.63511808  0.09514640  1
  O  O214  1  0.24192158  0.64605743  0.39432216  1
  O  O215  1  0.25157454  0.61157025  0.59040161  1
  O  O216  1  0.25768213  0.64549733  0.89318226  1
  O  O217  1  0.25427267  0.86653911  0.09802502  1
  O  O218  1  0.25455597  0.88813929  0.37248610  1
  O  O219  1  0.25078771  0.90540137  0.62091078  1
  O  O220  1  0.26171986  0.85269802  0.90062262  1
  O  O221  1  0.50738441  0.11648372  0.15625285  1
  O  O222  1  0.51168637  0.12237912  0.33869473  1
  O  O223  1  0.49671476  0.15082865  0.64339398  1
  O  O224  1  0.49224828  0.10496146  0.83704663  1
  O  O225  1  0.50134416  0.37955147  0.10426577  1
  O  O226  1  0.49584502  0.39264000  0.37640623  1
  O  O227  1  0.50218601  0.34954238  0.58775012  1
  O  O228  1  0.49715885  0.40806052  0.88665908  1
  O  O229  1  0.49753526  0.60049330  0.12698436  1
  O  O230  1  0.49844947  0.62989786  0.34999094  1
  O  O231  1  0.49214280  0.65052038  0.63049520  1
  O  O232  1  0.50007100  0.59641089  0.86997197  1
  O  O233  1  0.51115789  0.87945318  0.15375794  1
  O  O234  1  0.50646136  0.87589360  0.35138596  1
  O  O235  1  0.50551792  0.83532336  0.63270157  1
  O  O236  1  0.49378623  0.90977906  0.85124528  1
  O  O237  1  0.74766424  0.13723780  0.08937924  1
  O  O238  1  0.75047600  0.15835995  0.38982808  1
  O  O239  1  0.75308704  0.09642771  0.61211323  1
  O  O240  1  0.75477774  0.16579208  0.88617722  1
  O  O241  1  0.75102180  0.36848470  0.15045918  1
  O  O242  1  0.75876402  0.36876588  0.34249648  1
  O  O243  1  0.74187062  0.38929338  0.63586134  1
  O  O244  1  0.75799888  0.36573251  0.85706746  1
  O  O245  1  0.75502510  0.62910334  0.10733876  1
  O  O246  1  0.75041268  0.64278428  0.39222914  1
  O  O247  1  0.75317743  0.61096231  0.62523673  1
  O  O248  1  0.75145210  0.64958741  0.85132652  1
  O  O249  1  0.75080250  0.86529609  0.09826719  1
  O  O250  1  0.74876817  0.85881497  0.42085772  1
  O  O251  1  0.74571441  0.89892333  0.60245130  1
  O  O252  1  0.74585482  0.85904865  0.90055963  1
  O  O253  1  0.12914483  0.00731619  0.09842617  1
  O  O254  1  0.12902842  0.01136595  0.36489932  1
  O  O255  1  0.10979722  0.01274696  0.64484801  1
  O  O256  1  0.13992300  0.01359002  0.87530477  1
  O  O257  1  0.11653373  0.26899457  0.15874970  1
  O  O258  1  0.10734703  0.26157281  0.34960055  1
  O  O259  1  0.16207419  0.24656038  0.62693405  1
  O  O260  1  0.13271580  0.25676804  0.86922225  1
  O  O261  1  0.15830092  0.49954981  0.11356204  1
  O  O262  1  0.13326758  0.50458869  0.40499157  1
  O  O263  1  0.10494984  0.50724811  0.61249320  1
  O  O264  1  0.15187086  0.50313934  0.87745094  1
  O  O265  1  0.12215123  0.75142797  0.13452570  1
  O  O266  1  0.10725667  0.74141542  0.35354298  1
  O  O267  1  0.15914136  0.74259852  0.63800667  1
  O  O268  1  0.10381979  0.73624451  0.85592677  1
  O  O269  1  0.37801584  -0.00896878  0.12748879  1
  O  O270  1  0.39012670  0.01082325  0.37866059  1
  O  O271  1  0.41287650  0.00652859  0.64143574  1
  O  O272  1  0.35114999  -0.00099988  0.88762771  1
  O  O273  1  0.37907755  0.25511677  0.13857211  1
  O  O274  1  0.38263954  0.25404843  0.35870909  1
  O  O275  1  0.36208697  0.25103949  0.61474316  1
  O  O276  1  0.39778789  0.25879314  0.87749431  1
  O  O277  1  0.35135368  0.50059750  0.12723597  1
  O  O278  1  0.36463355  0.50770075  0.36242676  1
  O  O279  1  0.38847527  0.50333426  0.60642719  1
  O  O280  1  0.36243816  0.50243511  0.85073724  1
  O  O281  1  0.40467997  0.74878136  0.11672695  1
  O  O282  1  0.35801561  0.75279286  0.38869966  1
  O  O283  1  0.35987494  0.74420502  0.59300990  1
  O  O284  1  0.40009384  0.74695923  0.87084326  1
  O  O285  1  0.64744402  -0.00290541  0.11856887  1
  O  O286  1  0.64930024  0.00458721  0.38000037  1
  O  O287  1  0.60638103  -0.00991178  0.66524572  1
  O  O288  1  0.63764521  -0.00878812  0.84690272  1
  O  O289  1  0.60953770  0.24167768  0.13962581  1
  O  O290  1  0.62025727  0.24686683  0.34259056  1
  O  O291  1  0.64389242  0.25342418  0.62503217  1
  O  O292  1  0.59067561  0.24770911  0.87422771  1
  O  O293  1  0.64522353  0.49332865  0.09245304  1
  O  O294  1  0.61898469  0.50660297  0.36822765  1
  O  O295  1  0.59696837  0.49345613  0.62417309  1
  O  O296  1  0.66508140  0.50407749  0.89715846  1
  O  O297  1  0.62904651  0.75895356  0.11575581  1
  O  O298  1  0.62247744  0.75593436  0.37684551  1
  O  O299  1  0.66074230  0.75577924  0.60235961  1
  O  O300  1  0.59040694  0.75888030  0.88340431  1
  O  O301  1  0.84857524  -0.00544127  0.13777451  1
  O  O302  1  0.84591898  0.00780209  0.36562128  1
  O  O303  1  0.89932238  0.00953663  0.66093477  1
  O  O304  1  0.87038990  -0.01119607  0.86197752  1
  O  O305  1  0.87783765  0.25568361  0.08921563  1
  O  O306  1  0.89792227  0.25343720  0.38188652  1
  O  O307  1  0.84902175  0.24069838  0.59427911  1
  O  O308  1  0.89865604  0.25691178  0.92084898  1
  O  O309  1  0.85642579  0.49984393  0.16044676  1
  O  O310  1  0.85199663  0.50245060  0.35614333  1
  O  O311  1  0.89260881  0.51027686  0.62890411  1
  O  O312  1  0.86135749  0.50941597  0.82743331  1
  O  O313  1  0.87551586  0.74889776  0.10899258  1
  O  O314  1  0.90558161  0.74671015  0.38526742  1
  O  O315  1  0.86344543  0.75308083  0.59075585  1
  O  O316  1  0.89223713  0.74716009  0.88797058  1
