# generated using pymatgen
data_Mg32Ti42(Bi17O64)3
_symmetry_space_group_name_H-M   'P 1'
_cell_length_a   15.88052962
_cell_length_b   15.86986404
_cell_length_c   15.99773925
_cell_angle_alpha   90.00883336
_cell_angle_beta   90.21760020
_cell_angle_gamma   89.85048531
_symmetry_Int_Tables_number   1
_chemical_formula_structural   Mg32Ti42(Bi17O64)3
_chemical_formula_sum   'Mg32 Ti42 Bi51 O192'
_cell_volume   4031.73692798
_cell_formula_units_Z   1
loop_
 _symmetry_equiv_pos_site_id
 _symmetry_equiv_pos_as_xyz
  1  'x, y, z'
loop_
 _atom_site_type_symbol
 _atom_site_label
 _atom_site_symmetry_multiplicity
 _atom_site_fract_x
 _atom_site_fract_y
 _atom_site_fract_z
 _atom_site_occupancy
  Mg  Mg0  1  0.87376391  0.37594045  0.38006428  1
  Mg  Mg1  1  0.13384808  0.61412942  0.37854951  1
  Mg  Mg2  1  0.12768524  0.12788047  0.12340944  1
  Mg  Mg3  1  0.62863066  0.12725703  0.36438578  1
  Mg  Mg4  1  0.86352039  0.62346692  0.88014995  1
  Mg  Mg5  1  0.63112009  0.63915613  0.37447819  1
  Mg  Mg6  1  0.61591970  0.62859738  0.62520307  1
  Mg  Mg7  1  0.62784376  0.63811245  0.12027256  1
  Mg  Mg8  1  0.62102615  0.87955728  0.62950733  1
  Mg  Mg9  1  0.86702741  0.62477910  0.63020186  1
  Mg  Mg10  1  0.12487704  0.38077958  0.63072607  1
  Mg  Mg11  1  0.12731856  0.61576511  0.13055681  1
  Mg  Mg12  1  0.62477696  0.38942687  0.87473181  1
  Mg  Mg13  1  0.12079637  0.61253288  0.86950048  1
  Mg  Mg14  1  0.37489295  0.37412556  0.13476345  1
  Mg  Mg15  1  0.62871233  0.39114039  0.61913371  1
  Mg  Mg16  1  0.11973716  0.87716548  0.12834644  1
  Mg  Mg17  1  0.87823926  0.12245878  0.38306004  1
  Mg  Mg18  1  0.37269817  0.87179409  0.12940333  1
  Mg  Mg19  1  0.28655168  0.28006738  0.69510914  1
  Mg  Mg20  1  0.30881573  0.49522174  0.55464331  1
  Mg  Mg21  1  0.76724307  0.76022978  0.30781195  1
  Mg  Mg22  1  0.73436816  0.51824593  0.72263356  1
  Mg  Mg23  1  0.26270754  0.32386800  0.51896118  1
  Mg  Mg24  1  0.53458031  0.74995020  0.26907518  1
  Mg  Mg25  1  0.53416627  0.75529479  0.72251421  1
  Mg  Mg26  1  0.70424599  0.76786161  -0.02607898  1
  Mg  Mg27  1  0.56384916  0.04105407  0.69887774  1
  Mg  Mg28  1  -0.06805208  0.51283394  0.76607049  1
  Mg  Mg29  1  0.27805033  0.53180576  0.24690146  1
  Mg  Mg30  1  0.72193933  0.75551605  0.55170698  1
  Mg  Mg31  1  0.49028270  0.47424975  0.51407114  1
  Ti  Ti32  1  0.36886330  0.11546551  0.63768098  1
  Ti  Ti33  1  0.63040277  0.12484264  0.12505430  1
  Ti  Ti34  1  0.38412749  0.39422843  0.36960036  1
  Ti  Ti35  1  0.87166586  0.38279743  0.62819330  1
  Ti  Ti36  1  0.12849214  0.13213195  0.87296593  1
  Ti  Ti37  1  0.38015186  0.64141728  0.64675363  1
  Ti  Ti38  1  0.11971550  0.12415661  0.39341421  1
  Ti  Ti39  1  0.37222350  0.62817152  0.12475444  1
  Ti  Ti40  1  0.37558622  0.12746106  0.12459004  1
  Ti  Ti41  1  0.88096299  0.14024228  0.62583032  1
  Ti  Ti42  1  0.12701722  0.61640996  0.62763997  1
  Ti  Ti43  1  0.86903368  0.12788556  0.12482528  1
  Ti  Ti44  1  0.37134474  0.88079352  0.63834685  1
  Ti  Ti45  1  0.59986842  0.88710516  0.85466858  1
  Ti  Ti46  1  0.87925928  0.62160745  0.37865486  1
  Ti  Ti47  1  0.13757059  0.13531777  0.63242022  1
  Ti  Ti48  1  0.87504181  0.86341629  0.63500084  1
  Ti  Ti49  1  0.87657139  0.37440774  0.12832950  1
  Ti  Ti50  1  0.87171205  0.62685238  0.12423789  1
  Ti  Ti51  1  0.62238636  0.86882551  0.13055874  1
  Ti  Ti52  1  0.63249670  0.86455871  0.38202352  1
  Ti  Ti53  1  0.37400637  0.62414795  0.87960598  1
  Ti  Ti54  1  0.37854990  0.36797341  0.88159455  1
  Ti  Ti55  1  0.13123403  0.36592030  0.13917726  1
  Ti  Ti56  1  0.63002641  0.37167887  0.12944564  1
  Ti  Ti57  1  0.37458431  0.86155736  0.36530457  1
  Ti  Ti58  1  0.62442202  0.11833828  0.87629078  1
  Ti  Ti59  1  0.13172349  0.87815766  0.38376664  1
  Ti  Ti60  1  0.13255756  0.87209867  0.62581534  1
  Ti  Ti61  1  0.36546365  0.11878701  0.87658350  1
  Ti  Ti62  1  0.11097690  0.87380931  0.88267509  1
  Ti  Ti63  1  0.87792703  0.12649857  0.87903487  1
  Ti  Ti64  1  0.38066521  0.62283886  0.38938909  1
  Ti  Ti65  1  0.13300797  0.38070691  0.38238787  1
  Ti  Ti66  1  0.88099025  0.87813715  0.38350557  1
  Ti  Ti67  1  0.37320309  0.86586235  0.87733579  1
  Ti  Ti68  1  0.87400688  0.37766182  0.88332639  1
  Ti  Ti69  1  0.87620295  0.86775587  0.12675955  1
  Ti  Ti70  1  0.62685872  0.37396218  0.38031142  1
  Ti  Ti71  1  0.13036481  0.37851430  0.87627201  1
  Ti  Ti72  1  0.86818129  0.87441844  0.88184417  1
  Ti  Ti73  1  0.61395813  0.62196066  0.87631672  1
  Bi  Bi74  1  -0.01040673  0.50111843  0.51514768  1
  Bi  Bi75  1  0.49705121  -0.00158581  0.01954557  1
  Bi  Bi76  1  -0.00037043  0.25879821  0.27468274  1
  Bi  Bi77  1  -0.01234778  0.73751090  0.00004827  1
  Bi  Bi78  1  0.26500527  0.47285452  0.74947691  1
  Bi  Bi79  1  0.01246833  0.02129053  0.00638876  1
  Bi  Bi80  1  0.76108271  0.23797423  0.28275334  1
  Bi  Bi81  1  0.23732746  0.73064273  0.51091832  1
  Bi  Bi82  1  0.49946556  0.76049967  0.01255214  1
  Bi  Bi83  1  0.26019977  0.50447302  0.01769071  1
  Bi  Bi84  1  0.51128535  0.03507038  0.48673373  1
  Bi  Bi85  1  0.50217106  -0.00973360  0.27563005  1
  Bi  Bi86  1  0.00482840  0.27300707  0.50578126  1
  Bi  Bi87  1  0.75898090  0.02035676  0.75804206  1
  Bi  Bi88  1  0.00275123  0.02127994  0.73893735  1
  Bi  Bi89  1  0.51824420  0.52330490  0.25612636  1
  Bi  Bi90  1  0.26417936  0.25798929  0.01662040  1
  Bi  Bi91  1  0.01846759  0.51164956  0.01146891  1
  Bi  Bi92  1  0.73863198  0.50758139  0.27341337  1
  Bi  Bi93  1  0.23034439  0.75527316  0.02518343  1
  Bi  Bi94  1  0.23092634  0.73911974  0.77367813  1
  Bi  Bi95  1  0.51374415  0.26187583  0.01425731  1
  Bi  Bi96  1  0.74819574  0.26557839  -0.00439298  1
  Bi  Bi97  1  0.48097095  0.45877389  0.73138008  1
  Bi  Bi98  1  0.69878595  0.22367037  0.53206417  1
  Bi  Bi99  1  0.73464848  -0.00014106  0.52173844  1
  Bi  Bi100  1  0.76786047  -0.00950961  0.25722818  1
  Bi  Bi101  1  0.26960787  0.23679005  0.30782576  1
  Bi  Bi102  1  -0.00257408  0.74203172  0.52383751  1
  Bi  Bi103  1  -0.00734728  0.00135911  0.51661213  1
  Bi  Bi104  1  0.23319619  0.72930413  0.25594708  1
  Bi  Bi105  1  -0.01376070  0.51049880  0.25762851  1
  Bi  Bi106  1  0.02324391  0.00754951  0.25383272  1
  Bi  Bi107  1  0.75250575  0.52033423  0.01038208  1
  Bi  Bi108  1  0.23805963  -0.02001420  0.77224055  1
  Bi  Bi109  1  0.25112732  0.00520787  0.25592374  1
  Bi  Bi110  1  0.74689551  -0.01899520  0.00954084  1
  Bi  Bi111  1  -0.00674261  0.72981595  0.76896797  1
  Bi  Bi112  1  0.48146419  0.77497243  0.51737981  1
  Bi  Bi113  1  0.51095946  0.50088718  0.01320585  1
  Bi  Bi114  1  0.00467862  0.28505202  0.76106881  1
  Bi  Bi115  1  0.01257867  0.26616792  0.01352285  1
  Bi  Bi116  1  0.45809983  0.27478958  0.52642557  1
  Bi  Bi117  1  0.48202191  0.22884407  0.27781374  1
  Bi  Bi118  1  0.71713689  0.27723779  0.75577270  1
  Bi  Bi119  1  0.25384723  -0.00659937  0.02053446  1
  Bi  Bi120  1  0.73565369  0.72689934  0.76758093  1
  Bi  Bi121  1  0.28422336  0.01866671  0.48624639  1
  Bi  Bi122  1  0.71983299  0.53145193  0.50837635  1
  Bi  Bi123  1  0.00230075  0.75185432  0.27057779  1
  Bi  Bi124  1  0.48910768  0.22877196  0.76090305  1
  O  O125  1  0.09539299  0.13506113  -0.00789777  1
  O  O126  1  0.14086493  0.09096682  0.24617344  1
  O  O127  1  0.10394745  0.13872590  0.50697131  1
  O  O128  1  0.13606366  0.09387070  0.74980703  1
  O  O129  1  0.13487670  0.33717340  -0.00372274  1
  O  O130  1  0.11945828  0.38134320  0.25248855  1
  O  O131  1  0.12976696  0.34256408  0.50041865  1
  O  O132  1  0.10517657  0.38451760  0.75888725  1
  O  O133  1  0.08926620  0.63419288  -0.00350859  1
  O  O134  1  0.17255951  0.60320927  0.25104996  1
  O  O135  1  0.11201112  0.65346816  0.50131486  1
  O  O136  1  0.15669544  0.61519605  0.74060625  1
  O  O137  1  0.10684482  0.84766688  -0.00469377  1
  O  O138  1  0.14284921  0.91130962  0.25373901  1
  O  O139  1  0.10837458  0.84955131  0.49552588  1
  O  O140  1  0.13505707  0.88184588  0.74413593  1
  O  O141  1  0.39266387  0.10894333  -0.01137651  1
  O  O142  1  0.36474042  0.14045599  0.23840161  1
  O  O143  1  0.38828913  0.10335573  0.51401004  1
  O  O144  1  0.34665886  0.16888417  0.74314942  1
  O  O145  1  0.35590471  0.38606540  -0.00409757  1
  O  O146  1  0.38573764  0.35657557  0.25881070  1
  O  O147  1  0.37375308  0.39643390  0.49606114  1
  O  O148  1  0.37075157  0.36986825  0.75070900  1
  O  O149  1  0.38518308  0.59428717  -0.00491371  1
  O  O150  1  0.35274945  0.63686430  0.23810639  1
  O  O151  1  0.40711153  0.57727445  0.49209368  1
  O  O152  1  0.35561431  0.65858063  0.75385188  1
  O  O153  1  0.38691964  0.89769586  -0.01058131  1
  O  O154  1  0.35809928  0.85372692  0.25370153  1
  O  O155  1  0.40668482  0.88876575  0.50100578  1
  O  O156  1  0.34689964  0.85832683  0.74654001  1
  O  O157  1  0.60639834  0.15192356  -0.00966994  1
  O  O158  1  0.65129855  0.11345762  0.23535929  1
  O  O159  1  0.59266695  0.15145160  0.48800484  1
  O  O160  1  0.65105047  0.10959669  0.75620764  1
  O  O161  1  0.63204435  0.34718510  -0.00101123  1
  O  O162  1  0.62244415  0.40865369  0.23882614  1
  O  O163  1  0.63733992  0.34912886  0.49237901  1
  O  O164  1  0.64865863  0.40858368  0.74862290  1
  O  O165  1  0.60742520  0.67149267  -0.00452110  1
  O  O166  1  0.63387136  0.59628710  0.23873061  1
  O  O167  1  0.65727209  0.65688515  0.49537541  1
  O  O168  1  0.64807753  0.61008713  0.76062275  1
  O  O169  1  0.59874074  0.85087283  -0.02116388  1
  O  O170  1  0.64281891  0.90040996  0.23592618  1
  O  O171  1  0.62092532  0.84222535  0.49332613  1
  O  O172  1  0.62307237  0.93016847  0.74638367  1
  O  O173  1  0.89335244  0.11118355  -0.00229630  1
  O  O174  1  0.84629687  0.11770102  0.23962641  1
  O  O175  1  0.90428208  0.12032108  0.50994155  1
  O  O176  1  0.86997461  0.10846531  0.74759789  1
  O  O177  1  0.86260924  0.35283470  0.00137798  1
  O  O178  1  0.89699296  0.38032938  0.24231913  1
  O  O179  1  0.89708050  0.38005786  0.50810797  1
  O  O180  1  0.89359166  0.38457730  0.75456059  1
  O  O181  1  0.90437643  0.61932776  0.00373782  1
  O  O182  1  0.87614020  0.60313526  0.23992192  1
  O  O183  1  0.89764016  0.61761996  0.49439315  1
  O  O184  1  0.83676351  0.59857174  0.75613141  1
  O  O185  1  0.88574604  0.87811199  0.00083958  1
  O  O186  1  0.83190089  0.85756361  0.23843730  1
  O  O187  1  0.89910785  0.88279961  0.49355058  1
  O  O188  1  0.86270762  0.86143942  0.74725894  1
  O  O189  1  -0.01225468  0.08589149  0.13248949  1
  O  O190  1  0.00565671  0.12476232  0.34897650  1
  O  O191  1  0.00459076  0.13792109  0.65342216  1
  O  O192  1  0.00031586  0.10054457  0.86090569  1
  O  O193  1  -0.00381099  0.38440910  0.10250194  1
  O  O194  1  0.00962885  0.35327763  0.38183777  1
  O  O195  1  0.00346454  0.34123675  0.62598092  1
  O  O196  1  -0.00075067  0.36242824  0.89049030  1
  O  O197  1  0.00081404  0.58774735  0.13770900  1
  O  O198  1  0.00519958  0.62699634  0.34299320  1
  O  O199  1  0.00674212  0.65323706  0.63475477  1
  O  O200  1  -0.00301244  0.60605350  0.82563560  1
  O  O201  1  -0.01289205  0.88834586  0.14800498  1
  O  O202  1  0.00077730  0.87172744  0.34797835  1
  O  O203  1  -0.00135982  0.83965488  0.62807055  1
  O  O204  1  -0.00076819  0.89114681  0.86323137  1
  O  O205  1  0.25428204  0.13942235  0.09611448  1
  O  O206  1  0.24433505  0.11400064  0.38434473  1
  O  O207  1  0.24465526  0.09143517  0.60527677  1
  O  O208  1  0.24772869  0.13572847  0.89290390  1
  O  O209  1  0.24477932  0.33779887  0.13072863  1
  O  O210  1  0.25520315  0.35531313  0.38858760  1
  O  O211  1  0.25012223  0.39769846  0.62360434  1
  O  O212  1  0.24868467  0.37218803  0.85765614  1
  O  O213  1  0.24979958  0.62675859  0.08988087  1
  O  O214  1  0.26186352  0.64154840  0.39301319  1
  O  O215  1  0.25610078  0.61109191  0.58983903  1
  O  O216  1  0.25319685  0.64511782  0.88598261  1
  O  O217  1  0.24777997  0.87425777  0.09702185  1
  O  O218  1  0.25156512  0.87218492  0.39028542  1
  O  O219  1  0.24722189  0.89510018  0.60505997  1
  O  O220  1  0.24722646  0.86079787  0.87569840  1
  O  O221  1  0.50045036  0.09930988  0.12676853  1
  O  O222  1  0.50547542  0.11118182  0.34562320  1
  O  O223  1  0.48704700  0.13289211  0.65406501  1
  O  O224  1  0.50029661  0.11758123  0.83933764  1
  O  O225  1  0.50404898  0.39029240  0.10140742  1
  O  O226  1  0.50244442  0.41268121  0.39410513  1
  O  O227  1  0.49845258  0.38428821  0.61467042  1
  O  O228  1  0.49430781  0.39425079  0.87784019  1
  O  O229  1  0.49291982  0.59243700  0.12849379  1
  O  O230  1  0.49965294  0.63836453  0.33748727  1
  O  O231  1  0.49516406  0.65757621  0.65039978  1
  O  O232  1  0.49847232  0.61923717  0.86460358  1
  O  O233  1  0.50028286  0.89669042  0.11871206  1
  O  O234  1  0.50778547  0.85590200  0.34196115  1
  O  O235  1  0.49200547  0.84732159  0.64275257  1
  O  O236  1  0.48812809  0.89163046  0.84756998  1
  O  O237  1  0.74666512  0.13425598  0.09147818  1
  O  O238  1  0.74996196  0.14562479  0.38649646  1
  O  O239  1  0.76430979  0.09734849  0.61256466  1
  O  O240  1  0.75165040  0.12202761  0.88142503  1
  O  O241  1  0.74763208  0.34174092  0.12633276  1
  O  O242  1  0.74689785  0.36984670  0.35627334  1
  O  O243  1  0.76229399  0.41653375  0.62683887  1
  O  O244  1  0.75430587  0.35530150  0.87711432  1
  O  O245  1  0.75538000  0.63059494  0.09872594  1
  O  O246  1  0.76439680  0.63319351  0.35541608  1
  O  O247  1  0.74425378  0.59667436  0.62212574  1
  O  O248  1  0.73794552  0.66370718  0.89887209  1
  O  O249  1  0.73113929  0.85027280  0.07890621  1
  O  O250  1  0.75520557  0.86835380  0.38518350  1
  O  O251  1  0.75418797  0.89336558  0.60257539  1
  O  O252  1  0.75165716  0.85153693  0.88660115  1
  O  O253  1  0.13226897  0.00100866  0.09096359  1
  O  O254  1  0.11846997  -0.00251672  0.39760834  1
  O  O255  1  0.09222432  -0.00950810  0.61580383  1
  O  O256  1  0.14507164  -0.00779522  0.88452255  1
  O  O257  1  0.09189688  0.24974766  0.13444391  1
  O  O258  1  0.13023752  0.23731516  0.35272501  1
  O  O259  1  0.16681009  0.24147236  0.65333178  1
  O  O260  1  0.11515383  0.24216770  0.85400714  1
  O  O261  1  0.13770826  0.48443732  0.09674783  1
  O  O262  1  0.12192842  0.49002225  0.39571527  1
  O  O263  1  0.10180904  0.50599580  0.60676607  1
  O  O264  1  0.12721240  0.49032509  0.90387722  1
  O  O265  1  0.13952028  0.74731638  0.14267785  1
  O  O266  1  0.12284887  0.75595051  0.34329717  1
  O  O267  1  0.15655789  0.75046829  0.63388642  1
  O  O268  1  0.10704336  0.74839253  0.85167443  1
  O  O269  1  0.35090834  0.00473258  0.12811406  1
  O  O270  1  0.38892250  -0.01751961  0.36219221  1
  O  O271  1  0.38274849  -0.00224340  0.65180368  1
  O  O272  1  0.35343831  0.00562731  0.85542719  1
  O  O273  1  0.39063327  0.24587723  0.09983629  1
  O  O274  1  0.39813952  0.25988825  0.38688719  1
  O  O275  1  0.34154422  0.24412341  0.58863728  1
  O  O276  1  0.39326868  0.25223690  0.88397559  1
  O  O277  1  0.33542868  0.49809504  0.13764579  1
  O  O278  1  0.35742065  0.50615143  0.34189350  1
  O  O279  1  0.37865574  0.51875974  0.65671960  1
  O  O280  1  0.36452105  0.50711095  0.84673708  1
  O  O281  1  0.36757894  0.74350333  0.10013685  1
  O  O282  1  0.38637993  0.74550793  0.40577439  1
  O  O283  1  0.35877021  0.75138987  0.59647579  1
  O  O284  1  0.39119595  0.75279803  0.89648040  1
  O  O285  1  0.63473720  0.00092141  0.09116288  1
  O  O286  1  0.61389822  -0.01071296  0.38039894  1
  O  O287  1  0.61061733  -0.00021876  0.58673235  1
  O  O288  1  0.62742567  0.00159524  0.90165155  1
  O  O289  1  0.59565000  0.24827920  0.13218966  1
  O  O290  1  0.60935776  0.26323843  0.34156539  1
  O  O291  1  0.63434970  0.26383063  0.64409540  1
  O  O292  1  0.61522710  0.25018172  0.84339560  1
  O  O293  1  0.64053402  0.49343815  0.08840486  1
  O  O294  1  0.64231548  0.50459321  0.37581097  1
  O  O295  1  0.60013510  0.50943494  0.57309258  1
  O  O296  1  0.63092830  0.51303550  0.91173372  1
  O  O297  1  0.58210168  0.75640865  0.14868876  1
  O  O298  1  0.64318314  0.75670239  0.33046279  1
  O  O299  1  0.64362135  0.75450617  0.65170027  1
  O  O300  1  0.60786676  0.76568972  0.82479184  1
  O  O301  1  0.83315486  -0.01284479  0.12802356  1
  O  O302  1  0.87485700  -0.00658767  0.35788544  1
  O  O303  1  0.90659944  -0.01056196  0.62597216  1
  O  O304  1  0.85580002  -0.00850887  0.86944825  1
  O  O305  1  0.89364628  0.24055267  0.12911582  1
  O  O306  1  0.88141629  0.24888872  0.35540623  1
  O  O307  1  0.85292463  0.25226019  0.63093811  1
  O  O308  1  0.88493145  0.23947850  0.86986700  1
  O  O309  1  0.84830894  0.48903589  0.11335943  1
  O  O310  1  0.88724335  0.50215842  0.37008936  1
  O  O311  1  0.91694602  0.49857784  0.63322661  1
  O  O312  1  0.87430080  0.49118155  0.88651463  1
  O  O313  1  0.89405370  0.74317432  0.12198160  1
  O  O314  1  0.88678104  0.74904166  0.36062338  1
  O  O315  1  0.84396212  0.75115392  0.60372134  1
  O  O316  1  0.90527571  0.74843604  0.88051455  1
