# generated using pymatgen
data_Mg32Ti42(Bi17O64)3
_symmetry_space_group_name_H-M   'P 1'
_cell_length_a   15.92891608
_cell_length_b   15.93760841
_cell_length_c   15.94870948
_cell_angle_alpha   90.06830577
_cell_angle_beta   90.03853916
_cell_angle_gamma   89.93534093
_symmetry_Int_Tables_number   1
_chemical_formula_structural   Mg32Ti42(Bi17O64)3
_chemical_formula_sum   'Mg32 Ti42 Bi51 O192'
_cell_volume   4048.87379751
_cell_formula_units_Z   1
loop_
 _symmetry_equiv_pos_site_id
 _symmetry_equiv_pos_as_xyz
  1  'x, y, z'
loop_
 _atom_site_type_symbol
 _atom_site_label
 _atom_site_symmetry_multiplicity
 _atom_site_fract_x
 _atom_site_fract_y
 _atom_site_fract_z
 _atom_site_occupancy
  Mg  Mg0  1  0.87624125  0.12573053  0.62967855  1
  Mg  Mg1  1  0.63046926  0.86944475  0.36780981  1
  Mg  Mg2  1  0.12027669  0.12213142  0.36931522  1
  Mg  Mg3  1  0.88173200  0.86901108  0.62578681  1
  Mg  Mg4  1  0.62812629  0.38228538  0.37433658  1
  Mg  Mg5  1  0.86785486  0.62252330  0.36790496  1
  Mg  Mg6  1  0.36665853  0.87956386  0.37050084  1
  Mg  Mg7  1  0.12424594  0.12767251  0.62420843  1
  Mg  Mg8  1  0.86535720  0.13079594  0.88076650  1
  Mg  Mg9  1  0.62466231  0.87096416  0.87966872  1
  Mg  Mg10  1  0.62878642  0.87455193  0.63015447  1
  Mg  Mg11  1  0.37782148  0.38232874  0.61265954  1
  Mg  Mg12  1  0.87451345  0.87115429  0.87628359  1
  Mg  Mg13  1  0.12703171  0.86684206  0.87244994  1
  Mg  Mg14  1  0.88455888  0.38948739  0.63111485  1
  Mg  Mg15  1  0.12110559  0.37575898  0.62302006  1
  Mg  Mg16  1  0.63042087  0.13047536  0.37753363  1
  Mg  Mg17  1  0.61841628  0.38219000  0.63276399  1
  Mg  Mg18  1  0.12483862  0.62372029  0.11774584  1
  Mg  Mg19  1  0.17213018  0.71414354  0.44664245  1
  Mg  Mg20  1  0.19997577  0.53316426  0.31454657  1
  Mg  Mg21  1  -0.04226173  0.49810776  0.77755888  1
  Mg  Mg22  1  0.25704980  -0.01171077  0.20959429  1
  Mg  Mg23  1  0.73828652  0.53184486  0.23300150  1
  Mg  Mg24  1  0.52142111  0.48541423  0.50088467  1
  Mg  Mg25  1  0.73341222  0.26615671  0.05763681  1
  Mg  Mg26  1  0.20246905  0.21335568  0.00471302  1
  Mg  Mg27  1  0.24174563  0.49343385  -0.06541689  1
  Mg  Mg28  1  -0.04057116  0.80547366  0.03727802  1
  Mg  Mg29  1  0.00412461  0.00369410  0.49883142  1
  Mg  Mg30  1  0.01052465  0.54994100  0.44396076  1
  Mg  Mg31  1  0.72675335  0.46116331  0.00273517  1
  Ti  Ti32  1  0.37361979  0.87470666  0.88247363  1
  Ti  Ti33  1  0.61429981  0.86980876  0.13022891  1
  Ti  Ti34  1  0.87575629  0.62353464  0.89566684  1
  Ti  Ti35  1  0.62790229  0.36089433  0.87793293  1
  Ti  Ti36  1  0.87612983  0.61662359  0.63579814  1
  Ti  Ti37  1  0.87046311  0.36972925  0.89001347  1
  Ti  Ti38  1  0.62197226  0.62766433  0.63574942  1
  Ti  Ti39  1  0.13513433  0.88916995  0.35608105  1
  Ti  Ti40  1  0.62975130  0.12247134  0.61829450  1
  Ti  Ti41  1  0.62625156  0.62360420  0.88659336  1
  Ti  Ti42  1  0.87683582  0.61805146  0.12719633  1
  Ti  Ti43  1  0.11996217  0.36975762  0.87631919  1
  Ti  Ti44  1  0.64218075  0.63104686  0.37275277  1
  Ti  Ti45  1  0.11837192  0.62221423  0.87332212  1
  Ti  Ti46  1  0.14797296  0.37682716  0.12254390  1
  Ti  Ti47  1  0.39181100  0.60863788  0.60960705  1
  Ti  Ti48  1  0.86413083  0.37890469  0.12791559  1
  Ti  Ti49  1  0.61924764  0.37925241  0.13642879  1
  Ti  Ti50  1  0.88349870  0.38863678  0.38516971  1
  Ti  Ti51  1  0.88176271  0.12501075  0.37862799  1
  Ti  Ti52  1  0.38377557  0.86885537  0.62327798  1
  Ti  Ti53  1  0.13176975  0.84691297  0.60949030  1
  Ti  Ti54  1  0.36248638  0.36523439  0.87887102  1
  Ti  Ti55  1  0.12876700  0.12530805  0.86629614  1
  Ti  Ti56  1  0.12705757  0.86832754  0.10904947  1
  Ti  Ti57  1  0.37094177  0.87900578  0.12859410  1
  Ti  Ti58  1  0.37485793  0.11279974  0.61841712  1
  Ti  Ti59  1  0.88265754  0.87411724  0.38044759  1
  Ti  Ti60  1  0.11059547  0.62562986  0.63497074  1
  Ti  Ti61  1  0.63313810  0.12216401  0.87863672  1
  Ti  Ti62  1  0.36791996  0.12066241  0.86654715  1
  Ti  Ti63  1  0.62485547  0.13025938  0.12976831  1
  Ti  Ti64  1  0.86434656  0.13688690  0.12404589  1
  Ti  Ti65  1  0.11559081  0.36901876  0.37075748  1
  Ti  Ti66  1  0.62394447  0.61454960  0.12267749  1
  Ti  Ti67  1  0.37207002  0.60597223  0.13169687  1
  Ti  Ti68  1  0.37760390  0.11819041  0.12214226  1
  Ti  Ti69  1  0.12216986  0.11095843  0.12522655  1
  Ti  Ti70  1  0.36564842  0.39439378  0.37334254  1
  Ti  Ti71  1  0.37633668  0.36514266  0.13330464  1
  Ti  Ti72  1  0.36846542  0.11560217  0.38326702  1
  Ti  Ti73  1  0.36901322  0.63117358  0.38615632  1
  Bi  Bi74  1  0.75918597  0.26932766  0.28718940  1
  Bi  Bi75  1  0.75015672  0.75726788  0.76939440  1
  Bi  Bi76  1  -0.00763818  -0.00519923  -0.04962765  1
  Bi  Bi77  1  0.25365687  0.21811969  0.24089869  1
  Bi  Bi78  1  -0.03101255  0.73072575  0.50268050  1
  Bi  Bi79  1  -0.00594114  0.22135131  -0.00413040  1
  Bi  Bi80  1  0.53900252  -0.00990937  0.75391862  1
  Bi  Bi81  1  0.49484844  0.75472740  0.76772628  1
  Bi  Bi82  1  0.50198057  0.27709998  0.49336221  1
  Bi  Bi83  1  0.48746801  0.73690072  0.02481765  1
  Bi  Bi84  1  0.21888696  0.00009690  0.49549385  1
  Bi  Bi85  1  0.20681927  0.50981089  0.50582456  1
  Bi  Bi86  1  0.77676666  -0.01946796  0.03009059  1
  Bi  Bi87  1  0.72834142  0.50990056  0.51647254  1
  Bi  Bi88  1  0.78308602  -0.00286557  0.50901113  1
  Bi  Bi89  1  0.74821837  0.23662477  0.74299553  1
  Bi  Bi90  1  0.23673432  0.72742069  0.23335274  1
  Bi  Bi91  1  0.24671499  0.26861565  0.72606674  1
  Bi  Bi92  1  0.78909084  -0.00042306  0.75006298  1
  Bi  Bi93  1  0.50312323  0.76678426  0.48403081  1
  Bi  Bi94  1  0.49113243  0.22856907  -0.02598128  1
  Bi  Bi95  1  0.22448939  0.24516341  0.49100984  1
  Bi  Bi96  1  -0.00397403  0.26478277  0.74172883  1
  Bi  Bi97  1  0.75034780  -0.00165628  0.27709505  1
  Bi  Bi98  1  -0.00598192  0.23691789  0.51567514  1
  Bi  Bi99  1  0.74755249  0.75262838  0.00325520  1
  Bi  Bi100  1  0.03227561  0.49158768  0.00244084  1
  Bi  Bi101  1  0.52447939  -0.00907699  0.00902646  1
  Bi  Bi102  1  0.02148296  0.72445864  0.26451507  1
  Bi  Bi103  1  0.47948598  0.74342215  0.26463262  1
  Bi  Bi104  1  0.47849215  0.25206312  0.72810176  1
  Bi  Bi105  1  0.25052448  -0.01487757  0.72337774  1
  Bi  Bi106  1  0.01109183  0.48515350  0.22273114  1
  Bi  Bi107  1  0.46887266  0.48213906  0.00154986  1
  Bi  Bi108  1  0.27090532  0.74792622  0.75183264  1
  Bi  Bi109  1  0.52496275  -0.00253895  0.49765543  1
  Bi  Bi110  1  0.24791190  0.51138679  0.73010956  1
  Bi  Bi111  1  0.75429354  0.28926809  0.52350624  1
  Bi  Bi112  1  0.73683594  0.48924378  0.77229477  1
  Bi  Bi113  1  0.24722883  -0.00658296  -0.02013017  1
  Bi  Bi114  1  0.47304012  0.50393546  0.78456866  1
  Bi  Bi115  1  0.51024464  0.51083040  0.28274783  1
  Bi  Bi116  1  0.26538281  0.70937209  -0.01320497  1
  Bi  Bi117  1  0.50936059  0.01701798  0.27133240  1
  Bi  Bi118  1  0.77880909  0.76362573  0.21705457  1
  Bi  Bi119  1  -0.03159055  -0.04055141  0.22622752  1
  Bi  Bi120  1  -0.00629349  0.23884722  0.24537037  1
  Bi  Bi121  1  0.73977589  0.76637567  0.51607819  1
  Bi  Bi122  1  0.02330375  -0.02795238  0.72095155  1
  Bi  Bi123  1  0.48640830  0.25795974  0.26933984  1
  Bi  Bi124  1  -0.01218218  0.74559594  0.78403271  1
  O  O125  1  0.10515971  0.12621157  0.00533486  1
  O  O126  1  0.14005852  0.12815490  0.24292948  1
  O  O127  1  0.11236921  0.16023850  0.49559657  1
  O  O128  1  0.14530547  0.13390027  0.75455097  1
  O  O129  1  0.15091817  0.41198744  0.00201416  1
  O  O130  1  0.11101126  0.37982025  0.24420163  1
  O  O131  1  0.14304453  0.36247665  0.49199158  1
  O  O132  1  0.11101912  0.35242953  0.76006362  1
  O  O133  1  0.10927814  0.62128734  -0.00894918  1
  O  O134  1  0.14664796  0.62409642  0.24695600  1
  O  O135  1  0.11421452  0.62134629  0.50867843  1
  O  O136  1  0.14872263  0.61416740  0.74626976  1
  O  O137  1  0.08817639  0.86321091  0.00111865  1
  O  O138  1  0.15387918  0.91458226  0.24792480  1
  O  O139  1  0.12259512  0.82607302  0.49658452  1
  O  O140  1  0.14384744  0.89366342  0.73852604  1
  O  O141  1  0.39304014  0.13832456  0.00747997  1
  O  O142  1  0.33028728  0.09879409  0.24401145  1
  O  O143  1  0.39226249  0.13054842  0.50075195  1
  O  O144  1  0.35458600  0.11060346  0.75524479  1
  O  O145  1  0.37994693  0.36749769  0.00334790  1
  O  O146  1  0.39580917  0.38397086  0.24998539  1
  O  O147  1  0.37456363  0.35127158  0.48602127  1
  O  O148  1  0.39512841  0.38119661  0.76177032  1
  O  O149  1  0.38275694  0.64362423  0.00755865  1
  O  O150  1  0.37137283  0.61497619  0.24932950  1
  O  O151  1  0.38991266  0.65277349  0.49708753  1
  O  O152  1  0.37564529  0.58865477  0.73256791  1
  O  O153  1  0.40160459  0.85856206  -0.00575530  1
  O  O154  1  0.34815098  0.89647289  0.23937263  1
  O  O155  1  0.40156479  0.85855165  0.50785600  1
  O  O156  1  0.33650933  0.87905105  0.74982036  1
  O  O157  1  0.59251041  0.13859693  0.00229853  1
  O  O158  1  0.63465993  0.10013210  0.24219278  1
  O  O159  1  0.60233761  0.12308673  0.50384070  1
  O  O160  1  0.64204220  0.11216049  0.75586471  1
  O  O161  1  0.66020440  0.35331935  -0.00560069  1
  O  O162  1  0.61992691  0.41237173  0.24613644  1
  O  O163  1  0.60459989  0.37057333  0.50143711  1
  O  O164  1  0.62354919  0.40165356  0.75945481  1
  O  O165  1  0.62983909  0.64775797  0.00216066  1
  O  O166  1  0.62070579  0.59397681  0.24285095  1
  O  O167  1  0.64933313  0.63944731  0.49228823  1
  O  O168  1  0.63675608  0.60608149  0.74949298  1
  O  O169  1  0.59241272  0.86918665  0.00249429  1
  O  O170  1  0.64333424  0.89388092  0.24133537  1
  O  O171  1  0.59947153  0.86683810  0.50146101  1
  O  O172  1  0.64200259  0.89842935  0.75428774  1
  O  O173  1  0.89932934  0.11230390  0.00796114  1
  O  O174  1  0.87142641  0.16214528  0.24291950  1
  O  O175  1  0.90991455  0.10094314  0.49328435  1
  O  O176  1  0.84377335  0.13545722  0.75439525  1
  O  O177  1  0.84145715  0.40592002  0.00195869  1
  O  O178  1  0.88882912  0.35060549  0.24698198  1
  O  O179  1  0.87319735  0.37854808  0.50017356  1
  O  O180  1  0.90971736  0.37556756  0.76665821  1
  O  O181  1  0.88049535  0.59941520  0.00746758  1
  O  O182  1  0.87468975  0.66924603  0.24835507  1
  O  O183  1  0.90889460  0.60718701  0.51020428  1
  O  O184  1  0.86167743  0.66367427  0.74707442  1
  O  O185  1  0.89374809  0.90394098  -0.00044599  1
  O  O186  1  0.85739117  0.87627757  0.25533020  1
  O  O187  1  0.91012547  0.91518811  0.49080928  1
  O  O188  1  0.84858774  0.85635042  0.75090793  1
  O  O189  1  -0.00039639  0.13735854  0.13969471  1
  O  O190  1  -0.00345675  0.15490027  0.35551419  1
  O  O191  1  -0.00187066  0.16244643  0.63303714  1
  O  O192  1  0.00750689  0.13270665  0.87162447  1
  O  O193  1  -0.01648729  0.40214563  0.11174376  1
  O  O194  1  0.00277556  0.34362522  0.37765670  1
  O  O195  1  0.00124480  0.33564962  0.62396503  1
  O  O196  1  0.00349791  0.38211699  0.90849402  1
  O  O197  1  -0.00743420  0.61284961  0.14483227  1
  O  O198  1  -0.00351072  0.65571495  0.37831737  1
  O  O199  1  0.00278344  0.65636919  0.64562017  1
  O  O200  1  -0.00462545  0.60738924  0.84177979  1
  O  O201  1  0.00901910  0.85873401  0.14378312  1
  O  O202  1  -0.00043823  0.86431317  0.33671619  1
  O  O203  1  0.01158959  0.85594068  0.64410416  1
  O  O204  1  0.00251900  0.89202069  0.84490964  1
  O  O205  1  0.24212192  0.14713313  0.10560763  1
  O  O206  1  0.25194058  0.10877630  0.40076240  1
  O  O207  1  0.25645722  0.09927749  0.61056665  1
  O  O208  1  0.24975670  0.13044363  0.91145232  1
  O  O209  1  0.25862156  0.36646008  0.14055100  1
  O  O210  1  0.25472538  0.42132833  0.35593514  1
  O  O211  1  0.25599723  0.39050850  0.64886101  1
  O  O212  1  0.24962508  0.38287061  0.86753866  1
  O  O213  1  0.25652333  0.63688466  0.11039653  1
  O  O214  1  0.25239432  0.61657530  0.39787731  1
  O  O215  1  0.26796074  0.58774812  0.61198172  1
  O  O216  1  0.24159466  0.61427127  0.89197337  1
  O  O217  1  0.25140907  0.87085603  0.09770639  1
  O  O218  1  0.24446079  0.90142662  0.39610469  1
  O  O219  1  0.24658224  0.89820142  0.60754859  1
  O  O220  1  0.25253665  0.87122950  0.90118587  1
  O  O221  1  0.49385389  0.11032069  0.14711700  1
  O  O222  1  0.49454202  0.13656563  0.34458929  1
  O  O223  1  0.49877932  0.14103741  0.64606906  1
  O  O224  1  0.48867875  0.13202123  0.86943519  1
  O  O225  1  0.50458372  0.38510701  0.11194865  1
  O  O226  1  0.49636473  0.35307943  0.37239304  1
  O  O227  1  0.49828835  0.33888986  0.62370303  1
  O  O228  1  0.51447995  0.39165191  0.89618594  1
  O  O229  1  0.50065051  0.61756065  0.11907156  1
  O  O230  1  0.50472081  0.64498493  0.36032128  1
  O  O231  1  0.50901339  0.65088607  0.62935989  1
  O  O232  1  0.51597512  0.59731175  0.88267849  1
  O  O233  1  0.49573227  0.90210523  0.13629258  1
  O  O234  1  0.50023599  0.84089485  0.36297816  1
  O  O235  1  0.49508283  0.85869600  0.65978323  1
  O  O236  1  0.49039138  0.87618689  0.83996844  1
  O  O237  1  0.74490252  0.14750838  0.10394172  1
  O  O238  1  0.75768456  0.10082850  0.37721797  1
  O  O239  1  0.74550569  0.09735181  0.61158711  1
  O  O240  1  0.73998871  0.12783118  0.90361642  1
  O  O241  1  0.74550620  0.36521625  0.13878155  1
  O  O242  1  0.76223551  0.38781684  0.36574061  1
  O  O243  1  0.74786002  0.40178389  0.61155161  1
  O  O244  1  0.75755092  0.36606390  0.84807647  1
  O  O245  1  0.74324858  0.63342435  0.14192069  1
  O  O246  1  0.74861556  0.58643326  0.35009660  1
  O  O247  1  0.75895989  0.59511704  0.61990100  1
  O  O248  1  0.76172302  0.65779543  0.88346976  1
  O  O249  1  0.73641671  0.86645645  0.09601046  1
  O  O250  1  0.75901709  0.90478742  0.39188818  1
  O  O251  1  0.75446703  0.88802105  0.59071955  1
  O  O252  1  0.75050507  0.84298590  0.89659202  1
  O  O253  1  0.14026354  -0.00067205  0.11499284  1
  O  O254  1  0.09784600  -0.00438894  0.41027155  1
  O  O255  1  0.09328543  0.00113266  0.59195654  1
  O  O256  1  0.13783879  0.00640029  0.88112779  1
  O  O257  1  0.11960529  0.26811678  0.09798375  1
  O  O258  1  0.16337751  0.25882572  0.36156713  1
  O  O259  1  0.16363978  0.25133804  0.62299073  1
  O  O260  1  0.13329117  0.25481661  0.90403545  1
  O  O261  1  0.11356176  0.49843958  0.13005293  1
  O  O262  1  0.10484473  0.49162746  0.38559292  1
  O  O263  1  0.12275082  0.50263410  0.62289126  1
  O  O264  1  0.12533169  0.49576678  0.86943445  1
  O  O265  1  0.13558851  0.75380776  0.13945223  1
  O  O266  1  0.14422084  0.76688143  0.33804583  1
  O  O267  1  0.16028400  0.73938070  0.63636073  1
  O  O268  1  0.11525260  0.74004136  0.85364142  1
  O  O269  1  0.35033713  0.00353077  0.10524669  1
  O  O270  1  0.40469107  0.00335451  0.37848028  1
  O  O271  1  0.39113324  -0.00499195  0.62675035  1
  O  O272  1  0.36270056  -0.00072540  0.89173370  1
  O  O273  1  0.38352370  0.24731251  0.14851376  1
  O  O274  1  0.36403706  0.23863049  0.34271812  1
  O  O275  1  0.36109344  0.24106415  0.64780940  1
  O  O276  1  0.37434830  0.24837797  0.86979412  1
  O  O277  1  0.37059774  0.49519264  0.11199957  1
  O  O278  1  0.40447060  0.50429755  0.39263720  1
  O  O279  1  0.42355773  0.50179528  0.58365911  1
  O  O280  1  0.37498760  0.48982118  0.89146262  1
  O  O281  1  0.39349215  0.75901225  0.13335453  1
  O  O282  1  0.36441802  0.74569922  0.34983182  1
  O  O283  1  0.36076805  0.74890548  0.64936968  1
  O  O284  1  0.37518912  0.75303422  0.85215357  1
  O  O285  1  0.63456696  0.00741543  0.09592799  1
  O  O286  1  0.60088580  -0.00169899  0.37941617  1
  O  O287  1  0.60079470  0.00181963  0.62050658  1
  O  O288  1  0.60791343  0.00374878  0.88985345  1
  O  O289  1  0.61969768  0.25350999  0.13742309  1
  O  O290  1  0.64160192  0.25460834  0.36018553  1
  O  O291  1  0.65466197  0.24458535  0.63258266  1
  O  O292  1  0.61160737  0.24916479  0.86018282  1
  O  O293  1  0.64484225  0.49901983  0.09587268  1
  O  O294  1  0.59134527  0.50681604  0.39510183  1
  O  O295  1  0.61087991  0.51140727  0.59305136  1
  O  O296  1  0.67231526  0.50659767  0.89537396  1
  O  O297  1  0.60627037  0.75283576  0.13580614  1
  O  O298  1  0.65634655  0.74294106  0.35348592  1
  O  O299  1  0.65979141  0.74456970  0.63202790  1
  O  O300  1  0.60887587  0.74176076  0.85555021  1
  O  O301  1  0.84847965  0.01793512  0.14568013  1
  O  O302  1  0.89044311  0.00837644  0.34336689  1
  O  O303  1  0.88803087  -0.00281700  0.65044220  1
  O  O304  1  0.87150903  0.00281275  0.86361371  1
  O  O305  1  0.86892147  0.26059721  0.09470004  1
  O  O306  1  0.84817871  0.24332566  0.39378865  1
  O  O307  1  0.83673270  0.25446455  0.62927536  1
  O  O308  1  0.88312921  0.25725937  0.89881774  1
  O  O309  1  0.84914908  0.50553715  0.16715567  1
  O  O310  1  0.91286320  0.49762696  0.37377266  1
  O  O311  1  0.90694589  0.51090139  0.66422681  1
  O  O312  1  0.86205478  0.50991829  0.85836020  1
  O  O313  1  0.86445037  0.74233739  0.10002570  1
  O  O314  1  0.86317119  0.76229595  0.40861353  1
  O  O315  1  0.85762942  0.74698629  0.59076709  1
  O  O316  1  0.91587132  0.74563670  0.90708669  1
