# generated using pymatgen
data_Mg32Ti42(Bi17O64)3
_symmetry_space_group_name_H-M   'P 1'
_cell_length_a   15.94718443
_cell_length_b   15.90637662
_cell_length_c   15.95958691
_cell_angle_alpha   89.97235858
_cell_angle_beta   90.06790505
_cell_angle_gamma   90.05573702
_symmetry_Int_Tables_number   1
_chemical_formula_structural   Mg32Ti42(Bi17O64)3
_chemical_formula_sum   'Mg32 Ti42 Bi51 O192'
_cell_volume   4048.33425634
_cell_formula_units_Z   1
loop_
 _symmetry_equiv_pos_site_id
 _symmetry_equiv_pos_as_xyz
  1  'x, y, z'
loop_
 _atom_site_type_symbol
 _atom_site_label
 _atom_site_symmetry_multiplicity
 _atom_site_fract_x
 _atom_site_fract_y
 _atom_site_fract_z
 _atom_site_occupancy
  Mg  Mg0  1  0.37843568  0.86499410  0.36217767  1
  Mg  Mg1  1  0.37795193  0.62905797  0.60898115  1
  Mg  Mg2  1  0.38154611  0.12498076  0.13407389  1
  Mg  Mg3  1  0.61890956  0.39581200  0.12741266  1
  Mg  Mg4  1  0.37834856  0.37585906  0.88703641  1
  Mg  Mg5  1  0.37866190  0.36459836  0.37303005  1
  Mg  Mg6  1  0.13545109  0.37734058  0.63015313  1
  Mg  Mg7  1  0.87587934  0.12969581  0.62458788  1
  Mg  Mg8  1  0.12753320  0.37549725  0.37683339  1
  Mg  Mg9  1  0.87630254  0.13058726  0.37659084  1
  Mg  Mg10  1  0.62013141  0.37251193  0.36431412  1
  Mg  Mg11  1  0.62378814  0.87253380  0.12557698  1
  Mg  Mg12  1  0.62952073  0.87818765  0.36712012  1
  Mg  Mg13  1  0.88439231  0.86995862  0.11772973  1
  Mg  Mg14  1  0.13155786  0.11803200  0.37606691  1
  Mg  Mg15  1  0.86830804  0.62302236  0.62898296  1
  Mg  Mg16  1  0.37128175  0.87619861  0.62559891  1
  Mg  Mg17  1  0.37581407  0.11449927  0.86782638  1
  Mg  Mg18  1  0.62184029  0.37047280  0.62474834  1
  Mg  Mg19  1  0.25532079  0.22616791  0.47428145  1
  Mg  Mg20  1  0.01190428  0.69645604  0.26772416  1
  Mg  Mg21  1  0.51079812  0.75496099  0.69931506  1
  Mg  Mg22  1  0.28112993  0.77681166  0.49225845  1
  Mg  Mg23  1  0.51441993  0.74818024  0.25413307  1
  Mg  Mg24  1  0.54839748  0.25189441  0.20319453  1
  Mg  Mg25  1  -0.00101728  0.68942793  -0.01670240  1
  Mg  Mg26  1  0.49051585  0.46065480  0.23562744  1
  Mg  Mg27  1  0.81708205  0.02822031  0.02829056  1
  Mg  Mg28  1  0.75157510  0.24515870  0.71499964  1
  Mg  Mg29  1  0.79601014  0.47732717  0.20694301  1
  Mg  Mg30  1  0.29327660  0.20430678  -0.00093027  1
  Mg  Mg31  1  0.25587969  -0.02573973  0.43618853  1
  Ti  Ti32  1  0.37146146  0.86215035  0.12438405  1
  Ti  Ti33  1  0.87776419  0.37707998  0.86689599  1
  Ti  Ti34  1  0.13490616  0.12406897  0.62945377  1
  Ti  Ti35  1  0.35718353  0.11756426  0.62786016  1
  Ti  Ti36  1  0.88699008  0.87887278  0.62075857  1
  Ti  Ti37  1  0.87559863  0.12620484  0.86253443  1
  Ti  Ti38  1  0.12584322  0.61914139  0.12221079  1
  Ti  Ti39  1  0.86709337  0.61805168  0.36967030  1
  Ti  Ti40  1  0.37547932  0.36351680  0.12400129  1
  Ti  Ti41  1  0.87338844  0.63244224  0.87272110  1
  Ti  Ti42  1  0.13576447  0.36801217  0.12343382  1
  Ti  Ti43  1  0.12479839  0.13501992  0.88319971  1
  Ti  Ti44  1  0.88230299  0.87498707  0.36334317  1
  Ti  Ti45  1  0.62698581  0.12308805  0.62012211  1
  Ti  Ti46  1  0.62310481  0.36706603  0.86932020  1
  Ti  Ti47  1  0.11519022  0.87354504  0.37623630  1
  Ti  Ti48  1  0.36701768  0.63494510  0.37432305  1
  Ti  Ti49  1  0.87075999  0.36981153  0.62373349  1
  Ti  Ti50  1  0.86630232  0.88770919  0.87692386  1
  Ti  Ti51  1  0.63298324  0.87599616  0.61442575  1
  Ti  Ti52  1  0.87198504  0.36830797  0.37886224  1
  Ti  Ti53  1  0.62126684  0.12331992  0.35922843  1
  Ti  Ti54  1  0.38237196  0.87305642  0.87092944  1
  Ti  Ti55  1  0.61801326  0.62160241  0.36388374  1
  Ti  Ti56  1  0.37603527  0.63491933  0.13547570  1
  Ti  Ti57  1  0.62890175  0.62878088  0.61606853  1
  Ti  Ti58  1  0.62617797  0.63498324  0.86468601  1
  Ti  Ti59  1  0.12172904  0.86706208  0.12376717  1
  Ti  Ti60  1  0.63436003  0.61012115  0.14327523  1
  Ti  Ti61  1  0.12341672  0.37603048  0.88404680  1
  Ti  Ti62  1  0.63366327  0.11612066  0.86782486  1
  Ti  Ti63  1  0.61913311  0.87893480  0.87846584  1
  Ti  Ti64  1  0.13842440  0.13618322  0.11930291  1
  Ti  Ti65  1  0.12738365  0.85908655  0.61083819  1
  Ti  Ti66  1  0.12053166  0.61337639  0.87243214  1
  Ti  Ti67  1  0.12497431  0.62262186  0.62426648  1
  Ti  Ti68  1  0.61825834  0.11538829  0.10915064  1
  Ti  Ti69  1  0.12887004  0.61655977  0.38391939  1
  Ti  Ti70  1  0.37775079  0.36772891  0.62333269  1
  Ti  Ti71  1  0.38189751  0.63401275  0.88436826  1
  Ti  Ti72  1  0.36858529  0.11916509  0.36747628  1
  Ti  Ti73  1  0.88825834  0.63841159  0.12664954  1
  Bi  Bi74  1  0.50047498  -0.02807746  0.24816532  1
  Bi  Bi75  1  0.00183751  0.48621183  0.48979471  1
  Bi  Bi76  1  0.74842186  0.47406341  0.73286382  1
  Bi  Bi77  1  -0.03680321  0.23010817  0.00931601  1
  Bi  Bi78  1  0.48863166  -0.01817364  0.01913255  1
  Bi  Bi79  1  -0.01949144  0.03867845  0.22815556  1
  Bi  Bi80  1  0.22284900  0.00007104  0.23533017  1
  Bi  Bi81  1  -0.00040371  0.50339527  0.72745925  1
  Bi  Bi82  1  0.48971093  0.21576649  -0.01356069  1
  Bi  Bi83  1  -0.00049307  0.01706245  0.48286353  1
  Bi  Bi84  1  0.47191156  -0.02044753  0.49138658  1
  Bi  Bi85  1  0.24151883  0.25892328  0.27427186  1
  Bi  Bi86  1  -0.01711629  0.46904027  0.03020655  1
  Bi  Bi87  1  0.73488188  0.24881459  0.48270538  1
  Bi  Bi88  1  0.76470239  0.01329710  0.22130013  1
  Bi  Bi89  1  0.27891817  0.50093502  0.75341101  1
  Bi  Bi90  1  0.72453213  0.48917067  0.48298955  1
  Bi  Bi91  1  0.74376110  0.27719612  0.20605881  1
  Bi  Bi92  1  0.49368377  0.76198566  0.47693007  1
  Bi  Bi93  1  0.22431065  -0.03664786  0.77478261  1
  Bi  Bi94  1  0.27489630  0.73977658  0.72039822  1
  Bi  Bi95  1  0.48453732  0.22881743  0.74348674  1
  Bi  Bi96  1  0.50757104  -0.02894242  0.73414029  1
  Bi  Bi97  1  0.50174206  0.50865206  0.72255676  1
  Bi  Bi98  1  0.27088006  0.50681461  -0.00146806  1
  Bi  Bi99  1  0.74516123  0.75650997  0.47266083  1
  Bi  Bi100  1  0.76861693  0.76692502  0.23521061  1
  Bi  Bi101  1  0.03073480  0.25762053  0.74567743  1
  Bi  Bi102  1  0.02824966  0.77809120  0.79172965  1
  Bi  Bi103  1  0.76850027  0.76374387  0.74054207  1
  Bi  Bi104  1  0.76605367  0.01205904  0.47910731  1
  Bi  Bi105  1  0.22368484  0.76403330  -0.03123140  1
  Bi  Bi106  1  0.25930520  0.26111170  0.78941776  1
  Bi  Bi107  1  0.27200945  0.49991607  0.23754606  1
  Bi  Bi108  1  0.03707183  0.25210452  0.49756141  1
  Bi  Bi109  1  0.49213358  0.21695780  0.48632847  1
  Bi  Bi110  1  0.50075999  0.48990789  0.46611771  1
  Bi  Bi111  1  0.25823761  -0.00722540  0.00205108  1
  Bi  Bi112  1  0.74162904  0.77331431  -0.00877723  1
  Bi  Bi113  1  0.73948181  0.49927315  -0.02580366  1
  Bi  Bi114  1  0.22551183  0.74730550  0.26749134  1
  Bi  Bi115  1  0.74526692  0.25104242  -0.01545980  1
  Bi  Bi116  1  0.75652579  0.01831339  0.73058938  1
  Bi  Bi117  1  -0.02143726  0.72017094  0.50749546  1
  Bi  Bi118  1  0.26043706  0.46303233  0.49016699  1
  Bi  Bi119  1  0.52152989  0.73130072  0.02107811  1
  Bi  Bi120  1  -0.04468626  0.25032548  0.22084325  1
  Bi  Bi121  1  0.03011130  -0.02775091  -0.01972583  1
  Bi  Bi122  1  0.00592432  0.00859846  0.73342317  1
  Bi  Bi123  1  0.51187994  0.49442079  -0.02264263  1
  Bi  Bi124  1  -0.00500177  0.47460128  0.24471979  1
  O  O125  1  0.10218520  0.11300656  -0.00220574  1
  O  O126  1  0.15917277  0.13986824  0.24182597  1
  O  O127  1  0.09704288  0.11773452  0.51149239  1
  O  O128  1  0.14190880  0.15663638  0.75101050  1
  O  O129  1  0.10160408  0.39297630  0.00271949  1
  O  O130  1  0.14365635  0.35497699  0.24785597  1
  O  O131  1  0.09951376  0.38637975  0.50654929  1
  O  O132  1  0.13888928  0.34970301  0.75707563  1
  O  O133  1  0.09896338  0.61020007  0.00902170  1
  O  O134  1  0.13144349  0.64108622  0.25014085  1
  O  O135  1  0.11934929  0.61483509  0.50289957  1
  O  O136  1  0.12720379  0.64965066  0.76060663  1
  O  O137  1  0.14628599  0.90066176  0.00364081  1
  O  O138  1  0.13857592  0.87849156  0.24356787  1
  O  O139  1  0.13019501  0.89297514  0.49407590  1
  O  O140  1  0.12847534  0.86261142  0.73793339  1
  O  O141  1  0.39688526  0.11299252  -0.00389669  1
  O  O142  1  0.35072840  0.13362834  0.25791201  1
  O  O143  1  0.40054798  0.11310615  0.51828737  1
  O  O144  1  0.36421205  0.15646228  0.74770829  1
  O  O145  1  0.38373025  0.41156198  0.01430689  1
  O  O146  1  0.34177892  0.36792566  0.24791891  1
  O  O147  1  0.39074030  0.40010092  0.50455617  1
  O  O148  1  0.34816432  0.37058585  0.75196164  1
  O  O149  1  0.37916407  0.60298450  0.01293375  1
  O  O150  1  0.33613301  0.64148251  0.25225448  1
  O  O151  1  0.36835639  0.67115420  0.48908856  1
  O  O152  1  0.35152338  0.62937017  0.76956014  1
  O  O153  1  0.36346132  0.89900398  -0.00005056  1
  O  O154  1  0.39710063  0.86642234  0.23836585  1
  O  O155  1  0.37374351  0.87231480  0.49766600  1
  O  O156  1  0.40430031  0.86462257  0.75782538  1
  O  O157  1  0.59261196  0.10908981  -0.00479889  1
  O  O158  1  0.62717413  0.15067451  0.24859155  1
  O  O159  1  0.59802164  0.11071180  0.51068363  1
  O  O160  1  0.66001164  0.14447412  0.75790139  1
  O  O161  1  0.61488457  0.40640239  0.00190880  1
  O  O162  1  0.62841697  0.33821527  0.24623376  1
  O  O163  1  0.61340103  0.40713631  0.49913020  1
  O  O164  1  0.65337988  0.35819798  0.75741080  1
  O  O165  1  0.60546653  0.60029721  0.02220313  1
  O  O166  1  0.61696162  0.66356507  0.25498420  1
  O  O167  1  0.62126199  0.59927184  0.50347901  1
  O  O168  1  0.62356857  0.65647988  0.75696525  1
  O  O169  1  0.65021647  0.88610412  -0.00687869  1
  O  O170  1  0.58114476  0.85617636  0.24721698  1
  O  O171  1  0.65413984  0.88715075  0.50474728  1
  O  O172  1  0.58871693  0.85421992  0.75541508  1
  O  O173  1  0.90230327  0.10564864  -0.01706153  1
  O  O174  1  0.87821333  0.13303120  0.25139169  1
  O  O175  1  0.88292287  0.09335395  0.50065925  1
  O  O176  1  0.83277563  0.14518263  0.75176851  1
  O  O177  1  0.89996102  0.37106602  -0.01096862  1
  O  O178  1  0.86940070  0.37192185  0.25995536  1
  O  O179  1  0.89073692  0.40102082  0.50699005  1
  O  O180  1  0.83332753  0.35406199  0.75366823  1
  O  O181  1  0.89474454  0.61495558  0.01350174  1
  O  O182  1  0.88535526  0.66299681  0.25924832  1
  O  O183  1  0.88971448  0.61083265  0.49320309  1
  O  O184  1  0.86165880  0.64830739  0.76071970  1
  O  O185  1  0.84780928  0.90398997  -0.00735460  1
  O  O186  1  0.88739502  0.84476281  0.25309920  1
  O  O187  1  0.86492044  0.90616924  0.50831172  1
  O  O188  1  0.88247295  0.84236908  0.75194631  1
  O  O189  1  0.01606944  0.14675914  0.14398876  1
  O  O190  1  0.00398648  0.09841982  0.36944331  1
  O  O191  1  0.00295802  0.11946874  0.65314934  1
  O  O192  1  -0.00934590  0.11838165  0.83803617  1
  O  O193  1  0.00948562  0.37428889  0.14326009  1
  O  O194  1  -0.00372836  0.39728937  0.37660856  1
  O  O195  1  -0.01073942  0.38052787  0.65474805  1
  O  O196  1  -0.00959207  0.38466554  0.84238159  1
  O  O197  1  0.00086275  0.66647135  0.13864560  1
  O  O198  1  0.00671984  0.61299643  0.36751765  1
  O  O199  1  0.00064107  0.61119393  0.63044828  1
  O  O200  1  -0.00523023  0.61417355  0.87276394  1
  O  O201  1  0.01013710  0.87612823  0.09507717  1
  O  O202  1  -0.00004594  0.90166407  0.37623163  1
  O  O203  1  0.00244931  0.89380783  0.62109492  1
  O  O204  1  -0.01146015  0.88863352  0.87506336  1
  O  O205  1  0.25373242  0.11442864  0.09073588  1
  O  O206  1  0.25772127  0.11446371  0.41109096  1
  O  O207  1  0.24867461  0.15237095  0.59616458  1
  O  O208  1  0.23980474  0.14685537  0.89793594  1
  O  O209  1  0.24717545  0.41126661  0.11625354  1
  O  O210  1  0.25285602  0.35890717  0.40515888  1
  O  O211  1  0.25894603  0.37214515  0.60029376  1
  O  O212  1  0.23697152  0.36157655  0.89594738  1
  O  O213  1  0.24318928  0.59512237  0.11702363  1
  O  O214  1  0.24432829  0.66820637  0.38494714  1
  O  O215  1  0.24487487  0.64252729  0.62770762  1
  O  O216  1  0.23862117  0.63563325  0.90562520  1
  O  O217  1  0.25637896  0.90862038  0.12295260  1
  O  O218  1  0.25069383  0.84873859  0.38418640  1
  O  O219  1  0.24590392  0.83777758  0.60865589  1
  O  O220  1  0.25780114  0.85405283  0.86218895  1
  O  O221  1  0.50384024  0.16105571  0.13012691  1
  O  O222  1  0.49717394  0.12621996  0.37533999  1
  O  O223  1  0.50942908  0.12418582  0.66130324  1
  O  O224  1  0.50700286  0.14127062  0.85458838  1
  O  O225  1  0.48925826  0.35798452  0.15404399  1
  O  O226  1  0.49559066  0.40911878  0.35320776  1
  O  O227  1  0.49798477  0.38988455  0.65002915  1
  O  O228  1  0.50698742  0.38921945  0.86726015  1
  O  O229  1  0.48441182  0.67163887  0.15099248  1
  O  O230  1  0.50002472  0.60215188  0.37166733  1
  O  O231  1  0.50292986  0.62181734  0.64004871  1
  O  O232  1  0.49901127  0.61601396  0.87707349  1
  O  O233  1  0.49315475  0.85366285  0.09016139  1
  O  O234  1  0.50678603  0.88337485  0.40081745  1
  O  O235  1  0.50280995  0.89484701  0.61238362  1
  O  O236  1  0.50172437  0.88411066  0.90031696  1
  O  O237  1  0.73334532  0.08355193  0.10306109  1
  O  O238  1  0.74291635  0.13559058  0.39755234  1
  O  O239  1  0.74672057  0.09520971  0.60779495  1
  O  O240  1  0.74572869  0.12454707  0.91254297  1
  O  O241  1  0.74481672  0.39147655  0.13209319  1
  O  O242  1  0.75193479  0.36926684  0.40191293  1
  O  O243  1  0.74958004  0.40107456  0.61200810  1
  O  O244  1  0.74718803  0.37353893  0.90656720  1
  O  O245  1  0.74661301  0.58785858  0.15096572  1
  O  O246  1  0.75165312  0.64730849  0.38225338  1
  O  O247  1  0.74335865  0.64086479  0.61963413  1
  O  O248  1  0.74671785  0.63585256  0.90066730  1
  O  O249  1  0.74503452  0.88625019  0.16301532  1
  O  O250  1  0.75448712  0.84560426  0.36509501  1
  O  O251  1  0.74904523  0.87404521  0.64982218  1
  O  O252  1  0.74706353  0.85037181  0.85473933  1
  O  O253  1  0.12044333  0.01126098  0.14196643  1
  O  O254  1  0.15428819  -0.00799038  0.36097245  1
  O  O255  1  0.13719324  0.00802829  0.65109930  1
  O  O256  1  0.12895261  0.01253749  0.86161784  1
  O  O257  1  0.15142404  0.25620693  0.10320010  1
  O  O258  1  0.13900788  0.24420631  0.40454004  1
  O  O259  1  0.10400102  0.25090979  0.61584497  1
  O  O260  1  0.09407465  0.25327448  0.88620574  1
  O  O261  1  0.09878959  0.50617128  0.14698138  1
  O  O262  1  0.15018090  0.50590898  0.37226202  1
  O  O263  1  0.12773104  0.50631299  0.64975484  1
  O  O264  1  0.13013212  0.49729737  0.86123326  1
  O  O265  1  0.14789427  0.75528025  0.11337490  1
  O  O266  1  0.09799408  0.75816071  0.35542246  1
  O  O267  1  0.09905458  0.74942702  0.61121286  1
  O  O268  1  0.09730367  0.74149291  0.91014090  1
  O  O269  1  0.40901146  -0.00302372  0.13509793  1
  O  O270  1  0.37114924  -0.00391649  0.38056203  1
  O  O271  1  0.35610817  0.00596388  0.64893214  1
  O  O272  1  0.35234103  -0.00848517  0.86160622  1
  O  O273  1  0.35460920  0.25637954  0.09596895  1
  O  O274  1  0.37153331  0.23939988  0.40579677  1
  O  O275  1  0.39926598  0.25433010  0.61861702  1
  O  O276  1  0.37100647  0.25086554  0.90123373  1
  O  O277  1  0.39135143  0.51169458  0.16918366  1
  O  O278  1  0.34876185  0.51702727  0.37872063  1
  O  O279  1  0.37208857  0.50446884  0.64973778  1
  O  O280  1  0.35441698  0.50400005  0.87282111  1
  O  O281  1  0.33936810  0.75088190  0.11287379  1
  O  O282  1  0.42770111  0.74435661  0.35341807  1
  O  O283  1  0.39119227  0.74958372  0.64606487  1
  O  O284  1  0.38005965  0.74828973  0.90193390  1
  O  O285  1  0.58719583  0.00005912  0.13828111  1
  O  O286  1  0.63526280  0.00790435  0.35379556  1
  O  O287  1  0.62418275  -0.00389880  0.65364981  1
  O  O288  1  0.62588618  -0.00175426  0.85164911  1
  O  O289  1  0.64966053  0.23999906  0.10534744  1
  O  O290  1  0.61761723  0.24752600  0.40737757  1
  O  O291  1  0.65206002  0.24239412  0.61690975  1
  O  O292  1  0.62911189  0.25252367  0.90212252  1
  O  O293  1  0.58553865  0.51047741  0.17016224  1
  O  O294  1  0.64683678  0.50784498  0.36434299  1
  O  O295  1  0.62633344  0.51026330  0.65735168  1
  O  O296  1  0.63895361  0.50749290  0.87202888  1
  O  O297  1  0.63932177  0.74292480  0.09596279  1
  O  O298  1  0.61621753  0.74317954  0.40696344  1
  O  O299  1  0.60731706  0.75537356  0.61309897  1
  O  O300  1  0.61819283  0.74780060  0.90707004  1
  O  O301  1  0.87666635  -0.00458412  0.14192841  1
  O  O302  1  0.84891739  -0.00896932  0.35802301  1
  O  O303  1  0.87858019  -0.00349515  0.66262407  1
  O  O304  1  0.85681071  0.00001905  0.84837839  1
  O  O305  1  0.87542321  0.24736057  0.11270020  1
  O  O306  1  0.88230409  0.25689186  0.39586832  1
  O  O307  1  0.84995797  0.25626324  0.61677703  1
  O  O308  1  0.87336910  0.24633139  0.89315592  1
  O  O309  1  0.90125272  0.51573199  0.15073948  1
  O  O310  1  0.85468730  0.50831607  0.34345798  1
  O  O311  1  0.87284253  0.49819934  0.66249660  1
  O  O312  1  0.85163595  0.49848109  0.87483434  1
  O  O313  1  0.84024736  0.74817337  0.11259611  1
  O  O314  1  0.88701114  0.75866679  0.40978603  1
  O  O315  1  0.88374324  0.75715687  0.60191714  1
  O  O316  1  0.89312999  0.74525296  0.90515085  1
