# generated using pymatgen
data_Mg32Ti42(Bi17O64)3
_symmetry_space_group_name_H-M   'P 1'
_cell_length_a   15.90841137
_cell_length_b   15.90931462
_cell_length_c   15.90420417
_cell_angle_alpha   90.08698677
_cell_angle_beta   89.82700257
_cell_angle_gamma   90.03402821
_symmetry_Int_Tables_number   1
_chemical_formula_structural   Mg32Ti42(Bi17O64)3
_chemical_formula_sum   'Mg32 Ti42 Bi51 O192'
_cell_volume   4025.20190847
_cell_formula_units_Z   1
loop_
 _symmetry_equiv_pos_site_id
 _symmetry_equiv_pos_as_xyz
  1  'x, y, z'
loop_
 _atom_site_type_symbol
 _atom_site_label
 _atom_site_symmetry_multiplicity
 _atom_site_fract_x
 _atom_site_fract_y
 _atom_site_fract_z
 _atom_site_occupancy
  Mg  Mg0  1  0.37538195  0.37751765  0.62858453  1
  Mg  Mg1  1  0.88056711  0.62198779  0.62316129  1
  Mg  Mg2  1  0.12741998  0.37223218  0.12654061  1
  Mg  Mg3  1  0.38203961  0.36256269  0.11842352  1
  Mg  Mg4  1  0.13524373  0.62252641  0.12234806  1
  Mg  Mg5  1  0.37326594  0.38444561  0.38062010  1
  Mg  Mg6  1  0.37391839  0.63340985  0.14062089  1
  Mg  Mg7  1  0.87343737  0.88107965  0.88242664  1
  Mg  Mg8  1  0.86547858  0.87586349  0.13122598  1
  Mg  Mg9  1  0.61579604  0.86969401  0.86603616  1
  Mg  Mg10  1  0.36457782  0.88014501  0.62601708  1
  Mg  Mg11  1  0.87942233  0.37652190  0.87450160  1
  Mg  Mg12  1  0.62485074  0.62268258  0.62954778  1
  Mg  Mg13  1  0.37099505  0.63580706  0.87062837  1
  Mg  Mg14  1  0.87402224  0.12597374  0.12293202  1
  Mg  Mg15  1  0.86445468  0.63405387  0.37247945  1
  Mg  Mg16  1  0.12827101  0.87574997  0.13543327  1
  Mg  Mg17  1  0.87107865  0.61472387  0.12264527  1
  Mg  Mg18  1  0.61506961  0.62672958  0.13260184  1
  Mg  Mg19  1  0.50100464  -0.04552015  0.54922937  1
  Mg  Mg20  1  0.74456905  0.74036453  0.18002872  1
  Mg  Mg21  1  -0.02594730  -0.01862923  0.47920549  1
  Mg  Mg22  1  0.23451518  0.01934643  0.74944109  1
  Mg  Mg23  1  0.25704948  -0.03988307  0.30725073  1
  Mg  Mg24  1  0.70393635  0.00782365  -0.03484534  1
  Mg  Mg25  1  0.26018362  0.44569215  0.02108870  1
  Mg  Mg26  1  0.21549693  0.77325123  0.48348862  1
  Mg  Mg27  1  0.22318066  0.19480003  -0.06525825  1
  Mg  Mg28  1  0.50787950  0.77352826  0.26573477  1
  Mg  Mg29  1  0.26051426  0.50640954  0.51935176  1
  Mg  Mg30  1  0.46668814  0.75413283  0.74297651  1
  Mg  Mg31  1  0.54622368  0.27210021  0.75527507  1
  Ti  Ti32  1  0.13053483  0.39728931  0.61671992  1
  Ti  Ti33  1  0.11985064  0.86233274  0.90459098  1
  Ti  Ti34  1  0.62239299  0.88381603  0.38265683  1
  Ti  Ti35  1  0.88913858  0.12334814  0.62820376  1
  Ti  Ti36  1  0.89047861  0.12126428  0.38452307  1
  Ti  Ti37  1  0.61920881  0.63510473  0.86724050  1
  Ti  Ti38  1  0.37399665  0.11519011  0.63195828  1
  Ti  Ti39  1  0.63138683  0.87589561  0.63414526  1
  Ti  Ti40  1  0.60737507  0.12759740  0.62122840  1
  Ti  Ti41  1  0.14141463  0.61568987  0.38389052  1
  Ti  Ti42  1  0.38441243  0.86394619  0.38874241  1
  Ti  Ti43  1  0.11939148  0.12195263  0.61567727  1
  Ti  Ti44  1  0.36802815  0.12585711  0.12484035  1
  Ti  Ti45  1  0.13432991  0.11914635  0.13453399  1
  Ti  Ti46  1  0.36646282  0.13089108  0.87098583  1
  Ti  Ti47  1  0.11096907  0.88174372  0.37271899  1
  Ti  Ti48  1  0.62136654  0.37817025  0.37793697  1
  Ti  Ti49  1  0.86362206  0.37002936  0.10653309  1
  Ti  Ti50  1  0.87572487  0.62248920  0.88043752  1
  Ti  Ti51  1  0.62939873  0.38514807  0.87717547  1
  Ti  Ti52  1  0.88414634  0.12477459  0.88030526  1
  Ti  Ti53  1  0.12733824  0.63819437  0.62769130  1
  Ti  Ti54  1  0.38373194  0.87235283  0.86210694  1
  Ti  Ti55  1  0.85720981  0.87058949  0.37608891  1
  Ti  Ti56  1  0.61970185  0.12777694  0.38547725  1
  Ti  Ti57  1  0.12780004  0.37432232  0.88262496  1
  Ti  Ti58  1  0.12637317  0.62856899  0.87882217  1
  Ti  Ti59  1  0.37188959  0.11632929  0.37811477  1
  Ti  Ti60  1  0.13398539  0.12381050  0.36425121  1
  Ti  Ti61  1  0.88165769  0.38562009  0.63095949  1
  Ti  Ti62  1  0.61686571  0.63881325  0.37812753  1
  Ti  Ti63  1  0.36267922  0.63318879  0.62963367  1
  Ti  Ti64  1  0.37072391  0.63508273  0.37845174  1
  Ti  Ti65  1  0.12336153  0.88350049  0.61629746  1
  Ti  Ti66  1  0.38160151  0.36756825  0.87539662  1
  Ti  Ti67  1  0.62560496  0.38002183  0.62890147  1
  Ti  Ti68  1  0.88460626  0.87968759  0.61763824  1
  Ti  Ti69  1  0.14253323  0.38953100  0.37887860  1
  Ti  Ti70  1  0.37214519  0.87618160  0.13976957  1
  Ti  Ti71  1  0.62754490  0.88185880  0.13515276  1
  Ti  Ti72  1  0.63892651  0.12176907  0.12419639  1
  Ti  Ti73  1  0.62103941  0.36616144  0.11961006  1
  Bi  Bi74  1  -0.02243533  -0.01148934  0.23845417  1
  Bi  Bi75  1  -0.00249193  0.75647163  0.76595361  1
  Bi  Bi76  1  0.76271668  0.73322403  0.51894141  1
  Bi  Bi77  1  0.00212200  0.26680522  0.46723416  1
  Bi  Bi78  1  0.47261900  0.50837712  0.49907966  1
  Bi  Bi79  1  0.53482260  0.22248926  -0.01687997  1
  Bi  Bi80  1  0.49935859  0.00927700  0.26539035  1
  Bi  Bi81  1  0.50330382  0.26605755  0.25844772  1
  Bi  Bi82  1  -0.00574161  0.74285750  0.24320501  1
  Bi  Bi83  1  0.75866917  0.01783630  0.51756753  1
  Bi  Bi84  1  0.74401520  0.51509551  0.23164921  1
  Bi  Bi85  1  0.03356558  0.00605123  0.78624556  1
  Bi  Bi86  1  0.00243290  0.72848410  0.48988003  1
  Bi  Bi87  1  0.52701078  0.03865226  0.78664171  1
  Bi  Bi88  1  -0.02474567  0.50100015  0.24794934  1
  Bi  Bi89  1  0.73549221  0.78158515  -0.01345928  1
  Bi  Bi90  1  0.50020301  0.75051321  0.03932277  1
  Bi  Bi91  1  0.49845684  0.51781825  0.25211507  1
  Bi  Bi92  1  0.24781118  0.78806295  0.75267654  1
  Bi  Bi93  1  0.76928264  0.00794923  0.76797825  1
  Bi  Bi94  1  0.46308677  0.51733087  0.01096178  1
  Bi  Bi95  1  0.51012382  0.74091623  0.53504315  1
  Bi  Bi96  1  0.74864363  0.23366107  0.73487173  1
  Bi  Bi97  1  0.49479925  -0.00866238  0.01524240  1
  Bi  Bi98  1  0.00276988  0.00459078  0.01911412  1
  Bi  Bi99  1  0.76501847  0.27131140  0.50583820  1
  Bi  Bi100  1  -0.02196365  0.49141086  0.47652754  1
  Bi  Bi101  1  0.24304354  0.00761539  0.51133848  1
  Bi  Bi102  1  0.76956646  0.28412886  0.26527654  1
  Bi  Bi103  1  0.03122430  0.50260862  0.02011042  1
  Bi  Bi104  1  0.27374779  0.74807060  0.00755455  1
  Bi  Bi105  1  0.26032967  0.48285234  0.21405507  1
  Bi  Bi106  1  0.24976556  0.50305906  0.77985014  1
  Bi  Bi107  1  0.24628275  0.25630030  0.51558203  1
  Bi  Bi108  1  0.49962038  0.26693804  0.51554909  1
  Bi  Bi109  1  0.24691223  0.26868173  0.74067091  1
  Bi  Bi110  1  0.75243502  0.51208822  0.76144659  1
  Bi  Bi111  1  -0.00158366  0.26147760  0.74963966  1
  Bi  Bi112  1  0.26105704  0.00428312  -0.02020287  1
  Bi  Bi113  1  -0.00739944  0.28426893  0.24032269  1
  Bi  Bi114  1  -0.02467917  0.75112831  0.03376135  1
  Bi  Bi115  1  0.74815096  0.23223558  -0.03742724  1
  Bi  Bi116  1  0.21952201  0.74608500  0.24642830  1
  Bi  Bi117  1  0.74916984  0.02849218  0.26737110  1
  Bi  Bi118  1  0.27466145  0.26234352  0.25545891  1
  Bi  Bi119  1  0.02415444  0.23086600  0.01680625  1
  Bi  Bi120  1  -0.00792918  0.50381617  0.77428984  1
  Bi  Bi121  1  0.76201300  0.76794072  0.74821983  1
  Bi  Bi122  1  0.75037729  0.51264092  0.48716653  1
  Bi  Bi123  1  0.72527056  0.51895887  0.01148132  1
  Bi  Bi124  1  0.48780488  0.52550798  0.76290721  1
  O  O125  1  0.13961917  0.15492740  0.01420741  1
  O  O126  1  0.10217880  0.10638615  0.25214832  1
  O  O127  1  0.16109031  0.13446906  0.49615595  1
  O  O128  1  0.12202894  0.09552724  0.73131776  1
  O  O129  1  0.10003791  0.36461405  -0.00533007  1
  O  O130  1  0.14005069  0.40049575  0.26248965  1
  O  O131  1  0.11580379  0.35015107  0.50242590  1
  O  O132  1  0.15801264  0.38611877  0.73672894  1
  O  O133  1  0.09909554  0.63482756  -0.00814654  1
  O  O134  1  0.15438345  0.61172758  0.26714010  1
  O  O135  1  0.13427674  0.66940430  0.49785423  1
  O  O136  1  0.13726838  0.60904665  0.74042398  1
  O  O137  1  0.09435396  0.84889885  0.01260957  1
  O  O138  1  0.16143129  0.89012376  0.25893168  1
  O  O139  1  0.11000256  0.84895844  0.48861717  1
  O  O140  1  0.15078109  0.91767598  0.72728478  1
  O  O141  1  0.33078652  0.13284113  -0.00707167  1
  O  O142  1  0.39155251  0.09540103  0.23441556  1
  O  O143  1  0.35432255  0.13965082  0.48842896  1
  O  O144  1  0.38586298  0.11245216  0.74947248  1
  O  O145  1  0.38434887  0.37517749  -0.00840226  1
  O  O146  1  0.35442123  0.38999282  0.25308803  1
  O  O147  1  0.40973754  0.36888736  0.50180017  1
  O  O148  1  0.33879034  0.38216734  0.75411334  1
  O  O149  1  0.39754870  0.64395309  -0.00429736  1
  O  O150  1  0.36865550  0.59146486  0.26503131  1
  O  O151  1  0.40507948  0.64642835  0.50746714  1
  O  O152  1  0.36120279  0.59960592  0.74522396  1
  O  O153  1  0.39377274  0.83202406  -0.00822479  1
  O  O154  1  0.35458252  0.89989505  0.24698776  1
  O  O155  1  0.41180910  0.86772800  0.49840217  1
  O  O156  1  0.32992608  0.90675134  0.75602157  1
  O  O157  1  0.65340829  0.13637821  -0.00305533  1
  O  O158  1  0.60685044  0.10445051  0.23840934  1
  O  O159  1  0.63195622  0.13272045  0.49923890  1
  O  O160  1  0.59473702  0.14896808  0.74280695  1
  O  O161  1  0.60928203  0.37928243  -0.00016340  1
  O  O162  1  0.64954561  0.36315781  0.25092712  1
  O  O163  1  0.60833872  0.35972258  0.50028933  1
  O  O164  1  0.63600465  0.36655529  0.74946556  1
  O  O165  1  0.61798735  0.61796217  -0.00785751  1
  O  O166  1  0.62678142  0.59846814  0.25972230  1
  O  O167  1  0.59631758  0.63423466  0.49903762  1
  O  O168  1  0.65511594  0.61649219  0.75279743  1
  O  O169  1  0.60888717  0.84407722  0.00328226  1
  O  O170  1  0.63816933  0.90521079  0.24461597  1
  O  O171  1  0.59797305  0.88489098  0.49481729  1
  O  O172  1  0.66190279  0.88085909  0.74440222  1
  O  O173  1  0.85898064  0.14762133  -0.00709614  1
  O  O174  1  0.88067268  0.09462224  0.26605016  1
  O  O175  1  0.85096253  0.14485797  0.50589864  1
  O  O176  1  0.89426289  0.08793189  0.74216950  1
  O  O177  1  0.88949075  0.35485695  -0.00255784  1
  O  O178  1  0.86540499  0.38388904  0.24304859  1
  O  O179  1  0.88822687  0.34350089  0.51340546  1
  O  O180  1  0.86668029  0.40528422  0.74664131  1
  O  O181  1  0.88480905  0.64472701  -0.00495978  1
  O  O182  1  0.86641934  0.59333206  0.25208087  1
  O  O183  1  0.88195538  0.65596336  0.49781802  1
  O  O184  1  0.86200952  0.59637119  0.74732685  1
  O  O185  1  0.88657842  0.84695483  0.00426605  1
  O  O186  1  0.85845719  0.91150582  0.26322877  1
  O  O187  1  0.90013115  0.86215738  0.49930236  1
  O  O188  1  0.84648566  0.88848586  0.74339721  1
  O  O189  1  0.00208379  0.11781344  0.09723091  1
  O  O190  1  -0.00024403  0.09284892  0.41029352  1
  O  O191  1  0.00399040  0.14385237  0.60759722  1
  O  O192  1  -0.00127704  0.10353548  0.89069128  1
  O  O193  1  -0.00326266  0.40357294  0.14261409  1
  O  O194  1  0.01439839  0.38518972  0.38234838  1
  O  O195  1  0.00399661  0.36512481  0.64751811  1
  O  O196  1  0.01123936  0.37033029  0.83627773  1
  O  O197  1  0.00210903  0.58752822  0.13837849  1
  O  O198  1  0.01809695  0.60611036  0.38991426  1
  O  O199  1  0.00866573  0.64873921  0.61504179  1
  O  O200  1  -0.00279305  0.63843717  0.84465953  1
  O  O201  1  -0.00217578  0.86279943  0.17002109  1
  O  O202  1  -0.00050467  0.91021344  0.36890355  1
  O  O203  1  -0.00134883  0.87088966  0.64245670  1
  O  O204  1  0.00075689  0.86489080  0.85400725  1
  O  O205  1  0.24799247  0.12832429  0.14733870  1
  O  O206  1  0.25109212  0.13372869  0.34243368  1
  O  O207  1  0.25375158  0.08338145  0.63640195  1
  O  O208  1  0.25373877  0.08926447  0.85741011  1
  O  O209  1  0.25192504  0.36919398  0.12373275  1
  O  O210  1  0.25038986  0.34353311  0.38462783  1
  O  O211  1  0.24870006  0.39619485  0.58623133  1
  O  O212  1  0.24239704  0.41402746  0.89806448  1
  O  O213  1  0.25564562  0.66531552  0.12338887  1
  O  O214  1  0.25855718  0.66532872  0.39481205  1
  O  O215  1  0.25344267  0.60911689  0.59995023  1
  O  O216  1  0.24213121  0.61574201  0.88265418  1
  O  O217  1  0.26013313  0.84485126  0.10792692  1
  O  O218  1  0.26692262  0.85225362  0.39432959  1
  O  O219  1  0.24163578  0.87678307  0.58275189  1
  O  O220  1  0.24092777  0.86319720  0.90504250  1
  O  O221  1  0.49241790  0.11245013  0.08256218  1
  O  O222  1  0.49551751  0.10076332  0.37387710  1
  O  O223  1  0.49387608  0.14685057  0.60838119  1
  O  O224  1  0.48502610  0.12394074  0.89103447  1
  O  O225  1  0.50724978  0.37836315  0.14796855  1
  O  O226  1  0.50300704  0.38118412  0.34572502  1
  O  O227  1  0.50838349  0.33297062  0.64238369  1
  O  O228  1  0.48821384  0.33975485  0.84807468  1
  O  O229  1  0.49506380  0.59628353  0.13330868  1
  O  O230  1  0.49804802  0.59876702  0.36747280  1
  O  O231  1  0.49823394  0.66242849  0.65214507  1
  O  O232  1  0.50450566  0.64765518  0.83532504  1
  O  O233  1  0.50098887  0.89859373  0.12587399  1
  O  O234  1  0.50328443  0.88267536  0.34299439  1
  O  O235  1  0.51058280  0.85848825  0.64290248  1
  O  O236  1  0.49212560  0.85882742  0.82988260  1
  O  O237  1  0.74978520  0.12484482  0.15154694  1
  O  O238  1  0.73979873  0.13627789  0.35925766  1
  O  O239  1  0.75519526  0.11101911  0.65240935  1
  O  O240  1  0.75958509  0.14362450  0.85134749  1
  O  O241  1  0.74936803  0.33966063  0.11370083  1
  O  O242  1  0.74106302  0.34524373  0.38818840  1
  O  O243  1  0.75261986  0.37841164  0.60934619  1
  O  O244  1  0.74295619  0.40390369  0.88507014  1
  O  O245  1  0.74164392  0.62560529  0.12962489  1
  O  O246  1  0.73763525  0.63095386  0.40416068  1
  O  O247  1  0.74966639  0.61589032  0.59176802  1
  O  O248  1  0.75632822  0.59520489  0.88199965  1
  O  O249  1  0.74305060  0.84876325  0.11684387  1
  O  O250  1  0.74321654  0.85898603  0.38912290  1
  O  O251  1  0.75264212  0.89994503  0.59462953  1
  O  O252  1  0.74377350  0.89045544  0.91117952  1
  O  O253  1  0.12129133  0.00229278  0.10301084  1
  O  O254  1  0.15757866  -0.00495299  0.38716170  1
  O  O255  1  0.10788116  -0.00261434  0.57386752  1
  O  O256  1  0.11747148  -0.02128467  0.89329566  1
  O  O257  1  0.09344149  0.24964826  0.14176892  1
  O  O258  1  0.10710793  0.23912058  0.36514937  1
  O  O259  1  0.15238707  0.23881435  0.63004489  1
  O  O260  1  0.14896506  0.26223662  0.85968396  1
  O  O261  1  0.15310252  0.49921343  0.08565213  1
  O  O262  1  0.16719895  0.50244006  0.41648434  1
  O  O263  1  0.11532564  0.50654713  0.59940937  1
  O  O264  1  0.10063102  0.50510374  0.87431995  1
  O  O265  1  0.11147282  0.74383946  0.15979787  1
  O  O266  1  0.10688977  0.75782159  0.34713697  1
  O  O267  1  0.13735021  0.75738537  0.64527634  1
  O  O268  1  0.12184245  0.74988784  0.84723898  1
  O  O269  1  0.36671696  -0.00934710  0.08679394  1
  O  O270  1  0.35873785  -0.00342279  0.37857945  1
  O  O271  1  0.39812283  0.00463548  0.60078554  1
  O  O272  1  0.38062827  -0.01192866  0.90558015  1
  O  O273  1  0.38125204  0.23964799  0.14850755  1
  O  O274  1  0.38712787  0.24017500  0.33869999  1
  O  O275  1  0.34034477  0.24134986  0.62687164  1
  O  O276  1  0.33567190  0.24553880  0.86906024  1
  O  O277  1  0.35180960  0.50346159  0.09462454  1
  O  O278  1  0.35407904  0.51169027  0.42555638  1
  O  O279  1  0.39337908  0.50830608  0.61121508  1
  O  O280  1  0.40027436  0.49694330  0.87182331  1
  O  O281  1  0.41814690  0.76013303  0.15788421  1
  O  O282  1  0.40729103  0.74868459  0.35318676  1
  O  O283  1  0.35728992  0.75293317  0.65878439  1
  O  O284  1  0.36187694  0.75632217  0.83483504  1
  O  O285  1  0.64002079  -0.00154923  0.08420954  1
  O  O286  1  0.63729551  0.00140654  0.37735398  1
  O  O287  1  0.60270613  0.00652518  0.62074745  1
  O  O288  1  0.61722472  -0.00261035  0.87678845  1
  O  O289  1  0.60753991  0.23981094  0.11638960  1
  O  O290  1  0.59560614  0.24195471  0.36766850  1
  O  O291  1  0.65299011  0.24340169  0.62330782  1
  O  O292  1  0.62908549  0.26203737  0.87902155  1
  O  O293  1  0.64585149  0.48733992  0.12584479  1
  O  O294  1  0.64038393  0.49025655  0.38859366  1
  O  O295  1  0.60643199  0.49115735  0.62481637  1
  O  O296  1  0.58994200  0.49828163  0.86556400  1
  O  O297  1  0.60762644  0.75613652  0.16099433  1
  O  O298  1  0.60230282  0.75002503  0.35581384  1
  O  O299  1  0.65005068  0.75954617  0.61728703  1
  O  O300  1  0.65187765  0.74542553  0.86744080  1
  O  O301  1  0.89721284  -0.00345116  0.11659504  1
  O  O302  1  0.85358451  -0.00100665  0.41176894  1
  O  O303  1  0.88963472  0.00403268  0.58716434  1
  O  O304  1  0.85130087  0.00810686  0.88621005  1
  O  O305  1  0.90147845  0.25183306  0.14269441  1
  O  O306  1  0.90192502  0.23560329  0.36191503  1
  O  O307  1  0.87286198  0.24393923  0.65997826  1
  O  O308  1  0.89102431  0.24558577  0.84046190  1
  O  O309  1  0.83724006  0.49036147  0.10734157  1
  O  O310  1  0.86541291  0.50705168  0.40556597  1
  O  O311  1  0.88787635  0.49533285  0.59525637  1
  O  O312  1  0.90836332  0.50548049  0.88571846  1
  O  O313  1  0.87714080  0.74250653  0.14759118  1
  O  O314  1  0.89069524  0.76056560  0.35608596  1
  O  O315  1  0.85271836  0.75943849  0.63578498  1
  O  O316  1  0.86734240  0.74589190  0.84308236  1
