# generated using pymatgen
data_Mg32Ti42(Bi17O64)3
_symmetry_space_group_name_H-M   'P 1'
_cell_length_a   15.94833285
_cell_length_b   15.94205163
_cell_length_c   15.96872252
_cell_angle_alpha   90.01957520
_cell_angle_beta   89.90756021
_cell_angle_gamma   89.92589690
_symmetry_Int_Tables_number   1
_chemical_formula_structural   Mg32Ti42(Bi17O64)3
_chemical_formula_sum   'Mg32 Ti42 Bi51 O192'
_cell_volume   4060.02513893
_cell_formula_units_Z   1
loop_
 _symmetry_equiv_pos_site_id
 _symmetry_equiv_pos_as_xyz
  1  'x, y, z'
loop_
 _atom_site_type_symbol
 _atom_site_label
 _atom_site_symmetry_multiplicity
 _atom_site_fract_x
 _atom_site_fract_y
 _atom_site_fract_z
 _atom_site_occupancy
  Mg  Mg0  1  0.62833761  0.61618726  0.37301318  1
  Mg  Mg1  1  0.12467715  0.62144449  0.11742061  1
  Mg  Mg2  1  0.38144145  0.11218284  0.62899717  1
  Mg  Mg3  1  0.36983496  0.88596054  0.13082093  1
  Mg  Mg4  1  0.36982992  0.62272727  0.37340887  1
  Mg  Mg5  1  0.87101947  0.37680556  0.62793091  1
  Mg  Mg6  1  0.12875731  0.88597206  0.87695132  1
  Mg  Mg7  1  0.63185607  0.37624620  0.87989959  1
  Mg  Mg8  1  0.37458983  0.61826078  0.12540991  1
  Mg  Mg9  1  0.37300405  0.10730753  0.87695032  1
  Mg  Mg10  1  0.87129827  0.86992366  0.62222292  1
  Mg  Mg11  1  0.12865268  0.12038825  0.62391833  1
  Mg  Mg12  1  0.88361617  0.63102484  0.37860239  1
  Mg  Mg13  1  0.86320102  0.12864922  0.62387570  1
  Mg  Mg14  1  0.62742309  0.86929730  0.13741349  1
  Mg  Mg15  1  0.62089620  0.11165782  0.87372603  1
  Mg  Mg16  1  0.11918256  0.13825265  0.13381112  1
  Mg  Mg17  1  0.12505328  0.88183450  0.36551378  1
  Mg  Mg18  1  0.37654970  0.62418744  0.61912769  1
  Mg  Mg19  1  0.20904845  0.03992578  0.00598166  1
  Mg  Mg20  1  0.55822501  0.00835423  0.03038867  1
  Mg  Mg21  1  0.78519809  0.19401646  0.31376661  1
  Mg  Mg22  1  0.80375551  0.47921891  0.47193611  1
  Mg  Mg23  1  -0.00308508  0.00062041  0.06385930  1
  Mg  Mg24  1  0.46635539  -0.05334660  0.73948452  1
  Mg  Mg25  1  0.22202198  0.45385277  -0.00445976  1
  Mg  Mg26  1  -0.03847574  0.00263176  0.70380083  1
  Mg  Mg27  1  0.51875806  0.49045675  0.23343049  1
  Mg  Mg28  1  0.23887263  0.04883198  0.23764853  1
  Mg  Mg29  1  0.07345256  0.24817273  -0.00224075  1
  Mg  Mg30  1  0.29644589  0.24911138  0.20803193  1
  Mg  Mg31  1  0.74605650  0.52681433  -0.01485354  1
  Ti  Ti32  1  0.38175804  0.37768143  0.61913440  1
  Ti  Ti33  1  0.12765021  0.37017928  0.86545204  1
  Ti  Ti34  1  0.13339176  0.36772004  0.61957522  1
  Ti  Ti35  1  0.37612530  0.87423992  0.88604966  1
  Ti  Ti36  1  0.62801895  0.36865709  0.63323973  1
  Ti  Ti37  1  0.61712446  0.12956238  0.37184475  1
  Ti  Ti38  1  0.37887891  0.38445069  0.87271921  1
  Ti  Ti39  1  0.65160703  0.38406339  0.12344619  1
  Ti  Ti40  1  0.35896391  0.10720704  0.11914991  1
  Ti  Ti41  1  0.62006363  0.87641365  0.62000864  1
  Ti  Ti42  1  0.36884944  0.87211594  0.61453634  1
  Ti  Ti43  1  0.13178409  0.62930411  0.86826099  1
  Ti  Ti44  1  0.12531074  0.12261352  0.86999512  1
  Ti  Ti45  1  0.88194378  0.61887198  0.11401872  1
  Ti  Ti46  1  0.36916092  0.38554456  0.11749835  1
  Ti  Ti47  1  0.87402893  0.63410377  0.87471062  1
  Ti  Ti48  1  0.88490579  0.15413510  0.12051447  1
  Ti  Ti49  1  0.13823302  0.36346232  0.37655797  1
  Ti  Ti50  1  0.12704383  0.13112875  0.36920588  1
  Ti  Ti51  1  0.87755131  0.38904986  0.10424116  1
  Ti  Ti52  1  0.11748683  0.62232983  0.61760901  1
  Ti  Ti53  1  0.87159650  0.87117458  0.36460333  1
  Ti  Ti54  1  0.62526323  0.61732379  0.62052710  1
  Ti  Ti55  1  0.12851089  0.87751564  0.12393022  1
  Ti  Ti56  1  0.87979617  0.36759151  0.88099309  1
  Ti  Ti57  1  0.12121833  0.62388064  0.37878149  1
  Ti  Ti58  1  0.62830235  0.37922651  0.36687223  1
  Ti  Ti59  1  0.61382932  0.12109043  0.63193407  1
  Ti  Ti60  1  0.62879870  0.63716839  0.86615238  1
  Ti  Ti61  1  0.61434570  0.87817952  0.86783623  1
  Ti  Ti62  1  0.88795185  0.88032868  0.87344590  1
  Ti  Ti63  1  0.10893006  0.37147382  0.12363806  1
  Ti  Ti64  1  0.12844839  0.88869887  0.62461317  1
  Ti  Ti65  1  0.37548158  0.12200231  0.36720791  1
  Ti  Ti66  1  0.62437536  0.86775667  0.37148604  1
  Ti  Ti67  1  0.89445366  0.11479686  0.88477178  1
  Ti  Ti68  1  0.62174892  0.61527788  0.13959257  1
  Ti  Ti69  1  0.38111988  0.62599817  0.88903267  1
  Ti  Ti70  1  0.87092925  0.86639775  0.11510538  1
  Ti  Ti71  1  0.88108058  0.61907941  0.61701966  1
  Ti  Ti72  1  0.36912133  0.88023783  0.36721712  1
  Ti  Ti73  1  0.37055355  0.37169425  0.36512638  1
  Bi  Bi74  1  0.72487140  0.75175459  0.01295005  1
  Bi  Bi75  1  -0.04193143  0.01165828  0.50112713  1
  Bi  Bi76  1  0.51090180  0.27495718  0.22703661  1
  Bi  Bi77  1  0.26474797  0.52094117  0.75252321  1
  Bi  Bi78  1  0.01297605  0.51577493  -0.02327617  1
  Bi  Bi79  1  0.23270135  0.48401033  0.22565641  1
  Bi  Bi80  1  0.78823707  0.48441560  0.27858141  1
  Bi  Bi81  1  0.72959513  0.20955500  0.01230059  1
  Bi  Bi82  1  0.76818659  0.74027334  0.73271433  1
  Bi  Bi83  1  0.25452070  -0.00891904  0.76123096  1
  Bi  Bi84  1  0.24322899  0.74535244  0.48343517  1
  Bi  Bi85  1  0.25748934  0.51481481  0.51463904  1
  Bi  Bi86  1  0.75595538  -0.00067671  0.71922635  1
  Bi  Bi87  1  0.51976478  0.21768977  0.00124550  1
  Bi  Bi88  1  -0.05465639  0.24505672  0.48139429  1
  Bi  Bi89  1  0.49522013  0.73638883  0.72205885  1
  Bi  Bi90  1  0.75827463  0.02290444  0.21001752  1
  Bi  Bi91  1  0.49221502  0.50765165  0.46274471  1
  Bi  Bi92  1  0.76207985  0.23773576  0.77421399  1
  Bi  Bi93  1  0.47702607  0.73474226  0.24013885  1
  Bi  Bi94  1  0.71899162  0.25634444  0.51049058  1
  Bi  Bi95  1  0.48697874  0.25752864  0.48808245  1
  Bi  Bi96  1  -0.00068519  0.21491319  0.72148347  1
  Bi  Bi97  1  0.00388004  0.51487119  0.26623121  1
  Bi  Bi98  1  0.50058036  0.78483839  0.02078533  1
  Bi  Bi99  1  0.27559780  0.23957032  0.74611360  1
  Bi  Bi100  1  0.22983274  0.00769321  0.47685690  1
  Bi  Bi101  1  0.49947227  0.74003980  0.47684508  1
  Bi  Bi102  1  0.00633807  0.77558614  0.49110108  1
  Bi  Bi103  1  0.73492846  0.00548490  0.46410334  1
  Bi  Bi104  1  0.76454547  0.72564567  0.23761035  1
  Bi  Bi105  1  0.52000379  0.48764733  0.74110151  1
  Bi  Bi106  1  0.27546838  0.23973523  -0.01354209  1
  Bi  Bi107  1  0.51983546  0.01941194  0.21895106  1
  Bi  Bi108  1  -0.00463397  0.45883395  0.48973845  1
  Bi  Bi109  1  0.49037563  -0.00806416  0.48771328  1
  Bi  Bi110  1  0.00929106  0.48545849  0.73897588  1
  Bi  Bi111  1  0.50085986  0.22874587  0.78650774  1
  Bi  Bi112  1  0.26495359  0.22629558  0.51904972  1
  Bi  Bi113  1  0.02343571  0.76282392  -0.00095920  1
  Bi  Bi114  1  0.74541256  -0.02685433  -0.02520208  1
  Bi  Bi115  1  0.75444569  0.71946222  0.48207065  1
  Bi  Bi116  1  0.25812101  0.75863115  0.01410830  1
  Bi  Bi117  1  -0.01692030  0.04221127  0.27452730  1
  Bi  Bi118  1  0.76980768  0.48725546  0.77042299  1
  Bi  Bi119  1  0.01634084  0.78467867  0.74218523  1
  Bi  Bi120  1  0.53438619  0.50538028  -0.01901947  1
  Bi  Bi121  1  -0.03287507  0.28749879  0.27171350  1
  Bi  Bi122  1  0.24181745  0.73185201  0.23867258  1
  Bi  Bi123  1  0.00417459  0.76621338  0.24256996  1
  Bi  Bi124  1  0.26868970  0.75777374  0.76123404  1
  O  O125  1  0.14566583  0.14827467  0.00321663  1
  O  O126  1  0.12197847  0.09584912  0.25463928  1
  O  O127  1  0.15717186  0.13194039  0.49260996  1
  O  O128  1  0.11430988  0.11548597  0.75736501  1
  O  O129  1  0.13696837  0.35836173  0.00374241  1
  O  O130  1  0.10889638  0.39730373  0.24730302  1
  O  O131  1  0.13505369  0.37273187  0.49718358  1
  O  O132  1  0.12020755  0.38934597  0.74960797  1
  O  O133  1  0.09943486  0.63603079  -0.00946870  1
  O  O134  1  0.14945782  0.62152497  0.25360246  1
  O  O135  1  0.09536787  0.63261068  0.50126707  1
  O  O136  1  0.13588780  0.60381362  0.74888862  1
  O  O137  1  0.14014799  0.84010141  -0.00311236  1
  O  O138  1  0.10406113  0.87768929  0.23770965  1
  O  O139  1  0.12166008  0.86115021  0.50722486  1
  O  O140  1  0.12120330  0.88177454  0.74732578  1
  O  O141  1  0.32494119  0.10061967  0.00482296  1
  O  O142  1  0.38848838  0.14831356  0.25427003  1
  O  O143  1  0.34265818  0.10839939  0.50018258  1
  O  O144  1  0.38665519  0.15448855  0.75271141  1
  O  O145  1  0.34192095  0.40224166  0.00586135  1
  O  O146  1  0.37477442  0.33458163  0.25571076  1
  O  O147  1  0.38857448  0.39115692  0.49681398  1
  O  O148  1  0.38340218  0.36711101  0.75467918  1
  O  O149  1  0.38467676  0.61503938  -0.00104740  1
  O  O150  1  0.36104013  0.65817532  0.25430396  1
  O  O151  1  0.38484773  0.58895014  0.49754546  1
  O  O152  1  0.34832329  0.63579198  0.74414606  1
  O  O153  1  0.35134456  0.87376097  -0.00165514  1
  O  O154  1  0.39292983  0.85326839  0.25771903  1
  O  O155  1  0.36567681  0.90367781  0.50348206  1
  O  O156  1  0.38969144  0.84151307  0.74420843  1
  O  O157  1  0.62291954  0.12267814  0.00564146  1
  O  O158  1  0.58572991  0.13344954  0.26079923  1
  O  O159  1  0.65381177  0.13010200  0.50313730  1
  O  O160  1  0.59663414  0.13418300  0.74995990  1
  O  O161  1  0.64946070  0.42420448  0.00678792  1
  O  O162  1  0.62416700  0.35562158  0.24942794  1
  O  O163  1  0.61912276  0.35919091  0.49618438  1
  O  O164  1  0.60498808  0.37048585  0.74934972  1
  O  O165  1  0.63231121  0.60006509  0.01399072  1
  O  O166  1  0.65072852  0.64585394  0.25167369  1
  O  O167  1  0.60675509  0.61481164  0.50931815  1
  O  O168  1  0.63768657  0.64652385  0.75420820  1
  O  O169  1  0.64771590  0.87233456  0.00741135  1
  O  O170  1  0.60425289  0.86812396  0.26161448  1
  O  O171  1  0.64454057  0.88639595  0.50993162  1
  O  O172  1  0.58470306  0.88565446  0.75720501  1
  O  O173  1  0.86526291  0.14704829  0.00263619  1
  O  O174  1  0.87111587  0.12178306  0.24420033  1
  O  O175  1  0.87113761  0.12536926  0.49727646  1
  O  O176  1  0.89563635  0.10073844  0.76406871  1
  O  O177  1  0.86585220  0.35233908  -0.00622204  1
  O  O178  1  0.89824600  0.40815754  0.23353153  1
  O  O179  1  0.88353174  0.37438103  0.50235105  1
  O  O180  1  0.88457731  0.41175523  0.75039670  1
  O  O181  1  0.88918833  0.63993546  -0.00398128  1
  O  O182  1  0.85722879  0.61155360  0.24461529  1
  O  O183  1  0.88841205  0.65927367  0.50787316  1
  O  O184  1  0.84717258  0.60833904  0.75328732  1
  O  O185  1  0.84329901  0.85685582  -0.00292555  1
  O  O186  1  0.89041466  0.87152131  0.24713621  1
  O  O187  1  0.89323140  0.86984904  0.49642159  1
  O  O188  1  0.89433542  0.90343657  0.76000021  1
  O  O189  1  -0.00661262  0.10427812  0.12764924  1
  O  O190  1  0.01084578  0.14838620  0.36609719  1
  O  O191  1  0.00034352  0.10369220  0.63026156  1
  O  O192  1  0.00628699  0.11846157  0.90279549  1
  O  O193  1  -0.00066101  0.40660147  0.10079331  1
  O  O194  1  0.01658945  0.35988182  0.38627710  1
  O  O195  1  0.00788439  0.40384416  0.62167626  1
  O  O196  1  -0.00330993  0.40171375  0.88248734  1
  O  O197  1  -0.00621199  0.59224398  0.13826396  1
  O  O198  1  0.00623614  0.64425408  0.34610853  1
  O  O199  1  -0.00523124  0.59695199  0.63957531  1
  O  O200  1  -0.01238356  0.59817142  0.86234033  1
  O  O201  1  -0.00496459  0.88107071  0.09191860  1
  O  O202  1  -0.00288638  0.84493341  0.37172642  1
  O  O203  1  0.00680388  0.89836220  0.63344868  1
  O  O204  1  -0.00093060  0.87556433  0.89569874  1
  O  O205  1  0.24781114  0.14677174  0.15648066  1
  O  O206  1  0.25917828  0.09407524  0.35379967  1
  O  O207  1  0.25402000  0.15165650  0.64250791  1
  O  O208  1  0.24934799  0.15542729  0.86155005  1
  O  O209  1  0.24798275  0.35790318  0.15312611  1
  O  O210  1  0.25676681  0.39705798  0.36914412  1
  O  O211  1  0.25027251  0.35300561  0.62855109  1
  O  O212  1  0.24510083  0.37114748  0.87277211  1
  O  O213  1  0.24970421  0.66257909  0.11962342  1
  O  O214  1  0.24524401  0.62119462  0.40839257  1
  O  O215  1  0.24116812  0.63662863  0.58980085  1
  O  O216  1  0.24508233  0.63470719  0.87877626  1
  O  O217  1  0.24343560  0.84171670  0.12974793  1
  O  O218  1  0.25651512  0.89573185  0.36343498  1
  O  O219  1  0.25315619  0.84619845  0.63308700  1
  O  O220  1  0.25589132  0.87428094  0.84548375  1
  O  O221  1  0.47766138  0.08640988  0.10319487  1
  O  O222  1  0.49951439  0.13746496  0.40983723  1
  O  O223  1  0.50516485  0.10563341  0.60047141  1
  O  O224  1  0.49355852  0.13357237  0.88916590  1
  O  O225  1  0.48775192  0.39504298  0.14580201  1
  O  O226  1  0.50715819  0.33082371  0.36638870  1
  O  O227  1  0.49641017  0.40336957  0.62620070  1
  O  O228  1  0.49295864  0.39882444  0.89261297  1
  O  O229  1  0.50485610  0.60342610  0.16662111  1
  O  O230  1  0.49839009  0.63649756  0.37947315  1
  O  O231  1  0.50302066  0.61036880  0.65325908  1
  O  O232  1  0.49971317  0.62303588  0.87086761  1
  O  O233  1  0.49968453  0.90252645  0.09494344  1
  O  O234  1  0.50427800  0.86531799  0.40694655  1
  O  O235  1  0.49915951  0.90145933  0.61634946  1
  O  O236  1  0.49308499  0.87284664  0.89397824  1
  O  O237  1  0.76114861  0.13889321  0.13351157  1
  O  O238  1  0.73185848  0.08859960  0.34695764  1
  O  O239  1  0.74377213  0.12954680  0.65999143  1
  O  O240  1  0.75037544  0.14145652  0.87331168  1
  O  O241  1  0.76079671  0.36799682  0.13686067  1
  O  O242  1  0.73943190  0.40919663  0.38792770  1
  O  O243  1  0.74155898  0.36187995  0.63416843  1
  O  O244  1  0.75552695  0.35996821  0.84965447  1
  O  O245  1  0.75268715  0.64947746  0.11860861  1
  O  O246  1  0.75322559  0.60163413  0.41078607  1
  O  O247  1  0.74326394  0.65455239  0.61934794  1
  O  O248  1  0.74570635  0.63164672  0.89657342  1
  O  O249  1  0.75468450  0.83974231  0.13777805  1
  O  O250  1  0.74833777  0.89647877  0.37074556  1
  O  O251  1  0.74146602  0.86436815  0.65728767  1
  O  O252  1  0.74066922  0.89202883  0.86221300  1
  O  O253  1  0.12896372  -0.00810330  0.09178412  1
  O  O254  1  0.10850772  0.00718011  0.39734242  1
  O  O255  1  0.16102916  -0.00324557  0.61415390  1
  O  O256  1  0.15934561  0.01137734  0.89396290  1
  O  O257  1  0.08660571  0.25989331  0.12705113  1
  O  O258  1  0.15478208  0.25145171  0.35907303  1
  O  O259  1  0.10285364  0.25491143  0.63056976  1
  O  O260  1  0.10137182  0.25704865  0.87298310  1
  O  O261  1  0.16255489  0.49598102  0.10518797  1
  O  O262  1  0.11000924  0.50517859  0.37787248  1
  O  O263  1  0.14856707  0.50157572  0.61394143  1
  O  O264  1  0.13404779  0.49727376  0.90412970  1
  O  O265  1  0.09198628  0.74985142  0.12705620  1
  O  O266  1  0.14428301  0.74926827  0.37985803  1
  O  O267  1  0.10024775  0.74109043  0.63958181  1
  O  O268  1  0.10634192  0.74273504  0.85451250  1
  O  O269  1  0.33068028  0.00394308  0.16101177  1
  O  O270  1  0.40667534  0.00208656  0.36606420  1
  O  O271  1  0.36376280  -0.01347146  0.66325310  1
  O  O272  1  0.37737448  -0.01196591  0.83735954  1
  O  O273  1  0.37360271  0.24905334  0.10214342  1
  O  O274  1  0.36685020  0.24526145  0.40696934  1
  O  O275  1  0.38683525  0.25799470  0.60488942  1
  O  O276  1  0.38367786  0.26547033  0.89991158  1
  O  O277  1  0.35075965  0.49603805  0.15166607  1
  O  O278  1  0.41253838  0.48276504  0.34778275  1
  O  O279  1  0.34249765  0.49582536  0.63516906  1
  O  O280  1  0.36246483  0.50763549  0.85716437  1
  O  O281  1  0.40879995  0.75179459  0.11988467  1
  O  O282  1  0.36783461  0.75923621  0.40843293  1
  O  O283  1  0.40628734  0.75127391  0.60756343  1
  O  O284  1  0.36467639  0.74835196  0.87768890  1
  O  O285  1  0.63229545  -0.00172585  0.14120704  1
  O  O286  1  0.60841643  0.00159213  0.39600917  1
  O  O287  1  0.64406845  0.00147997  0.63567221  1
  O  O288  1  0.61374938  -0.00790579  0.90690025  1
  O  O289  1  0.61251128  0.27441688  0.09951969  1
  O  O290  1  0.67170780  0.23991641  0.37406296  1
  O  O291  1  0.61528929  0.24934015  0.61736661  1
  O  O292  1  0.60782203  0.25470112  0.90031115  1
  O  O293  1  0.63198951  0.49926596  0.16189402  1
  O  O294  1  0.59050932  0.48950473  0.34846824  1
  O  O295  1  0.63191406  0.50249181  0.64859332  1
  O  O296  1  0.62037874  0.50969821  0.86606553  1
  O  O297  1  0.60550892  0.74191672  0.10855006  1
  O  O298  1  0.63545574  0.75269729  0.39634272  1
  O  O299  1  0.59720711  0.75560511  0.62522681  1
  O  O300  1  0.62201702  0.75402391  0.89258861  1
  O  O301  1  0.86413836  -0.01332949  0.11293637  1
  O  O302  1  0.89268801  -0.00819906  0.37942706  1
  O  O303  1  0.85913429  -0.00191681  0.61759177  1
  O  O304  1  0.87400976  -0.00036864  0.90485878  1
  O  O305  1  0.89613397  0.26421478  0.13994757  1
  O  O306  1  0.87092404  0.26216575  0.36392725  1
  O  O307  1  0.89603536  0.25016770  0.63326334  1
  O  O308  1  0.88501520  0.25197538  0.84570765  1
  O  O309  1  0.84492657  0.50389350  0.08571120  1
  O  O310  1  0.89094940  0.50527776  0.37640665  1
  O  O311  1  0.84758651  0.51227012  0.58925542  1
  O  O312  1  0.83632714  0.49712365  0.89257576  1
  O  O313  1  0.89746567  0.74275505  0.13720638  1
  O  O314  1  0.84499284  0.75285596  0.37172151  1
  O  O315  1  0.88368840  0.74744096  0.65632558  1
  O  O316  1  0.87594895  0.75093216  0.85401879  1
