# generated using pymatgen
data_Mg32Ti42(Bi17O64)3
_symmetry_space_group_name_H-M   'P 1'
_cell_length_a   15.95517110
_cell_length_b   15.96382269
_cell_length_c   15.98547756
_cell_angle_alpha   89.98237673
_cell_angle_beta   90.11268824
_cell_angle_gamma   89.95948491
_symmetry_Int_Tables_number   1
_chemical_formula_structural   Mg32Ti42(Bi17O64)3
_chemical_formula_sum   'Mg32 Ti42 Bi51 O192'
_cell_volume   4071.58032704
_cell_formula_units_Z   1
loop_
 _symmetry_equiv_pos_site_id
 _symmetry_equiv_pos_as_xyz
  1  'x, y, z'
loop_
 _atom_site_type_symbol
 _atom_site_label
 _atom_site_symmetry_multiplicity
 _atom_site_fract_x
 _atom_site_fract_y
 _atom_site_fract_z
 _atom_site_occupancy
  Mg  Mg0  1  0.62451865  0.87829578  0.37600048  1
  Mg  Mg1  1  0.36443245  0.12189471  0.38502168  1
  Mg  Mg2  1  0.61748870  0.36729773  0.36550271  1
  Mg  Mg3  1  0.88973530  0.37165701  0.12158962  1
  Mg  Mg4  1  0.11796065  0.38062322  0.37396355  1
  Mg  Mg5  1  0.88631994  0.12260557  0.87874867  1
  Mg  Mg6  1  0.87043039  0.61280699  0.63173314  1
  Mg  Mg7  1  0.62555646  0.62250606  0.87520386  1
  Mg  Mg8  1  0.86416661  0.61982158  0.37657155  1
  Mg  Mg9  1  0.88699180  0.36489869  0.87340277  1
  Mg  Mg10  1  0.12402176  0.37657841  0.62363587  1
  Mg  Mg11  1  0.63803045  0.88131170  0.87312402  1
  Mg  Mg12  1  0.37912029  0.62435400  0.62517105  1
  Mg  Mg13  1  0.88110624  0.62199512  0.87685042  1
  Mg  Mg14  1  0.62246570  0.11774412  0.88082886  1
  Mg  Mg15  1  0.87025368  0.87979275  0.61669630  1
  Mg  Mg16  1  0.37877989  0.12208219  0.62353818  1
  Mg  Mg17  1  0.11787036  0.62781776  0.12950121  1
  Mg  Mg18  1  0.63617631  0.12353579  0.12650709  1
  Mg  Mg19  1  0.82402931  0.24672429  -0.00908513  1
  Mg  Mg20  1  -0.01737647  -0.05257603  0.05757557  1
  Mg  Mg21  1  0.81668186  -0.02776878  0.21372001  1
  Mg  Mg22  1  0.74874200  0.22022321  0.80660227  1
  Mg  Mg23  1  -0.05807387  0.22138669  0.74170848  1
  Mg  Mg24  1  0.74623827  0.45619832  0.45354448  1
  Mg  Mg25  1  0.74010978  0.25596659  0.43991423  1
  Mg  Mg26  1  -0.03118552  0.69478128  0.50698347  1
  Mg  Mg27  1  0.06315626  0.29023853  0.00382437  1
  Mg  Mg28  1  0.22425930  0.00929148  -0.04463124  1
  Mg  Mg29  1  0.21278074  0.50466333  0.23822774  1
  Mg  Mg30  1  0.48550231  0.05744720  0.04983526  1
  Mg  Mg31  1  0.27292390  -0.05432461  0.49730496  1
  Ti  Ti32  1  0.60302136  0.36739696  0.12183005  1
  Ti  Ti33  1  0.37921570  0.37928198  0.61552521  1
  Ti  Ti34  1  0.37124339  0.88158706  0.36150045  1
  Ti  Ti35  1  0.87827705  0.12962125  0.36505525  1
  Ti  Ti36  1  0.38225080  0.36685944  0.37455756  1
  Ti  Ti37  1  0.12559821  0.86701772  0.61540927  1
  Ti  Ti38  1  0.62952464  0.12190299  0.36974496  1
  Ti  Ti39  1  0.37800006  0.87505836  0.62612111  1
  Ti  Ti40  1  0.62020852  0.88528680  0.12314348  1
  Ti  Ti41  1  0.63749613  0.36617170  0.62603533  1
  Ti  Ti42  1  0.38155666  0.87366069  0.11273055  1
  Ti  Ti43  1  0.13506623  0.86496753  0.37620846  1
  Ti  Ti44  1  0.12362266  0.61500390  0.62398676  1
  Ti  Ti45  1  0.86902391  0.61011610  0.10800865  1
  Ti  Ti46  1  0.63300993  0.86837957  0.61728371  1
  Ti  Ti47  1  0.12565614  0.62466491  0.86246499  1
  Ti  Ti48  1  0.61727095  0.37300495  0.87602937  1
  Ti  Ti49  1  0.88378689  0.12403712  0.12997313  1
  Ti  Ti50  1  0.13820657  0.86989229  0.12146301  1
  Ti  Ti51  1  0.62808518  0.63251304  0.36988902  1
  Ti  Ti52  1  0.11480538  0.12137233  0.09464797  1
  Ti  Ti53  1  0.88105722  0.85648300  0.38539810  1
  Ti  Ti54  1  0.63424574  0.63073838  0.11115393  1
  Ti  Ti55  1  0.61900013  0.62255588  0.62605125  1
  Ti  Ti56  1  0.11161889  0.13918030  0.86451960  1
  Ti  Ti57  1  0.37798439  0.62288522  0.38106438  1
  Ti  Ti58  1  0.85625632  0.12378215  0.60954867  1
  Ti  Ti59  1  0.12801370  0.38512917  0.13494674  1
  Ti  Ti60  1  0.37248940  0.88252483  0.87168797  1
  Ti  Ti61  1  0.37231189  0.62270471  0.86927373  1
  Ti  Ti62  1  0.12168988  0.88600006  0.86226093  1
  Ti  Ti63  1  0.37543751  0.37637331  0.87834216  1
  Ti  Ti64  1  0.37198081  0.11372235  0.87616338  1
  Ti  Ti65  1  0.11539680  0.62887123  0.37525847  1
  Ti  Ti66  1  0.12766332  0.36971445  0.85816266  1
  Ti  Ti67  1  0.12327429  0.12285379  0.38061321  1
  Ti  Ti68  1  0.87028353  0.36750780  0.36152185  1
  Ti  Ti69  1  0.86005199  0.36049260  0.62979092  1
  Ti  Ti70  1  0.12219994  0.13569065  0.61705437  1
  Ti  Ti71  1  0.36079300  0.37879191  0.11907977  1
  Ti  Ti72  1  0.87962634  0.88220197  0.86121022  1
  Ti  Ti73  1  0.63051952  0.11926127  0.62392664  1
  Bi  Bi74  1  0.25767736  0.76159084  -0.02330793  1
  Bi  Bi75  1  0.75219629  0.45962538  0.00414523  1
  Bi  Bi76  1  0.26650146  0.74871104  0.73047049  1
  Bi  Bi77  1  0.70964139  0.49473602  0.23128769  1
  Bi  Bi78  1  0.76387127  -0.00310530  0.45695752  1
  Bi  Bi79  1  0.24628716  0.02046719  0.71887494  1
  Bi  Bi80  1  0.27591419  0.21698791  0.01472172  1
  Bi  Bi81  1  0.27346203  0.24335459  0.73890653  1
  Bi  Bi82  1  0.45501409  0.22987468  0.22594060  1
  Bi  Bi83  1  0.48453165  0.73401096  0.22489994  1
  Bi  Bi84  1  0.46873908  0.50332354  0.24822773  1
  Bi  Bi85  1  -0.00275066  0.00830349  0.72219736  1
  Bi  Bi86  1  0.47312809  0.54838614  0.01678258  1
  Bi  Bi87  1  0.49874558  0.77381249  0.47185433  1
  Bi  Bi88  1  0.50556938  0.23801600  0.49513164  1
  Bi  Bi89  1  0.51357594  0.23183105  -0.02478163  1
  Bi  Bi90  1  0.25550107  0.53486885  0.01376239  1
  Bi  Bi91  1  0.75910955  0.71551730  0.50782679  1
  Bi  Bi92  1  0.49032225  0.01225617  0.47826407  1
  Bi  Bi93  1  -0.03561369  0.75413933  0.21677462  1
  Bi  Bi94  1  0.28376341  0.02289209  0.19091682  1
  Bi  Bi95  1  -0.01825976  0.75042845  0.71038829  1
  Bi  Bi96  1  0.75142487  0.49716124  0.77647916  1
  Bi  Bi97  1  0.25675939  0.71321294  0.22847384  1
  Bi  Bi98  1  0.02577198  0.49574013  -0.02051541  1
  Bi  Bi99  1  0.22674211  0.26824748  0.49040493  1
  Bi  Bi100  1  0.75568660  0.02855712  0.76636062  1
  Bi  Bi101  1  0.52793306  0.75230206  0.75395642  1
  Bi  Bi102  1  -0.04756040  0.48240895  0.49976725  1
  Bi  Bi103  1  0.24418565  0.49878553  0.47513139  1
  Bi  Bi104  1  0.78726852  0.80013183  0.01559957  1
  Bi  Bi105  1  0.73575019  0.78657207  0.24406229  1
  Bi  Bi106  1  0.24745233  0.72703037  0.49631685  1
  Bi  Bi107  1  0.01057353  0.75367655  -0.02688707  1
  Bi  Bi108  1  -0.00399436  0.26083953  0.50229603  1
  Bi  Bi109  1  0.51736358  0.48554654  0.73495242  1
  Bi  Bi110  1  0.75469790  0.72557796  0.75830944  1
  Bi  Bi111  1  -0.01614195  0.47086232  0.73879606  1
  Bi  Bi112  1  0.52690811  0.76734814  -0.02353074  1
  Bi  Bi113  1  0.76881695  0.01889192  0.00257571  1
  Bi  Bi114  1  0.52559636  -0.01320685  0.74432649  1
  Bi  Bi115  1  0.53716103  0.49835193  0.48712158  1
  Bi  Bi116  1  0.00645194  -0.01562895  0.49421545  1
  Bi  Bi117  1  0.51703800  0.23154153  0.73999367  1
  Bi  Bi118  1  0.01321214  0.24818646  0.23620840  1
  Bi  Bi119  1  0.03011792  -0.02202512  0.25283851  1
  Bi  Bi120  1  0.26647491  0.48278284  0.73483653  1
  Bi  Bi121  1  0.75410228  0.26749059  0.21275326  1
  Bi  Bi122  1  0.51653531  0.01816637  0.24199202  1
  Bi  Bi123  1  0.24053681  0.24288373  0.26516115  1
  Bi  Bi124  1  -0.01702857  0.53550190  0.24092468  1
  O  O125  1  0.09456952  0.10474322  -0.01282250  1
  O  O126  1  0.12802005  0.15625334  0.25683202  1
  O  O127  1  0.10694203  0.11050515  0.50423275  1
  O  O128  1  0.15416621  0.14270443  0.75645839  1
  O  O129  1  0.13357111  0.40453778  0.01742377  1
  O  O130  1  0.12246867  0.33995592  0.25149641  1
  O  O131  1  0.15802550  0.39399177  0.49800427  1
  O  O132  1  0.10188188  0.36170903  0.75099659  1
  O  O133  1  0.13121620  0.59646427  0.00812403  1
  O  O134  1  0.10418367  0.64231738  0.26178886  1
  O  O135  1  0.15506898  0.61140506  0.50051646  1
  O  O136  1  0.12364146  0.64205164  0.74931643  1
  O  O137  1  0.10170351  0.89440769  0.01344502  1
  O  O138  1  0.13392001  0.87608741  0.25922121  1
  O  O139  1  0.14111235  0.90668208  0.50240595  1
  O  O140  1  0.12302084  0.86437496  0.75058659  1
  O  O141  1  0.40359827  0.14293317  -0.00499924  1
  O  O142  1  0.35577961  0.13374699  0.25703571  1
  O  O143  1  0.41114429  0.13312846  0.50435517  1
  O  O144  1  0.35346724  0.11701553  0.75747702  1
  O  O145  1  0.34805428  0.37467189  0.00577746  1
  O  O146  1  0.39483492  0.38152629  0.25575092  1
  O  O147  1  0.35995254  0.36930291  0.50236690  1
  O  O148  1  0.38585432  0.40476277  0.76084313  1
  O  O149  1  0.36048852  0.63050829  0.00480999  1
  O  O150  1  0.39667067  0.62595314  0.25836913  1
  O  O151  1  0.36199877  0.64302238  0.49881688  1
  O  O152  1  0.35691376  0.61462362  0.75584622  1
  O  O153  1  0.37696729  0.84894131  0.00195149  1
  O  O154  1  0.37058092  0.90550726  0.25231401  1
  O  O155  1  0.36804649  0.85310003  0.51238861  1
  O  O156  1  0.35709255  0.89255871  0.75849618  1
  O  O157  1  0.59020050  0.12016632  0.00385531  1
  O  O158  1  0.63118841  0.11129787  0.25699436  1
  O  O159  1  0.58860955  0.12295244  0.50857953  1
  O  O160  1  0.65500173  0.14912305  0.74121015  1
  O  O161  1  0.63293194  0.38190066  0.00023136  1
  O  O162  1  0.61105280  0.38419744  0.24224999  1
  O  O163  1  0.65186319  0.38413675  0.51228678  1
  O  O164  1  0.59787522  0.36798902  0.75005517  1
  O  O165  1  0.63229243  0.62909772  -0.00021667  1
  O  O166  1  0.61685552  0.61351852  0.25604589  1
  O  O167  1  0.64077279  0.63070244  0.50920478  1
  O  O168  1  0.62190929  0.64804748  0.74871831  1
  O  O169  1  0.62868925  0.86687325  0.00517285  1
  O  O170  1  0.62594991  0.87047504  0.24933202  1
  O  O171  1  0.60716091  0.87053210  0.50429126  1
  O  O172  1  0.60830643  0.86632258  0.74402533  1
  O  O173  1  0.86942934  0.11756094  0.00642432  1
  O  O174  1  0.86805290  0.15677158  0.25013661  1
  O  O175  1  0.88997450  0.09966638  0.49781472  1
  O  O176  1  0.83696408  0.14658317  0.73689386  1
  O  O177  1  0.85405380  0.37144422  -0.00035732  1
  O  O178  1  0.88653545  0.35026677  0.25185947  1
  O  O179  1  0.84127402  0.39286108  0.51452021  1
  O  O180  1  0.91568917  0.34824302  0.74224786  1
  O  O181  1  0.86695825  0.58876145  -0.00079232  1
  O  O182  1  0.88540817  0.63552260  0.25485906  1
  O  O183  1  0.85595060  0.61553159  0.50604511  1
  O  O184  1  0.88386159  0.66099403  0.75120699  1
  O  O185  1  0.87438395  0.91279176  -0.00019627  1
  O  O186  1  0.87246765  0.85606274  0.26248893  1
  O  O187  1  0.88285430  0.91202027  0.49245976  1
  O  O188  1  0.88463516  0.84727956  0.74939189  1
  O  O189  1  0.00154666  0.15614912  0.12842950  1
  O  O190  1  -0.00500254  0.12385487  0.36271644  1
  O  O191  1  0.00248300  0.13060281  0.65441081  1
  O  O192  1  0.00185414  0.14679305  0.83429229  1
  O  O193  1  0.01456055  0.33826937  0.11780211  1
  O  O194  1  -0.01246477  0.38001853  0.40371948  1
  O  O195  1  -0.00464147  0.37789923  0.58746154  1
  O  O196  1  0.01231153  0.36830930  0.91216822  1
  O  O197  1  -0.00603280  0.62851750  0.13183024  1
  O  O198  1  0.00651373  0.61365933  0.40740251  1
  O  O199  1  0.00591558  0.61725976  0.60874241  1
  O  O200  1  0.00847066  0.63756351  0.89424751  1
  O  O201  1  0.01471894  0.86940351  0.14890299  1
  O  O202  1  0.00612820  0.89127287  0.38145459  1
  O  O203  1  0.00502185  0.90612372  0.61923022  1
  O  O204  1  0.00402126  0.86150620  0.88067547  1
  O  O205  1  0.23906518  0.09263239  0.07556736  1
  O  O206  1  0.24053837  0.15740407  0.38696739  1
  O  O207  1  0.24673778  0.14282621  0.62796654  1
  O  O208  1  0.25471280  0.12207058  0.90306491  1
  O  O209  1  0.24999538  0.40725986  0.15728261  1
  O  O210  1  0.25943372  0.34442632  0.36868801  1
  O  O211  1  0.25598987  0.36362917  0.65343383  1
  O  O212  1  0.24476699  0.38877114  0.85446539  1
  O  O213  1  0.24047427  0.59828489  0.15843550  1
  O  O214  1  0.25746606  0.64928150  0.36924820  1
  O  O215  1  0.24337457  0.65806424  0.62697642  1
  O  O216  1  0.24316786  0.61337568  0.88942073  1
  O  O217  1  0.25535048  0.89761182  0.11618441  1
  O  O218  1  0.25280628  0.86569598  0.38955570  1
  O  O219  1  0.24257580  0.85147990  0.62987237  1
  O  O220  1  0.24036439  0.88508936  0.90489440  1
  O  O221  1  0.50377309  0.12532380  0.15407441  1
  O  O222  1  0.50056427  0.09459043  0.36342390  1
  O  O223  1  0.50620656  0.11415254  0.66287464  1
  O  O224  1  0.49521928  0.14574765  0.85930960  1
  O  O225  1  0.49214031  0.34578947  0.11398495  1
  O  O226  1  0.49894606  0.39987820  0.39764254  1
  O  O227  1  0.49732409  0.39710819  0.61689919  1
  O  O228  1  0.49549116  0.36780163  0.89067654  1
  O  O229  1  0.51304412  0.64621700  0.11602255  1
  O  O230  1  0.50151069  0.60528219  0.39969369  1
  O  O231  1  0.50363364  0.60370473  0.62827800  1
  O  O232  1  0.48791627  0.64346924  0.88707811  1
  O  O233  1  0.50191236  0.84876511  0.12712935  1
  O  O234  1  0.49114523  0.89062374  0.38702270  1
  O  O235  1  0.48858531  0.90329050  0.62859731  1
  O  O236  1  0.48754021  0.86335606  0.87594904  1
  O  O237  1  0.76469385  0.07713435  0.13155075  1
  O  O238  1  0.74617774  0.13801133  0.39727398  1
  O  O239  1  0.74355774  0.12606842  0.58723363  1
  O  O240  1  0.75144947  0.10691570  0.88353988  1
  O  O241  1  0.75061238  0.39187075  0.14014180  1
  O  O242  1  0.74720171  0.35819556  0.36813451  1
  O  O243  1  0.74849879  0.35304249  0.66209968  1
  O  O244  1  0.74372476  0.39581694  0.87081878  1
  O  O245  1  0.75205985  0.59439849  0.13408233  1
  O  O246  1  0.74233342  0.65714290  0.37575635  1
  O  O247  1  0.74746508  0.65018067  0.64098573  1
  O  O248  1  0.75426797  0.61729585  0.84958690  1
  O  O249  1  0.74765671  0.88813348  0.14257221  1
  O  O250  1  0.75797315  0.86560585  0.38695355  1
  O  O251  1  0.74441800  0.85900535  0.61710879  1
  O  O252  1  0.76364095  0.87423407  0.87618728  1
  O  O253  1  0.11138360  0.00980891  0.14461033  1
  O  O254  1  0.12903404  0.01028300  0.36276076  1
  O  O255  1  0.12874051  0.01064425  0.64474032  1
  O  O256  1  0.12979562  0.00250911  0.86092507  1
  O  O257  1  0.14940297  0.24022889  0.09002509  1
  O  O258  1  0.11066497  0.25400851  0.41076134  1
  O  O259  1  0.11527399  0.25166851  0.59454384  1
  O  O260  1  0.13144164  0.25315108  0.89960535  1
  O  O261  1  0.10433007  0.49229153  0.16700338  1
  O  O262  1  0.15879491  0.50643903  0.35665140  1
  O  O263  1  0.13952712  0.50495220  0.64261011  1
  O  O264  1  0.10389917  0.50124041  0.86421875  1
  O  O265  1  0.15406149  0.75446880  0.12213003  1
  O  O266  1  0.12167561  0.75219440  0.39706619  1
  O  O267  1  0.09837862  0.75848485  0.59655111  1
  O  O268  1  0.13436100  0.74926330  0.89695352  1
  O  O269  1  0.39908818  -0.00654072  0.11745436  1
  O  O270  1  0.35730890  -0.00598137  0.41186418  1
  O  O271  1  0.33123185  -0.00751351  0.60828943  1
  O  O272  1  0.36671569  -0.00033165  0.89931560  1
  O  O273  1  0.34759998  0.26049479  0.13982376  1
  O  O274  1  0.40824905  0.25415893  0.37605231  1
  O  O275  1  0.39072439  0.25753804  0.65451516  1
  O  O276  1  0.36083543  0.25963930  0.86693062  1
  O  O277  1  0.40371034  0.49386223  0.12610151  1
  O  O278  1  0.36145501  0.50496645  0.36978215  1
  O  O279  1  0.34940224  0.49689844  0.62138704  1
  O  O280  1  0.38017926  0.50594036  0.89982638  1
  O  O281  1  0.36552428  0.76087946  0.15600083  1
  O  O282  1  0.39930460  0.75657409  0.36331787  1
  O  O283  1  0.38353090  0.75639027  0.65848349  1
  O  O284  1  0.34493941  0.75189107  0.86913838  1
  O  O285  1  0.59574807  -0.00393226  0.11970181  1
  O  O286  1  0.63811408  0.00366458  0.39179338  1
  O  O287  1  0.62989513  0.00129193  0.64566258  1
  O  O288  1  0.62501744  0.00101850  0.84246092  1
  O  O289  1  0.64500335  0.25389106  0.12687226  1
  O  O290  1  0.61482395  0.24332725  0.39597731  1
  O  O291  1  0.60254443  0.25277332  0.61784799  1
  O  O292  1  0.63622916  0.25524317  0.87610006  1
  O  O293  1  0.61342570  0.49916678  0.12822949  1
  O  O294  1  0.64374681  0.50477476  0.39357995  1
  O  O295  1  0.63404134  0.50065828  0.64581101  1
  O  O296  1  0.61679548  0.49762189  0.84908082  1
  O  O297  1  0.65581966  0.74501495  0.13245412  1
  O  O298  1  0.59555599  0.74743952  0.37377881  1
  O  O299  1  0.59641633  0.75247075  0.62580355  1
  O  O300  1  0.61703121  0.75452943  0.87359164  1
  O  O301  1  0.91728545  0.01184661  0.14831656  1
  O  O302  1  0.84625221  0.01294718  0.34229081  1
  O  O303  1  0.87356987  0.00974540  0.64906691  1
  O  O304  1  0.88392419  -0.00178124  0.84125178  1
  O  O305  1  0.84288021  0.24378839  0.11273790  1
  O  O306  1  0.86870211  0.25078081  0.40362483  1
  O  O307  1  0.88501959  0.24457014  0.61145152  1
  O  O308  1  0.85266639  0.24548745  0.87320142  1
  O  O309  1  0.89979969  0.49597663  0.14118736  1
  O  O310  1  0.85408148  0.48835485  0.37878020  1
  O  O311  1  0.87604934  0.48685004  0.65049853  1
  O  O312  1  0.88787621  0.49371291  0.83711049  1
  O  O313  1  0.87218916  0.73735877  0.11161114  1
  O  O314  1  0.89663181  0.74992992  0.41214817  1
  O  O315  1  0.90306292  0.75478198  0.60041537  1
  O  O316  1  0.88042062  0.75664948  0.91734896  1
