# generated using pymatgen
data_Mg32Ti42(Bi17O64)3
_symmetry_space_group_name_H-M   'P 1'
_cell_length_a   15.94965834
_cell_length_b   15.96013131
_cell_length_c   15.97463879
_cell_angle_alpha   89.82489121
_cell_angle_beta   89.90110436
_cell_angle_gamma   89.91331343
_symmetry_Int_Tables_number   1
_chemical_formula_structural   Mg32Ti42(Bi17O64)3
_chemical_formula_sum   'Mg32 Ti42 Bi51 O192'
_cell_volume   4066.45267742
_cell_formula_units_Z   1
loop_
 _symmetry_equiv_pos_site_id
 _symmetry_equiv_pos_as_xyz
  1  'x, y, z'
loop_
 _atom_site_type_symbol
 _atom_site_label
 _atom_site_symmetry_multiplicity
 _atom_site_fract_x
 _atom_site_fract_y
 _atom_site_fract_z
 _atom_site_occupancy
  Mg  Mg0  1  0.37112774  0.62639465  0.86783259  1
  Mg  Mg1  1  0.62089994  0.87866174  0.61132865  1
  Mg  Mg2  1  0.12256739  0.86803577  0.87288314  1
  Mg  Mg3  1  0.86905255  0.87837755  0.37550815  1
  Mg  Mg4  1  0.37266756  0.11858394  0.11780181  1
  Mg  Mg5  1  0.62160171  0.62675641  0.37265441  1
  Mg  Mg6  1  0.37665441  0.61747531  0.12987647  1
  Mg  Mg7  1  0.88116959  0.62897885  0.86578947  1
  Mg  Mg8  1  0.87641018  0.61968069  0.61963618  1
  Mg  Mg9  1  0.87593848  0.62339446  0.37789450  1
  Mg  Mg10  1  0.36134640  0.12151705  0.62460295  1
  Mg  Mg11  1  0.37592359  0.88610054  0.61290580  1
  Mg  Mg12  1  0.85973683  0.13107213  0.37228706  1
  Mg  Mg13  1  0.12324556  0.38484921  0.13447266  1
  Mg  Mg14  1  0.13675839  0.12980061  0.89124117  1
  Mg  Mg15  1  0.88299706  0.87877835  0.62605178  1
  Mg  Mg16  1  0.87279294  0.36199052  0.88605187  1
  Mg  Mg17  1  0.38035750  0.36861304  0.86799531  1
  Mg  Mg18  1  0.38091981  0.36303865  0.37661251  1
  Mg  Mg19  1  0.01159248  0.67788120  -0.01550359  1
  Mg  Mg20  1  0.49783645  0.51526603  0.24557018  1
  Mg  Mg21  1  0.47825145  -0.01726099  0.48459438  1
  Mg  Mg22  1  0.17005794  0.29140690  0.81505682  1
  Mg  Mg23  1  0.22537884  -0.02252440  0.48262144  1
  Mg  Mg24  1  0.22504186  -0.05194030  0.24584104  1
  Mg  Mg25  1  0.20820909  0.75115838  0.47741695  1
  Mg  Mg26  1  0.20922222  0.45305835  0.74755633  1
  Mg  Mg27  1  0.28022678  0.24793744  -0.04040018  1
  Mg  Mg28  1  0.03812736  0.00732427  0.79443508  1
  Mg  Mg29  1  0.67668716  0.22297520  0.20232590  1
  Mg  Mg30  1  0.52504744  0.04738592  0.05205630  1
  Mg  Mg31  1  0.07426259  0.28752318  -0.00673678  1
  Ti  Ti32  1  0.61270822  0.87360936  0.37697207  1
  Ti  Ti33  1  0.36673062  0.36762128  0.62381116  1
  Ti  Ti34  1  0.38318753  0.87401144  0.86134989  1
  Ti  Ti35  1  0.12960502  0.62206450  0.61614012  1
  Ti  Ti36  1  0.61754584  0.87020905  0.11162821  1
  Ti  Ti37  1  0.86474177  0.13649004  0.13067886  1
  Ti  Ti38  1  0.87377731  0.12249633  0.87551905  1
  Ti  Ti39  1  0.88242079  0.87922188  0.11952693  1
  Ti  Ti40  1  0.12449540  0.88126595  0.11277703  1
  Ti  Ti41  1  0.61235201  0.37728119  0.62380750  1
  Ti  Ti42  1  0.88809273  0.87866246  0.86194758  1
  Ti  Ti43  1  0.36909981  0.11345125  0.37865325  1
  Ti  Ti44  1  0.63251915  0.62531606  0.86396202  1
  Ti  Ti45  1  0.13351030  0.61308420  0.11590747  1
  Ti  Ti46  1  0.61777192  0.38171859  0.87333943  1
  Ti  Ti47  1  0.61105372  0.62338104  0.12618114  1
  Ti  Ti48  1  0.11468872  0.61947835  0.37366802  1
  Ti  Ti49  1  0.62544225  0.38640664  0.10779047  1
  Ti  Ti50  1  0.62082775  0.60710391  0.61738736  1
  Ti  Ti51  1  0.36863461  0.61854557  0.62246981  1
  Ti  Ti52  1  0.62602328  0.12149754  0.37832300  1
  Ti  Ti53  1  0.62255517  0.11510522  0.86709971  1
  Ti  Ti54  1  0.12383347  0.13457165  0.66240853  1
  Ti  Ti55  1  0.35919661  0.87741628  0.38087287  1
  Ti  Ti56  1  0.13160796  0.10670558  0.36510873  1
  Ti  Ti57  1  0.11789711  0.36264841  0.37263096  1
  Ti  Ti58  1  0.13642211  0.11095105  0.12792493  1
  Ti  Ti59  1  0.63493500  0.13238052  0.62602794  1
  Ti  Ti60  1  0.13165975  0.63241768  0.85730976  1
  Ti  Ti61  1  0.87271903  0.36739322  0.36289234  1
  Ti  Ti62  1  0.86050709  0.37162771  0.12330544  1
  Ti  Ti63  1  0.62156800  0.86538941  0.86807256  1
  Ti  Ti64  1  0.37805719  0.37339918  0.11283910  1
  Ti  Ti65  1  0.11097060  0.87345339  0.37520147  1
  Ti  Ti66  1  0.12239138  0.87671726  0.61720073  1
  Ti  Ti67  1  0.87002234  0.36890235  0.62414668  1
  Ti  Ti68  1  0.87739631  0.11665919  0.62503092  1
  Ti  Ti69  1  0.12907935  0.35853306  0.61661562  1
  Ti  Ti70  1  0.38080541  0.11490338  0.87915553  1
  Ti  Ti71  1  0.37560066  0.87969710  0.11711135  1
  Ti  Ti72  1  0.35554074  0.63381096  0.37556893  1
  Ti  Ti73  1  0.61920191  0.37170458  0.35252743  1
  Bi  Bi74  1  0.74425481  -0.01438223  -0.02578721  1
  Bi  Bi75  1  0.48230971  0.23223382  0.24149815  1
  Bi  Bi76  1  0.75279337  0.73273524  0.70710589  1
  Bi  Bi77  1  0.76533652  0.72799996  0.22068534  1
  Bi  Bi78  1  0.49331151  0.73059815  -0.02464882  1
  Bi  Bi79  1  0.48043623  0.74975646  0.49638728  1
  Bi  Bi80  1  0.74496226  0.52267853  0.23176920  1
  Bi  Bi81  1  -0.03306213  0.00535644  0.24213486  1
  Bi  Bi82  1  0.24219546  -0.01007762  -0.03433787  1
  Bi  Bi83  1  0.46434600  0.23426578  0.74793427  1
  Bi  Bi84  1  0.24891565  0.47277511  0.47683959  1
  Bi  Bi85  1  0.49331249  0.51348887  -0.03129693  1
  Bi  Bi86  1  0.23545378  0.21428061  0.49220124  1
  Bi  Bi87  1  0.27525447  0.47092899  0.24887448  1
  Bi  Bi88  1  -0.01721693  0.24681014  0.48227726  1
  Bi  Bi89  1  0.00988862  0.46981014  0.73244778  1
  Bi  Bi90  1  0.49516097  0.00487740  0.71311092  1
  Bi  Bi91  1  0.48490336  0.50865324  0.46311100  1
  Bi  Bi92  1  0.79895887  0.74935887  -0.00948456  1
  Bi  Bi93  1  -0.02694792  -0.00141612  0.48599696  1
  Bi  Bi94  1  -0.02294198  0.51427815  0.20855777  1
  Bi  Bi95  1  0.75493522  0.74612628  0.48428237  1
  Bi  Bi96  1  0.73712742  0.50234457  0.47461629  1
  Bi  Bi97  1  -0.00819571  0.73297434  0.74597875  1
  Bi  Bi98  1  0.25327954  0.73883034  0.22237550  1
  Bi  Bi99  1  0.50834633  0.23001542  0.01549742  1
  Bi  Bi100  1  0.49914915  -0.00360031  0.23711343  1
  Bi  Bi101  1  0.78157488  0.48355599  0.76397720  1
  Bi  Bi102  1  0.72496637  0.26567813  0.75583834  1
  Bi  Bi103  1  0.24985563  0.75006480  -0.02519328  1
  Bi  Bi104  1  0.01697747  0.23862243  0.22204186  1
  Bi  Bi105  1  0.74128562  -0.02168309  0.72484722  1
  Bi  Bi106  1  0.00218111  0.46299148  -0.01681735  1
  Bi  Bi107  1  0.24119533  -0.00856925  0.72709253  1
  Bi  Bi108  1  0.72655482  0.26115458  0.48220642  1
  Bi  Bi109  1  -0.02908914  0.75006714  0.50444158  1
  Bi  Bi110  1  -0.03307462  0.23592233  0.75346107  1
  Bi  Bi111  1  0.72746094  0.22204421  -0.00028585  1
  Bi  Bi112  1  0.49655648  0.74953281  0.23729569  1
  Bi  Bi113  1  -0.02344236  0.49555974  0.49601011  1
  Bi  Bi114  1  0.02245181  0.74381542  0.22086283  1
  Bi  Bi115  1  0.25210742  0.75779159  0.71738781  1
  Bi  Bi116  1  0.23464115  0.46974475  -0.05024177  1
  Bi  Bi117  1  0.79249465  0.52895516  0.00322216  1
  Bi  Bi118  1  0.46547115  0.50565287  0.74434379  1
  Bi  Bi119  1  0.48787442  0.21798466  0.49384818  1
  Bi  Bi120  1  0.73634540  -0.01274484  0.48701457  1
  Bi  Bi121  1  0.73466581  -0.02222091  0.22784288  1
  Bi  Bi122  1  0.50637760  0.75224730  0.71546498  1
  Bi  Bi123  1  -0.01144270  0.03183363  0.00785262  1
  Bi  Bi124  1  0.25907474  0.25303981  0.21992795  1
  O  O125  1  0.11774323  0.09079256  0.01342043  1
  O  O126  1  0.12639160  0.14928061  0.24973559  1
  O  O127  1  0.16461249  0.09730290  0.48286665  1
  O  O128  1  0.13113950  0.17695855  0.76805537  1
  O  O129  1  0.12741607  0.40586181  0.00765323  1
  O  O130  1  0.10792300  0.34973256  0.25868178  1
  O  O131  1  0.13445157  0.39187485  0.50462565  1
  O  O132  1  0.10983531  0.36883782  0.74161927  1
  O  O133  1  0.11096816  0.59918296  0.00339676  1
  O  O134  1  0.13693034  0.65965192  0.25793234  1
  O  O135  1  0.11139452  0.61760397  0.50321673  1
  O  O136  1  0.13721752  0.67472312  0.74601081  1
  O  O137  1  0.11594513  0.90218406  0.00475458  1
  O  O138  1  0.13993694  0.85229107  0.26316406  1
  O  O139  1  0.11083443  0.91377737  0.50398982  1
  O  O140  1  0.16390690  0.86239136  0.74002405  1
  O  O141  1  0.42402853  0.11165682  -0.00687238  1
  O  O142  1  0.39876768  0.11938179  0.26157994  1
  O  O143  1  0.36110736  0.14615575  0.50003603  1
  O  O144  1  0.38069118  0.11738600  0.75400913  1
  O  O145  1  0.33663188  0.36386155  0.00081805  1
  O  O146  1  0.36144067  0.35849705  0.25356100  1
  O  O147  1  0.35640444  0.37654413  0.50305596  1
  O  O148  1  0.40032384  0.38181386  0.74137254  1
  O  O149  1  0.40661129  0.62224126  0.00692776  1
  O  O150  1  0.33894540  0.62931487  0.26112565  1
  O  O151  1  0.40206822  0.62556948  0.49792535  1
  O  O152  1  0.37033968  0.61619529  0.74216368  1
  O  O153  1  0.38991887  0.86565949  0.00846310  1
  O  O154  1  0.33776752  0.89435197  0.26835493  1
  O  O155  1  0.41475087  0.87085466  0.49334208  1
  O  O156  1  0.35223188  0.87234169  0.74922325  1
  O  O157  1  0.61285455  0.12761547  -0.00827643  1
  O  O158  1  0.59816396  0.15106579  0.26876210  1
  O  O159  1  0.63308721  0.13017015  0.50945948  1
  O  O160  1  0.65505349  0.13980908  0.75565616  1
  O  O161  1  0.64291662  0.40700459  -0.00136782  1
  O  O162  1  0.62494898  0.33370910  0.24714144  1
  O  O163  1  0.64828329  0.38722482  0.51052886  1
  O  O164  1  0.61132622  0.35150933  0.75369558  1
  O  O165  1  0.59368065  0.61827861  0.01208310  1
  O  O166  1  0.65700483  0.63339632  0.25261653  1
  O  O167  1  0.60463716  0.59075115  0.50216635  1
  O  O168  1  0.64949176  0.63612313  0.75232474  1
  O  O169  1  0.60084818  0.87996965  0.00204757  1
  O  O170  1  0.65280414  0.87186837  0.25963739  1
  O  O171  1  0.59693498  0.91866015  0.49085646  1
  O  O172  1  0.65294478  0.86968156  0.75586092  1
  O  O173  1  0.88932667  0.12998756  0.00621698  1
  O  O174  1  0.87424539  0.11167535  0.24813740  1
  O  O175  1  0.88721192  0.14492222  0.50841451  1
  O  O176  1  0.88477353  0.11574416  0.75715717  1
  O  O177  1  0.85836072  0.38844063  0.00862328  1
  O  O178  1  0.88515671  0.38682183  0.25264953  1
  O  O179  1  0.87397169  0.34764587  0.50989116  1
  O  O180  1  0.89489894  0.38879854  0.75445393  1
  O  O181  1  0.88985834  0.63317829  -0.00554756  1
  O  O182  1  0.84262204  0.62364999  0.25786971  1
  O  O183  1  0.91004639  0.61882591  0.49983921  1
  O  O184  1  0.86593328  0.64914456  0.74298921  1
  O  O185  1  0.88623910  0.86980564  0.00483067  1
  O  O186  1  0.85545666  0.90190676  0.25004012  1
  O  O187  1  0.90798558  0.87851594  0.50130117  1
  O  O188  1  0.85023090  0.87598344  0.75262813  1
  O  O189  1  0.00387028  0.10708712  0.13878440  1
  O  O190  1  0.01733552  0.10357839  0.37584736  1
  O  O191  1  0.00429057  0.15149103  0.64021612  1
  O  O192  1  -0.00017073  0.09763431  0.87845496  1
  O  O193  1  -0.00628255  0.40612544  0.11528609  1
  O  O194  1  0.00108876  0.38048198  0.39816204  1
  O  O195  1  0.00685456  0.37947868  0.62108157  1
  O  O196  1  -0.00205469  0.34979439  0.91250632  1
  O  O197  1  0.01093797  0.63415892  0.13504324  1
  O  O198  1  0.00410191  0.61559584  0.35061208  1
  O  O199  1  0.01259195  0.64999700  0.64041970  1
  O  O200  1  0.01039544  0.63366640  0.85903404  1
  O  O201  1  0.00212821  0.88586233  0.14592851  1
  O  O202  1  0.00253420  0.90538572  0.36250656  1
  O  O203  1  0.01437742  0.84668716  0.64131593  1
  O  O204  1  0.00058014  0.89579109  0.84148970  1
  O  O205  1  0.24848173  0.13836196  0.12423566  1
  O  O206  1  0.26072213  0.15482182  0.36142520  1
  O  O207  1  0.23669126  0.11157246  0.63835170  1
  O  O208  1  0.26931911  0.12191823  0.91535001  1
  O  O209  1  0.24743066  0.37427289  0.14582010  1
  O  O210  1  0.24195914  0.37655574  0.37467074  1
  O  O211  1  0.24799103  0.38632206  0.64425023  1
  O  O212  1  0.25318111  0.38229244  0.84624309  1
  O  O213  1  0.24896620  0.64300823  0.11804891  1
  O  O214  1  0.24740020  0.65581762  0.40597201  1
  O  O215  1  0.25410850  0.62935371  0.61309662  1
  O  O216  1  0.24857137  0.64337893  0.88901479  1
  O  O217  1  0.25186133  0.87586926  0.12251362  1
  O  O218  1  0.25130027  0.85766952  0.42111624  1
  O  O219  1  0.24870116  0.92598568  0.60293374  1
  O  O220  1  0.25342168  0.86253847  0.89592240  1
  O  O221  1  0.50095074  0.14895124  0.12720342  1
  O  O222  1  0.50041377  0.09684499  0.41761021  1
  O  O223  1  0.51675150  0.14283313  0.64681851  1
  O  O224  1  0.51100929  0.12491526  0.84968838  1
  O  O225  1  0.49541896  0.36675390  0.10261099  1
  O  O226  1  0.50736765  0.41250861  0.35093145  1
  O  O227  1  0.50300405  0.36393111  0.60434724  1
  O  O228  1  0.50670825  0.36987802  0.89609981  1
  O  O229  1  0.49851750  0.62238063  0.17414226  1
  O  O230  1  0.49780143  0.59138827  0.35417950  1
  O  O231  1  0.50524618  0.62615604  0.64465971  1
  O  O232  1  0.50519731  0.62675185  0.87443194  1
  O  O233  1  0.49841935  0.87192483  0.16482125  1
  O  O234  1  0.49913437  0.90125806  0.34926013  1
  O  O235  1  0.50226061  0.87450605  0.65366874  1
  O  O236  1  0.50057109  0.87917049  0.85091326  1
  O  O237  1  0.75024508  0.14691928  0.13187142  1
  O  O238  1  0.73672315  0.15925948  0.37906968  1
  O  O239  1  0.76016537  0.10453124  0.62714184  1
  O  O240  1  0.75357845  0.11596540  0.90292146  1
  O  O241  1  0.74430589  0.37653843  0.13754563  1
  O  O242  1  0.75508915  0.35339072  0.37728069  1
  O  O243  1  0.75873170  0.38815652  0.65474727  1
  O  O244  1  0.74741761  0.38369129  0.84833580  1
  O  O245  1  0.73459758  0.62654251  0.11589734  1
  O  O246  1  0.74704803  0.62939999  0.41044485  1
  O  O247  1  0.74309380  0.62620171  0.61266163  1
  O  O248  1  0.74409597  0.63398685  0.90207361  1
  O  O249  1  0.74054943  0.88177653  0.11518014  1
  O  O250  1  0.74095564  0.87165159  0.41128253  1
  O  O251  1  0.74928780  0.90132483  0.60931256  1
  O  O252  1  0.74401473  0.86546722  0.90520507  1
  O  O253  1  0.14275691  -0.00386591  0.16022942  1
  O  O254  1  0.16601761  -0.00579988  0.35143656  1
  O  O255  1  0.10520680  0.01451104  0.68535808  1
  O  O256  1  0.15115529  0.00134428  0.85904455  1
  O  O257  1  0.09821883  0.25063303  0.11297331  1
  O  O258  1  0.11770275  0.24836668  0.40133472  1
  O  O259  1  0.13430532  0.24658704  0.60211355  1
  O  O260  1  0.16261934  0.24652068  0.92526256  1
  O  O261  1  0.12665497  0.51016310  0.16254069  1
  O  O262  1  0.14214295  0.50788056  0.37074864  1
  O  O263  1  0.12883371  0.51298497  0.65076681  1
  O  O264  1  0.14675735  0.51779019  0.83956350  1
  O  O265  1  0.11819880  0.75911186  0.11882061  1
  O  O266  1  0.10370936  0.76119993  0.40716853  1
  O  O267  1  0.16688627  0.76779830  0.59647537  1
  O  O268  1  0.11852413  0.74595744  0.91707177  1
  O  O269  1  0.40687728  -0.00285830  0.12606040  1
  O  O270  1  0.35147342  -0.00046774  0.40952642  1
  O  O271  1  0.41833544  0.00829898  0.60206808  1
  O  O272  1  0.36134710  -0.00856832  0.87838330  1
  O  O273  1  0.36905079  0.25106063  0.13076349  1
  O  O274  1  0.41691909  0.24132060  0.37805117  1
  O  O275  1  0.37330588  0.25211666  0.63680865  1
  O  O276  1  0.37749353  0.23956764  0.87502553  1
  O  O277  1  0.38453369  0.49018725  0.15845955  1
  O  O278  1  0.35404061  0.50690807  0.38290642  1
  O  O279  1  0.38936460  0.50063479  0.62139416  1
  O  O280  1  0.39023994  0.49950907  0.87449357  1
  O  O281  1  0.38490781  0.75683663  0.15126323  1
  O  O282  1  0.39679048  0.75152260  0.37829495  1
  O  O283  1  0.39213313  0.74707331  0.62195270  1
  O  O284  1  0.38228412  0.75311627  0.88543172  1
  O  O285  1  0.60609172  -0.00847805  0.13502884  1
  O  O286  1  0.65283620  0.01081321  0.35847306  1
  O  O287  1  0.62056742  0.00906531  0.64880865  1
  O  O288  1  0.64087962  -0.00275291  0.87329821  1
  O  O289  1  0.62722240  0.26427218  0.09350355  1
  O  O290  1  0.60304822  0.26318240  0.40774897  1
  O  O291  1  0.65327537  0.25443173  0.62480853  1
  O  O292  1  0.64646079  0.25432694  0.88770334  1
  O  O293  1  0.60605460  0.49763487  0.15865809  1
  O  O294  1  0.65984630  0.48855316  0.36152607  1
  O  O295  1  0.61865173  0.49509518  0.64873765  1
  O  O296  1  0.61385828  0.50373398  0.86272127  1
  O  O297  1  0.60128423  0.74816799  0.13184847  1
  O  O298  1  0.60237587  0.75923911  0.39452786  1
  O  O299  1  0.61797076  0.74692507  0.62091216  1
  O  O300  1  0.61208732  0.74944805  0.88105389  1
  O  O301  1  0.87302564  0.00431693  0.12081773  1
  O  O302  1  0.85784229  0.00704965  0.40341832  1
  O  O303  1  0.90120877  0.00576821  0.61589920  1
  O  O304  1  0.86014090  -0.00632809  0.89289317  1
  O  O305  1  0.88918560  0.25389726  0.13396915  1
  O  O306  1  0.90499224  0.25023080  0.36960481  1
  O  O307  1  0.87049380  0.25257645  0.65605989  1
  O  O308  1  0.86592540  0.23843251  0.86311969  1
  O  O309  1  0.86118056  0.50087271  0.13188532  1
  O  O310  1  0.86774555  0.48730901  0.40304476  1
  O  O311  1  0.89560034  0.49393810  0.61965482  1
  O  O312  1  0.86758619  0.50325689  0.87768272  1
  O  O313  1  0.87502802  0.76307288  0.13893764  1
  O  O314  1  0.87046420  0.75169211  0.40126712  1
  O  O315  1  0.85882736  0.75173254  0.60180582  1
  O  O316  1  0.88448693  0.76007833  0.88202240  1
