# generated using pymatgen
data_Mg32Ti42(Bi17O64)3
_symmetry_space_group_name_H-M   'P 1'
_cell_length_a   15.98111860
_cell_length_b   16.00035760
_cell_length_c   15.94400466
_cell_angle_alpha   90.00828566
_cell_angle_beta   90.00940302
_cell_angle_gamma   90.07447900
_symmetry_Int_Tables_number   1
_chemical_formula_structural   Mg32Ti42(Bi17O64)3
_chemical_formula_sum   'Mg32 Ti42 Bi51 O192'
_cell_volume   4076.93604537
_cell_formula_units_Z   1
loop_
 _symmetry_equiv_pos_site_id
 _symmetry_equiv_pos_as_xyz
  1  'x, y, z'
loop_
 _atom_site_type_symbol
 _atom_site_label
 _atom_site_symmetry_multiplicity
 _atom_site_fract_x
 _atom_site_fract_y
 _atom_site_fract_z
 _atom_site_occupancy
  Mg  Mg0  1  0.63374963  0.38167591  0.87722513  1
  Mg  Mg1  1  0.87504659  0.63077211  0.13097407  1
  Mg  Mg2  1  0.37605736  0.62928799  0.38174218  1
  Mg  Mg3  1  0.12810122  0.38351831  0.37227160  1
  Mg  Mg4  1  0.37999493  0.61751322  0.87788196  1
  Mg  Mg5  1  0.37240706  0.87235762  0.12607792  1
  Mg  Mg6  1  0.87845935  0.38006626  0.61972040  1
  Mg  Mg7  1  0.87519877  0.38011838  0.12635714  1
  Mg  Mg8  1  0.37356076  0.12999144  0.63081234  1
  Mg  Mg9  1  0.87067912  0.62094443  0.38410648  1
  Mg  Mg10  1  0.37268423  0.12774798  0.36670246  1
  Mg  Mg11  1  0.62600045  0.63544578  0.62429854  1
  Mg  Mg12  1  0.12340682  0.37250332  0.63162804  1
  Mg  Mg13  1  0.61618937  0.13848962  0.36888864  1
  Mg  Mg14  1  0.38262338  0.12606690  0.87480368  1
  Mg  Mg15  1  0.13375327  0.87337261  0.63598463  1
  Mg  Mg16  1  0.87417849  0.11673203  0.87161659  1
  Mg  Mg17  1  0.37971745  0.87739964  0.86702208  1
  Mg  Mg18  1  0.88371140  0.87372625  0.62788198  1
  Mg  Mg19  1  0.74587531  -0.00025008  0.06747251  1
  Mg  Mg20  1  0.24105128  0.05584599  0.24119401  1
  Mg  Mg21  1  0.75435843  0.74706503  0.31093160  1
  Mg  Mg22  1  0.80154609  0.68809589  0.76623383  1
  Mg  Mg23  1  0.24936010  0.21798018  0.77567086  1
  Mg  Mg24  1  0.73188904  0.49744639  0.68748503  1
  Mg  Mg25  1  0.73430223  0.31814744  0.72863594  1
  Mg  Mg26  1  0.24096049  0.46073528  0.51034576  1
  Mg  Mg27  1  0.79650273  0.01184808  0.51229045  1
  Mg  Mg28  1  0.50048559  0.00628979  0.73133194  1
  Mg  Mg29  1  -0.01932049  0.55065607  0.24452968  1
  Mg  Mg30  1  0.51355758  0.28991026  0.22094987  1
  Mg  Mg31  1  0.28369843  0.04316325  0.48809991  1
  Ti  Ti32  1  0.13305708  0.36666359  0.11546629  1
  Ti  Ti33  1  0.62708013  0.11910866  0.61272340  1
  Ti  Ti34  1  0.85883465  0.88212609  0.86522513  1
  Ti  Ti35  1  0.63560939  0.87902116  0.38118420  1
  Ti  Ti36  1  0.62438683  0.63102777  0.86983725  1
  Ti  Ti37  1  0.11819911  0.12112298  0.86809488  1
  Ti  Ti38  1  0.63587957  0.38114315  0.11814020  1
  Ti  Ti39  1  0.12000317  0.64019785  0.13311657  1
  Ti  Ti40  1  0.36956123  0.37523777  0.63667347  1
  Ti  Ti41  1  0.88259831  0.88345469  0.13618450  1
  Ti  Ti42  1  0.61439106  0.88112326  0.13278111  1
  Ti  Ti43  1  0.36476568  0.87556578  0.37506132  1
  Ti  Ti44  1  0.13580361  0.87062311  0.36801826  1
  Ti  Ti45  1  0.60806906  0.88503452  0.64072429  1
  Ti  Ti46  1  0.88981265  0.12731351  0.38170358  1
  Ti  Ti47  1  0.12976927  0.12250694  0.10792125  1
  Ti  Ti48  1  0.89128568  0.37901298  0.37162857  1
  Ti  Ti49  1  0.12034255  0.63246406  0.36798637  1
  Ti  Ti50  1  0.88034145  0.11596784  0.13045252  1
  Ti  Ti51  1  0.63079912  0.62960283  0.38614803  1
  Ti  Ti52  1  0.62720290  0.88073413  0.87204312  1
  Ti  Ti53  1  0.38453839  0.37212053  0.13152268  1
  Ti  Ti54  1  0.13056826  0.37088027  0.87011529  1
  Ti  Ti55  1  0.86294927  0.37004640  0.87939516  1
  Ti  Ti56  1  0.37440225  0.61045802  0.61420213  1
  Ti  Ti57  1  0.12595171  0.86486492  0.87609770  1
  Ti  Ti58  1  0.63330268  0.63234965  0.12551271  1
  Ti  Ti59  1  0.13767582  0.12036616  0.38424479  1
  Ti  Ti60  1  0.36764663  0.88617527  0.62520653  1
  Ti  Ti61  1  0.38139574  0.37726187  0.86579749  1
  Ti  Ti62  1  0.13092842  0.62188994  0.89226913  1
  Ti  Ti63  1  0.86752341  0.88446046  0.38711124  1
  Ti  Ti64  1  0.37218562  0.13797445  0.12345809  1
  Ti  Ti65  1  0.61678250  0.13299523  0.13354398  1
  Ti  Ti66  1  0.85989092  0.62031476  0.61128849  1
  Ti  Ti67  1  0.13479526  0.87144158  0.12771512  1
  Ti  Ti68  1  0.13424311  0.12451165  0.62950312  1
  Ti  Ti69  1  0.89368610  0.12446741  0.61909171  1
  Ti  Ti70  1  0.62713277  0.11080615  0.87381589  1
  Ti  Ti71  1  0.61672426  0.36122108  0.35623126  1
  Ti  Ti72  1  0.37421519  0.36849506  0.37160602  1
  Ti  Ti73  1  0.38873336  0.61716847  0.12121787  1
  Bi  Bi74  1  0.50850971  0.75958132  -0.02330225  1
  Bi  Bi75  1  0.26639258  0.25442823  -0.02251541  1
  Bi  Bi76  1  -0.02768893  0.24115190  -0.00635442  1
  Bi  Bi77  1  0.74242132  0.03030743  0.27576834  1
  Bi  Bi78  1  0.21552758  0.50908429  0.71989914  1
  Bi  Bi79  1  0.23292055  0.74174732  0.53313852  1
  Bi  Bi80  1  0.54135419  0.48117793  0.71740146  1
  Bi  Bi81  1  0.48957487  0.00106069  -0.00869452  1
  Bi  Bi82  1  0.52596623  0.24999971  -0.01932590  1
  Bi  Bi83  1  0.25433058  0.51201548  0.28482810  1
  Bi  Bi84  1  0.28195058  0.74415704  -0.00062190  1
  Bi  Bi85  1  0.26169144  -0.02191792  -0.01505587  1
  Bi  Bi86  1  0.03118803  0.27500645  0.50397107  1
  Bi  Bi87  1  0.03599061  -0.02559923  0.50358806  1
  Bi  Bi88  1  0.27893751  0.73304783  0.24176636  1
  Bi  Bi89  1  0.24736072  0.71230900  0.75562941  1
  Bi  Bi90  1  0.76725030  0.55099617  -0.03116292  1
  Bi  Bi91  1  0.51991712  0.50556531  -0.00584640  1
  Bi  Bi92  1  -0.00710740  -0.01674097  -0.00829332  1
  Bi  Bi93  1  0.74994045  0.23208367  -0.02531927  1
  Bi  Bi94  1  0.77732889  0.25528775  0.25962994  1
  Bi  Bi95  1  0.74607654  0.77426419  0.54807742  1
  Bi  Bi96  1  0.50828875  -0.00642480  0.47203733  1
  Bi  Bi97  1  0.74468532  0.46263955  0.50374367  1
  Bi  Bi98  1  -0.02832609  0.26998635  0.75659192  1
  Bi  Bi99  1  0.50840372  0.51761641  0.27595540  1
  Bi  Bi100  1  -0.01675420  0.51399964  0.79712365  1
  Bi  Bi101  1  -0.03527337  0.75697428  0.25951880  1
  Bi  Bi102  1  0.25488180  0.26328125  0.52925038  1
  Bi  Bi103  1  0.00513463  0.26879452  0.22525239  1
  Bi  Bi104  1  0.48301947  0.22051770  0.49654990  1
  Bi  Bi105  1  0.02207009  0.74886451  0.52101984  1
  Bi  Bi106  1  0.78138238  0.00442320  0.72239511  1
  Bi  Bi107  1  0.02367917  -0.00812656  0.74739713  1
  Bi  Bi108  1  -0.04287679  0.73976718  -0.03219561  1
  Bi  Bi109  1  0.47114255  0.00270175  0.22192231  1
  Bi  Bi110  1  0.49018833  0.71835590  0.73460371  1
  Bi  Bi111  1  0.47842289  0.76383543  0.51401001  1
  Bi  Bi112  1  0.03495457  0.00523929  0.24358993  1
  Bi  Bi113  1  0.23562306  0.26666963  0.25975034  1
  Bi  Bi114  1  0.76768871  0.51199347  0.24350127  1
  Bi  Bi115  1  0.27699569  0.49137786  -0.00659328  1
  Bi  Bi116  1  0.28082663  0.01295664  0.75295079  1
  Bi  Bi117  1  -0.01061613  0.72436062  0.74573855  1
  Bi  Bi118  1  0.50892200  0.76001787  0.27958451  1
  Bi  Bi119  1  0.52806666  0.46749136  0.50379525  1
  Bi  Bi120  1  0.53447601  0.22993043  0.73910175  1
  Bi  Bi121  1  0.02190140  0.49813866  0.02948142  1
  Bi  Bi122  1  0.74452984  0.77131697  0.03456073  1
  Bi  Bi123  1  0.04280301  0.52965913  0.51409198  1
  Bi  Bi124  1  0.76193575  0.25194048  0.52690462  1
  O  O125  1  0.14565235  0.12044469  -0.00452750  1
  O  O126  1  0.12427847  0.11647538  0.26129111  1
  O  O127  1  0.16411756  0.10057618  0.51113292  1
  O  O128  1  0.09131620  0.12490592  0.75006611  1
  O  O129  1  0.12231885  0.35535081  -0.00478726  1
  O  O130  1  0.11869838  0.35251355  0.24589393  1
  O  O131  1  0.14462402  0.36122451  0.49712592  1
  O  O132  1  0.12297611  0.41096801  0.75332983  1
  O  O133  1  0.11744445  0.62460293  0.00845315  1
  O  O134  1  0.09968246  0.60350622  0.24982153  1
  O  O135  1  0.12492328  0.63934013  0.48972417  1
  O  O136  1  0.13594161  0.61887053  0.75796956  1
  O  O137  1  0.14289704  0.88935268  0.00662626  1
  O  O138  1  0.09872503  0.87907936  0.25164662  1
  O  O139  1  0.13512808  0.87581326  0.49185931  1
  O  O140  1  0.09909746  0.87133397  0.76017092  1
  O  O141  1  0.36278330  0.15917126  0.00577467  1
  O  O142  1  0.36950197  0.09080464  0.24572803  1
  O  O143  1  0.35927240  0.14631024  0.50265050  1
  O  O144  1  0.39841005  0.08875667  0.74961452  1
  O  O145  1  0.35309573  0.35830669  0.00274441  1
  O  O146  1  0.40585191  0.38244523  0.24721442  1
  O  O147  1  0.33612256  0.37153347  0.48941371  1
  O  O148  1  0.38261388  0.39770524  0.75080082  1
  O  O149  1  0.34778904  0.61783043  0.00709202  1
  O  O150  1  0.37892288  0.62166530  0.23883094  1
  O  O151  1  0.37453815  0.64971282  0.50498233  1
  O  O152  1  0.36876882  0.63075246  0.74995601  1
  O  O153  1  0.34199094  0.86985336  0.00234095  1
  O  O154  1  0.39330871  0.89228655  0.25367332  1
  O  O155  1  0.36161585  0.83879341  0.49267044  1
  O  O156  1  0.39686680  0.91160836  0.73836362  1
  O  O157  1  0.63870526  0.15045686  0.00568739  1
  O  O158  1  0.61985119  0.09779172  0.24545483  1
  O  O159  1  0.62489947  0.15865291  0.50374412  1
  O  O160  1  0.58724703  0.10183534  0.75996557  1
  O  O161  1  0.63592992  0.34201828  0.00381123  1
  O  O162  1  0.59188835  0.39755424  0.24195125  1
  O  O163  1  0.63224156  0.37653775  0.48095341  1
  O  O164  1  0.65481327  0.41525499  0.75399003  1
  O  O165  1  0.65505764  0.64333401  0.00127271  1
  O  O166  1  0.60495397  0.60651145  0.23675250  1
  O  O167  1  0.63565173  0.64715827  0.49628650  1
  O  O168  1  0.59968779  0.60868349  0.75801569  1
  O  O169  1  0.64316462  0.85370658  -0.00673118  1
  O  O170  1  0.60416335  0.88635110  0.24678290  1
  O  O171  1  0.63918297  0.86058280  0.49621829  1
  O  O172  1  0.58545826  0.90363574  0.75360433  1
  O  O173  1  0.86886501  0.14701237  0.00442965  1
  O  O174  1  0.88334888  0.10298928  0.25248984  1
  O  O175  1  0.85234076  0.13183921  0.49823586  1
  O  O176  1  0.88178009  0.10713888  0.73976245  1
  O  O177  1  0.87506415  0.35503314  -0.00306743  1
  O  O178  1  0.88991719  0.35462841  0.25414756  1
  O  O179  1  0.84563044  0.36253616  0.48509998  1
  O  O180  1  0.87011504  0.36366196  0.74761275  1
  O  O181  1  0.86172392  0.64387313  0.00522692  1
  O  O182  1  0.89513413  0.63888188  0.25776293  1
  O  O183  1  0.83648059  0.64757007  0.50323248  1
  O  O184  1  0.90360127  0.61671153  0.73732403  1
  O  O185  1  0.86142487  0.84371803  -0.01295443  1
  O  O186  1  0.89384402  0.89416593  0.25079268  1
  O  O187  1  0.83170174  0.87587195  0.50226659  1
  O  O188  1  0.88540323  0.90535924  0.75137177  1
  O  O189  1  0.00666848  0.10048954  0.11725582  1
  O  O190  1  0.00148778  0.12214474  0.39891956  1
  O  O191  1  0.00294230  0.12812742  0.60135910  1
  O  O192  1  0.00699446  0.13757985  0.90007520  1
  O  O193  1  0.00652320  0.36816428  0.12402099  1
  O  O194  1  0.00209836  0.37779121  0.39785319  1
  O  O195  1  -0.00016164  0.36345916  0.60457328  1
  O  O196  1  0.00163822  0.36319904  0.85723300  1
  O  O197  1  0.00225134  0.59934355  0.12136439  1
  O  O198  1  0.00401682  0.59778637  0.38620760  1
  O  O199  1  -0.01557844  0.62777664  0.59200092  1
  O  O200  1  0.01059395  0.64116523  0.86233398  1
  O  O201  1  -0.00166932  0.89814342  0.10800191  1
  O  O202  1  -0.01812483  0.88398947  0.40759321  1
  O  O203  1  0.00343939  0.87114247  0.59749235  1
  O  O204  1  0.00557568  0.86928258  0.90448863  1
  O  O205  1  0.25105422  0.13137433  0.13789992  1
  O  O206  1  0.24923155  0.09069873  0.36669801  1
  O  O207  1  0.24501112  0.14012795  0.67252244  1
  O  O208  1  0.24564344  0.11358245  0.84997070  1
  O  O209  1  0.25155236  0.34852738  0.13880727  1
  O  O210  1  0.25372945  0.37716418  0.33640175  1
  O  O211  1  0.25051139  0.36399728  0.63403980  1
  O  O212  1  0.24561014  0.39363522  0.87931397  1
  O  O213  1  0.23645671  0.63390291  0.14483494  1
  O  O214  1  0.24486805  0.64178841  0.34722681  1
  O  O215  1  0.25903607  0.64905555  0.63209968  1
  O  O216  1  0.24771566  0.61805344  0.87775577  1
  O  O217  1  0.24399943  0.85541763  0.14503352  1
  O  O218  1  0.24861605  0.87039088  0.35372658  1
  O  O219  1  0.25789555  0.84129869  0.63933241  1
  O  O220  1  0.24415022  0.90229452  0.86505799  1
  O  O221  1  0.50161198  0.11869083  0.11709510  1
  O  O222  1  0.49490031  0.11837178  0.40139116  1
  O  O223  1  0.50193392  0.14930943  0.61449124  1
  O  O224  1  0.50498057  0.12149525  0.90910305  1
  O  O225  1  0.49700409  0.36849964  0.10405442  1
  O  O226  1  0.49079495  0.38092909  0.39930621  1
  O  O227  1  0.49092234  0.38833404  0.61161481  1
  O  O228  1  0.49432085  0.36468406  0.88776009  1
  O  O229  1  0.50155256  0.61488374  0.09800508  1
  O  O230  1  0.50526424  0.63893252  0.36573259  1
  O  O231  1  0.49304995  0.61304201  0.63546255  1
  O  O232  1  0.50550768  0.62293625  0.91026680  1
  O  O233  1  0.50261648  0.87315566  0.10499425  1
  O  O234  1  0.50415668  0.86409276  0.38848005  1
  O  O235  1  0.48898145  0.88664705  0.58723164  1
  O  O236  1  0.50277537  0.88041163  0.90567375  1
  O  O237  1  0.75556043  0.10780200  0.13883747  1
  O  O238  1  0.74485203  0.14360479  0.35102438  1
  O  O239  1  0.73864530  0.08375286  0.61080864  1
  O  O240  1  0.74341438  0.13354316  0.87223927  1
  O  O241  1  0.74607658  0.37532195  0.14743869  1
  O  O242  1  0.73428137  0.35467135  0.34500780  1
  O  O243  1  0.74863945  0.37233007  0.61301373  1
  O  O244  1  0.75299907  0.34178961  0.86556169  1
  O  O245  1  0.74764835  0.61777587  0.14578889  1
  O  O246  1  0.74359427  0.62711501  0.34538786  1
  O  O247  1  0.74809915  0.62745141  0.66571684  1
  O  O248  1  0.74334378  0.62864161  0.85876415  1
  O  O249  1  0.75447029  0.88300781  0.12317263  1
  O  O250  1  0.74719414  0.86884761  0.34635030  1
  O  O251  1  0.72649687  0.88661607  0.64126789  1
  O  O252  1  0.74393859  0.87695113  0.84957591  1
  O  O253  1  0.14511709  0.00030266  0.14943717  1
  O  O254  1  0.10865118  -0.00876952  0.37285133  1
  O  O255  1  0.11880400  0.00004932  0.64214872  1
  O  O256  1  0.10363093  0.00372735  0.86674457  1
  O  O257  1  0.11085299  0.23655742  0.12483441  1
  O  O258  1  0.14435452  0.23552778  0.38410998  1
  O  O259  1  0.12263667  0.24135787  0.61317598  1
  O  O260  1  0.14814189  0.25467996  0.84685593  1
  O  O261  1  0.13417406  0.48345473  0.10759976  1
  O  O262  1  0.16257105  0.50578950  0.39380452  1
  O  O263  1  0.15343295  0.49803218  0.59942528  1
  O  O264  1  0.09959724  0.50291858  0.89685824  1
  O  O265  1  0.10379059  0.75235976  0.13552603  1
  O  O266  1  0.10987665  0.75197886  0.36780944  1
  O  O267  1  0.11825979  0.75020453  0.61518341  1
  O  O268  1  0.14133734  0.75113868  0.88148277  1
  O  O269  1  0.38389843  0.00460001  0.10643616  1
  O  O270  1  0.37787826  -0.01182550  0.41161175  1
  O  O271  1  0.33536143  -0.00408355  0.59783613  1
  O  O272  1  0.37649532  0.00238543  0.90542454  1
  O  O273  1  0.39540784  0.24622229  0.15639508  1
  O  O274  1  0.36220024  0.25427696  0.35659986  1
  O  O275  1  0.37492406  0.26067357  0.62752517  1
  O  O276  1  0.34464256  0.25496350  0.85591811  1
  O  O277  1  0.36504287  0.49220269  0.11159296  1
  O  O278  1  0.36064468  0.50189211  0.37102249  1
  O  O279  1  0.34648061  0.50017813  0.60021510  1
  O  O280  1  0.38005965  0.49172308  0.90076344  1
  O  O281  1  0.37076785  0.73982178  0.11623765  1
  O  O282  1  0.38169470  0.75525247  0.34551413  1
  O  O283  1  0.40383706  0.75617023  0.63538537  1
  O  O284  1  0.38170743  0.74920894  0.89508340  1
  O  O285  1  0.62749559  -0.00434961  0.10348700  1
  O  O286  1  0.63182304  -0.00343251  0.38865524  1
  O  O287  1  0.58676622  0.00590769  0.61990603  1
  O  O288  1  0.62638566  -0.00268731  0.89873842  1
  O  O289  1  0.61473578  0.24773064  0.15112091  1
  O  O290  1  0.58270664  0.25694342  0.33311747  1
  O  O291  1  0.65279376  0.22912851  0.67139843  1
  O  O292  1  0.60716551  0.24276135  0.86110271  1
  O  O293  1  0.62697895  0.49543281  0.09437196  1
  O  O294  1  0.61044952  0.50644005  0.37726694  1
  O  O295  1  0.62856746  0.50758057  0.61048559  1
  O  O296  1  0.62766918  0.50671699  0.90574711  1
  O  O297  1  0.63042013  0.75005521  0.13444321  1
  O  O298  1  0.63246577  0.75017779  0.35019954  1
  O  O299  1  0.59514607  0.76242697  0.64154133  1
  O  O300  1  0.60384063  0.75221339  0.86514402  1
  O  O301  1  0.87004502  -0.00171775  0.08786629  1
  O  O302  1  0.84576649  0.00548466  0.39297503  1
  O  O303  1  0.87353102  0.00091413  0.61254602  1
  O  O304  1  0.88340757  -0.00724641  0.89633505  1
  O  O305  1  0.89409888  0.23563358  0.13611515  1
  O  O306  1  0.87802070  0.24348315  0.36412072  1
  O  O307  1  0.85865349  0.23987240  0.62620954  1
  O  O308  1  0.89157305  0.24534774  0.86893166  1
  O  O309  1  0.87907450  0.50187140  0.16429004  1
  O  O310  1  0.86069908  0.49031641  0.36087164  1
  O  O311  1  0.84329233  0.50249481  0.61166313  1
  O  O312  1  0.87742659  0.48854126  0.88191351  1
  O  O313  1  0.88772277  0.76357243  0.13995980  1
  O  O314  1  0.86965337  0.76302406  0.36160906  1
  O  O315  1  0.86140620  0.75004725  0.64862401  1
  O  O316  1  0.88813643  0.75856217  0.84151315  1
