# generated using pymatgen
data_Mg32Ti42(Bi17O64)3
_symmetry_space_group_name_H-M   'P 1'
_cell_length_a   15.96214075
_cell_length_b   15.95153305
_cell_length_c   15.95302893
_cell_angle_alpha   89.97820129
_cell_angle_beta   90.07490443
_cell_angle_gamma   89.98538298
_symmetry_Int_Tables_number   1
_chemical_formula_structural   Mg32Ti42(Bi17O64)3
_chemical_formula_sum   'Mg32 Ti42 Bi51 O192'
_cell_volume   4061.96614997
_cell_formula_units_Z   1
loop_
 _symmetry_equiv_pos_site_id
 _symmetry_equiv_pos_as_xyz
  1  'x, y, z'
loop_
 _atom_site_type_symbol
 _atom_site_label
 _atom_site_symmetry_multiplicity
 _atom_site_fract_x
 _atom_site_fract_y
 _atom_site_fract_z
 _atom_site_occupancy
  Mg  Mg0  1  0.12740222  0.87970535  0.12238611  1
  Mg  Mg1  1  0.86345917  0.37755900  0.13186954  1
  Mg  Mg2  1  0.12350626  0.62814030  0.88164536  1
  Mg  Mg3  1  0.37038941  0.12715685  0.37954854  1
  Mg  Mg4  1  0.37336676  0.62463296  0.36992369  1
  Mg  Mg5  1  0.63765053  0.13198307  0.12693264  1
  Mg  Mg6  1  0.88475332  0.88112934  0.12385368  1
  Mg  Mg7  1  0.87936032  0.62646368  0.12539478  1
  Mg  Mg8  1  0.11658156  0.62488891  0.63133343  1
  Mg  Mg9  1  0.62053076  0.87001191  0.12065379  1
  Mg  Mg10  1  0.87574087  0.87692845  0.37932949  1
  Mg  Mg11  1  0.38471747  0.12027564  0.12445650  1
  Mg  Mg12  1  0.62399840  0.13138487  0.38649504  1
  Mg  Mg13  1  0.37065570  0.87118617  0.87003781  1
  Mg  Mg14  1  0.62850910  0.12350271  0.86445852  1
  Mg  Mg15  1  0.37765013  0.37940203  0.13218711  1
  Mg  Mg16  1  0.86027850  0.11608458  0.63551721  1
  Mg  Mg17  1  0.37298871  0.63133093  0.62860294  1
  Mg  Mg18  1  0.13485216  0.87250387  0.62931808  1
  Mg  Mg19  1  0.01252661  0.00835775  0.00011436  1
  Mg  Mg20  1  0.70852189  -0.02631978  0.75166164  1
  Mg  Mg21  1  0.73126221  0.23888102  -0.04619075  1
  Mg  Mg22  1  0.78548833  0.73736741  0.49474919  1
  Mg  Mg23  1  -0.05384039  0.28895594  0.00517610  1
  Mg  Mg24  1  0.51815012  0.24383002  0.56136169  1
  Mg  Mg25  1  0.49048547  -0.06186234  0.73314971  1
  Mg  Mg26  1  0.23740248  0.52019255  0.31399678  1
  Mg  Mg27  1  0.01077055  0.80464981  0.26090081  1
  Mg  Mg28  1  0.23533661  0.68643295  0.75424846  1
  Mg  Mg29  1  0.04618718  0.74520991  0.76983626  1
  Mg  Mg30  1  0.75477823  0.24419724  0.30999998  1
  Mg  Mg31  1  0.73885342  0.49101149  0.29523798  1
  Ti  Ti32  1  0.12300215  0.36422229  0.12997552  1
  Ti  Ti33  1  0.37133268  0.61909523  0.13301307  1
  Ti  Ti34  1  0.87312107  0.62983479  0.61934444  1
  Ti  Ti35  1  0.62787777  0.37850202  0.14091605  1
  Ti  Ti36  1  0.38520854  0.13099248  0.87789198  1
  Ti  Ti37  1  0.89181825  0.63270585  0.87273018  1
  Ti  Ti38  1  0.37010199  0.88473947  0.12777014  1
  Ti  Ti39  1  0.86658409  0.37290451  0.87354939  1
  Ti  Ti40  1  0.11384195  0.36104758  0.89217904  1
  Ti  Ti41  1  0.86791401  0.63083093  0.36415950  1
  Ti  Ti42  1  0.12230203  0.12848192  0.88515786  1
  Ti  Ti43  1  0.62889995  0.38033355  0.62836100  1
  Ti  Ti44  1  0.37299250  0.61823466  0.88128680  1
  Ti  Ti45  1  0.62682112  0.11584459  0.62938891  1
  Ti  Ti46  1  0.10616211  0.62892096  0.37139203  1
  Ti  Ti47  1  0.36978460  0.37244799  0.87977889  1
  Ti  Ti48  1  0.87654029  0.37836358  0.37735541  1
  Ti  Ti49  1  0.11923773  0.14068807  0.36536839  1
  Ti  Ti50  1  0.62273500  0.62864398  0.63225535  1
  Ti  Ti51  1  0.62825664  0.37118900  0.38516569  1
  Ti  Ti52  1  0.87127301  0.87231165  0.62436948  1
  Ti  Ti53  1  0.11787153  0.12816487  0.11938428  1
  Ti  Ti54  1  0.13666414  0.87020155  0.87421558  1
  Ti  Ti55  1  0.12132142  0.87392037  0.38585008  1
  Ti  Ti56  1  0.12450135  0.61897658  0.13510085  1
  Ti  Ti57  1  0.63040143  0.87138169  0.37485721  1
  Ti  Ti58  1  0.62099493  0.86187328  0.62047287  1
  Ti  Ti59  1  0.12619994  0.37851801  0.35765637  1
  Ti  Ti60  1  0.62293629  0.86675223  0.86928097  1
  Ti  Ti61  1  0.62007551  0.62122850  0.87590677  1
  Ti  Ti62  1  0.61775000  0.62722767  0.13285142  1
  Ti  Ti63  1  0.36933613  0.87985051  0.38797837  1
  Ti  Ti64  1  0.87796950  0.10886102  0.87390932  1
  Ti  Ti65  1  0.62540478  0.38070087  0.87340972  1
  Ti  Ti66  1  0.89982697  0.87486274  0.86923135  1
  Ti  Ti67  1  0.36319158  0.37490261  0.36191372  1
  Ti  Ti68  1  0.87714498  0.12247170  0.10718273  1
  Ti  Ti69  1  0.37229388  0.87480737  0.61974167  1
  Ti  Ti70  1  0.87388371  0.11665551  0.37578528  1
  Ti  Ti71  1  0.63089770  0.63297641  0.37162021  1
  Ti  Ti72  1  0.38678539  0.11515392  0.62733850  1
  Ti  Ti73  1  0.86635511  0.37947702  0.61279092  1
  Bi  Bi74  1  0.00346133  0.00915787  0.23323037  1
  Bi  Bi75  1  0.23494138  0.76012319  0.26592886  1
  Bi  Bi76  1  0.22630704  0.50998550  0.01007257  1
  Bi  Bi77  1  0.23806341  0.00571902  0.27510045  1
  Bi  Bi78  1  0.72480540  0.02225927  -0.00353358  1
  Bi  Bi79  1  -0.03389459  0.24318553  0.24003074  1
  Bi  Bi80  1  0.73192372  -0.00943540  0.22395825  1
  Bi  Bi81  1  0.25229885  0.71177623  0.50217626  1
  Bi  Bi82  1  0.04668508  0.26846027  0.52776854  1
  Bi  Bi83  1  0.48078373  0.75702851  0.01893367  1
  Bi  Bi84  1  0.03053156  0.00461495  0.76060705  1
  Bi  Bi85  1  0.78004833  0.77435261  0.24423722  1
  Bi  Bi86  1  -0.01488409  0.48951265  0.02158397  1
  Bi  Bi87  1  -0.00161683  0.03280127  0.53301615  1
  Bi  Bi88  1  0.47209837  0.73748075  0.76762005  1
  Bi  Bi89  1  0.73279170  0.52082125  0.50455737  1
  Bi  Bi90  1  0.51010755  0.01979294  0.49526323  1
  Bi  Bi91  1  0.03554032  0.48167097  0.50748850  1
  Bi  Bi92  1  0.73614196  0.48777901  0.02032849  1
  Bi  Bi93  1  0.23678286  0.75644585  0.01737917  1
  Bi  Bi94  1  0.46939351  0.47786314  0.74087078  1
  Bi  Bi95  1  0.48009437  0.72227894  0.49726778  1
  Bi  Bi96  1  -0.00945767  0.47908817  0.73964948  1
  Bi  Bi97  1  0.21356144  0.49307879  0.77613565  1
  Bi  Bi98  1  0.47838468  0.47414578  0.51472676  1
  Bi  Bi99  1  0.27217045  0.23239978  0.23124336  1
  Bi  Bi100  1  0.48775479  0.48786334  0.27249119  1
  Bi  Bi101  1  0.74777954  0.72229350  0.01950899  1
  Bi  Bi102  1  0.76190261  0.52679591  0.75469534  1
  Bi  Bi103  1  0.50389224  -0.02071609  -0.03099425  1
  Bi  Bi104  1  0.47946426  0.76476265  0.26253286  1
  Bi  Bi105  1  0.48945779  0.48558991  0.01607150  1
  Bi  Bi106  1  0.51410644  0.00475405  0.27342321  1
  Bi  Bi107  1  0.01943518  0.75386942  0.53486498  1
  Bi  Bi108  1  0.77779675  0.22927243  0.50349281  1
  Bi  Bi109  1  0.25341101  0.48076425  0.56094008  1
  Bi  Bi110  1  0.24988410  0.00928315  0.74397927  1
  Bi  Bi111  1  -0.02994508  0.50322582  0.25689885  1
  Bi  Bi112  1  0.27734590  0.01030987  -0.01614076  1
  Bi  Bi113  1  -0.01678292  0.22564123  0.73423418  1
  Bi  Bi114  1  0.73853040  0.24751231  0.74273980  1
  Bi  Bi115  1  0.21966987  0.02990699  0.52374058  1
  Bi  Bi116  1  0.76646348  0.75866096  0.77122807  1
  Bi  Bi117  1  0.53144382  0.24210257  0.02327756  1
  Bi  Bi118  1  0.75383994  -0.02296676  0.51407615  1
  Bi  Bi119  1  0.29266361  0.27304901  0.51886597  1
  Bi  Bi120  1  0.51361502  0.21592997  0.25604839  1
  Bi  Bi121  1  0.20918660  0.27587309  0.72776943  1
  Bi  Bi122  1  -0.00879866  0.76068666  0.02520321  1
  Bi  Bi123  1  0.48689368  0.24153420  0.76304629  1
  Bi  Bi124  1  0.27644376  0.26562951  0.01354490  1
  O  O125  1  0.09896905  0.12581667  0.00326104  1
  O  O126  1  0.12425669  0.09132837  0.24800205  1
  O  O127  1  0.11609758  0.12938844  0.48432582  1
  O  O128  1  0.13758188  0.09147599  0.76497330  1
  O  O129  1  0.15402674  0.35785942  0.00134422  1
  O  O130  1  0.09592433  0.39082242  0.24412332  1
  O  O131  1  0.13293019  0.36744904  0.48701617  1
  O  O132  1  0.12142572  0.37914591  0.76456635  1
  O  O133  1  0.15331590  0.63036642  0.00424051  1
  O  O134  1  0.12870617  0.59389794  0.25018161  1
  O  O135  1  0.12121497  0.65043090  0.49269368  1
  O  O136  1  0.12885179  0.60493793  0.75524762  1
  O  O137  1  0.11385837  0.83831164  -0.01042832  1
  O  O138  1  0.14350139  0.87755099  0.25309680  1
  O  O139  1  0.12773852  0.83753946  0.49898518  1
  O  O140  1  0.14139041  0.91423231  0.75227742  1
  O  O141  1  0.37021336  0.11762872  -0.00023755  1
  O  O142  1  0.37796118  0.14768538  0.24897344  1
  O  O143  1  0.38472443  0.09751972  0.51000715  1
  O  O144  1  0.37170236  0.15882644  0.76004189  1
  O  O145  1  0.35958891  0.38906236  0.00085578  1
  O  O146  1  0.41134655  0.36850171  0.25367734  1
  O  O147  1  0.35477337  0.39448670  0.48647754  1
  O  O148  1  0.40333863  0.35912502  0.76123907  1
  O  O149  1  0.37640806  0.59704656  -0.00516892  1
  O  O150  1  0.38358606  0.64945019  0.24366624  1
  O  O151  1  0.37241375  0.62831420  0.49825958  1
  O  O152  1  0.36442829  0.65600105  0.75081576  1
  O  O153  1  0.39917960  0.88362626  0.00173805  1
  O  O154  1  0.36237830  0.84444847  0.24279986  1
  O  O155  1  0.38140276  0.90159872  0.49828937  1
  O  O156  1  0.38608757  0.85833853  0.74146491  1
  O  O157  1  0.64058171  0.15094253  -0.00466755  1
  O  O158  1  0.61617169  0.11197898  0.25146323  1
  O  O159  1  0.58275182  0.14367943  0.51092249  1
  O  O160  1  0.66791652  0.10295423  0.74231178  1
  O  O161  1  0.66759180  0.35364625  -0.01583803  1
  O  O162  1  0.60395504  0.40247384  0.24857826  1
  O  O163  1  0.64985184  0.36139810  0.49580735  1
  O  O164  1  0.60455085  0.39269543  0.74354193  1
  O  O165  1  0.62043847  0.64198943  -0.01272194  1
  O  O166  1  0.61229118  0.60961414  0.24440245  1
  O  O167  1  0.66892617  0.64751372  0.48770599  1
  O  O168  1  0.62523446  0.60268048  0.74178832  1
  O  O169  1  0.59881550  0.86582612  -0.01073693  1
  O  O170  1  0.61712402  0.90945820  0.24726528  1
  O  O171  1  0.64287642  0.86827591  0.49532937  1
  O  O172  1  0.60940229  0.89786984  0.74170488  1
  O  O173  1  0.91262684  0.09693589  -0.00199957  1
  O  O174  1  0.85107952  0.16393250  0.25983956  1
  O  O175  1  0.88704914  0.14022864  0.49571024  1
  O  O176  1  0.85996414  0.15229282  0.76052416  1
  O  O177  1  0.86547564  0.40629287  -0.00620190  1
  O  O178  1  0.89753757  0.37146954  0.25299304  1
  O  O179  1  0.85106199  0.39539921  0.49992091  1
  O  O180  1  0.91288405  0.36546462  0.75816882  1
  O  O181  1  0.87888534  0.61694653  -0.01450888  1
  O  O182  1  0.89666860  0.63408959  0.25051832  1
  O  O183  1  0.84749316  0.61661133  0.49811970  1
  O  O184  1  0.86044116  0.64192109  0.74472821  1
  O  O185  1  0.92451936  0.89206408  -0.01503347  1
  O  O186  1  0.89141093  0.84931116  0.25330290  1
  O  O187  1  0.83181694  0.86481226  0.50092953  1
  O  O188  1  0.86765065  0.85735718  0.74044762  1
  O  O189  1  -0.00626088  0.12733515  0.16045242  1
  O  O190  1  -0.00416718  0.11831528  0.35048900  1
  O  O191  1  -0.01369006  0.11225315  0.64574604  1
  O  O192  1  -0.00041229  0.13432401  0.84692336  1
  O  O193  1  0.00414238  0.36959223  0.08770692  1
  O  O194  1  -0.00395231  0.38974668  0.39312890  1
  O  O195  1  -0.00793110  0.38094457  0.59893621  1
  O  O196  1  0.00165783  0.35694012  0.90794660  1
  O  O197  1  0.01393561  0.63774516  0.11108139  1
  O  O198  1  -0.00659890  0.60811599  0.38413093  1
  O  O199  1  -0.01237673  0.62557175  0.61088309  1
  O  O200  1  0.00180658  0.66212078  0.86213563  1
  O  O201  1  0.00964274  0.83455387  0.13646305  1
  O  O202  1  0.00798464  0.88015247  0.36993502  1
  O  O203  1  -0.01477974  0.87488799  0.60587990  1
  O  O204  1  0.00580036  0.84922871  0.83497686  1
  O  O205  1  0.23641087  0.13368356  0.12740049  1
  O  O206  1  0.24089630  0.12601709  0.35563489  1
  O  O207  1  0.26561040  0.10490106  0.63576589  1
  O  O208  1  0.23985193  0.10691310  0.89286609  1
  O  O209  1  0.24145114  0.36150251  0.13743338  1
  O  O210  1  0.24394269  0.38345823  0.33667535  1
  O  O211  1  0.25473068  0.36097524  0.62796106  1
  O  O212  1  0.25696431  0.37211067  0.86075689  1
  O  O213  1  0.26019618  0.58744068  0.13109527  1
  O  O214  1  0.24159187  0.63869728  0.36939708  1
  O  O215  1  0.24380929  0.63991932  0.62421908  1
  O  O216  1  0.25648784  0.61020596  0.86445919  1
  O  O217  1  0.25370292  0.87685609  0.09880108  1
  O  O218  1  0.25278928  0.84608020  0.37985355  1
  O  O219  1  0.26051937  0.91502110  0.62349910  1
  O  O220  1  0.24803768  0.89748297  0.89171138  1
  O  O221  1  0.50766337  0.14991594  0.12216390  1
  O  O222  1  0.49537111  0.11940659  0.36406639  1
  O  O223  1  0.50937996  0.14863921  0.65679793  1
  O  O224  1  0.50083555  0.13733785  0.87030932  1
  O  O225  1  0.51103163  0.36979256  0.09221289  1
  O  O226  1  0.50216376  0.39879259  0.39187312  1
  O  O227  1  0.51304910  0.36728574  0.59333150  1
  O  O228  1  0.51231458  0.37159883  0.89547744  1
  O  O229  1  0.50314266  0.64850382  0.11485233  1
  O  O230  1  0.51332296  0.62052897  0.39751113  1
  O  O231  1  0.50576063  0.64105149  0.61677135  1
  O  O232  1  0.50015627  0.62049557  0.85470661  1
  O  O233  1  0.49196349  0.84234346  0.13383254  1
  O  O234  1  0.49554990  0.88079165  0.35598389  1
  O  O235  1  0.50463763  0.86430493  0.61761904  1
  O  O236  1  0.49957089  0.89622431  0.85905012  1
  O  O237  1  0.76320566  0.11508548  0.10575993  1
  O  O238  1  0.74974901  0.14433113  0.39496325  1
  O  O239  1  0.74201659  0.12452154  0.59233694  1
  O  O240  1  0.76477680  0.12211390  0.89938247  1
  O  O241  1  0.74322217  0.41409404  0.14089032  1
  O  O242  1  0.74704714  0.37131769  0.34395661  1
  O  O243  1  0.75032354  0.38893140  0.64547629  1
  O  O244  1  0.75884321  0.38470019  0.83807498  1
  O  O245  1  0.74717007  0.61088718  0.10350793  1
  O  O246  1  0.74947262  0.61837940  0.33844338  1
  O  O247  1  0.74669272  0.59725807  0.62973557  1
  O  O248  1  0.74552623  0.62769347  0.85896340  1
  O  O249  1  0.75557158  0.87980222  0.14728161  1
  O  O250  1  0.74274177  0.87767361  0.34133327  1
  O  O251  1  0.73807656  0.91053139  0.63924152  1
  O  O252  1  0.73918571  0.88456369  0.84848704  1
  O  O253  1  0.08229675  -0.00005583  0.11017734  1
  O  O254  1  0.14982661  -0.01233273  0.38724606  1
  O  O255  1  0.11300555  -0.00532633  0.59889133  1
  O  O256  1  0.08574410  -0.00874885  0.89598980  1
  O  O257  1  0.10957593  0.24566130  0.14285900  1
  O  O258  1  0.11443844  0.25383129  0.35366967  1
  O  O259  1  0.10735700  0.24283015  0.64421138  1
  O  O260  1  0.13408966  0.24291651  0.86455219  1
  O  O261  1  0.11752814  0.49504403  0.09899361  1
  O  O262  1  0.13366196  0.49923077  0.38699130  1
  O  O263  1  0.12478964  0.49955226  0.61275586  1
  O  O264  1  0.12986035  0.48956645  0.89018307  1
  O  O265  1  0.16310483  0.73485402  0.13405536  1
  O  O266  1  0.10181968  0.74308652  0.33531069  1
  O  O267  1  0.09653645  0.75254253  0.65179696  1
  O  O268  1  0.15581163  0.75794524  0.83399231  1
  O  O269  1  0.37950870  -0.00544374  0.14349688  1
  O  O270  1  0.35999071  -0.00798625  0.35278232  1
  O  O271  1  0.41344608  0.00407908  0.65763294  1
  O  O272  1  0.37619290  0.00836867  0.87949036  1
  O  O273  1  0.36252639  0.25267302  0.12072258  1
  O  O274  1  0.36174891  0.26046134  0.38925972  1
  O  O275  1  0.39434316  0.23732853  0.59567547  1
  O  O276  1  0.37563042  0.25333509  0.90167318  1
  O  O277  1  0.41526574  0.50323180  0.13630583  1
  O  O278  1  0.36030576  0.50152449  0.34638505  1
  O  O279  1  0.38101171  0.50345037  0.63450471  1
  O  O280  1  0.38591432  0.49573290  0.85273187  1
  O  O281  1  0.35930685  0.73651203  0.09218717  1
  O  O282  1  0.39634660  0.75382228  0.38515957  1
  O  O283  1  0.36784984  0.76268518  0.59434723  1
  O  O284  1  0.39189799  0.74346959  0.88718763  1
  O  O285  1  0.63897227  0.00157028  0.10655737  1
  O  O286  1  0.60853484  -0.00165448  0.38881347  1
  O  O287  1  0.60690067  0.00510568  0.60357816  1
  O  O288  1  0.62751425  0.00128983  0.89250125  1
  O  O289  1  0.62873677  0.26285466  0.13531892  1
  O  O290  1  0.62661894  0.25746247  0.35034220  1
  O  O291  1  0.63424328  0.25693591  0.63986806  1
  O  O292  1  0.64923360  0.25313000  0.84918217  1
  O  O293  1  0.61027089  0.50387836  0.09289910  1
  O  O294  1  0.64433115  0.50270516  0.38341417  1
  O  O295  1  0.61306838  0.50400217  0.59157287  1
  O  O296  1  0.63175308  0.49937936  0.88853850  1
  O  O297  1  0.65358338  0.74351871  0.12413931  1
  O  O298  1  0.61821454  0.75357781  0.35371708  1
  O  O299  1  0.64276908  0.74960578  0.63580955  1
  O  O300  1  0.62170314  0.75122018  0.85035170  1
  O  O301  1  0.88601426  0.00633483  0.15104641  1
  O  O302  1  0.86186354  0.00579740  0.37950578  1
  O  O303  1  0.87138273  -0.00533262  0.60113675  1
  O  O304  1  0.88592821  -0.00318055  0.85074899  1
  O  O305  1  0.88955590  0.24690062  0.11041369  1
  O  O306  1  0.86707990  0.26333029  0.38627757  1
  O  O307  1  0.86958421  0.26028632  0.62557353  1
  O  O308  1  0.85767796  0.26185578  0.91223718  1
  O  O309  1  0.90365922  0.50203963  0.13267415  1
  O  O310  1  0.85911556  0.49922012  0.34908199  1
  O  O311  1  0.88176138  0.49862470  0.65291620  1
  O  O312  1  0.89718312  0.50978968  0.84455220  1
  O  O313  1  0.85939392  0.75134193  0.10031005  1
  O  O314  1  0.85433169  0.74352908  0.38618000  1
  O  O315  1  0.84897635  0.74590388  0.60751516  1
  O  O316  1  0.85616880  0.75931555  0.87989312  1
