# generated using pymatgen
data_Mg32Ti42(Bi17O64)3
_symmetry_space_group_name_H-M   'P 1'
_cell_length_a   15.93813897
_cell_length_b   15.92646624
_cell_length_c   15.95320824
_cell_angle_alpha   90.00610256
_cell_angle_beta   89.92576796
_cell_angle_gamma   89.98039183
_symmetry_Int_Tables_number   1
_chemical_formula_structural   Mg32Ti42(Bi17O64)3
_chemical_formula_sum   'Mg32 Ti42 Bi51 O192'
_cell_volume   4049.53051880
_cell_formula_units_Z   1
loop_
 _symmetry_equiv_pos_site_id
 _symmetry_equiv_pos_as_xyz
  1  'x, y, z'
loop_
 _atom_site_type_symbol
 _atom_site_label
 _atom_site_symmetry_multiplicity
 _atom_site_fract_x
 _atom_site_fract_y
 _atom_site_fract_z
 _atom_site_occupancy
  Mg  Mg0  1  0.12591289  0.87323194  0.36792095  1
  Mg  Mg1  1  0.12186948  0.62341409  0.36359738  1
  Mg  Mg2  1  0.11899559  0.13352490  0.87521825  1
  Mg  Mg3  1  0.86469701  0.62084648  0.87370799  1
  Mg  Mg4  1  0.12747822  0.38134298  0.12968454  1
  Mg  Mg5  1  0.63080500  0.37603175  0.63096937  1
  Mg  Mg6  1  0.87766410  0.12031146  0.38210628  1
  Mg  Mg7  1  0.38354177  0.36533965  0.37893750  1
  Mg  Mg8  1  0.12817948  0.62847580  0.86913136  1
  Mg  Mg9  1  0.37398721  0.38538637  0.62809760  1
  Mg  Mg10  1  0.12543703  0.37491149  0.37723596  1
  Mg  Mg11  1  0.88006066  0.37230068  0.12685315  1
  Mg  Mg12  1  0.60832707  0.63272721  0.61754719  1
  Mg  Mg13  1  0.88105188  0.11754487  0.12688915  1
  Mg  Mg14  1  0.13309382  0.12330781  0.12720763  1
  Mg  Mg15  1  0.40423565  0.63494469  0.11338479  1
  Mg  Mg16  1  0.61541923  0.12300722  0.38539335  1
  Mg  Mg17  1  0.85999094  0.38245100  0.38555989  1
  Mg  Mg18  1  0.86959631  0.86750677  0.37585314  1
  Mg  Mg19  1  0.55718139  0.77455198  0.17940020  1
  Mg  Mg20  1  -0.00100385  0.54587480  -0.03631099  1
  Mg  Mg21  1  0.51416345  0.45762511  0.52728787  1
  Mg  Mg22  1  0.24771057  0.27896660  0.03728221  1
  Mg  Mg23  1  0.52637231  0.74292646  -0.02509228  1
  Mg  Mg24  1  0.26561385  0.44175336  0.26693004  1
  Mg  Mg25  1  0.52143294  -0.06903942  0.02488046  1
  Mg  Mg26  1  0.47353265  0.74300955  0.46801234  1
  Mg  Mg27  1  0.51170803  0.50379025  0.71768773  1
  Mg  Mg28  1  0.49801585  -0.04876009  0.19723357  1
  Mg  Mg29  1  0.74770040  0.50754093  0.74442016  1
  Mg  Mg30  1  0.81169943  0.23718988  0.74607871  1
  Mg  Mg31  1  0.29857163  0.70147871  0.75803962  1
  Ti  Ti32  1  0.38455388  0.88790987  0.87289541  1
  Ti  Ti33  1  0.38222559  0.36929340  0.88534876  1
  Ti  Ti34  1  0.63909503  0.38504837  0.86055372  1
  Ti  Ti35  1  0.86443570  0.38863329  0.63229389  1
  Ti  Ti36  1  0.86795860  0.87643463  0.87993304  1
  Ti  Ti37  1  0.10921080  0.60390077  0.11851009  1
  Ti  Ti38  1  0.61146832  0.87391099  0.36990675  1
  Ti  Ti39  1  0.88185486  0.37471082  0.87372542  1
  Ti  Ti40  1  0.62995973  0.62855337  0.11191258  1
  Ti  Ti41  1  0.37815539  0.12244117  0.36970655  1
  Ti  Ti42  1  0.37461634  0.63140366  0.34797751  1
  Ti  Ti43  1  0.13650432  0.87541946  0.87419962  1
  Ti  Ti44  1  0.62512409  0.87850434  0.87292395  1
  Ti  Ti45  1  0.13256290  0.38262452  0.62649618  1
  Ti  Ti46  1  0.36551854  0.86625810  0.62425022  1
  Ti  Ti47  1  0.88675683  0.62046304  0.61377362  1
  Ti  Ti48  1  0.87659289  0.11587070  0.63072401  1
  Ti  Ti49  1  0.87135208  0.87602589  0.11814893  1
  Ti  Ti50  1  0.12937225  0.37647725  0.88534479  1
  Ti  Ti51  1  0.39041205  0.13029299  0.87112264  1
  Ti  Ti52  1  0.39531234  0.62126700  0.88070908  1
  Ti  Ti53  1  0.87360748  0.86641480  0.62363184  1
  Ti  Ti54  1  0.63120026  0.14256877  0.86093766  1
  Ti  Ti55  1  0.11258566  0.12582623  0.61984944  1
  Ti  Ti56  1  0.13079088  0.86183290  0.63265914  1
  Ti  Ti57  1  0.37886863  0.87463401  0.36259955  1
  Ti  Ti58  1  0.86768582  0.12852958  0.88083832  1
  Ti  Ti59  1  0.87721612  0.61878552  0.11807653  1
  Ti  Ti60  1  0.62054256  0.36406558  0.39111426  1
  Ti  Ti61  1  0.13402150  0.87967259  0.12982243  1
  Ti  Ti62  1  0.63394905  0.87990992  0.62224356  1
  Ti  Ti63  1  0.36457277  0.86616316  0.11568486  1
  Ti  Ti64  1  0.62803149  0.13341512  0.63145360  1
  Ti  Ti65  1  0.60650341  0.64101801  0.36527598  1
  Ti  Ti66  1  0.14725507  0.62711863  0.62906344  1
  Ti  Ti67  1  0.11959191  0.12426956  0.38318923  1
  Ti  Ti68  1  0.38583667  0.62733665  0.60604114  1
  Ti  Ti69  1  0.36529515  0.11891401  0.62899801  1
  Ti  Ti70  1  0.62317658  0.61591407  0.85931786  1
  Ti  Ti71  1  0.86963796  0.62503018  0.37151319  1
  Ti  Ti72  1  0.37856658  0.10928962  0.11290309  1
  Ti  Ti73  1  0.37288101  0.36572744  0.13229513  1
  Bi  Bi74  1  0.50728278  0.76424869  0.71670703  1
  Bi  Bi75  1  0.49938579  0.00679240  0.72392664  1
  Bi  Bi76  1  0.00638613  0.74972727  0.47543258  1
  Bi  Bi77  1  -0.03150234  -0.01462925  0.26394623  1
  Bi  Bi78  1  0.27158186  0.74864930  -0.02077320  1
  Bi  Bi79  1  0.72233742  0.46632739  0.24666789  1
  Bi  Bi80  1  -0.01875637  0.75016157  0.78182075  1
  Bi  Bi81  1  0.52535017  0.46547382  0.02296894  1
  Bi  Bi82  1  0.22144320  0.01854752  0.75468167  1
  Bi  Bi83  1  0.73103729  0.76282507  -0.00464198  1
  Bi  Bi84  1  0.03384073  0.75687454  0.00741591  1
  Bi  Bi85  1  0.49889295  0.28441089  0.73759092  1
  Bi  Bi86  1  0.00112132  0.75338616  0.23497005  1
  Bi  Bi87  1  0.49038964  -0.00133831  0.49561355  1
  Bi  Bi88  1  0.25386429  0.50088694  0.46891247  1
  Bi  Bi89  1  0.01583818  -0.03324653  0.50476637  1
  Bi  Bi90  1  0.68893518  0.00201285  0.21795666  1
  Bi  Bi91  1  0.75119614  0.46709728  0.01819583  1
  Bi  Bi92  1  0.24210504  0.73971091  0.46487010  1
  Bi  Bi93  1  -0.03180993  0.27272712  0.51637839  1
  Bi  Bi94  1  0.74001537  0.74172047  0.47366318  1
  Bi  Bi95  1  0.24474875  0.26473526  0.75354508  1
  Bi  Bi96  1  0.22401937  0.24971878  0.24587067  1
  Bi  Bi97  1  0.24989565  0.01781310  0.24918043  1
  Bi  Bi98  1  0.00087623  0.25412977  0.03715794  1
  Bi  Bi99  1  0.01791825  0.27493146  0.74869518  1
  Bi  Bi100  1  0.69963323  0.00488537  0.01225403  1
  Bi  Bi101  1  0.02001247  0.01606012  0.02023296  1
  Bi  Bi102  1  -0.02333497  0.47285036  0.25911423  1
  Bi  Bi103  1  0.25195336  0.02985814  -0.01906365  1
  Bi  Bi104  1  0.46576714  0.24697489  0.52106932  1
  Bi  Bi105  1  0.75092391  0.21841727  0.49056782  1
  Bi  Bi106  1  0.24362975  0.26279210  0.47880663  1
  Bi  Bi107  1  0.23804731  0.70996277  0.21635085  1
  Bi  Bi108  1  0.01804240  0.50855443  0.49602708  1
  Bi  Bi109  1  0.53822453  0.23838824  0.01173115  1
  Bi  Bi110  1  0.28074359  0.50375191  0.02422464  1
  Bi  Bi111  1  -0.00066532  0.00296720  0.78535446  1
  Bi  Bi112  1  0.75926862  0.72486567  0.72462775  1
  Bi  Bi113  1  0.50728962  0.48211302  0.27310658  1
  Bi  Bi114  1  0.53947003  0.24121620  0.21705368  1
  Bi  Bi115  1  -0.02662689  0.25779773  0.28420725  1
  Bi  Bi116  1  0.72118665  0.51444433  0.53038992  1
  Bi  Bi117  1  0.75063877  -0.01484885  0.46378069  1
  Bi  Bi118  1  0.75606161  0.73502131  0.23017523  1
  Bi  Bi119  1  0.24292114  -0.01004285  0.47890870  1
  Bi  Bi120  1  0.75320781  0.22762981  0.03126067  1
  Bi  Bi121  1  0.01042870  0.51379395  0.76856075  1
  Bi  Bi122  1  0.75497107  0.00289971  0.74203744  1
  Bi  Bi123  1  0.75162158  0.21127408  0.25090081  1
  Bi  Bi124  1  0.28509198  0.50856599  0.76897939  1
  O  O125  1  0.13718985  0.10693253  -0.00186944  1
  O  O126  1  0.14592922  0.12057993  0.25772537  1
  O  O127  1  0.14425640  0.14250440  0.50469523  1
  O  O128  1  0.11147092  0.10682239  0.74427969  1
  O  O129  1  0.14988771  0.35643359  -0.00485747  1
  O  O130  1  0.15541641  0.37479461  0.25435377  1
  O  O131  1  0.13935520  0.35375049  0.51123096  1
  O  O132  1  0.09783479  0.39180395  0.74854933  1
  O  O133  1  0.09913623  0.62271811  -0.00052238  1
  O  O134  1  0.11050092  0.64082524  0.23852778  1
  O  O135  1  0.16492056  0.63058538  0.50665051  1
  O  O136  1  0.11059306  0.60885362  0.73895613  1
  O  O137  1  0.12141332  0.88715650  -0.00467309  1
  O  O138  1  0.11633292  0.86056052  0.24311326  1
  O  O139  1  0.12688149  0.87685915  0.50889529  1
  O  O140  1  0.11438816  0.88510179  0.74689497  1
  O  O141  1  0.34926703  0.13263961  -0.00164949  1
  O  O142  1  0.37147939  0.09789936  0.25263630  1
  O  O143  1  0.36195041  0.14077776  0.51291307  1
  O  O144  1  0.39644920  0.10579566  0.75330923  1
  O  O145  1  0.33714453  0.36176680  -0.00513470  1
  O  O146  1  0.38358468  0.38483383  0.24828098  1
  O  O147  1  0.36797500  0.34664784  0.50657914  1
  O  O148  1  0.40846484  0.39416319  0.75554213  1
  O  O149  1  0.35212405  0.63427498  -0.00496607  1
  O  O150  1  0.38055251  0.63476638  0.23690507  1
  O  O151  1  0.34804335  0.63907383  0.49846542  1
  O  O152  1  0.39904514  0.60049603  0.75704044  1
  O  O153  1  0.34959779  0.86625516  0.00001018  1
  O  O154  1  0.39103562  0.89846526  0.25132995  1
  O  O155  1  0.37600593  0.84014901  0.51590865  1
  O  O156  1  0.40244349  0.88462121  0.75913906  1
  O  O157  1  0.64461777  0.13784506  -0.01444766  1
  O  O158  1  0.62305625  0.14322265  0.25947681  1
  O  O159  1  0.65640907  0.11614740  0.51493137  1
  O  O160  1  0.59313824  0.11921703  0.75301138  1
  O  O161  1  0.64773681  0.38198001  -0.01352575  1
  O  O162  1  0.60020495  0.38109464  0.26285222  1
  O  O163  1  0.63403349  0.39870648  0.50112738  1
  O  O164  1  0.58723097  0.39680760  0.75218972  1
  O  O165  1  0.66322399  0.62060608  0.00311105  1
  O  O166  1  0.60948346  0.67880399  0.25341272  1
  O  O167  1  0.64822079  0.62532063  0.49279207  1
  O  O168  1  0.58213276  0.61659336  0.75170523  1
  O  O169  1  0.63953475  0.87334908  0.00111090  1
  O  O170  1  0.59158686  0.87655188  0.25439860  1
  O  O171  1  0.64145608  0.89309496  0.50958408  1
  O  O172  1  0.60055947  0.87185919  0.76153606  1
  O  O173  1  0.84151250  0.11367093  -0.00742463  1
  O  O174  1  0.88296054  0.15143015  0.25299178  1
  O  O175  1  0.84591368  0.11551498  0.51054073  1
  O  O176  1  0.89607022  0.14320103  0.74589173  1
  O  O177  1  0.85266023  0.37974712  -0.00927120  1
  O  O178  1  0.88671843  0.36418947  0.25456465  1
  O  O179  1  0.87613080  0.38872109  0.51253951  1
  O  O180  1  0.88237985  0.34966861  0.74856655  1
  O  O181  1  0.88195740  0.59921816  0.00505637  1
  O  O182  1  0.88774641  0.65697843  0.25787504  1
  O  O183  1  0.84493343  0.60678739  0.50271224  1
  O  O184  1  0.88737904  0.65190242  0.73601251  1
  O  O185  1  0.86542381  0.88684998  -0.00223824  1
  O  O186  1  0.89906712  0.86384960  0.24688398  1
  O  O187  1  0.86011122  0.89791090  0.50900453  1
  O  O188  1  0.88257757  0.85120966  0.74723114  1
  O  O189  1  0.00656510  0.13455280  0.10136108  1
  O  O190  1  0.00656703  0.12808259  0.38066742  1
  O  O191  1  -0.00385419  0.14174581  0.60376809  1
  O  O192  1  -0.01173958  0.11052568  0.88801870  1
  O  O193  1  0.00630107  0.34246245  0.13748215  1
  O  O194  1  -0.00010234  0.38049207  0.37693369  1
  O  O195  1  0.00253823  0.36069326  0.62241526  1
  O  O196  1  -0.00446160  0.34653187  0.88053567  1
  O  O197  1  -0.00728836  0.66283076  0.12149849  1
  O  O198  1  -0.00463993  0.61817873  0.40442450  1
  O  O199  1  0.00052644  0.62502055  0.58804069  1
  O  O200  1  -0.00387736  0.62810260  0.86379824  1
  O  O201  1  0.00154559  0.84335245  0.11693386  1
  O  O202  1  -0.00195462  0.87606738  0.39504536  1
  O  O203  1  -0.00354242  0.86966198  0.61066210  1
  O  O204  1  -0.00640243  0.88489251  0.87219679  1
  O  O205  1  0.25868087  0.08614568  0.12835106  1
  O  O206  1  0.25642537  0.09577501  0.38130310  1
  O  O207  1  0.25165898  0.11746975  0.65001564  1
  O  O208  1  0.25443962  0.10805599  0.85879321  1
  O  O209  1  0.26003932  0.41559250  0.13530666  1
  O  O210  1  0.25631751  0.37998658  0.38781142  1
  O  O211  1  0.24855736  0.37678976  0.65471049  1
  O  O212  1  0.24394941  0.38092519  0.84486330  1
  O  O213  1  0.23039454  0.60146039  0.12822894  1
  O  O214  1  0.25068394  0.65250724  0.35490083  1
  O  O215  1  0.26100588  0.61918034  0.65673785  1
  O  O216  1  0.25158773  0.61922598  0.84563047  1
  O  O217  1  0.25079317  0.90247419  0.13905237  1
  O  O218  1  0.25616126  0.88574734  0.37949097  1
  O  O219  1  0.24912519  0.88518764  0.63283096  1
  O  O220  1  0.25304258  0.88285233  0.86635358  1
  O  O221  1  0.48472250  0.16133899  0.11575557  1
  O  O222  1  0.49205565  0.10737984  0.40341513  1
  O  O223  1  0.50716641  0.11088517  0.61032079  1
  O  O224  1  0.50050387  0.14030175  0.89472793  1
  O  O225  1  0.48861685  0.35577438  0.09901616  1
  O  O226  1  0.50018090  0.41199854  0.40032713  1
  O  O227  1  0.50088721  0.35607528  0.60994338  1
  O  O228  1  0.49276306  0.37095908  0.91254951  1
  O  O229  1  0.52099873  0.67876729  0.09180948  1
  O  O230  1  0.49017656  0.63168689  0.38801371  1
  O  O231  1  0.49013524  0.67805455  0.58717904  1
  O  O232  1  0.50297831  0.63726664  0.90941497  1
  O  O233  1  0.48433569  0.85333353  0.11591002  1
  O  O234  1  0.49626674  0.88147983  0.40222185  1
  O  O235  1  0.50562449  0.86890553  0.62608709  1
  O  O236  1  0.49783169  0.85946027  0.91795887  1
  O  O237  1  0.75304354  0.12158464  0.14050985  1
  O  O238  1  0.74758826  0.14083097  0.37247769  1
  O  O239  1  0.75367958  0.12571507  0.66386552  1
  O  O240  1  0.74465738  0.11991982  0.83951175  1
  O  O241  1  0.75431085  0.39367301  0.13173781  1
  O  O242  1  0.73590395  0.37653035  0.35796004  1
  O  O243  1  0.75135559  0.41441223  0.65158472  1
  O  O244  1  0.74718910  0.41039890  0.83763317  1
  O  O245  1  0.75409691  0.61321136  0.15674974  1
  O  O246  1  0.74864898  0.65474373  0.36173494  1
  O  O247  1  0.74504258  0.60230916  0.65176958  1
  O  O248  1  0.74124759  0.60893147  0.83021952  1
  O  O249  1  0.76331109  0.91115878  0.14041654  1
  O  O250  1  0.73908203  0.85744977  0.37689708  1
  O  O251  1  0.75129083  0.88100856  0.64824000  1
  O  O252  1  0.74577995  0.87245578  0.86540996  1
  O  O253  1  0.10008363  -0.00578099  0.13135908  1
  O  O254  1  0.12244236  0.00156801  0.39677987  1
  O  O255  1  0.11510084  0.00780679  0.61052340  1
  O  O256  1  0.12231270  -0.00089502  0.86452722  1
  O  O257  1  0.15954122  0.24822742  0.12413418  1
  O  O258  1  0.14616411  0.24438749  0.37160173  1
  O  O259  1  0.13339749  0.25066813  0.65517345  1
  O  O260  1  0.13255955  0.25543736  0.84430885  1
  O  O261  1  0.08033598  0.49808774  0.11823312  1
  O  O262  1  0.13156257  0.50275423  0.40086663  1
  O  O263  1  0.12316728  0.49992197  0.60042499  1
  O  O264  1  0.09150917  0.49124209  0.88560906  1
  O  O265  1  0.14683840  0.75797643  0.09837507  1
  O  O266  1  0.11527210  0.74825327  0.38745235  1
  O  O267  1  0.13429675  0.74658696  0.63274279  1
  O  O268  1  0.12388216  0.75760555  0.87965016  1
  O  O269  1  0.41500978  -0.00005774  0.10452165  1
  O  O270  1  0.37518277  -0.00875344  0.41674827  1
  O  O271  1  0.38829111  -0.00532665  0.61658737  1
  O  O272  1  0.38768053  0.00025538  0.88989907  1
  O  O273  1  0.33792224  0.25618087  0.12874633  1
  O  O274  1  0.36965970  0.23654903  0.36948110  1
  O  O275  1  0.38934025  0.23900933  0.64476400  1
  O  O276  1  0.37100983  0.25131166  0.85400681  1
  O  O277  1  0.40028382  0.50217760  0.09332424  1
  O  O278  1  0.34226209  0.51455829  0.35917895  1
  O  O279  1  0.41590538  0.51248937  0.60483260  1
  O  O280  1  0.36780749  0.49853531  0.88951427  1
  O  O281  1  0.33947864  0.75226744  0.11572997  1
  O  O282  1  0.38117144  0.75676470  0.37208722  1
  O  O283  1  0.36447627  0.75039095  0.66422496  1
  O  O284  1  0.36297665  0.74151338  0.86439675  1
  O  O285  1  0.59592660  -0.00240560  0.11574489  1
  O  O286  1  0.63392589  -0.00663867  0.37437873  1
  O  O287  1  0.62994326  -0.00247117  0.64896499  1
  O  O288  1  0.62091826  -0.00347850  0.89188198  1
  O  O289  1  0.62929593  0.25400829  0.11823538  1
  O  O290  1  0.60995062  0.25391554  0.40567298  1
  O  O291  1  0.62835122  0.24693874  0.63680808  1
  O  O292  1  0.63060852  0.26008289  0.85853937  1
  O  O293  1  0.59894330  0.51879704  0.14666573  1
  O  O294  1  0.62167371  0.52473032  0.34580875  1
  O  O295  1  0.59513024  0.50762866  0.61330468  1
  O  O296  1  0.60778395  0.50365302  0.87994107  1
  O  O297  1  0.66552009  0.75039582  0.11833986  1
  O  O298  1  0.60347677  0.75736293  0.41236899  1
  O  O299  1  0.63754481  0.75489137  0.64133009  1
  O  O300  1  0.62828022  0.74403045  0.89474122  1
  O  O301  1  0.91452409  -0.00568153  0.13491864  1
  O  O302  1  0.86455287  -0.00313612  0.35531754  1
  O  O303  1  0.87440066  0.00084281  0.65127515  1
  O  O304  1  0.86583315  -0.00158578  0.84898968  1
  O  O305  1  0.87564453  0.24596865  0.10025583  1
  O  O306  1  0.88062972  0.25344950  0.39589129  1
  O  O307  1  0.85842344  0.25571265  0.61168433  1
  O  O308  1  0.84747123  0.24547306  0.87454868  1
  O  O309  1  0.89366042  0.50722246  0.14950392  1
  O  O310  1  0.87062940  0.50799990  0.34781507  1
  O  O311  1  0.89306526  0.50375188  0.64468250  1
  O  O312  1  0.90126773  0.49145636  0.86832338  1
  O  O313  1  0.84663139  0.75372636  0.11572838  1
  O  O314  1  0.88274021  0.74481622  0.40680775  1
  O  O315  1  0.85236722  0.74770954  0.60794333  1
  O  O316  1  0.87880537  0.75330852  0.88150066  1
