# generated using pymatgen
data_Mg32Ti42(Bi17O64)3
_symmetry_space_group_name_H-M   'P 1'
_cell_length_a   15.92049191
_cell_length_b   15.96458891
_cell_length_c   15.92963177
_cell_angle_alpha   89.99511018
_cell_angle_beta   89.95666932
_cell_angle_gamma   89.92512292
_symmetry_Int_Tables_number   1
_chemical_formula_structural   Mg32Ti42(Bi17O64)3
_chemical_formula_sum   'Mg32 Ti42 Bi51 O192'
_cell_volume   4048.73602896
_cell_formula_units_Z   1
loop_
 _symmetry_equiv_pos_site_id
 _symmetry_equiv_pos_as_xyz
  1  'x, y, z'
loop_
 _atom_site_type_symbol
 _atom_site_label
 _atom_site_symmetry_multiplicity
 _atom_site_fract_x
 _atom_site_fract_y
 _atom_site_fract_z
 _atom_site_occupancy
  Mg  Mg0  1  0.87312643  0.13315776  0.13298491  1
  Mg  Mg1  1  0.62620445  0.62786818  0.63006331  1
  Mg  Mg2  1  0.36677061  0.87461541  0.12232873  1
  Mg  Mg3  1  0.36918025  0.61605893  0.12275282  1
  Mg  Mg4  1  0.86724499  0.61568179  0.87822324  1
  Mg  Mg5  1  0.11650067  0.37835382  0.87146388  1
  Mg  Mg6  1  0.37066395  0.87320705  0.61352078  1
  Mg  Mg7  1  0.12433423  0.12514268  0.88139975  1
  Mg  Mg8  1  0.12460405  0.62351714  0.87292111  1
  Mg  Mg9  1  0.11937288  0.63023572  0.37725401  1
  Mg  Mg10  1  0.86971149  0.61933530  0.12360439  1
  Mg  Mg11  1  0.36850176  0.88269101  0.87686816  1
  Mg  Mg12  1  0.88352928  0.87282392  0.37461955  1
  Mg  Mg13  1  0.11507771  0.13113548  0.61159213  1
  Mg  Mg14  1  0.86963786  0.86311361  0.11990017  1
  Mg  Mg15  1  0.62293937  0.37502211  0.62822046  1
  Mg  Mg16  1  0.37780876  0.86955756  0.37957169  1
  Mg  Mg17  1  0.38280839  0.13093407  0.61766258  1
  Mg  Mg18  1  0.86051190  0.88600772  0.64081649  1
  Mg  Mg19  1  -0.01127527  0.04071165  -0.01386158  1
  Mg  Mg20  1  0.00046193  0.52531011  -0.01641942  1
  Mg  Mg21  1  -0.01362857  -0.05654661  0.52417133  1
  Mg  Mg22  1  0.02574739  0.50628239  0.45322992  1
  Mg  Mg23  1  0.75558158  0.72411388  0.26311503  1
  Mg  Mg24  1  0.17823212  0.78468519  0.51097978  1
  Mg  Mg25  1  0.25304827  0.45008869  0.71999243  1
  Mg  Mg26  1  0.50346938  0.22384416  0.01729764  1
  Mg  Mg27  1  -0.01759683  0.76166692  0.57179061  1
  Mg  Mg28  1  0.73089677  -0.00948571  0.80140422  1
  Mg  Mg29  1  0.74391309  0.30812287  0.21890411  1
  Mg  Mg30  1  0.47016565  0.23524981  0.47028472  1
  Mg  Mg31  1  0.00419666  0.17905152  0.75005314  1
  Ti  Ti32  1  0.37597559  0.36509550  0.60896877  1
  Ti  Ti33  1  0.11201343  0.62180439  0.62693971  1
  Ti  Ti34  1  0.63484755  0.86555327  0.13116924  1
  Ti  Ti35  1  0.61602224  0.12213670  0.86912869  1
  Ti  Ti36  1  0.87938346  0.11150249  0.62002667  1
  Ti  Ti37  1  0.35965265  0.63190533  0.62378350  1
  Ti  Ti38  1  0.86832765  0.37210386  0.37698360  1
  Ti  Ti39  1  0.62504645  0.86277608  0.36962169  1
  Ti  Ti40  1  0.86923701  0.13776617  0.87146046  1
  Ti  Ti41  1  0.11719920  0.36991835  0.37611222  1
  Ti  Ti42  1  0.62507907  0.62135649  0.12802857  1
  Ti  Ti43  1  0.87381290  0.88258438  0.88505279  1
  Ti  Ti44  1  0.11770583  0.12007779  0.36936084  1
  Ti  Ti45  1  0.12340801  0.36944979  0.11862289  1
  Ti  Ti46  1  0.61768271  0.12854756  0.37353760  1
  Ti  Ti47  1  0.11741129  0.37762840  0.62202865  1
  Ti  Ti48  1  0.38509129  0.11484245  0.36678972  1
  Ti  Ti49  1  0.61270780  0.62059301  0.87912888  1
  Ti  Ti50  1  0.36952223  0.11825806  0.88643555  1
  Ti  Ti51  1  0.11400016  0.86786951  0.36408144  1
  Ti  Ti52  1  0.87506620  0.62165804  0.38167871  1
  Ti  Ti53  1  0.87498084  0.38646845  0.64104689  1
  Ti  Ti54  1  0.11437864  0.12756030  0.13095874  1
  Ti  Ti55  1  0.37115428  0.37013817  0.12787719  1
  Ti  Ti56  1  0.87326062  0.61173536  0.62838157  1
  Ti  Ti57  1  0.87929441  0.37496489  0.87812533  1
  Ti  Ti58  1  0.37510176  0.37851575  0.37866374  1
  Ti  Ti59  1  0.37459528  0.63592238  0.86926777  1
  Ti  Ti60  1  0.88644547  0.38246055  0.11312071  1
  Ti  Ti61  1  0.36964818  0.12376749  0.12409717  1
  Ti  Ti62  1  0.62084979  0.36468764  0.38062576  1
  Ti  Ti63  1  0.62747841  0.63077075  0.38344970  1
  Ti  Ti64  1  0.38000436  0.62175250  0.38333881  1
  Ti  Ti65  1  0.62441013  0.11404698  0.14014343  1
  Ti  Ti66  1  0.13360526  0.61727352  0.12196697  1
  Ti  Ti67  1  0.61834452  0.12115988  0.62689259  1
  Ti  Ti68  1  0.11289865  0.88265550  0.88435852  1
  Ti  Ti69  1  0.12841293  0.85396488  0.12570019  1
  Ti  Ti70  1  0.62535334  0.87364239  0.89129854  1
  Ti  Ti71  1  0.63157531  0.88289329  0.63309029  1
  Ti  Ti72  1  0.88473943  0.10789578  0.38056150  1
  Ti  Ti73  1  0.63813703  0.35975464  0.86563698  1
  Bi  Bi74  1  0.48045984  0.73663524  0.01597938  1
  Bi  Bi75  1  0.25882107  0.28281591  -0.04492595  1
  Bi  Bi76  1  0.46291476  0.27436590  0.78329920  1
  Bi  Bi77  1  0.49277707  0.49484734  0.24536957  1
  Bi  Bi78  1  0.74386072  0.48774679  0.52044421  1
  Bi  Bi79  1  0.27090566  0.49730927  -0.03738795  1
  Bi  Bi80  1  0.74762983  0.22091164  0.73167981  1
  Bi  Bi81  1  0.25687234  0.21475384  0.48101326  1
  Bi  Bi82  1  -0.02097109  0.73373804  0.77222294  1
  Bi  Bi83  1  0.21549733  0.25442078  0.73443125  1
  Bi  Bi84  1  0.71620028  0.47719339  0.02094284  1
  Bi  Bi85  1  0.48646072  -0.01066671  0.50501081  1
  Bi  Bi86  1  -0.02767897  0.25989949  0.24638854  1
  Bi  Bi87  1  0.78720722  0.76169069  0.50859911  1
  Bi  Bi88  1  0.50602437  0.50471547  0.51582325  1
  Bi  Bi89  1  -0.03212226  0.74278458  0.24117036  1
  Bi  Bi90  1  0.00226047  0.50218921  0.77271981  1
  Bi  Bi91  1  -0.00514862  0.72625822  0.00771003  1
  Bi  Bi92  1  0.72428978  0.24335174  0.02593688  1
  Bi  Bi93  1  0.24483086  0.04093119  0.73952225  1
  Bi  Bi94  1  0.21033122  -0.00328375  0.01431748  1
  Bi  Bi95  1  -0.01200136  0.51079801  0.23392797  1
  Bi  Bi96  1  0.46691985  -0.00354138  0.73562874  1
  Bi  Bi97  1  0.24890917  -0.02390114  0.26493572  1
  Bi  Bi98  1  0.21977250  0.49165633  0.25349009  1
  Bi  Bi99  1  0.74611932  0.50802734  0.27910369  1
  Bi  Bi100  1  0.52259587  0.27044266  0.21653700  1
  Bi  Bi101  1  0.21403466  0.78630667  0.70354878  1
  Bi  Bi102  1  0.49003419  -0.02206007  0.00292903  1
  Bi  Bi103  1  0.49011218  0.45302849  -0.01613235  1
  Bi  Bi104  1  0.74984618  0.77424348  0.75451563  1
  Bi  Bi105  1  0.19867130  -0.01884900  0.50402600  1
  Bi  Bi106  1  0.73640346  -0.00034853  0.48440981  1
  Bi  Bi107  1  0.72897663  0.50141794  0.75462350  1
  Bi  Bi108  1  0.46573910  0.50308260  0.73158565  1
  Bi  Bi109  1  -0.00110549  0.24353229  -0.01692817  1
  Bi  Bi110  1  0.51148795  0.75653757  0.52131319  1
  Bi  Bi111  1  0.24325815  0.24945818  0.24109767  1
  Bi  Bi112  1  -0.02039790  -0.01239495  0.21695060  1
  Bi  Bi113  1  0.02601299  -0.03355145  0.71766679  1
  Bi  Bi114  1  0.47725840  0.77473309  0.74775663  1
  Bi  Bi115  1  0.74800232  0.71338104  -0.00321887  1
  Bi  Bi116  1  0.75534875  -0.01397018  0.25353311  1
  Bi  Bi117  1  -0.03322881  0.26027297  0.52584376  1
  Bi  Bi118  1  0.22342662  0.50690087  0.49851984  1
  Bi  Bi119  1  0.47027295  0.73691858  0.23976354  1
  Bi  Bi120  1  0.49033575  -0.03071817  0.24273217  1
  Bi  Bi121  1  0.25401094  0.71802536  0.27519876  1
  Bi  Bi122  1  0.73048148  0.23647673  0.49910840  1
  Bi  Bi123  1  0.78122058  0.00631325  0.01231198  1
  Bi  Bi124  1  0.24617066  0.75878869  -0.03698404  1
  O  O125  1  0.09716337  0.13275205  0.00998797  1
  O  O126  1  0.15063245  0.13203138  0.25168757  1
  O  O127  1  0.14180843  0.12575781  0.48841775  1
  O  O128  1  0.12484095  0.12620105  0.74844199  1
  O  O129  1  0.14087210  0.36588674  0.00628705  1
  O  O130  1  0.11874751  0.37656123  0.25811669  1
  O  O131  1  0.13551532  0.39653235  0.50155018  1
  O  O132  1  0.14170034  0.38088256  0.74291194  1
  O  O133  1  0.09412629  0.61555604  0.00750234  1
  O  O134  1  0.13694064  0.62360127  0.24888377  1
  O  O135  1  0.11599680  0.59471993  0.50285096  1
  O  O136  1  0.09598990  0.61910809  0.74483161  1
  O  O137  1  0.11128757  0.86603757  0.00744330  1
  O  O138  1  0.15661421  0.87169209  0.24860343  1
  O  O139  1  0.09938329  0.88306214  0.48553008  1
  O  O140  1  0.13793523  0.89712305  0.76033264  1
  O  O141  1  0.39518983  0.15305479  -0.00004326  1
  O  O142  1  0.37781911  0.10971511  0.24649917  1
  O  O143  1  0.39015059  0.13152267  0.49048773  1
  O  O144  1  0.36779421  0.10309948  0.75520230  1
  O  O145  1  0.35516732  0.38169936  0.01163359  1
  O  O146  1  0.41767693  0.37440919  0.25494689  1
  O  O147  1  0.37109345  0.40638980  0.49636547  1
  O  O148  1  0.38257128  0.37810815  0.73769169  1
  O  O149  1  0.38101679  0.64429399  -0.00201472  1
  O  O150  1  0.37542418  0.62607278  0.25183960  1
  O  O151  1  0.37488856  0.61435631  0.50252669  1
  O  O152  1  0.38788402  0.63505332  0.75152539  1
  O  O153  1  0.40430911  0.86927874  0.00105917  1
  O  O154  1  0.36525056  0.89971590  0.24975490  1
  O  O155  1  0.42047661  0.86818321  0.49761492  1
  O  O156  1  0.37355708  0.87966293  0.74721863  1
  O  O157  1  0.61730872  0.16477862  -0.01222146  1
  O  O158  1  0.62963327  0.10634667  0.25637026  1
  O  O159  1  0.61395807  0.15258440  0.50494962  1
  O  O160  1  0.65719438  0.10732467  0.74805333  1
  O  O161  1  0.64739979  0.35549691  -0.00954507  1
  O  O162  1  0.59956662  0.38324488  0.26202652  1
  O  O163  1  0.66723697  0.36498749  0.49609390  1
  O  O164  1  0.61991079  0.40865883  0.75628630  1
  O  O165  1  0.61576244  0.66139584  0.00210701  1
  O  O166  1  0.63651192  0.61097570  0.24278286  1
  O  O167  1  0.63642523  0.65239705  0.49398108  1
  O  O168  1  0.62442621  0.60362090  0.76201039  1
  O  O169  1  0.60897807  0.86611473  0.00613392  1
  O  O170  1  0.64348741  0.90104585  0.25052651  1
  O  O171  1  0.60176163  0.86159631  0.49092051  1
  O  O172  1  0.65859079  0.89605346  0.74580342  1
  O  O173  1  0.89372996  0.14372411  -0.00253795  1
  O  O174  1  0.87559279  0.08940313  0.26091860  1
  O  O175  1  0.88537803  0.15184122  0.50156767  1
  O  O176  1  0.88388381  0.12204799  0.74775672  1
  O  O177  1  0.87276520  0.35114338  0.00056037  1
  O  O178  1  0.90992035  0.39552001  0.24636492  1
  O  O179  1  0.85706820  0.35789156  0.49220709  1
  O  O180  1  0.88344083  0.39799479  0.75411021  1
  O  O181  1  0.88410716  0.64676163  0.00174957  1
  O  O182  1  0.87330727  0.59027185  0.24705822  1
  O  O183  1  0.86350353  0.64039239  0.49688209  1
  O  O184  1  0.89458319  0.60394951  0.74874027  1
  O  O185  1  0.88108198  0.83946665  -0.00646705  1
  O  O186  1  0.86788813  0.90801008  0.24751681  1
  O  O187  1  0.90479146  0.83809500  0.49782288  1
  O  O188  1  0.83037665  0.89728811  0.76217358  1
  O  O189  1  0.00266081  0.14535799  0.15348034  1
  O  O190  1  0.00607008  0.13770289  0.36560217  1
  O  O191  1  -0.00726899  0.15984997  0.62776735  1
  O  O192  1  -0.00371350  0.15262280  0.87134421  1
  O  O193  1  0.00864768  0.34068666  0.11907733  1
  O  O194  1  0.00231870  0.38978211  0.39739559  1
  O  O195  1  0.00229081  0.38065501  0.62042466  1
  O  O196  1  -0.00805333  0.33994347  0.87415766  1
  O  O197  1  0.00054912  0.64988969  0.13717284  1
  O  O198  1  -0.00768697  0.60255193  0.37606941  1
  O  O199  1  -0.00495398  0.63956748  0.61164295  1
  O  O200  1  -0.00482259  0.65725319  0.88154751  1
  O  O201  1  0.00589510  0.85325585  0.15127023  1
  O  O202  1  0.00586953  0.86419743  0.33729403  1
  O  O203  1  -0.01459130  0.86467419  0.64345844  1
  O  O204  1  -0.00509040  0.85562088  0.85194324  1
  O  O205  1  0.25789901  0.10426076  0.11012048  1
  O  O206  1  0.26492149  0.12278089  0.37804867  1
  O  O207  1  0.25098735  0.12650253  0.63092598  1
  O  O208  1  0.25306459  0.09564699  0.88070468  1
  O  O209  1  0.25391725  0.38155372  0.15913370  1
  O  O210  1  0.26254487  0.39113266  0.35586438  1
  O  O211  1  0.25968837  0.35945254  0.62721085  1
  O  O212  1  0.24705981  0.39955740  0.87319356  1
  O  O213  1  0.24557891  0.59718759  0.11595948  1
  O  O214  1  0.25930950  0.61308631  0.37070953  1
  O  O215  1  0.24601012  0.65662131  0.62785234  1
  O  O216  1  0.25367036  0.61294851  0.88257198  1
  O  O217  1  0.24313078  0.90105604  0.11131896  1
  O  O218  1  0.25212998  0.90291866  0.38847097  1
  O  O219  1  0.24795762  0.85548081  0.59018457  1
  O  O220  1  0.23989350  0.88959302  0.90623259  1
  O  O221  1  0.51193225  0.15336652  0.12479923  1
  O  O222  1  0.50471091  0.15599456  0.36925074  1
  O  O223  1  0.50925730  0.11774483  0.64985271  1
  O  O224  1  0.50373838  0.14471192  0.85957565  1
  O  O225  1  0.48850660  0.32836464  0.09641467  1
  O  O226  1  0.51247391  0.34847762  0.41506261  1
  O  O227  1  0.49506029  0.41085393  0.61829596  1
  O  O228  1  0.51287050  0.34522212  0.89171226  1
  O  O229  1  0.50662968  0.64842655  0.13253539  1
  O  O230  1  0.50889518  0.63983569  0.37568118  1
  O  O231  1  0.49396575  0.59632844  0.62126512  1
  O  O232  1  0.50060479  0.66256848  0.87721567  1
  O  O233  1  0.51188534  0.86176586  0.15264277  1
  O  O234  1  0.51071656  0.86741099  0.34217189  1
  O  O235  1  0.51034083  0.88491063  0.64802339  1
  O  O236  1  0.51378644  0.86694727  0.85504398  1
  O  O237  1  0.74630035  0.11126670  0.10692054  1
  O  O238  1  0.75843561  0.10994039  0.39510478  1
  O  O239  1  0.76151999  0.12547664  0.61555043  1
  O  O240  1  0.75884056  0.09562719  0.88034274  1
  O  O241  1  0.77086447  0.40459175  0.13413492  1
  O  O242  1  0.75717949  0.36891718  0.33065587  1
  O  O243  1  0.75452118  0.40794379  0.64150442  1
  O  O244  1  0.75251775  0.40101946  0.86568304  1
  O  O245  1  0.74556539  0.60825136  0.09671834  1
  O  O246  1  0.75063221  0.62480635  0.35566484  1
  O  O247  1  0.75473852  0.60181287  0.63577443  1
  O  O248  1  0.74117921  0.61253898  0.89780404  1
  O  O249  1  0.74963925  0.91205238  0.11869914  1
  O  O250  1  0.75051275  0.90239570  0.38275362  1
  O  O251  1  0.74565425  0.87207462  0.59261226  1
  O  O252  1  0.74892877  0.90554474  0.90076612  1
  O  O253  1  0.11027042  0.00810039  0.12272012  1
  O  O254  1  0.12384938  0.00228701  0.36973083  1
  O  O255  1  0.08762668  0.00546540  0.60312036  1
  O  O256  1  0.09198888  -0.00319007  0.90559045  1
  O  O257  1  0.15362654  0.24934715  0.13622024  1
  O  O258  1  0.14801146  0.25589793  0.38326055  1
  O  O259  1  0.12658525  0.25968644  0.62497692  1
  O  O260  1  0.15409084  0.25196919  0.86820930  1
  O  O261  1  0.11455167  0.49192068  0.13713528  1
  O  O262  1  0.13414860  0.49604351  0.37467628  1
  O  O263  1  0.15925225  0.50210387  0.63169491  1
  O  O264  1  0.08358946  0.50032667  0.88387306  1
  O  O265  1  0.15133753  0.74352902  0.12255525  1
  O  O266  1  0.15069442  0.75424887  0.38873704  1
  O  O267  1  0.11382422  0.74584139  0.61178242  1
  O  O268  1  0.14313625  0.75586652  0.87252880  1
  O  O269  1  0.40632516  0.00720888  0.11112073  1
  O  O270  1  0.41025443  0.00306741  0.38173963  1
  O  O271  1  0.38980838  0.00030022  0.61691354  1
  O  O272  1  0.40097604  0.00516157  0.89269170  1
  O  O273  1  0.35355275  0.24633621  0.14860395  1
  O  O274  1  0.36753529  0.26051987  0.38824920  1
  O  O275  1  0.40818679  0.25841713  0.59143960  1
  O  O276  1  0.35291554  0.23941649  0.85409759  1
  O  O277  1  0.40534476  0.48753170  0.13226324  1
  O  O278  1  0.40866646  0.50138994  0.36156217  1
  O  O279  1  0.34848390  0.51144363  0.65288946  1
  O  O280  1  0.39419042  0.51280544  0.89214161  1
  O  O281  1  0.37551080  0.75063499  0.13912611  1
  O  O282  1  0.36703243  0.74333670  0.36350331  1
  O  O283  1  0.40275655  0.74692967  0.62418819  1
  O  O284  1  0.34933551  0.75520445  0.86970135  1
  O  O285  1  0.60370971  0.00507546  0.11461126  1
  O  O286  1  0.61853676  0.01124290  0.40427205  1
  O  O287  1  0.62846763  0.00220588  0.59889686  1
  O  O288  1  0.61464489  0.00639780  0.88070415  1
  O  O289  1  0.65767483  0.24675082  0.14866873  1
  O  O290  1  0.65220119  0.24749485  0.37185333  1
  O  O291  1  0.64674383  0.24750207  0.63743824  1
  O  O292  1  0.65050086  0.24917362  0.83982605  1
  O  O293  1  0.60683236  0.50876995  0.09808516  1
  O  O294  1  0.63865855  0.50113083  0.38663976  1
  O  O295  1  0.62575966  0.50270940  0.58834036  1
  O  O296  1  0.60178774  0.50627085  0.90757052  1
  O  O297  1  0.66263895  0.75667839  0.14693360  1
  O  O298  1  0.65229447  0.75355172  0.34765427  1
  O  O299  1  0.60681502  0.75713342  0.63627745  1
  O  O300  1  0.65822947  0.76229101  0.86440463  1
  O  O301  1  0.91036849  0.00234287  0.09423297  1
  O  O302  1  0.90245003  0.00119202  0.41620166  1
  O  O303  1  0.89886430  0.00179156  0.60398926  1
  O  O304  1  0.89869133  -0.00456914  0.90644279  1
  O  O305  1  0.85733285  0.25947148  0.16448132  1
  O  O306  1  0.88374728  0.25531071  0.35612259  1
  O  O307  1  0.86786726  0.26948108  0.62958434  1
  O  O308  1  0.84503269  0.24947963  0.86232640  1
  O  O309  1  0.92788734  0.49346716  0.09789750  1
  O  O310  1  0.85330277  0.49695911  0.38426685  1
  O  O311  1  0.88766166  0.50033412  0.59766617  1
  O  O312  1  0.90986284  0.49259728  0.89292601  1
  O  O313  1  0.85080330  0.74554006  0.16946074  1
  O  O314  1  0.86110964  0.74043366  0.34765227  1
  O  O315  1  0.85858073  0.74290885  0.63105382  1
  O  O316  1  0.85508519  0.75097786  0.84238735  1
