# generated using pymatgen
data_Mg32Ti42(Bi17O64)3
_symmetry_space_group_name_H-M   'P 1'
_cell_length_a   15.92668211
_cell_length_b   15.96180536
_cell_length_c   15.98827949
_cell_angle_alpha   89.95454701
_cell_angle_beta   90.01275708
_cell_angle_gamma   89.97644432
_symmetry_Int_Tables_number   1
_chemical_formula_structural   Mg32Ti42(Bi17O64)3
_chemical_formula_sum   'Mg32 Ti42 Bi51 O192'
_cell_volume   4064.51630264
_cell_formula_units_Z   1
loop_
 _symmetry_equiv_pos_site_id
 _symmetry_equiv_pos_as_xyz
  1  'x, y, z'
loop_
 _atom_site_type_symbol
 _atom_site_label
 _atom_site_symmetry_multiplicity
 _atom_site_fract_x
 _atom_site_fract_y
 _atom_site_fract_z
 _atom_site_occupancy
  Mg  Mg0  1  0.63260146  0.87358076  0.86433064  1
  Mg  Mg1  1  0.61549219  0.62324269  0.38199819  1
  Mg  Mg2  1  0.38170985  0.12714191  0.12024290  1
  Mg  Mg3  1  0.36563596  0.87611409  0.37537706  1
  Mg  Mg4  1  0.13013126  0.38992029  0.86730401  1
  Mg  Mg5  1  0.12821092  0.11214287  0.87382820  1
  Mg  Mg6  1  0.37660732  0.87631115  0.87411337  1
  Mg  Mg7  1  0.63165670  0.11954948  0.61840536  1
  Mg  Mg8  1  0.63060671  0.37526980  0.61617594  1
  Mg  Mg9  1  0.13676763  0.37648787  0.38630292  1
  Mg  Mg10  1  0.63235715  0.12529717  0.86629933  1
  Mg  Mg11  1  0.35877221  0.61805325  0.37320946  1
  Mg  Mg12  1  0.36929970  0.37678116  0.86839902  1
  Mg  Mg13  1  0.87961835  0.86978685  0.63034414  1
  Mg  Mg14  1  0.87303438  0.37990600  0.62152059  1
  Mg  Mg15  1  0.87691674  0.12651068  0.12546330  1
  Mg  Mg16  1  0.62666594  0.63295759  0.87383922  1
  Mg  Mg17  1  0.37949231  0.37149501  0.12583358  1
  Mg  Mg18  1  0.11844412  0.36904958  0.12884622  1
  Mg  Mg19  1  0.81671872  0.44972640  -0.00717563  1
  Mg  Mg20  1  0.43795862  0.72497724  0.51277288  1
  Mg  Mg21  1  0.55526342  -0.00182979  -0.04429554  1
  Mg  Mg22  1  -0.04215652  0.25870475  0.26535219  1
  Mg  Mg23  1  0.27276205  0.00790453  0.78960713  1
  Mg  Mg24  1  0.53724351  0.24418295  0.71275129  1
  Mg  Mg25  1  0.02302823  0.75224970  0.78232972  1
  Mg  Mg26  1  0.47617478  0.67986956  0.69998760  1
  Mg  Mg27  1  0.74433622  0.23227248  0.23333068  1
  Mg  Mg28  1  0.01402176  0.07015505  0.25336311  1
  Mg  Mg29  1  0.43883688  0.54662215  0.51483532  1
  Mg  Mg30  1  0.26388669  0.55647131  0.55929693  1
  Mg  Mg31  1  0.71000468  0.28741700  0.81266641  1
  Ti  Ti32  1  0.11129852  0.89657982  0.36760855  1
  Ti  Ti33  1  0.61684911  0.87434942  0.62041801  1
  Ti  Ti34  1  0.87554268  0.86532543  0.86355068  1
  Ti  Ti35  1  0.12991120  0.39070432  0.62319936  1
  Ti  Ti36  1  0.36877883  0.37379512  0.39260838  1
  Ti  Ti37  1  0.11379460  0.63261071  0.62618846  1
  Ti  Ti38  1  0.87142840  0.87486899  0.37174189  1
  Ti  Ti39  1  0.62219564  0.87866514  0.37066586  1
  Ti  Ti40  1  0.61937048  0.37099460  0.13836939  1
  Ti  Ti41  1  0.37966729  0.12176585  0.38762783  1
  Ti  Ti42  1  0.12879084  0.63361604  0.13530166  1
  Ti  Ti43  1  0.11937398  0.87076296  0.63536809  1
  Ti  Ti44  1  0.86610474  0.63590885  0.87730546  1
  Ti  Ti45  1  0.11834197  0.88163892  0.13295221  1
  Ti  Ti46  1  0.62471287  0.37007010  0.37939656  1
  Ti  Ti47  1  0.37276434  0.12639376  0.63152543  1
  Ti  Ti48  1  0.87208652  0.61955623  0.37442503  1
  Ti  Ti49  1  0.86062324  0.12960531  0.87625453  1
  Ti  Ti50  1  0.87419993  0.62755018  0.63396884  1
  Ti  Ti51  1  0.61668773  0.61569864  0.61209246  1
  Ti  Ti52  1  0.62896401  0.88094803  0.13159316  1
  Ti  Ti53  1  0.86614037  0.36676921  0.37179967  1
  Ti  Ti54  1  0.62254952  0.63456340  0.12041050  1
  Ti  Ti55  1  0.39143759  0.63167091  0.88997275  1
  Ti  Ti56  1  0.13359293  0.61339132  0.37640881  1
  Ti  Ti57  1  0.87836696  0.12292663  0.63678233  1
  Ti  Ti58  1  0.37812231  0.37932293  0.63399495  1
  Ti  Ti59  1  0.37013632  0.87704948  0.63600071  1
  Ti  Ti60  1  0.86865377  0.62218354  0.13377900  1
  Ti  Ti61  1  0.38998528  0.62558776  0.13063739  1
  Ti  Ti62  1  0.63341290  0.12441252  0.37645153  1
  Ti  Ti63  1  0.12069257  0.12243246  0.11866111  1
  Ti  Ti64  1  0.13821827  0.87473204  0.87785924  1
  Ti  Ti65  1  0.87787112  0.12067651  0.37187618  1
  Ti  Ti66  1  0.87422866  0.87905357  0.13244568  1
  Ti  Ti67  1  0.37052955  0.12660232  0.88544360  1
  Ti  Ti68  1  0.87749236  0.36288423  0.13997556  1
  Ti  Ti69  1  0.13736246  0.12873653  0.37065272  1
  Ti  Ti70  1  0.62509911  0.12778845  0.12002255  1
  Ti  Ti71  1  0.12875254  0.63482730  0.88758008  1
  Ti  Ti72  1  0.38985957  0.87417096  0.13523508  1
  Ti  Ti73  1  0.12135148  0.11998115  0.62992215  1
  Bi  Bi74  1  -0.00389114  -0.00100095  0.76771546  1
  Bi  Bi75  1  0.51634630  0.02884341  0.24950134  1
  Bi  Bi76  1  0.72731684  0.73344782  0.26340670  1
  Bi  Bi77  1  0.00892816  0.52135298  0.77470091  1
  Bi  Bi78  1  0.54367931  0.45866276  0.76384663  1
  Bi  Bi79  1  -0.00945872  0.74173890  0.26993238  1
  Bi  Bi80  1  0.01564493  0.46769746  0.26133172  1
  Bi  Bi81  1  0.74951931  0.76923955  -0.00405654  1
  Bi  Bi82  1  0.27708203  -0.00555798  0.00888924  1
  Bi  Bi83  1  0.23398829  0.74495453  0.49685036  1
  Bi  Bi84  1  0.21722154  0.24844765  0.76968320  1
  Bi  Bi85  1  0.00377607  0.28066715  -0.03102179  1
  Bi  Bi86  1  -0.02327031  0.74426473  0.50478265  1
  Bi  Bi87  1  0.75082016  -0.02330591  0.51493971  1
  Bi  Bi88  1  0.24020203  0.77208856  0.27007029  1
  Bi  Bi89  1  0.48272067  0.73810414  0.29068727  1
  Bi  Bi90  1  0.26879871  0.25280227  0.52546519  1
  Bi  Bi91  1  0.51319194  0.27056725  -0.06092571  1
  Bi  Bi92  1  0.72615180  -0.00136527  0.74813100  1
  Bi  Bi93  1  0.55785302  0.49701085  -0.01799543  1
  Bi  Bi94  1  0.49678454  0.02491584  0.75300321  1
  Bi  Bi95  1  0.26931211  0.51914101  0.76541165  1
  Bi  Bi96  1  0.26515921  0.76222514  0.02655460  1
  Bi  Bi97  1  0.53088167  0.24524297  0.50064926  1
  Bi  Bi98  1  0.77567539  0.24138992  0.52930961  1
  Bi  Bi99  1  0.01385993  0.51604335  0.01999257  1
  Bi  Bi100  1  -0.01585110  0.75532109  0.02340413  1
  Bi  Bi101  1  0.27313942  0.01291887  0.23906574  1
  Bi  Bi102  1  0.73623740  0.27948937  0.00680956  1
  Bi  Bi103  1  0.01126534  -0.00137172  -0.00721957  1
  Bi  Bi104  1  0.28588166  0.73181199  0.74609087  1
  Bi  Bi105  1  0.48541405  0.48590910  0.27518184  1
  Bi  Bi106  1  0.51262793  0.79013313  -0.02134258  1
  Bi  Bi107  1  0.24966299  0.47800922  0.23175709  1
  Bi  Bi108  1  0.27835379  0.49671574  0.00874496  1
  Bi  Bi109  1  0.73201807  0.74619877  0.50356920  1
  Bi  Bi110  1  0.03215943  0.24029122  0.49314056  1
  Bi  Bi111  1  0.23347261  0.27788684  -0.01290461  1
  Bi  Bi112  1  0.23521290  -0.00563866  0.52260767  1
  Bi  Bi113  1  -0.01219783  -0.00751687  0.51257536  1
  Bi  Bi114  1  0.76676699  0.46721936  0.79621250  1
  Bi  Bi115  1  0.24269287  0.24489324  0.21867099  1
  Bi  Bi116  1  0.76225563  0.01052495  -0.00234664  1
  Bi  Bi117  1  -0.01002874  0.47852734  0.50916812  1
  Bi  Bi118  1  0.71615098  0.73723364  0.73732345  1
  Bi  Bi119  1  0.47660095  0.24723111  0.25477987  1
  Bi  Bi120  1  0.72730448  0.49072596  0.25590804  1
  Bi  Bi121  1  0.75485609  0.49127686  0.50535613  1
  Bi  Bi122  1  0.47772699  -0.03597337  0.49706827  1
  Bi  Bi123  1  -0.02695894  0.29831213  0.75899136  1
  Bi  Bi124  1  0.76590636  0.01521734  0.24422284  1
  O  O125  1  0.12487890  0.09261280  0.00450996  1
  O  O126  1  0.12587108  0.13816740  0.25325284  1
  O  O127  1  0.10453683  0.10415589  0.48650265  1
  O  O128  1  0.12169125  0.13558261  0.74079244  1
  O  O129  1  0.12894904  0.37368403  -0.00175609  1
  O  O130  1  0.13756962  0.39335051  0.26130222  1
  O  O131  1  0.09529763  0.37285733  0.50541158  1
  O  O132  1  0.12522784  0.35836315  0.73857324  1
  O  O133  1  0.13674761  0.60859087  -0.00314660  1
  O  O134  1  0.10196132  0.63979275  0.24945303  1
  O  O135  1  0.16358582  0.62085870  0.49879111  1
  O  O136  1  0.07697898  0.64453648  0.73844985  1
  O  O137  1  0.12173673  0.90251124  -0.00686954  1
  O  O138  1  0.11206592  0.84766581  0.24484586  1
  O  O139  1  0.12142375  0.90089406  0.48428317  1
  O  O140  1  0.10822415  0.84353984  0.74589698  1
  O  O141  1  0.35388944  0.12701867  -0.00164592  1
  O  O142  1  0.38109945  0.09767605  0.25916020  1
  O  O143  1  0.38234205  0.14813518  0.50237603  1
  O  O144  1  0.36443883  0.08649115  0.74277331  1
  O  O145  1  0.34837859  0.37331195  0.00010815  1
  O  O146  1  0.36416051  0.40360632  0.26482982  1
  O  O147  1  0.39310737  0.33794598  0.50482601  1
  O  O148  1  0.35528732  0.40327302  0.74452898  1
  O  O149  1  0.34924227  0.62818095  0.00438738  1
  O  O150  1  0.40177841  0.61791496  0.24881123  1
  O  O151  1  0.34416251  0.63667564  0.49859656  1
  O  O152  1  0.38085922  0.62621330  0.76359322  1
  O  O153  1  0.35993668  0.87004537  0.01031071  1
  O  O154  1  0.36345330  0.88736348  0.24713323  1
  O  O155  1  0.39613283  0.84924150  0.50085369  1
  O  O156  1  0.35149209  0.90377700  0.74633348  1
  O  O157  1  0.62961103  0.10398208  0.00418617  1
  O  O158  1  0.60919333  0.13555115  0.25424667  1
  O  O159  1  0.62012951  0.11877764  0.49159549  1
  O  O160  1  0.62387724  0.09352289  0.74380489  1
  O  O161  1  0.61721254  0.35705787  0.01152016  1
  O  O162  1  0.67056977  0.35253201  0.24805355  1
  O  O163  1  0.59508340  0.37458192  0.49054853  1
  O  O164  1  0.65202332  0.37659988  0.74401749  1
  O  O165  1  0.64460673  0.60318960  0.00812017  1
  O  O166  1  0.61023368  0.64905504  0.24883746  1
  O  O167  1  0.65836882  0.62245962  0.50131786  1
  O  O168  1  0.59786829  0.65370229  0.73635478  1
  O  O169  1  0.61847663  0.89398499  0.01036033  1
  O  O170  1  0.63634307  0.85287490  0.25040840  1
  O  O171  1  0.62526835  0.88724755  0.49308797  1
  O  O172  1  0.64137421  0.88109616  0.73902119  1
  O  O173  1  0.84515838  0.12966575  -0.00419501  1
  O  O174  1  0.88461807  0.08719934  0.25005273  1
  O  O175  1  0.87620165  0.14874572  0.48567378  1
  O  O176  1  0.88312460  0.10063264  0.74998159  1
  O  O177  1  0.89984726  0.35640299  0.02003228  1
  O  O178  1  0.85516735  0.41403508  0.24803836  1
  O  O179  1  0.89369635  0.36001271  0.48640966  1
  O  O180  1  0.86051754  0.37547616  0.74652852  1
  O  O181  1  0.85755031  0.66720592  -0.01062474  1
  O  O182  1  0.89881815  0.61234408  0.24514375  1
  O  O183  1  0.86054601  0.65866854  0.48814452  1
  O  O184  1  0.89447341  0.60411029  0.74523313  1
  O  O185  1  0.86924013  0.85102289  -0.00754896  1
  O  O186  1  0.87572725  0.89560088  0.24588036  1
  O  O187  1  0.88924680  0.86200217  0.49039776  1
  O  O188  1  0.88413612  0.90366922  0.75296878  1
  O  O189  1  0.00528474  0.12048717  0.13295208  1
  O  O190  1  -0.01260115  0.16182774  0.34709558  1
  O  O191  1  0.00057333  0.10386720  0.61651899  1
  O  O192  1  -0.00026719  0.08242946  0.87962770  1
  O  O193  1  -0.00495941  0.35556940  0.16720373  1
  O  O194  1  -0.01446409  0.35851671  0.34371849  1
  O  O195  1  0.00157004  0.40321220  0.63468428  1
  O  O196  1  0.00465668  0.37826827  0.86931819  1
  O  O197  1  -0.00387642  0.62878728  0.09417206  1
  O  O198  1  -0.00426500  0.65592927  0.38352398  1
  O  O199  1  0.00357175  0.61316093  0.58610954  1
  O  O200  1  -0.00038919  0.60051335  0.88795647  1
  O  O201  1  -0.00436931  0.87479061  0.10890679  1
  O  O202  1  0.00084552  0.84736870  0.36885176  1
  O  O203  1  0.00736107  0.89043339  0.61611908  1
  O  O204  1  -0.00205611  0.90701049  0.87876121  1
  O  O205  1  0.25005236  0.12021039  0.14608411  1
  O  O206  1  0.25015992  0.10684637  0.37494219  1
  O  O207  1  0.24552220  0.11808680  0.60142840  1
  O  O208  1  0.25555165  0.13468206  0.85536738  1
  O  O209  1  0.24768540  0.37298460  0.13856686  1
  O  O210  1  0.26017423  0.38722399  0.40494140  1
  O  O211  1  0.24547114  0.36439286  0.60824754  1
  O  O212  1  0.24779900  0.34801581  0.86717240  1
  O  O213  1  0.24288948  0.63631669  0.14154422  1
  O  O214  1  0.23910380  0.59274545  0.34464089  1
  O  O215  1  0.23709501  0.63947434  0.65646101  1
  O  O216  1  0.24183357  0.64674018  0.85172989  1
  O  O217  1  0.23803131  0.86338397  0.12294779  1
  O  O218  1  0.23459090  0.88547826  0.35452393  1
  O  O219  1  0.25161127  0.87016961  0.60580567  1
  O  O220  1  0.24597825  0.84167503  0.88555273  1
  O  O221  1  0.50714152  0.11748098  0.13249263  1
  O  O222  1  0.49808940  0.12625511  0.37051162  1
  O  O223  1  0.49231673  0.13346672  0.65187861  1
  O  O224  1  0.49693783  0.08716796  0.87668143  1
  O  O225  1  0.50580942  0.36061314  0.15658539  1
  O  O226  1  0.50823668  0.36013045  0.34062607  1
  O  O227  1  0.49337293  0.35478573  0.66150758  1
  O  O228  1  0.49473144  0.39279237  0.88083542  1
  O  O229  1  0.50093686  0.61873538  0.10651581  1
  O  O230  1  0.49278271  0.66389426  0.40420327  1
  O  O231  1  0.50189785  0.63109389  0.58670103  1
  O  O232  1  0.49945456  0.60236124  0.90131318  1
  O  O233  1  0.50257508  0.87680018  0.13720872  1
  O  O234  1  0.50589511  0.86657221  0.36697799  1
  O  O235  1  0.50264456  0.89442968  0.62770017  1
  O  O236  1  0.50367234  0.89756026  0.89015306  1
  O  O237  1  0.74691808  0.12036785  0.15631860  1
  O  O238  1  0.75081073  0.11770463  0.35064633  1
  O  O239  1  0.76048387  0.13240457  0.61745225  1
  O  O240  1  0.75415996  0.17370579  0.85429780  1
  O  O241  1  0.75949921  0.38283955  0.09297377  1
  O  O242  1  0.74669502  0.40179746  0.39049584  1
  O  O243  1  0.75197768  0.37853767  0.58445348  1
  O  O244  1  0.75677364  0.37060205  0.89716618  1
  O  O245  1  0.75143298  0.62549739  0.14699079  1
  O  O246  1  0.75543356  0.61560903  0.34733409  1
  O  O247  1  0.75499933  0.64001221  0.64069878  1
  O  O248  1  0.75412093  0.65179614  0.84525448  1
  O  O249  1  0.75091732  0.86098794  0.11791561  1
  O  O250  1  0.75675826  0.89322620  0.38181754  1
  O  O251  1  0.75519650  0.86737817  0.60151413  1
  O  O252  1  0.75994090  0.84083040  0.86912877  1
  O  O253  1  0.12513227  -0.00461920  0.14959228  1
  O  O254  1  0.08614082  0.00546867  0.34327152  1
  O  O255  1  0.14286681  -0.00739586  0.62981384  1
  O  O256  1  0.15573974  -0.01602006  0.83727939  1
  O  O257  1  0.14250183  0.24154223  0.11464977  1
  O  O258  1  0.13637824  0.24454598  0.39819626  1
  O  O259  1  0.12367114  0.23759025  0.59959726  1
  O  O260  1  0.12567297  0.24081310  0.88038845  1
  O  O261  1  0.10706422  0.50647740  0.13066074  1
  O  O262  1  0.08949539  0.50466451  0.38355849  1
  O  O263  1  0.14896867  0.50753605  0.62440395  1
  O  O264  1  0.13824822  0.51442075  0.84264992  1
  O  O265  1  0.11442005  0.74885530  0.09970239  1
  O  O266  1  0.15294396  0.74180083  0.38137740  1
  O  O267  1  0.12032938  0.75193451  0.59421164  1
  O  O268  1  0.09682334  0.74871772  0.88456707  1
  O  O269  1  0.36180036  -0.00513114  0.12125353  1
  O  O270  1  0.37852730  0.00103325  0.40455695  1
  O  O271  1  0.37309446  -0.00182933  0.59095911  1
  O  O272  1  0.34607744  -0.00108291  0.89101121  1
  O  O273  1  0.36995557  0.24836344  0.15745685  1
  O  O274  1  0.37125603  0.24938176  0.35316962  1
  O  O275  1  0.35064360  0.24173874  0.64245995  1
  O  O276  1  0.39946956  0.24100063  0.86404984  1
  O  O277  1  0.36335029  0.50564918  0.12069917  1
  O  O278  1  0.41381579  0.49464905  0.39944395  1
  O  O279  1  0.36573264  0.48803195  0.59557077  1
  O  O280  1  0.34270324  0.50865177  0.88400198  1
  O  O281  1  0.37194880  0.74968724  0.12730549  1
  O  O282  1  0.35205305  0.74929166  0.35508843  1
  O  O283  1  0.39476738  0.76075847  0.64812593  1
  O  O284  1  0.40266990  0.74786041  0.88071156  1
  O  O285  1  0.63187587  -0.00357553  0.15157868  1
  O  O286  1  0.62062124  -0.00054564  0.35493458  1
  O  O287  1  0.65348997  -0.00596727  0.61744275  1
  O  O288  1  0.65981882  -0.00183885  0.87508270  1
  O  O289  1  0.65046845  0.24382205  0.12457060  1
  O  O290  1  0.63172837  0.24853196  0.38959301  1
  O  O291  1  0.61759902  0.24668986  0.61169879  1
  O  O292  1  0.59091546  0.24149390  0.83223100  1
  O  O293  1  0.62283695  0.48881024  0.14863594  1
  O  O294  1  0.61286419  0.49388235  0.35032082  1
  O  O295  1  0.62198162  0.50491082  0.62837803  1
  O  O296  1  0.63160600  0.50582601  0.86476828  1
  O  O297  1  0.62289193  0.74731242  0.10341065  1
  O  O298  1  0.65347935  0.75476716  0.38318958  1
  O  O299  1  0.62987594  0.75564879  0.60839934  1
  O  O300  1  0.61438971  0.75409261  0.89805134  1
  O  O301  1  0.86281417  -0.00779332  0.10233936  1
  O  O302  1  0.89210593  0.00445617  0.39575795  1
  O  O303  1  0.87049693  0.00357247  0.59594149  1
  O  O304  1  0.84431894  0.00179247  0.88855275  1
  O  O305  1  0.86018924  0.25242031  0.16928515  1
  O  O306  1  0.84437253  0.25893395  0.33789412  1
  O  O307  1  0.88124308  0.24459817  0.62453133  1
  O  O308  1  0.91667008  0.23271934  0.87083735  1
  O  O309  1  0.88200928  0.51036792  0.08849414  1
  O  O310  1  0.88179472  0.50719992  0.40010782  1
  O  O311  1  0.86685802  0.51070912  0.58949362  1
  O  O312  1  0.85260000  0.51954947  0.89695752  1
  O  O313  1  0.88998333  0.74871211  0.13354187  1
  O  O314  1  0.86057049  0.75656291  0.34464225  1
  O  O315  1  0.90100518  0.74215834  0.63137398  1
  O  O316  1  0.91326264  0.75325599  0.84406527  1
