# generated using pymatgen
data_Mg32Ti42(Bi17O64)3
_symmetry_space_group_name_H-M   'P 1'
_cell_length_a   16.00404044
_cell_length_b   15.96408534
_cell_length_c   16.08544371
_cell_angle_alpha   90.14603574
_cell_angle_beta   89.97720838
_cell_angle_gamma   90.00218465
_symmetry_Int_Tables_number   1
_chemical_formula_structural   Mg32Ti42(Bi17O64)3
_chemical_formula_sum   'Mg32 Ti42 Bi51 O192'
_cell_volume   4109.65420331
_cell_formula_units_Z   1
loop_
 _symmetry_equiv_pos_site_id
 _symmetry_equiv_pos_as_xyz
  1  'x, y, z'
loop_
 _atom_site_type_symbol
 _atom_site_label
 _atom_site_symmetry_multiplicity
 _atom_site_fract_x
 _atom_site_fract_y
 _atom_site_fract_z
 _atom_site_occupancy
  Mg  Mg0  1  0.37971765  0.63118171  0.86524595  1
  Mg  Mg1  1  0.88322783  0.62243603  0.62209041  1
  Mg  Mg2  1  0.37665806  0.87487336  0.36346343  1
  Mg  Mg3  1  0.86861806  0.61567688  0.37104541  1
  Mg  Mg4  1  0.37777690  0.62495541  0.36690883  1
  Mg  Mg5  1  0.61973498  0.61721808  0.36984123  1
  Mg  Mg6  1  0.86666867  0.88118341  0.62758995  1
  Mg  Mg7  1  0.88049099  0.38128952  0.85842889  1
  Mg  Mg8  1  0.37648993  0.87903052  0.86712668  1
  Mg  Mg9  1  0.62168693  0.37927691  0.86377015  1
  Mg  Mg10  1  0.63340357  0.87693714  0.37594071  1
  Mg  Mg11  1  0.09897991  0.11882157  0.13513049  1
  Mg  Mg12  1  0.87280920  0.62096930  0.86599590  1
  Mg  Mg13  1  0.62793707  0.87681084  0.87054051  1
  Mg  Mg14  1  0.12714224  0.37957953  0.37072889  1
  Mg  Mg15  1  0.11923576  0.36850847  0.10971208  1
  Mg  Mg16  1  0.37815472  0.88184871  0.61968405  1
  Mg  Mg17  1  0.37478175  0.37868085  0.87601004  1
  Mg  Mg18  1  0.62307499  0.38295392  0.12398460  1
  Mg  Mg19  1  0.47736807  0.30983564  0.75465766  1
  Mg  Mg20  1  0.00806198  0.56375216  0.73820405  1
  Mg  Mg21  1  0.02141790  -0.05101959  0.27251569  1
  Mg  Mg22  1  -0.00668509  0.49183085  0.18580696  1
  Mg  Mg23  1  0.19454140  0.76573411  0.22219882  1
  Mg  Mg24  1  0.17088753  0.22627793  -0.01546376  1
  Mg  Mg25  1  0.26255462  0.00969042  0.70265712  1
  Mg  Mg26  1  0.69536014  0.52278069  0.56574766  1
  Mg  Mg27  1  0.70772346  0.25390126  0.21134418  1
  Mg  Mg28  1  0.75130832  0.21152574  0.46252361  1
  Mg  Mg29  1  0.49385018  0.72515490  0.27127724  1
  Mg  Mg30  1  0.25793865  0.42633079  0.74643581  1
  Mg  Mg31  1  0.81058761  0.49485356  0.70494728  1
  Ti  Ti32  1  0.39072088  0.12929712  0.12779895  1
  Ti  Ti33  1  0.87192908  0.12790884  0.36622497  1
  Ti  Ti34  1  0.86158085  0.12556335  0.13862977  1
  Ti  Ti35  1  0.34801574  0.86175783  0.14988844  1
  Ti  Ti36  1  0.90449847  0.36718986  0.62289780  1
  Ti  Ti37  1  0.63385589  0.86336512  0.11688871  1
  Ti  Ti38  1  0.11697457  0.62510618  0.11936578  1
  Ti  Ti39  1  0.62683615  0.12346356  0.37250033  1
  Ti  Ti40  1  0.11043481  0.12497558  0.37531163  1
  Ti  Ti41  1  0.88022288  0.87207498  0.86359885  1
  Ti  Ti42  1  0.34783667  0.63627892  0.13953489  1
  Ti  Ti43  1  0.36805136  0.12876766  0.88179116  1
  Ti  Ti44  1  0.38336719  0.38179482  0.61985211  1
  Ti  Ti45  1  0.60683352  0.12948899  0.85401793  1
  Ti  Ti46  1  0.62732070  0.12482718  0.11402603  1
  Ti  Ti47  1  0.11186608  0.88162154  0.11610072  1
  Ti  Ti48  1  0.12521891  0.37407977  0.87543038  1
  Ti  Ti49  1  0.37771148  0.37629962  0.36654440  1
  Ti  Ti50  1  0.86995430  0.36829516  0.37771733  1
  Ti  Ti51  1  0.14141737  0.87474082  0.61606287  1
  Ti  Ti52  1  0.63336552  0.37516208  0.38798836  1
  Ti  Ti53  1  0.86601965  0.61901130  0.12645598  1
  Ti  Ti54  1  0.62359167  0.37186909  0.62705287  1
  Ti  Ti55  1  0.13088097  0.13085860  0.60736422  1
  Ti  Ti56  1  0.62578353  0.62405629  0.12100499  1
  Ti  Ti57  1  0.37325795  0.61717086  0.62994084  1
  Ti  Ti58  1  0.86845189  0.88015503  0.37044779  1
  Ti  Ti59  1  0.13480126  0.86333563  0.37679024  1
  Ti  Ti60  1  0.12944923  0.38804819  0.63090691  1
  Ti  Ti61  1  0.38520461  0.12455317  0.60551249  1
  Ti  Ti62  1  0.63338120  0.88835377  0.62351037  1
  Ti  Ti63  1  0.86026938  0.36740318  0.13238927  1
  Ti  Ti64  1  0.37765635  0.12557867  0.36114168  1
  Ti  Ti65  1  0.12788892  0.62402403  0.36153785  1
  Ti  Ti66  1  0.87909108  0.86773097  0.13089704  1
  Ti  Ti67  1  0.89211425  0.13098617  0.61201107  1
  Ti  Ti68  1  0.37563130  0.36883602  0.11765335  1
  Ti  Ti69  1  0.13095067  0.86843219  0.87552168  1
  Ti  Ti70  1  0.62940597  0.63065522  0.88599702  1
  Ti  Ti71  1  0.13297929  0.61695612  0.62161683  1
  Ti  Ti72  1  0.12566573  0.62851327  0.87104526  1
  Ti  Ti73  1  0.61866348  0.13965257  0.62336329  1
  Bi  Bi74  1  0.49777830  -0.03378931  0.22533326  1
  Bi  Bi75  1  0.71376775  0.73364157  0.50420501  1
  Bi  Bi76  1  0.49147480  -0.01031392  0.46816863  1
  Bi  Bi77  1  0.25805933  -0.00076111  0.47474940  1
  Bi  Bi78  1  -0.04266950  0.22316649  0.00355755  1
  Bi  Bi79  1  0.50177186  0.25869974  0.47909179  1
  Bi  Bi80  1  0.51321346  0.53319894  0.51578853  1
  Bi  Bi81  1  0.26223822  0.72795533  0.48741648  1
  Bi  Bi82  1  0.49378544  -0.01660640  0.74969232  1
  Bi  Bi83  1  0.50951598  0.76320710  0.70924771  1
  Bi  Bi84  1  0.02443490  0.27234057  0.48790240  1
  Bi  Bi85  1  0.25974064  0.50107318  -0.03693761  1
  Bi  Bi86  1  0.75295629  0.76504623  -0.03100719  1
  Bi  Bi87  1  0.02377479  0.01864810  -0.02832279  1
  Bi  Bi88  1  0.52607771  0.51479150  0.74970727  1
  Bi  Bi89  1  0.75933532  0.46818635  -0.02241350  1
  Bi  Bi90  1  -0.00342933  0.76590182  0.71183417  1
  Bi  Bi91  1  0.51779811  0.26684122  0.23900169  1
  Bi  Bi92  1  0.26153427  0.21610240  0.74217522  1
  Bi  Bi93  1  0.25400972  0.50972558  0.46456377  1
  Bi  Bi94  1  0.48887809  0.51267410  0.22221608  1
  Bi  Bi95  1  0.22411600  0.01002060  0.24664873  1
  Bi  Bi96  1  0.52151533  0.27447674  -0.02046805  1
  Bi  Bi97  1  -0.02615664  0.50489976  0.49025333  1
  Bi  Bi98  1  0.73511663  -0.01840422  0.23814782  1
  Bi  Bi99  1  0.75336023  0.23667608  -0.04622104  1
  Bi  Bi100  1  -0.00997192  0.75102618  -0.01253162  1
  Bi  Bi101  1  0.74766841  0.01890419  0.53601240  1
  Bi  Bi102  1  0.23459739  0.48181682  0.21836985  1
  Bi  Bi103  1  0.73299812  0.48631822  0.26522410  1
  Bi  Bi104  1  -0.00240574  0.27985128  0.24412497  1
  Bi  Bi105  1  0.78775804  0.25210423  0.74251314  1
  Bi  Bi106  1  0.50617831  0.51291856  -0.01759092  1
  Bi  Bi107  1  0.78688407  0.03492986  0.76811575  1
  Bi  Bi108  1  -0.00461778  0.50594390  -0.03614298  1
  Bi  Bi109  1  -0.01273291  0.72324467  0.24860509  1
  Bi  Bi110  1  -0.01678443  -0.01939923  0.49413825  1
  Bi  Bi111  1  0.02017928  0.21765489  0.79300174  1
  Bi  Bi112  1  0.03875401  -0.00193811  0.74842784  1
  Bi  Bi113  1  0.48992327  0.75681185  0.47847255  1
  Bi  Bi114  1  0.73043086  0.69881544  0.72470335  1
  Bi  Bi115  1  0.26056958  0.74969859  0.72029574  1
  Bi  Bi116  1  -0.04177889  0.74815517  0.49227379  1
  Bi  Bi117  1  0.25675949  0.27423152  0.48683544  1
  Bi  Bi118  1  0.77073567  -0.00555778  0.00261295  1
  Bi  Bi119  1  0.73342090  0.72329237  0.26337759  1
  Bi  Bi120  1  0.49158999  0.75830061  -0.01641414  1
  Bi  Bi121  1  0.27116394  0.75333212  -0.02023316  1
  Bi  Bi122  1  0.25142017  0.04032891  0.01136053  1
  Bi  Bi123  1  0.22441410  0.24768276  0.21546794  1
  Bi  Bi124  1  0.50626590  0.00181109  -0.02233320  1
  O  O125  1  0.12843354  0.10153421  0.01202070  1
  O  O126  1  0.12970418  0.14905894  0.25723964  1
  O  O127  1  0.13113982  0.09428394  0.49514427  1
  O  O128  1  0.09926391  0.12529504  0.73366045  1
  O  O129  1  0.13740111  0.35846569  -0.01154181  1
  O  O130  1  0.13072628  0.34545713  0.24807579  1
  O  O131  1  0.11282034  0.38340450  0.50639202  1
  O  O132  1  0.14575094  0.37021829  0.74663198  1
  O  O133  1  0.09953697  0.62035799  0.00932611  1
  O  O134  1  0.13475324  0.65523293  0.25099498  1
  O  O135  1  0.14417233  0.61239950  0.50826426  1
  O  O136  1  0.11907712  0.63430441  0.76009538  1
  O  O137  1  0.13612456  0.90027143  0.00709926  1
  O  O138  1  0.10721032  0.85190253  0.26355872  1
  O  O139  1  0.15912345  0.88452606  0.50479530  1
  O  O140  1  0.10280104  0.86535884  0.76144047  1
  O  O141  1  0.38831934  0.08208892  0.01731692  1
  O  O142  1  0.38428258  0.14290972  0.25051235  1
  O  O143  1  0.36904976  0.10064742  0.49726664  1
  O  O144  1  0.29398507  0.09269320  0.79299751  1
  O  O145  1  0.38063174  0.38056911  0.00782491  1
  O  O146  1  0.36631652  0.35618313  0.25686611  1
  O  O147  1  0.37619932  0.36668424  0.50358554  1
  O  O148  1  0.37551645  0.38795171  0.74310146  1
  O  O149  1  0.36828019  0.65828171  0.02987051  1
  O  O150  1  0.40771754  0.63523223  0.24387131  1
  O  O151  1  0.34514418  0.61382499  0.50534297  1
  O  O152  1  0.39100834  0.63847023  0.74279555  1
  O  O153  1  0.36109442  0.84910302  0.03708299  1
  O  O154  1  0.42648230  0.83812003  0.24398638  1
  O  O155  1  0.37005963  0.91432015  0.49775963  1
  O  O156  1  0.41356328  0.86849209  0.74740271  1
  O  O157  1  0.63964695  0.12433162  0.00321448  1
  O  O158  1  0.62059311  0.15995929  0.26423206  1
  O  O159  1  0.65726479  0.12526686  0.50684423  1
  O  O160  1  0.59133065  0.13476314  0.74289222  1
  O  O161  1  0.61041417  0.38679759  0.00015519  1
  O  O162  1  0.63065770  0.34106893  0.26554174  1
  O  O163  1  0.60844001  0.40174576  0.50313925  1
  O  O164  1  0.59154150  0.38408722  0.74256279  1
  O  O165  1  0.63469890  0.59590990  0.00561451  1
  O  O166  1  0.60564851  0.66422004  0.23968650  1
  O  O167  1  0.63799123  0.60686058  0.49438059  1
  O  O168  1  0.61106090  0.63674793  0.76427257  1
  O  O169  1  0.67151148  0.88675824  0.00343255  1
  O  O170  1  0.62599240  0.88273212  0.24239139  1
  O  O171  1  0.65436381  0.86314385  0.50668105  1
  O  O172  1  0.59570453  0.87140524  0.74584745  1
  O  O173  1  0.84631578  0.14223854  0.00948898  1
  O  O174  1  0.88824523  0.13016618  0.25408277  1
  O  O175  1  0.84216882  0.12607140  0.50397235  1
  O  O176  1  0.87920660  0.13480932  0.73725819  1
  O  O177  1  0.85445502  0.37288519  0.01417801  1
  O  O178  1  0.87998260  0.36623391  0.26105269  1
  O  O179  1  0.90890781  0.37110250  0.50025864  1
  O  O180  1  0.86055846  0.38052661  0.73528633  1
  O  O181  1  0.89866354  0.62327654  0.01523484  1
  O  O182  1  0.87525398  0.64710804  0.24987862  1
  O  O183  1  0.89087962  0.62243693  0.49580491  1
  O  O184  1  0.88556887  0.59235707  0.74560337  1
  O  O185  1  0.84865341  0.87756285  0.01225520  1
  O  O186  1  0.91077393  0.88393734  0.25597165  1
  O  O187  1  0.88194733  0.88477575  0.49651195  1
  O  O188  1  0.90367378  0.87497845  0.75215989  1
  O  O189  1  -0.01951032  0.12448851  0.09727828  1
  O  O190  1  -0.00055996  0.14852953  0.38864658  1
  O  O191  1  0.00224699  0.13544872  0.59500103  1
  O  O192  1  -0.00578349  0.13518252  0.89851972  1
  O  O193  1  -0.00558557  0.37542821  0.14162152  1
  O  O194  1  0.00238084  0.34576725  0.36864646  1
  O  O195  1  0.01107382  0.34528332  0.64056106  1
  O  O196  1  0.00699925  0.39010324  0.87269437  1
  O  O197  1  0.00151351  0.61609626  0.15636709  1
  O  O198  1  0.01048541  0.64927565  0.37151298  1
  O  O199  1  0.01410363  0.64273053  0.63208787  1
  O  O200  1  0.00314542  0.60156486  0.86773209  1
  O  O201  1  -0.00406185  0.88569132  0.10681071  1
  O  O202  1  0.01654889  0.87584873  0.40147663  1
  O  O203  1  0.01890101  0.86094068  0.61228497  1
  O  O204  1  -0.00516720  0.87208802  0.90689950  1
  O  O205  1  0.26527219  0.10724601  0.13078583  1
  O  O206  1  0.26191210  0.09962732  0.36855406  1
  O  O207  1  0.24829757  0.11107668  0.62841992  1
  O  O208  1  0.27383528  0.16058098  0.94690546  1
  O  O209  1  0.25349806  0.37518451  0.13211651  1
  O  O210  1  0.25365544  0.37385284  0.39026627  1
  O  O211  1  0.24939986  0.39876699  0.62255630  1
  O  O212  1  0.25277706  0.39984728  0.86848315  1
  O  O213  1  0.23773875  0.59407265  0.12782385  1
  O  O214  1  0.25111247  0.61992615  0.37756182  1
  O  O215  1  0.24917228  0.61608570  0.65150341  1
  O  O216  1  0.24788998  0.62950505  0.89381066  1
  O  O217  1  0.23258186  0.88390468  0.16383911  1
  O  O218  1  0.25015387  0.90737331  0.36042834  1
  O  O219  1  0.25391616  0.88726441  0.66236197  1
  O  O220  1  0.24574218  0.85965853  0.87217268  1
  O  O221  1  0.50780573  0.09894781  0.13410985  1
  O  O222  1  0.50525427  0.14461442  0.39679397  1
  O  O223  1  0.50069055  0.14381946  0.59731352  1
  O  O224  1  0.49420125  0.14254788  0.90032767  1
  O  O225  1  0.49513056  0.38559130  0.14902190  1
  O  O226  1  0.49913065  0.35060443  0.37202779  1
  O  O227  1  0.49092381  0.34173561  0.62795736  1
  O  O228  1  0.49432736  0.35352712  0.87278804  1
  O  O229  1  0.50658669  0.59594573  0.11199594  1
  O  O230  1  0.50014937  0.65615538  0.38100393  1
  O  O231  1  0.48402895  0.64557361  0.59589050  1
  O  O232  1  0.50133656  0.63363475  0.90855729  1
  O  O233  1  0.52367226  0.89714744  0.10333228  1
  O  O234  1  0.50687745  0.86816885  0.39715498  1
  O  O235  1  0.50505577  0.85357807  0.60525225  1
  O  O236  1  0.50183856  0.87617382  0.91175923  1
  O  O237  1  0.74464102  0.15134333  0.15016436  1
  O  O238  1  0.75217176  0.11529731  0.36665468  1
  O  O239  1  0.73979333  0.10549508  0.64737924  1
  O  O240  1  0.73290335  0.13299506  0.84908669  1
  O  O241  1  0.74671171  0.36027806  0.14780529  1
  O  O242  1  0.75146895  0.38780859  0.38419014  1
  O  O243  1  0.72796372  0.41964902  0.63093817  1
  O  O244  1  0.74539362  0.38044865  0.87880806  1
  O  O245  1  0.75047609  0.63631690  0.13644854  1
  O  O246  1  0.74428507  0.60793819  0.33880409  1
  O  O247  1  0.75740005  0.59761875  0.64010064  1
  O  O248  1  0.74569742  0.63864319  0.87522946  1
  O  O249  1  0.76032505  0.86832413  0.15948054  1
  O  O250  1  0.75987526  0.89743199  0.35750987  1
  O  O251  1  0.74584303  0.90616993  0.64546876  1
  O  O252  1  0.75835438  0.84899607  0.86078910  1
  O  O253  1  0.10355464  -0.00643643  0.16831756  1
  O  O254  1  0.11001840  0.00616566  0.34701646  1
  O  O255  1  0.13050719  -0.00616343  0.64790028  1
  O  O256  1  0.11093294  -0.00832084  0.86541042  1
  O  O257  1  0.13921645  0.23949095  0.11010336  1
  O  O258  1  0.14360180  0.24124515  0.40555571  1
  O  O259  1  0.14321732  0.24395629  0.60357662  1
  O  O260  1  0.12986864  0.25219958  0.86649169  1
  O  O261  1  0.11412140  0.49846969  0.14704342  1
  O  O262  1  0.12987504  0.50766782  0.36357358  1
  O  O263  1  0.10085722  0.50269428  0.64695368  1
  O  O264  1  0.13250812  0.50550541  0.89162440  1
  O  O265  1  0.11961056  0.75401797  0.11875792  1
  O  O266  1  0.15419625  0.75237559  0.38875350  1
  O  O267  1  0.15159056  0.75168775  0.63221328  1
  O  O268  1  0.10965351  0.74819821  0.89920509  1
  O  O269  1  0.37207768  -0.02263420  0.16650974  1
  O  O270  1  0.41165297  0.00562975  0.35665493  1
  O  O271  1  0.38471989  0.01676373  0.65586017  1
  O  O272  1  0.40866185  0.00566490  0.86929626  1
  O  O273  1  0.39145747  0.24368494  0.11296743  1
  O  O274  1  0.36662205  0.24224165  0.40037558  1
  O  O275  1  0.35400308  0.23763848  0.63848016  1
  O  O276  1  0.37641694  0.23257361  0.82192922  1
  O  O277  1  0.36678066  0.49792683  0.15105282  1
  O  O278  1  0.37498249  0.49342971  0.37561203  1
  O  O279  1  0.40177097  0.49990277  0.61703455  1
  O  O280  1  0.38157337  0.50966353  0.89621552  1
  O  O281  1  0.30585356  0.74150901  0.16818877  1
  O  O282  1  0.36777330  0.75554479  0.40474163  1
  O  O283  1  0.34831098  0.74976996  0.61517270  1
  O  O284  1  0.37787175  0.75519848  0.89437498  1
  O  O285  1  0.65626735  0.00738274  0.12763883  1
  O  O286  1  0.60868981  0.00900823  0.37275883  1
  O  O287  1  0.60569409  0.00195162  0.61343639  1
  O  O288  1  0.60525225  0.00929007  0.86781752  1
  O  O289  1  0.60556231  0.24858761  0.12592556  1
  O  O290  1  0.63956763  0.25522567  0.41547429  1
  O  O291  1  0.64454605  0.25445283  0.62370984  1
  O  O292  1  0.62379127  0.24856821  0.88564566  1
  O  O293  1  0.63577087  0.50790343  0.16313163  1
  O  O294  1  0.61848063  0.48925562  0.34603644  1
  O  O295  1  0.58478456  0.50172712  0.62661360  1
  O  O296  1  0.60177625  0.50705406  0.86848139  1
  O  O297  1  0.62474006  0.74991188  0.09875587  1
  O  O298  1  0.65407199  0.74845190  0.38223188  1
  O  O299  1  0.64584550  0.75237272  0.63028861  1
  O  O300  1  0.61998027  0.74889676  0.90566489  1
  O  O301  1  0.84603692  0.00738699  0.12781256  1
  O  O302  1  0.90463438  0.00596550  0.38163709  1
  O  O303  1  0.88689476  0.00915874  0.61321732  1
  O  O304  1  0.86203677  -0.01123551  0.88273720  1
  O  O305  1  0.88240070  0.25251915  0.13371237  1
  O  O306  1  0.85323195  0.24668956  0.39102729  1
  O  O307  1  0.85843595  0.25313310  0.62063571  1
  O  O308  1  0.86088316  0.25694700  0.86394411  1
  O  O309  1  0.87355724  0.50097909  0.14424899  1
  O  O310  1  0.89193412  0.48989107  0.38329116  1
  O  O311  1  0.90158787  0.48874801  0.61116078  1
  O  O312  1  0.86839951  0.49866700  0.90017565  1
  O  O313  1  0.89277290  0.75385993  0.12522797  1
  O  O314  1  0.86706554  0.76028628  0.38681712  1
  O  O315  1  0.88158225  0.75311906  0.62093448  1
  O  O316  1  0.88698921  0.74791807  0.89386185  1
