# generated using pymatgen
data_Mg32Ti42(Bi17O64)3
_symmetry_space_group_name_H-M   'P 1'
_cell_length_a   15.94840078
_cell_length_b   15.94552819
_cell_length_c   15.98611265
_cell_angle_alpha   90.22930484
_cell_angle_beta   90.09898782
_cell_angle_gamma   90.05781346
_symmetry_Int_Tables_number   1
_chemical_formula_structural   Mg32Ti42(Bi17O64)3
_chemical_formula_sum   'Mg32 Ti42 Bi51 O192'
_cell_volume   4065.31843443
_cell_formula_units_Z   1
loop_
 _symmetry_equiv_pos_site_id
 _symmetry_equiv_pos_as_xyz
  1  'x, y, z'
loop_
 _atom_site_type_symbol
 _atom_site_label
 _atom_site_symmetry_multiplicity
 _atom_site_fract_x
 _atom_site_fract_y
 _atom_site_fract_z
 _atom_site_occupancy
  Mg  Mg0  1  0.38384435  0.38255315  0.36648930  1
  Mg  Mg1  1  0.11709702  0.63471639  0.37354352  1
  Mg  Mg2  1  0.38269992  0.12845298  0.87248286  1
  Mg  Mg3  1  0.61713165  0.87257557  0.12295523  1
  Mg  Mg4  1  0.62331369  0.63350287  0.63102991  1
  Mg  Mg5  1  0.11828667  0.36484818  0.87733925  1
  Mg  Mg6  1  0.12328274  0.62401748  0.13189232  1
  Mg  Mg7  1  0.36497799  0.12222200  0.37922186  1
  Mg  Mg8  1  0.86734935  0.87633478  0.37420868  1
  Mg  Mg9  1  0.87841166  0.87592786  0.63699309  1
  Mg  Mg10  1  0.63433158  0.38569422  0.12650611  1
  Mg  Mg11  1  0.60904766  0.88429065  0.87609706  1
  Mg  Mg12  1  0.63040953  0.62802537  0.87473231  1
  Mg  Mg13  1  0.62168472  0.12282078  0.38172035  1
  Mg  Mg14  1  0.87104325  0.37896387  0.37196109  1
  Mg  Mg15  1  0.12562176  0.37246778  0.60933006  1
  Mg  Mg16  1  0.86643047  0.12350182  0.12532540  1
  Mg  Mg17  1  0.62996651  0.63215395  0.38951303  1
  Mg  Mg18  1  0.36578471  0.61277499  0.62644534  1
  Mg  Mg19  1  0.75234034  -0.04617943  0.54644971  1
  Mg  Mg20  1  0.24778270  -0.04392260  0.54694424  1
  Mg  Mg21  1  0.76061035  0.50738617  0.00542105  1
  Mg  Mg22  1  -0.01025685  0.25211192  0.30104616  1
  Mg  Mg23  1  0.21937219  -0.02074958  0.26701867  1
  Mg  Mg24  1  0.26059323  0.28489298  0.46978594  1
  Mg  Mg25  1  0.81442874  0.68332145  0.72605337  1
  Mg  Mg26  1  0.72472665  0.56219367  0.24930546  1
  Mg  Mg27  1  0.50346238  -0.02236804  0.03599382  1
  Mg  Mg28  1  -0.02619923  0.70746336  0.57236458  1
  Mg  Mg29  1  0.73174524  0.51900632  0.55790335  1
  Mg  Mg30  1  0.24091152  -0.02271255  0.05121521  1
  Mg  Mg31  1  0.49569324  0.71013079  0.52669013  1
  Ti  Ti32  1  0.87450986  0.87906362  0.12077341  1
  Ti  Ti33  1  0.36601762  0.37978420  0.62293867  1
  Ti  Ti34  1  0.62722399  0.39619510  0.36087517  1
  Ti  Ti35  1  0.12587880  0.36965808  0.12922776  1
  Ti  Ti36  1  0.11960864  0.36641560  0.37786127  1
  Ti  Ti37  1  0.37080763  0.88773402  0.89868036  1
  Ti  Ti38  1  0.38047162  0.61294732  0.87346958  1
  Ti  Ti39  1  0.37035867  0.36981825  0.86719077  1
  Ti  Ti40  1  0.87731005  0.36381886  0.88317489  1
  Ti  Ti41  1  0.63456440  0.12124113  0.61587233  1
  Ti  Ti42  1  0.86761968  0.63090058  0.37656198  1
  Ti  Ti43  1  0.36731784  0.37904266  0.13376195  1
  Ti  Ti44  1  0.86318998  0.63010774  0.88885572  1
  Ti  Ti45  1  0.13695790  0.88167889  0.89267824  1
  Ti  Ti46  1  0.87272963  0.36810217  0.13959212  1
  Ti  Ti47  1  0.36233808  0.88934136  0.37646784  1
  Ti  Ti48  1  0.63219840  0.62836228  0.09979009  1
  Ti  Ti49  1  0.87264593  0.12961568  0.87652961  1
  Ti  Ti50  1  0.87662966  0.38183496  0.62914376  1
  Ti  Ti51  1  0.11501629  0.86192728  0.61915833  1
  Ti  Ti52  1  0.37801656  0.87479730  0.63899224  1
  Ti  Ti53  1  0.87750369  0.88615375  0.88234131  1
  Ti  Ti54  1  0.62339439  0.13250554  0.86841958  1
  Ti  Ti55  1  0.37905319  0.61902871  0.37964446  1
  Ti  Ti56  1  0.63039005  0.37295751  0.89001724  1
  Ti  Ti57  1  0.12589531  0.11522435  0.61138961  1
  Ti  Ti58  1  0.35851012  0.12437160  0.61645542  1
  Ti  Ti59  1  0.86291738  0.12090567  0.62949224  1
  Ti  Ti60  1  0.13698079  0.12104149  0.13296767  1
  Ti  Ti61  1  0.12729145  0.12809853  0.87866371  1
  Ti  Ti62  1  0.37368973  0.86615415  0.13226305  1
  Ti  Ti63  1  0.12679397  0.12331191  0.38248649  1
  Ti  Ti64  1  0.36853871  0.62294499  0.13483358  1
  Ti  Ti65  1  0.61848738  0.11727349  0.12100574  1
  Ti  Ti66  1  0.62657116  0.88123582  0.39034138  1
  Ti  Ti67  1  0.86523441  0.63522400  0.12412590  1
  Ti  Ti68  1  0.61476049  0.86907788  0.62830998  1
  Ti  Ti69  1  0.13025918  0.61839564  0.61647232  1
  Ti  Ti70  1  0.12397799  0.87787747  0.38523189  1
  Ti  Ti71  1  0.86487287  0.12648848  0.38047407  1
  Ti  Ti72  1  0.12269490  0.87073946  0.13740414  1
  Ti  Ti73  1  0.37902611  0.11510892  0.11931234  1
  Bi  Bi74  1  0.22091381  0.48924158  0.76311911  1
  Bi  Bi75  1  0.74050232  0.25912485  0.01895462  1
  Bi  Bi76  1  0.50880232  0.75478644  0.29282243  1
  Bi  Bi77  1  0.72477412  0.25999440  0.27187050  1
  Bi  Bi78  1  0.03521331  0.70874819  -0.01784288  1
  Bi  Bi79  1  0.54083905  0.48659724  0.74698467  1
  Bi  Bi80  1  0.48235057  0.23121538  0.26592719  1
  Bi  Bi81  1  0.52449688  0.53416715  0.23147447  1
  Bi  Bi82  1  0.49379828  0.71656731  0.73880307  1
  Bi  Bi83  1  -0.01849722  0.76505857  0.26138919  1
  Bi  Bi84  1  0.49985599  0.25438433  0.01832673  1
  Bi  Bi85  1  0.21723570  0.26028906  0.73292606  1
  Bi  Bi86  1  0.26245444  0.72449817  -0.01075399  1
  Bi  Bi87  1  0.73450063  -0.03231364  0.75472357  1
  Bi  Bi88  1  0.73418296  0.01620652  0.26346916  1
  Bi  Bi89  1  0.54482184  0.49187190  0.52702388  1
  Bi  Bi90  1  0.22132189  0.50912791  0.26161521  1
  Bi  Bi91  1  0.72963902  0.78014721  -0.01983739  1
  Bi  Bi92  1  0.48586481  0.01872408  0.75508296  1
  Bi  Bi93  1  0.23093645  0.72345311  0.76395802  1
  Bi  Bi94  1  0.72993359  0.01663532  -0.01194244  1
  Bi  Bi95  1  0.48435060  0.27610557  0.49266827  1
  Bi  Bi96  1  0.49200741  -0.00579296  0.27265529  1
  Bi  Bi97  1  0.47236311  0.48506480  0.00423434  1
  Bi  Bi98  1  0.21641355  0.49010478  -0.00570317  1
  Bi  Bi99  1  -0.02352104  0.26090275  0.51035530  1
  Bi  Bi100  1  -0.02919930  0.50853544  0.51325224  1
  Bi  Bi101  1  -0.03369616  -0.02296546  0.49800538  1
  Bi  Bi102  1  0.77729016  0.73740900  0.54303845  1
  Bi  Bi103  1  0.00475456  0.51407305  0.78488649  1
  Bi  Bi104  1  0.26137861  0.01238554  0.76916234  1
  Bi  Bi105  1  0.25168208  0.75066735  0.27601647  1
  Bi  Bi106  1  0.27214360  0.74931102  0.51822600  1
  Bi  Bi107  1  0.73238533  0.77633698  0.25434584  1
  Bi  Bi108  1  0.49693092  0.01400112  0.51314908  1
  Bi  Bi109  1  0.24205365  0.24561483  0.26928250  1
  Bi  Bi110  1  0.27446698  0.22282043  -0.00482344  1
  Bi  Bi111  1  -0.00515938  0.22910473  0.74289877  1
  Bi  Bi112  1  0.76827064  0.49653540  0.77747374  1
  Bi  Bi113  1  -0.02415889  0.01609006  0.25869824  1
  Bi  Bi114  1  0.02509379  0.01072071  0.75416670  1
  Bi  Bi115  1  0.50351284  0.26365140  0.71338643  1
  Bi  Bi116  1  -0.00409718  0.23843018  0.03893374  1
  Bi  Bi117  1  0.23883439  0.51288767  0.48969499  1
  Bi  Bi118  1  -0.01407309  0.49050093  0.02400834  1
  Bi  Bi119  1  0.72815364  0.29811994  0.50080869  1
  Bi  Bi120  1  0.72270403  0.26814931  0.72994139  1
  Bi  Bi121  1  0.50131773  0.75795276  -0.01195197  1
  Bi  Bi122  1  0.00392032  0.00675552  0.02605100  1
  Bi  Bi123  1  -0.01616658  0.51464552  0.27242420  1
  Bi  Bi124  1  0.00178054  0.78073781  0.77807460  1
  O  O125  1  0.11281442  0.13876649  -0.00985141  1
  O  O126  1  0.16743324  0.10327029  0.24157740  1
  O  O127  1  0.10524073  0.13527947  0.49585800  1
  O  O128  1  0.13711368  0.09738582  0.74115527  1
  O  O129  1  0.15345809  0.36382311  0.00091232  1
  O  O130  1  0.11685127  0.39548231  0.24372036  1
  O  O131  1  0.14549782  0.33843273  0.48690987  1
  O  O132  1  0.13150054  0.38605055  0.73986855  1
  O  O133  1  0.14666218  0.63930575  0.00819418  1
  O  O134  1  0.11381468  0.59041009  0.24988398  1
  O  O135  1  0.15380059  0.62609528  0.49593798  1
  O  O136  1  0.13894151  0.61490730  0.73926794  1
  O  O137  1  0.15726992  0.87651108  0.00328159  1
  O  O138  1  0.10864427  0.90045553  0.24854817  1
  O  O139  1  0.15515955  0.87333243  0.49631068  1
  O  O140  1  0.10841711  0.87581928  0.73653535  1
  O  O141  1  0.38307201  0.13145461  -0.00162037  1
  O  O142  1  0.36724182  0.15673618  0.23379835  1
  O  O143  1  0.38733247  0.09983046  0.50357292  1
  O  O144  1  0.37294969  0.11159480  0.73988711  1
  O  O145  1  0.36164475  0.40387237  -0.01169204  1
  O  O146  1  0.40035276  0.35672419  0.24025667  1
  O  O147  1  0.36665643  0.35650649  0.49991892  1
  O  O148  1  0.39889883  0.36134634  0.74690797  1
  O  O149  1  0.35398372  0.61751620  0.00245205  1
  O  O150  1  0.40596113  0.63732919  0.24797424  1
  O  O151  1  0.34268439  0.62114748  0.49531274  1
  O  O152  1  0.37390348  0.64885646  0.75478119  1
  O  O153  1  0.33637760  0.90893436  0.00457326  1
  O  O154  1  0.39544334  0.86073749  0.24276960  1
  O  O155  1  0.34622396  0.90445396  0.48662947  1
  O  O156  1  0.39382195  0.86195848  0.74767034  1
  O  O157  1  0.60814882  0.08755684  -0.00764780  1
  O  O158  1  0.64351095  0.13107934  0.23671891  1
  O  O159  1  0.60732430  0.10656873  0.50508062  1
  O  O160  1  0.64256106  0.14174969  0.75299708  1
  O  O161  1  0.67935153  0.39697860  -0.00341084  1
  O  O162  1  0.61836839  0.35262627  0.25018416  1
  O  O163  1  0.66261741  0.42162130  0.48995050  1
  O  O164  1  0.60860396  0.34942815  0.76330759  1
  O  O165  1  0.65961481  0.59153151  -0.00313351  1
  O  O166  1  0.59955153  0.64862614  0.25640891  1
  O  O167  1  0.63727237  0.59610491  0.50781161  1
  O  O168  1  0.59177575  0.62504493  0.75330030  1
  O  O169  1  0.65451984  0.89414267  0.00105600  1
  O  O170  1  0.60912849  0.84567180  0.24486230  1
  O  O171  1  0.64190699  0.90443797  0.50114356  1
  O  O172  1  0.61659367  0.88256110  0.74582016  1
  O  O173  1  0.90215795  0.13864552  -0.00868217  1
  O  O174  1  0.86228478  0.09542042  0.24824226  1
  O  O175  1  0.89214264  0.13761094  0.49692440  1
  O  O176  1  0.86140991  0.12330608  0.74558566  1
  O  O177  1  0.87440139  0.34390763  -0.00596530  1
  O  O178  1  0.89446384  0.38685368  0.24723499  1
  O  O179  1  0.86366550  0.34105758  0.49546720  1
  O  O180  1  0.89232273  0.40864951  0.74065832  1
  O  O181  1  0.83659153  0.63036233  0.00351325  1
  O  O182  1  0.87408886  0.59124025  0.23432539  1
  O  O183  1  0.88935324  0.65489845  0.48992256  1
  O  O184  1  0.89062839  0.59181517  0.76800745  1
  O  O185  1  0.86113346  0.86122789  0.00253935  1
  O  O186  1  0.90594786  0.88669751  0.24425043  1
  O  O187  1  0.85637760  0.88807847  0.50033995  1
  O  O188  1  0.89957668  0.88092523  0.76114503  1
  O  O189  1  0.01182335  0.11569194  0.12563062  1
  O  O190  1  0.00879279  0.12919214  0.34631529  1
  O  O191  1  0.00114510  0.10996695  0.64575890  1
  O  O192  1  0.00150163  0.11809329  0.84219599  1
  O  O193  1  0.00384669  0.37519078  0.10820868  1
  O  O194  1  0.00159856  0.35529006  0.38410386  1
  O  O195  1  -0.00305551  0.38975050  0.58975369  1
  O  O196  1  -0.00856518  0.40115518  0.87603958  1
  O  O197  1  -0.01129702  0.61518926  0.09340824  1
  O  O198  1  -0.00822995  0.63518525  0.34891957  1
  O  O199  1  0.01291302  0.59707743  0.61497440  1
  O  O200  1  -0.01238023  0.60143581  0.90315296  1
  O  O201  1  0.00759241  0.88487582  0.10116156  1
  O  O202  1  0.00828949  0.87980123  0.39958720  1
  O  O203  1  0.00207491  0.88783227  0.60220191  1
  O  O204  1  0.00525189  0.86898928  0.88712290  1
  O  O205  1  0.25514131  0.10937236  0.09209286  1
  O  O206  1  0.24592727  0.17322567  0.39047055  1
  O  O207  1  0.24564498  0.14551448  0.61357791  1
  O  O208  1  0.24673339  0.12045299  0.87292479  1
  O  O209  1  0.25260411  0.38393322  0.14404364  1
  O  O210  1  0.25245503  0.35468942  0.35986769  1
  O  O211  1  0.25508892  0.33910115  0.62456864  1
  O  O212  1  0.25801176  0.37285993  0.84699696  1
  O  O213  1  0.25714748  0.61113467  0.15580233  1
  O  O214  1  0.25358610  0.62421882  0.34525055  1
  O  O215  1  0.24869280  0.66452249  0.63122926  1
  O  O216  1  0.26015933  0.64336842  0.87190680  1
  O  O217  1  0.25084419  0.90544870  0.15448965  1
  O  O218  1  0.24696509  0.87986635  0.34131080  1
  O  O219  1  0.25085274  0.85009135  0.62827988  1
  O  O220  1  0.24895814  0.88300486  0.85348324  1
  O  O221  1  0.49834566  0.15205960  0.12568221  1
  O  O222  1  0.49578146  0.11217732  0.34844362  1
  O  O223  1  0.50781663  0.09065961  0.63388489  1
  O  O224  1  0.50842777  0.12297457  0.84860577  1
  O  O225  1  0.50469847  0.37958337  0.08980894  1
  O  O226  1  0.51546591  0.38614798  0.40537298  1
  O  O227  1  0.49288938  0.37140444  0.61407259  1
  O  O228  1  0.51399275  0.38122099  0.90685926  1
  O  O229  1  0.51098461  0.61492699  0.10807182  1
  O  O230  1  0.49083635  0.65251340  0.41143986  1
  O  O231  1  0.49018970  0.62412517  0.61997769  1
  O  O232  1  0.49322545  0.63903650  0.88712181  1
  O  O233  1  0.48724515  0.86534837  0.09441172  1
  O  O234  1  0.49458412  0.89095073  0.37841694  1
  O  O235  1  0.49802088  0.90958272  0.61568991  1
  O  O236  1  0.49152901  0.89599415  0.92491366  1
  O  O237  1  0.74067022  0.12151921  0.09489245  1
  O  O238  1  0.75102310  0.10333558  0.37450677  1
  O  O239  1  0.75235351  0.15314185  0.60906060  1
  O  O240  1  0.75758683  0.13332604  0.89585667  1
  O  O241  1  0.75756323  0.34030882  0.13997326  1
  O  O242  1  0.74675927  0.36524319  0.36390380  1
  O  O243  1  0.75829332  0.36099104  0.63195199  1
  O  O244  1  0.75617429  0.36063557  0.84130508  1
  O  O245  1  0.74636229  0.64261849  0.15058216  1
  O  O246  1  0.75393756  0.62713919  0.35528779  1
  O  O247  1  0.74814635  0.63747431  0.63161366  1
  O  O248  1  0.75485563  0.63889764  0.83475635  1
  O  O249  1  0.75930827  0.87038553  0.15153225  1
  O  O250  1  0.74255420  0.88522856  0.34772310  1
  O  O251  1  0.74138891  0.85361005  0.62938974  1
  O  O252  1  0.76070095  0.86734549  0.86450477  1
  O  O253  1  0.12636272  0.00488113  0.10007434  1
  O  O254  1  0.14433122  0.00880862  0.37709929  1
  O  O255  1  0.14413785  -0.00046989  0.60433894  1
  O  O256  1  0.11647797  -0.00157833  0.87306307  1
  O  O257  1  0.12679206  0.24655372  0.13063336  1
  O  O258  1  0.11472934  0.24854723  0.33061344  1
  O  O259  1  0.10854718  0.24162163  0.64733958  1
  O  O260  1  0.11773907  0.24287079  0.84428112  1
  O  O261  1  0.11919531  0.49463128  0.09471036  1
  O  O262  1  0.13509950  0.48835185  0.38787717  1
  O  O263  1  0.15880980  0.50106051  0.60471687  1
  O  O264  1  0.14205307  0.49370228  0.87581150  1
  O  O265  1  0.12294764  0.75672805  0.14304190  1
  O  O266  1  0.13449589  0.76047030  0.35524062  1
  O  O267  1  0.08941503  0.74580348  0.61347591  1
  O  O268  1  0.11953394  0.75841599  0.86803852  1
  O  O269  1  0.40271190  0.00522818  0.12421137  1
  O  O270  1  0.35877683  0.00151640  0.33440310  1
  O  O271  1  0.33969262  -0.00788099  0.63295857  1
  O  O272  1  0.37699055  -0.00008210  0.85329179  1
  O  O273  1  0.36928907  0.26474389  0.09119796  1
  O  O274  1  0.40352270  0.25019935  0.37944897  1
  O  O275  1  0.39981790  0.23372157  0.61419730  1
  O  O276  1  0.37408800  0.25602346  0.88994171  1
  O  O277  1  0.38875763  0.50134427  0.12827629  1
  O  O278  1  0.37935298  0.50756739  0.36682249  1
  O  O279  1  0.34580418  0.48999086  0.62578553  1
  O  O280  1  0.38730085  0.50139641  0.85507816  1
  O  O281  1  0.35634948  0.74930656  0.11184992  1
  O  O282  1  0.35313586  0.75896275  0.37567214  1
  O  O283  1  0.39585774  0.76572625  0.58563677  1
  O  O284  1  0.37726980  0.76769169  0.90429887  1
  O  O285  1  0.59433072  0.00202945  0.13077945  1
  O  O286  1  0.61890608  -0.00383785  0.34534712  1
  O  O287  1  0.66390861  0.00342981  0.63473607  1
  O  O288  1  0.64982702  0.00686330  0.85794354  1
  O  O289  1  0.62276022  0.24656598  0.09022577  1
  O  O290  1  0.63209000  0.24873132  0.38308783  1
  O  O291  1  0.61339073  0.24155480  0.62214046  1
  O  O292  1  0.63057615  0.24861448  0.90745396  1
  O  O293  1  0.64326608  0.51186572  0.15730917  1
  O  O294  1  0.62962680  0.50752910  0.33475842  1
  O  O295  1  0.62689274  0.49954566  0.64215165  1
  O  O296  1  0.63697731  0.49166324  0.84824283  1
  O  O297  1  0.62674972  0.74638643  0.08305140  1
  O  O298  1  0.62105053  0.76328586  0.38960274  1
  O  O299  1  0.58986284  0.75895014  0.60632230  1
  O  O300  1  0.61475055  0.75811567  0.90026970  1
  O  O301  1  0.88403515  -0.00419586  0.10596841  1
  O  O302  1  0.89586321  0.00388706  0.37610476  1
  O  O303  1  0.85089759  0.00561105  0.61413468  1
  O  O304  1  0.87614649  0.00210677  0.88759290  1
  O  O305  1  0.89870862  0.24690606  0.13616686  1
  O  O306  1  0.87422334  0.23800600  0.34812512  1
  O  O307  1  0.90116635  0.25268996  0.63283707  1
  O  O308  1  0.89159382  0.25017700  0.85305484  1
  O  O309  1  0.85824414  0.48496093  0.09300304  1
  O  O310  1  0.88885873  0.50788171  0.38379379  1
  O  O311  1  0.85388061  0.48942527  0.58153236  1
  O  O312  1  0.83431025  0.49379964  0.89919613  1
  O  O313  1  0.89228667  0.74717764  0.14685833  1
  O  O314  1  0.87071625  0.75199034  0.34038174  1
  O  O315  1  0.87936538  0.74899976  0.63860962  1
  O  O316  1  0.89210412  0.74194021  0.86840389  1
