# generated using pymatgen
data_Mg32Ti42(Bi17O64)3
_symmetry_space_group_name_H-M   'P 1'
_cell_length_a   15.91394997
_cell_length_b   15.97091268
_cell_length_c   15.91904224
_cell_angle_alpha   90.01034273
_cell_angle_beta   90.03787777
_cell_angle_gamma   90.20275605
_symmetry_Int_Tables_number   1
_chemical_formula_structural   Mg32Ti42(Bi17O64)3
_chemical_formula_sum   'Mg32 Ti42 Bi51 O192'
_cell_volume   4045.96235352
_cell_formula_units_Z   1
loop_
 _symmetry_equiv_pos_site_id
 _symmetry_equiv_pos_as_xyz
  1  'x, y, z'
loop_
 _atom_site_type_symbol
 _atom_site_label
 _atom_site_symmetry_multiplicity
 _atom_site_fract_x
 _atom_site_fract_y
 _atom_site_fract_z
 _atom_site_occupancy
  Mg  Mg0  1  0.11951887  0.11253912  0.88294623  1
  Mg  Mg1  1  0.38075818  0.11783963  0.61420195  1
  Mg  Mg2  1  0.37859925  0.11325880  0.87259907  1
  Mg  Mg3  1  0.38508621  0.11671751  0.38171438  1
  Mg  Mg4  1  0.12878411  0.38240269  0.87651962  1
  Mg  Mg5  1  0.37967037  0.86772687  0.62042336  1
  Mg  Mg6  1  0.88295303  0.88545312  0.87290252  1
  Mg  Mg7  1  0.88428272  0.13266756  0.12224920  1
  Mg  Mg8  1  0.62622496  0.38902455  0.38097478  1
  Mg  Mg9  1  0.63188648  0.37571204  0.87067541  1
  Mg  Mg10  1  0.37577266  0.37946098  0.37354151  1
  Mg  Mg11  1  0.87792478  0.37735500  0.62298514  1
  Mg  Mg12  1  0.61734844  0.62784849  0.11082356  1
  Mg  Mg13  1  0.87430951  0.61979365  0.87911654  1
  Mg  Mg14  1  0.86879694  0.87620282  0.62102392  1
  Mg  Mg15  1  0.12886499  0.37208530  0.37523266  1
  Mg  Mg16  1  0.11881441  0.86009203  0.61807448  1
  Mg  Mg17  1  0.86628673  0.61863514  0.63189521  1
  Mg  Mg18  1  0.63231305  0.87351680  0.11352822  1
  Mg  Mg19  1  0.76327304  0.46440490  -0.02485657  1
  Mg  Mg20  1  0.77275855  0.50368008  0.28796921  1
  Mg  Mg21  1  0.79483943  0.57127117  0.46880923  1
  Mg  Mg22  1  0.03073716  -0.03185900  0.02814975  1
  Mg  Mg23  1  0.23075225  0.55593173  0.02864023  1
  Mg  Mg24  1  0.54709337  -0.00895517  0.47608250  1
  Mg  Mg25  1  0.23851542  0.47386720  0.49139253  1
  Mg  Mg26  1  0.77850585  0.45991616  0.75041881  1
  Mg  Mg27  1  0.54060745  0.75286916  -0.02430597  1
  Mg  Mg28  1  0.03787912  0.49005581  0.26142991  1
  Mg  Mg29  1  0.74849651  -0.03962587  0.47344367  1
  Mg  Mg30  1  0.17330815  0.05660971  0.53516829  1
  Mg  Mg31  1  0.17526770  0.69715840  0.21506769  1
  Ti  Ti32  1  0.61599077  0.61852372  0.37235405  1
  Ti  Ti33  1  0.37411910  0.63179578  0.36825345  1
  Ti  Ti34  1  0.61941971  0.12889584  0.86285403  1
  Ti  Ti35  1  0.86943302  0.87420994  0.36593422  1
  Ti  Ti36  1  0.36548155  0.87348397  0.12912196  1
  Ti  Ti37  1  0.14023596  0.61252487  0.37742059  1
  Ti  Ti38  1  0.87865520  0.37364915  0.87450175  1
  Ti  Ti39  1  0.13313734  0.62019121  0.62674151  1
  Ti  Ti40  1  0.63490379  0.60954007  0.87333588  1
  Ti  Ti41  1  0.62556244  0.12403559  0.37778460  1
  Ti  Ti42  1  0.37610760  0.87795252  0.88194405  1
  Ti  Ti43  1  0.37086957  0.13328213  0.12684026  1
  Ti  Ti44  1  0.37046507  0.37498350  0.62637054  1
  Ti  Ti45  1  0.85533585  0.60621174  0.11391256  1
  Ti  Ti46  1  0.86159756  0.37851537  0.12363274  1
  Ti  Ti47  1  0.87662610  0.38460410  0.38713554  1
  Ti  Ti48  1  0.37764530  0.63122008  0.12668354  1
  Ti  Ti49  1  0.62748175  0.13630631  0.12814117  1
  Ti  Ti50  1  0.13116869  0.89461931  0.38521004  1
  Ti  Ti51  1  0.62146595  0.87102052  0.36778913  1
  Ti  Ti52  1  0.87707364  0.87497116  0.12315330  1
  Ti  Ti53  1  0.13019751  0.38578706  0.62760913  1
  Ti  Ti54  1  0.63012711  0.61461515  0.63117958  1
  Ti  Ti55  1  0.12531979  0.12915154  0.13061628  1
  Ti  Ti56  1  0.14934960  0.36442310  0.12124731  1
  Ti  Ti57  1  0.37118922  0.62414520  0.63705273  1
  Ti  Ti58  1  0.86990228  0.13667390  0.37166108  1
  Ti  Ti59  1  0.88370146  0.12362525  0.87357217  1
  Ti  Ti60  1  0.38139619  0.62598271  0.88402247  1
  Ti  Ti61  1  0.87172018  0.13356054  0.61447884  1
  Ti  Ti62  1  0.37038951  0.37756321  0.87028834  1
  Ti  Ti63  1  0.62852029  0.87485415  0.62139450  1
  Ti  Ti64  1  0.12579340  0.87396517  0.14854074  1
  Ti  Ti65  1  0.63096031  0.38325629  0.11628078  1
  Ti  Ti66  1  0.62688515  0.12980410  0.61502104  1
  Ti  Ti67  1  0.11511730  0.62521694  0.88401015  1
  Ti  Ti68  1  0.63409310  0.38580197  0.63004936  1
  Ti  Ti69  1  0.11668405  0.13505659  0.36892744  1
  Ti  Ti70  1  0.62579472  0.88350804  0.87098070  1
  Ti  Ti71  1  0.38129912  0.88586887  0.37791497  1
  Ti  Ti72  1  0.10974843  0.87575920  0.88151266  1
  Ti  Ti73  1  0.37329296  0.38051719  0.12141945  1
  Bi  Bi74  1  0.48934746  0.24062233  0.49018133  1
  Bi  Bi75  1  0.24492194  0.24263262  0.49457632  1
  Bi  Bi76  1  0.02902542  0.23309006  0.73452549  1
  Bi  Bi77  1  0.73190693  0.27893731  0.51505154  1
  Bi  Bi78  1  0.00634891  0.26307506  -0.02532042  1
  Bi  Bi79  1  0.23174325  0.76364524  0.76704249  1
  Bi  Bi80  1  0.46830234  0.49915967  0.49064599  1
  Bi  Bi81  1  0.00782529  0.52823275  0.49203961  1
  Bi  Bi82  1  0.75015930  0.71432750  0.25370881  1
  Bi  Bi83  1  0.49970432  0.48541823  -0.02509934  1
  Bi  Bi84  1  0.48817733  0.73540876  0.52025111  1
  Bi  Bi85  1  0.24562350  0.01220859  0.00124142  1
  Bi  Bi86  1  0.49936061  0.48586350  0.73937889  1
  Bi  Bi87  1  0.76282643  -0.00793416  0.73160643  1
  Bi  Bi88  1  0.53380525  0.01394414  -0.00028004  1
  Bi  Bi89  1  0.24967038  0.51133336  0.22339963  1
  Bi  Bi90  1  0.27660708  0.00736714  0.25585845  1
  Bi  Bi91  1  0.49964356  0.25359229  -0.01686400  1
  Bi  Bi92  1  0.75950537  0.76211492  0.77814516  1
  Bi  Bi93  1  0.23978569  0.19588008  0.73194657  1
  Bi  Bi94  1  0.25161177  0.78054780  0.49918326  1
  Bi  Bi95  1  0.48852664  0.76210281  0.76621934  1
  Bi  Bi96  1  0.23939563  0.50955568  0.78085034  1
  Bi  Bi97  1  0.75600996  0.23662246  -0.01648532  1
  Bi  Bi98  1  0.49568956  -0.00402412  0.72012175  1
  Bi  Bi99  1  0.51273975  0.76918332  0.22185669  1
  Bi  Bi100  1  0.25577367  0.75542425  0.00367513  1
  Bi  Bi101  1  0.75863308  0.02386063  0.23180362  1
  Bi  Bi102  1  0.01340230  -0.01012357  0.71868346  1
  Bi  Bi103  1  0.51742437  0.50664537  0.23341016  1
  Bi  Bi104  1  -0.03295652  0.74851416  0.50865848  1
  Bi  Bi105  1  0.24623965  0.23548266  -0.03588683  1
  Bi  Bi106  1  0.48289083  0.23624070  0.73632493  1
  Bi  Bi107  1  0.00235131  0.28974942  0.24776579  1
  Bi  Bi108  1  0.78348860  -0.00535571  -0.00236774  1
  Bi  Bi109  1  -0.02810868  -0.00416509  0.47804268  1
  Bi  Bi110  1  0.24596119  -0.01820252  0.70117901  1
  Bi  Bi111  1  0.76394537  0.24204254  0.73978367  1
  Bi  Bi112  1  0.01192702  0.72384436  0.04020483  1
  Bi  Bi113  1  -0.02046570  0.75368600  0.74920690  1
  Bi  Bi114  1  0.51338484  0.00645746  0.22757556  1
  Bi  Bi115  1  0.01005771  0.25999912  0.51345488  1
  Bi  Bi116  1  0.74456322  0.27619538  0.26929076  1
  Bi  Bi117  1  -0.00311352  0.00861749  0.24260371  1
  Bi  Bi118  1  0.51257836  0.28122475  0.25893861  1
  Bi  Bi119  1  0.71664654  0.73979610  0.49710570  1
  Bi  Bi120  1  -0.01562129  0.51622947  0.74276144  1
  Bi  Bi121  1  0.27921706  0.25656104  0.27089405  1
  Bi  Bi122  1  0.74983345  0.73657707  -0.00026868  1
  Bi  Bi123  1  -0.01419753  0.69592011  0.27643605  1
  Bi  Bi124  1  0.01619563  0.48654941  0.03960237  1
  O  O125  1  0.15884641  0.12877762  0.01381415  1
  O  O126  1  0.11491354  0.09566499  0.25312243  1
  O  O127  1  0.12177546  0.15932588  0.49031521  1
  O  O128  1  0.11866391  0.12662737  0.75622113  1
  O  O129  1  0.09551562  0.36801550  0.01236743  1
  O  O130  1  0.12461698  0.38338989  0.23962042  1
  O  O131  1  0.11996280  0.34279330  0.50247952  1
  O  O132  1  0.14154335  0.41421046  0.74524059  1
  O  O133  1  0.13979083  0.64610350  -0.00243169  1
  O  O134  1  0.13221124  0.58248483  0.25414459  1
  O  O135  1  0.10233849  0.63421777  0.49319543  1
  O  O136  1  0.13242809  0.59751036  0.75078765  1
  O  O137  1  0.08948126  0.84751657  -0.00384139  1
  O  O138  1  0.13017276  0.90145050  0.25917862  1
  O  O139  1  0.11557168  0.84059885  0.48891722  1
  O  O140  1  0.15111090  0.88241994  0.75766927  1
  O  O141  1  0.35106986  0.12559585  0.01081267  1
  O  O142  1  0.38805832  0.09059089  0.24998298  1
  O  O143  1  0.37253283  0.16528352  0.49800693  1
  O  O144  1  0.40184660  0.12102229  0.74654877  1
  O  O145  1  0.40572018  0.36831258  -0.00171944  1
  O  O146  1  0.34723992  0.38099952  0.24184486  1
  O  O147  1  0.41068164  0.35877550  0.51241946  1
  O  O148  1  0.37090369  0.40670444  0.75235848  1
  O  O149  1  0.34984959  0.63160910  0.00747435  1
  O  O150  1  0.37530643  0.58993999  0.25213801  1
  O  O151  1  0.40232860  0.62921006  0.49874996  1
  O  O152  1  0.38678117  0.61904927  0.75396944  1
  O  O153  1  0.36409801  0.85699980  0.00669421  1
  O  O154  1  0.35883125  0.88823619  0.25449217  1
  O  O155  1  0.37830340  0.84878484  0.49222736  1
  O  O156  1  0.35675465  0.84347720  0.76579398  1
  O  O157  1  0.62947353  0.12154530  0.01017409  1
  O  O158  1  0.60768182  0.11122181  0.25606621  1
  O  O159  1  0.64487944  0.14818717  0.50166087  1
  O  O160  1  0.60382551  0.12061088  0.74898225  1
  O  O161  1  0.58767485  0.36853283  0.00340736  1
  O  O162  1  0.64050795  0.36539092  0.24042784  1
  O  O163  1  0.61494345  0.35975072  0.50588076  1
  O  O164  1  0.66236800  0.40566841  0.74758293  1
  O  O165  1  0.62485716  0.65872304  -0.01498741  1
  O  O166  1  0.62550423  0.64917624  0.25147362  1
  O  O167  1  0.60933580  0.64480837  0.49478034  1
  O  O168  1  0.64144083  0.60864794  0.74680494  1
  O  O169  1  0.59656571  0.86819996  -0.01457025  1
  O  O170  1  0.62259719  0.87015150  0.25097107  1
  O  O171  1  0.61099880  0.87709423  0.50367190  1
  O  O172  1  0.64509622  0.90855101  0.74319873  1
  O  O173  1  0.84870067  0.11878202  -0.00114343  1
  O  O174  1  0.88043508  0.10166364  0.25466869  1
  O  O175  1  0.87486156  0.13322275  0.49866163  1
  O  O176  1  0.87802543  0.15172114  0.75688828  1
  O  O177  1  0.90927127  0.38503553  0.00452916  1
  O  O178  1  0.82575709  0.39552399  0.23938148  1
  O  O179  1  0.90486815  0.37077932  0.49587638  1
  O  O180  1  0.85265522  0.35572712  0.76033175  1
  O  O181  1  0.86173505  0.65008302  0.00168893  1
  O  O182  1  0.83120914  0.60473446  0.23816162  1
  O  O183  1  0.90348902  0.62109322  0.50530883  1
  O  O184  1  0.90685161  0.62753118  0.75599891  1
  O  O185  1  0.90061897  0.91234606  0.00263235  1
  O  O186  1  0.86390778  0.89554702  0.25069239  1
  O  O187  1  0.88885489  0.86990214  0.49658926  1
  O  O188  1  0.83997533  0.87986885  0.74419375  1
  O  O189  1  0.01128023  0.08975332  0.11396089  1
  O  O190  1  -0.00378495  0.09831272  0.38019582  1
  O  O191  1  -0.00918215  0.16233422  0.62362761  1
  O  O192  1  -0.00525663  0.12611078  0.89356161  1
  O  O193  1  -0.02286993  0.42510652  0.15693067  1
  O  O194  1  -0.00975550  0.39654297  0.34161224  1
  O  O195  1  0.01104346  0.35409378  0.63290710  1
  O  O196  1  -0.00234912  0.36231870  0.86522950  1
  O  O197  1  -0.02378576  0.60376409  0.12403399  1
  O  O198  1  0.00880095  0.58327657  0.35359995  1
  O  O199  1  0.01390563  0.59050846  0.62973470  1
  O  O200  1  0.00627961  0.59713496  0.89272970  1
  O  O201  1  0.00179626  0.90634521  0.13710484  1
  O  O202  1  -0.00048020  0.91128788  0.37112989  1
  O  O203  1  -0.00304170  0.87570026  0.64891771  1
  O  O204  1  0.00326492  0.88791594  0.83535823  1
  O  O205  1  0.25034894  0.13017525  0.15835685  1
  O  O206  1  0.24074723  0.15485669  0.37345612  1
  O  O207  1  0.25276720  0.10718839  0.62185832  1
  O  O208  1  0.25190346  0.13370539  0.87151812  1
  O  O209  1  0.25551381  0.33544932  0.10360799  1
  O  O210  1  0.25282928  0.33565364  0.38650156  1
  O  O211  1  0.26089127  0.38925626  0.59124717  1
  O  O212  1  0.25789101  0.36192055  0.88027476  1
  O  O213  1  0.25279163  0.62941550  0.14228005  1
  O  O214  1  0.25474780  0.63966781  0.37963352  1
  O  O215  1  0.25695834  0.61045945  0.62585387  1
  O  O216  1  0.26713204  0.65517402  0.86532555  1
  O  O217  1  0.23855818  0.83363264  0.12809628  1
  O  O218  1  0.24517695  0.85892889  0.38655465  1
  O  O219  1  0.24961859  0.87314357  0.60958045  1
  O  O220  1  0.24496820  0.84058036  0.89073248  1
  O  O221  1  0.49248052  0.09692147  0.11910059  1
  O  O222  1  0.51332795  0.09861510  0.41026602  1
  O  O223  1  0.50629127  0.16789039  0.61228741  1
  O  O224  1  0.50152810  0.11161293  0.90418658  1
  O  O225  1  0.49153951  0.39275861  0.15027038  1
  O  O226  1  0.50194530  0.39310128  0.34495635  1
  O  O227  1  0.50913258  0.36945733  0.66024533  1
  O  O228  1  0.50557302  0.40808568  0.85967181  1
  O  O229  1  0.48992546  0.59655289  0.12242632  1
  O  O230  1  0.50057198  0.59344296  0.36770476  1
  O  O231  1  0.51407704  0.64989825  0.63127769  1
  O  O232  1  0.51094392  0.59449648  0.87491455  1
  O  O233  1  0.48341631  0.88838642  0.14096041  1
  O  O234  1  0.50168450  0.90602429  0.37785902  1
  O  O235  1  0.50792923  0.86630699  0.65231726  1
  O  O236  1  0.49385053  0.88806177  0.84434981  1
  O  O237  1  0.74243289  0.13927660  0.15029208  1
  O  O238  1  0.75302893  0.14037935  0.35819327  1
  O  O239  1  0.74652994  0.11827193  0.64245028  1
  O  O240  1  0.73712777  0.15147812  0.86930918  1
  O  O241  1  0.74258368  0.36499622  0.08453734  1
  O  O242  1  0.75358904  0.34910424  0.38532483  1
  O  O243  1  0.74898737  0.39034319  0.60114587  1
  O  O244  1  0.75349879  0.35512592  0.90777325  1
  O  O245  1  0.74175206  0.66406946  0.11933744  1
  O  O246  1  0.74176747  0.65205067  0.38727955  1
  O  O247  1  0.74653062  0.62026070  0.58036725  1
  O  O248  1  0.74856587  0.65578353  0.87268611  1
  O  O249  1  0.75982735  0.86186701  0.09946186  1
  O  O250  1  0.75039583  0.86159815  0.38748537  1
  O  O251  1  0.74325930  0.92331288  0.59970650  1
  O  O252  1  0.74187270  0.85897357  0.88385644  1
  O  O253  1  0.14542556  -0.01602046  0.10037470  1
  O  O254  1  0.14211051  0.00412677  0.42108988  1
  O  O255  1  0.12231912  -0.00993464  0.62449091  1
  O  O256  1  0.12010707  -0.01180559  0.91588703  1
  O  O257  1  0.10265389  0.24332103  0.13681289  1
  O  O258  1  0.09065875  0.24640927  0.34799704  1
  O  O259  1  0.14602690  0.26508969  0.65716955  1
  O  O260  1  0.12347173  0.25064460  0.89181417  1
  O  O261  1  0.15606239  0.48303427  0.10450366  1
  O  O262  1  0.15143124  0.49399320  0.40144972  1
  O  O263  1  0.13862155  0.49474169  0.58364939  1
  O  O264  1  0.16667360  0.51115425  0.90013112  1
  O  O265  1  0.08854808  0.75618568  0.14953837  1
  O  O266  1  0.11018332  0.72633638  0.32884068  1
  O  O267  1  0.12600597  0.73304096  0.63817440  1
  O  O268  1  0.10871109  0.74168397  0.84967487  1
  O  O269  1  0.33615659  -0.01272488  0.12133070  1
  O  O270  1  0.35098168  -0.00557484  0.38574267  1
  O  O271  1  0.38722882  -0.00853482  0.63464157  1
  O  O272  1  0.35670715  -0.01335684  0.88241996  1
  O  O273  1  0.39298946  0.24401895  0.13886808  1
  O  O274  1  0.39795579  0.24585012  0.34560632  1
  O  O275  1  0.36648684  0.26229341  0.65567659  1
  O  O276  1  0.39959630  0.25933646  0.87227007  1
  O  O277  1  0.34003039  0.49023939  0.10598474  1
  O  O278  1  0.34985954  0.49400013  0.42145500  1
  O  O279  1  0.40296447  0.50317599  0.61717492  1
  O  O280  1  0.36978598  0.50434386  0.89635138  1
  O  O281  1  0.39130618  0.74397333  0.14344491  1
  O  O282  1  0.39739027  0.74079419  0.36164943  1
  O  O283  1  0.37640281  0.73992965  0.61936672  1
  O  O284  1  0.42949881  0.73907564  0.89752543  1
  O  O285  1  0.62749264  0.00072310  0.13009049  1
  O  O286  1  0.65132303  0.00061769  0.39894833  1
  O  O287  1  0.58334519  0.01784222  0.60225938  1
  O  O288  1  0.63097548  0.00437312  0.88937951  1
  O  O289  1  0.60307557  0.24841543  0.12611373  1
  O  O290  1  0.61321764  0.24457714  0.35856535  1
  O  O291  1  0.64990577  0.25702179  0.63905801  1
  O  O292  1  0.59697306  0.24801515  0.87772131  1
  O  O293  1  0.62734504  0.49738960  0.12859982  1
  O  O294  1  0.65711561  0.51109547  0.35414715  1
  O  O295  1  0.60642667  0.50388291  0.61365780  1
  O  O296  1  0.65645057  0.50449753  0.91286707  1
  O  O297  1  0.58358912  0.75369191  0.11093617  1
  O  O298  1  0.60843675  0.75817465  0.38153446  1
  O  O299  1  0.65187095  0.76221964  0.62995504  1
  O  O300  1  0.60488894  0.76180538  0.84811184  1
  O  O301  1  0.84371972  0.00539079  0.12628992  1
  O  O302  1  0.85321160  -0.00195848  0.40310991  1
  O  O303  1  0.89193920  0.01584776  0.64067192  1
  O  O304  1  0.85037236  0.01000526  0.86571523  1
  O  O305  1  0.88500458  0.26484042  0.13135789  1
  O  O306  1  0.89156037  0.25015659  0.35177943  1
  O  O307  1  0.84427980  0.25175027  0.62278783  1
  O  O308  1  0.87453122  0.24906226  0.90484895  1
  O  O309  1  0.82730629  0.50250245  0.08256610  1
  O  O310  1  0.84210586  0.49166625  0.39050124  1
  O  O311  1  0.86999268  0.49470975  0.66682198  1
  O  O312  1  0.84233665  0.48863920  0.86866355  1
  O  O313  1  0.90007368  0.76232412  0.12831790  1
  O  O314  1  0.90579697  0.75984043  0.37188459  1
  O  O315  1  0.88827346  0.74635243  0.62761680  1
  O  O316  1  0.88201764  0.75894091  0.85052978  1
