# generated using pymatgen
data_Mg32Ti42(Bi17O64)3
_symmetry_space_group_name_H-M   'P 1'
_cell_length_a   15.98752086
_cell_length_b   15.94473718
_cell_length_c   15.90975748
_cell_angle_alpha   89.94552586
_cell_angle_beta   90.09083109
_cell_angle_gamma   89.85688114
_symmetry_Int_Tables_number   1
_chemical_formula_structural   Mg32Ti42(Bi17O64)3
_chemical_formula_sum   'Mg32 Ti42 Bi51 O192'
_cell_volume   4055.64515896
_cell_formula_units_Z   1
loop_
 _symmetry_equiv_pos_site_id
 _symmetry_equiv_pos_as_xyz
  1  'x, y, z'
loop_
 _atom_site_type_symbol
 _atom_site_label
 _atom_site_symmetry_multiplicity
 _atom_site_fract_x
 _atom_site_fract_y
 _atom_site_fract_z
 _atom_site_occupancy
  Mg  Mg0  1  0.88023210  0.13049099  0.87102933  1
  Mg  Mg1  1  0.86814700  0.87668981  0.13166558  1
  Mg  Mg2  1  0.37501484  0.12953934  0.37805349  1
  Mg  Mg3  1  0.12650494  0.13506902  0.61817731  1
  Mg  Mg4  1  0.88144913  0.38291736  0.61926547  1
  Mg  Mg5  1  0.37857870  0.61932162  0.37131251  1
  Mg  Mg6  1  0.37093669  0.87411755  0.36945284  1
  Mg  Mg7  1  0.12402421  0.12135856  0.37755949  1
  Mg  Mg8  1  0.13167008  0.12609677  0.87334041  1
  Mg  Mg9  1  0.87549675  0.87956284  0.87236915  1
  Mg  Mg10  1  0.62190838  0.12893915  0.86901786  1
  Mg  Mg11  1  0.62679295  0.63771801  0.62646404  1
  Mg  Mg12  1  0.86940949  0.37697448  0.12670930  1
  Mg  Mg13  1  0.88187380  0.37531634  0.87824845  1
  Mg  Mg14  1  0.14036361  0.63589759  0.12264592  1
  Mg  Mg15  1  0.87935161  0.61923762  0.88259626  1
  Mg  Mg16  1  0.62934994  0.12905621  0.14013936  1
  Mg  Mg17  1  0.37814712  0.13518241  0.87235342  1
  Mg  Mg18  1  0.62223687  0.37456350  0.62549668  1
  Mg  Mg19  1  0.81884757  0.44890561  0.28858548  1
  Mg  Mg20  1  0.72687965  0.00395554  0.28098654  1
  Mg  Mg21  1  0.52837514  0.26921757  0.25009350  1
  Mg  Mg22  1  0.53653685  0.02665858  0.50369445  1
  Mg  Mg23  1  0.46093828  0.74845480  0.27943784  1
  Mg  Mg24  1  0.05553782  0.51693853  0.75867681  1
  Mg  Mg25  1  0.75240830  0.81916863  0.00521973  1
  Mg  Mg26  1  0.73977881  0.49989355  0.55983547  1
  Mg  Mg27  1  0.49677864  0.47505640  0.19610608  1
  Mg  Mg28  1  0.21464645  0.27524891  0.06872097  1
  Mg  Mg29  1  -0.04214820  0.77805388  -0.01420414  1
  Mg  Mg30  1  0.24641636  0.01469735  0.25912681  1
  Mg  Mg31  1  0.26692418  0.75240097  0.25165146  1
  Ti  Ti32  1  0.38045244  0.37331447  0.10533437  1
  Ti  Ti33  1  0.86212564  0.60832177  0.13119549  1
  Ti  Ti34  1  0.38733308  0.37378688  0.36063196  1
  Ti  Ti35  1  0.37551012  0.62900806  0.62586549  1
  Ti  Ti36  1  0.37995764  0.87545236  0.62307873  1
  Ti  Ti37  1  0.62603177  0.12260000  0.62184127  1
  Ti  Ti38  1  0.12822605  0.61931223  0.61680077  1
  Ti  Ti39  1  0.37902836  0.38263210  0.63162043  1
  Ti  Ti40  1  0.62749488  0.89397636  0.13871714  1
  Ti  Ti41  1  0.38321724  0.62811267  0.13551441  1
  Ti  Ti42  1  0.12330021  0.62903685  0.88897962  1
  Ti  Ti43  1  0.37993972  0.12970089  0.61612647  1
  Ti  Ti44  1  0.37078252  0.13771369  0.12604134  1
  Ti  Ti45  1  0.62047382  0.39934568  0.36395583  1
  Ti  Ti46  1  0.87378338  0.12447602  0.13208878  1
  Ti  Ti47  1  0.13543463  0.37378756  0.87618242  1
  Ti  Ti48  1  0.62875044  0.62207480  0.13368915  1
  Ti  Ti49  1  0.88719959  0.11049437  0.36926308  1
  Ti  Ti50  1  0.12340522  0.86810641  0.61971450  1
  Ti  Ti51  1  0.63374005  0.63546904  0.88081519  1
  Ti  Ti52  1  0.62182568  0.88214945  0.62687232  1
  Ti  Ti53  1  0.61687462  0.13290383  0.37073675  1
  Ti  Ti54  1  0.88290084  0.87700420  0.37040219  1
  Ti  Ti55  1  0.36987348  0.88101945  0.14304523  1
  Ti  Ti56  1  0.38462828  0.36864586  0.87397603  1
  Ti  Ti57  1  0.63319596  0.37243979  0.12455430  1
  Ti  Ti58  1  0.38469202  0.61740531  0.86769322  1
  Ti  Ti59  1  0.13762052  0.85964901  0.11598967  1
  Ti  Ti60  1  0.62200837  0.63244363  0.36777466  1
  Ti  Ti61  1  0.87827065  0.87195853  0.62493665  1
  Ti  Ti62  1  0.11610914  0.37644423  0.62255224  1
  Ti  Ti63  1  0.12649546  0.86649244  0.36104882  1
  Ti  Ti64  1  0.13232452  0.63341838  0.36106382  1
  Ti  Ti65  1  0.13250610  0.37944133  0.38216917  1
  Ti  Ti66  1  0.87710461  0.12594467  0.61370531  1
  Ti  Ti67  1  0.87540261  0.62202127  0.62731821  1
  Ti  Ti68  1  0.86041994  0.63734944  0.36930371  1
  Ti  Ti69  1  0.63301036  0.88255135  0.86549740  1
  Ti  Ti70  1  0.61671937  0.88088289  0.37815608  1
  Ti  Ti71  1  0.62405586  0.37210215  0.87146421  1
  Ti  Ti72  1  0.13541188  0.11122540  0.11660368  1
  Ti  Ti73  1  0.11287855  0.87149908  0.88342894  1
  Bi  Bi74  1  0.52398158  0.77111778  0.02440949  1
  Bi  Bi75  1  0.74235155  0.74797964  0.51415023  1
  Bi  Bi76  1  0.48075033  0.00979245  -0.00951827  1
  Bi  Bi77  1  0.75486979  0.29054080  0.50303087  1
  Bi  Bi78  1  0.78573189  0.25779076  0.75185665  1
  Bi  Bi79  1  0.24188672  0.46584227  0.22792088  1
  Bi  Bi80  1  0.00336556  0.27723497  0.22246064  1
  Bi  Bi81  1  0.02113357  0.73253371  0.74752936  1
  Bi  Bi82  1  0.77480039  0.00770953  0.73991292  1
  Bi  Bi83  1  0.48919609  0.02684976  0.26916981  1
  Bi  Bi84  1  0.00191336  0.50593987  -0.01011158  1
  Bi  Bi85  1  0.51691757  0.27472392  0.49076123  1
  Bi  Bi86  1  0.75943798  0.47953765  -0.01567543  1
  Bi  Bi87  1  0.29107257  0.76637773  -0.01129240  1
  Bi  Bi88  1  0.26843551  0.75476927  0.48611047  1
  Bi  Bi89  1  0.02353201  0.00534877  0.50594581  1
  Bi  Bi90  1  0.03703478  -0.00600001  0.23154162  1
  Bi  Bi91  1  0.52088724  0.51062418  -0.00341557  1
  Bi  Bi92  1  0.02642963  0.48931972  0.22208622  1
  Bi  Bi93  1  0.75492178  0.23545677  0.00208669  1
  Bi  Bi94  1  0.26695913  0.52578189  -0.00403484  1
  Bi  Bi95  1  0.74364205  0.76161212  0.23762836  1
  Bi  Bi96  1  0.26770490  0.50807909  0.48030875  1
  Bi  Bi97  1  -0.03365575  -0.01201514  0.01569506  1
  Bi  Bi98  1  0.00063586  0.74057143  0.49513388  1
  Bi  Bi99  1  0.25787013  0.48812634  0.75154347  1
  Bi  Bi100  1  0.77814251  0.74696295  0.78420487  1
  Bi  Bi101  1  0.76401656  -0.01364809  0.49222839  1
  Bi  Bi102  1  0.53327319  0.51430840  0.74405853  1
  Bi  Bi103  1  0.47662696  0.00696464  0.75485821  1
  Bi  Bi104  1  0.02703224  0.24799053  0.00738791  1
  Bi  Bi105  1  0.22025297  0.23716877  0.27193590  1
  Bi  Bi106  1  0.77525174  0.49034571  0.75348309  1
  Bi  Bi107  1  0.47949720  0.77625801  0.78327455  1
  Bi  Bi108  1  0.27534614  0.26451793  0.48994812  1
  Bi  Bi109  1  0.23690144  0.02089233  0.73793145  1
  Bi  Bi110  1  0.01776160  0.02755327  0.75222569  1
  Bi  Bi111  1  0.52077959  0.22943315  0.01213443  1
  Bi  Bi112  1  -0.00984878  0.73418360  0.20766949  1
  Bi  Bi113  1  0.24286445  0.25521053  0.73980800  1
  Bi  Bi114  1  0.77841602  0.25570080  0.26994225  1
  Bi  Bi115  1  0.26087383  0.00209216  0.47182408  1
  Bi  Bi116  1  -0.02996009  0.28804840  0.46976961  1
  Bi  Bi117  1  -0.01786526  0.51627475  0.46325880  1
  Bi  Bi118  1  0.24983829  0.76921719  0.75452828  1
  Bi  Bi119  1  0.51623985  0.24216902  0.74247289  1
  Bi  Bi120  1  0.27538614  -0.00968172  -0.04860193  1
  Bi  Bi121  1  0.00943393  0.26538732  0.77275727  1
  Bi  Bi122  1  0.50798569  0.75498987  0.47554991  1
  Bi  Bi123  1  0.75256307  0.03105348  -0.02790333  1
  Bi  Bi124  1  0.51762553  0.51880335  0.51563857  1
  O  O125  1  0.12196939  0.13099462  -0.00074156  1
  O  O126  1  0.14116678  0.11828683  0.24574339  1
  O  O127  1  0.12757724  0.09263254  0.50085344  1
  O  O128  1  0.12457412  0.10792615  0.74282027  1
  O  O129  1  0.14508047  0.33977096  -0.01270716  1
  O  O130  1  0.13021260  0.37791925  0.26056005  1
  O  O131  1  0.15672212  0.37679124  0.50357922  1
  O  O132  1  0.08538176  0.38969087  0.74394448  1
  O  O133  1  0.10520274  0.59603254  0.00199809  1
  O  O134  1  0.16336735  0.66412124  0.25559229  1
  O  O135  1  0.09133778  0.61931339  0.50588023  1
  O  O136  1  0.12227058  0.63369392  0.75897316  1
  O  O137  1  0.14715213  0.88139275  0.00291782  1
  O  O138  1  0.10563370  0.86075749  0.24749294  1
  O  O139  1  0.12037401  0.88452160  0.50159753  1
  O  O140  1  0.11402703  0.84017165  0.75966653  1
  O  O141  1  0.36061682  0.07951467  0.01037277  1
  O  O142  1  0.38944583  0.13371732  0.24146219  1
  O  O143  1  0.34507823  0.10721501  0.50479071  1
  O  O144  1  0.41226748  0.13388853  0.74463624  1
  O  O145  1  0.35095647  0.39364965  -0.00360094  1
  O  O146  1  0.41891171  0.35045053  0.25454825  1
  O  O147  1  0.34449517  0.38596878  0.51267919  1
  O  O148  1  0.39568339  0.36805124  0.75192880  1
  O  O149  1  0.39003925  0.58903833  -0.00562670  1
  O  O150  1  0.36274586  0.65937636  0.24696184  1
  O  O151  1  0.38548478  0.59316658  0.50727256  1
  O  O152  1  0.35783333  0.64066695  0.75124803  1
  O  O153  1  0.35784543  0.88878701  0.01665636  1
  O  O154  1  0.37341900  0.83092857  0.24846142  1
  O  O155  1  0.35454385  0.89035410  0.50502353  1
  O  O156  1  0.36340900  0.84535260  0.74502538  1
  O  O157  1  0.64517210  0.14899049  0.01171805  1
  O  O158  1  0.57032198  0.13473859  0.25298497  1
  O  O159  1  0.62953247  0.11693812  0.49016035  1
  O  O160  1  0.59304999  0.12353728  0.74302631  1
  O  O161  1  0.64432149  0.35843981  0.00495441  1
  O  O162  1  0.58530972  0.39362963  0.24930422  1
  O  O163  1  0.63330186  0.36500282  0.48807266  1
  O  O164  1  0.61489816  0.39037119  0.75390694  1
  O  O165  1  0.59885298  0.63459540  0.00078463  1
  O  O166  1  0.64082250  0.62954279  0.25199965  1
  O  O167  1  0.59193401  0.63080656  0.49599072  1
  O  O168  1  0.63357141  0.60858992  0.75617367  1
  O  O169  1  0.63290115  0.87397796  0.00591386  1
  O  O170  1  0.64091637  0.86101794  0.25209876  1
  O  O171  1  0.58811909  0.90540281  0.49224686  1
  O  O172  1  0.64315061  0.87852049  0.74467672  1
  O  O173  1  0.86542456  0.12857787  0.00266114  1
  O  O174  1  0.88956420  0.14223819  0.25081686  1
  O  O175  1  0.86840868  0.09853567  0.49689624  1
  O  O176  1  0.85456296  0.12530411  0.74120143  1
  O  O177  1  0.85942848  0.38666252  0.00312667  1
  O  O178  1  0.88170838  0.34651216  0.25275642  1
  O  O179  1  0.86497632  0.37053370  0.49004689  1
  O  O180  1  0.86459812  0.38033628  0.74466754  1
  O  O181  1  0.88454868  0.58239973  0.01446851  1
  O  O182  1  0.86545670  0.65896437  0.25249784  1
  O  O183  1  0.90616503  0.63126770  0.49760471  1
  O  O184  1  0.84495187  0.61876294  0.74517892  1
  O  O185  1  0.86657931  0.87805723  0.00326259  1
  O  O186  1  0.86019325  0.85102507  0.25620545  1
  O  O187  1  0.87308798  0.90038455  0.49819450  1
  O  O188  1  0.85388191  0.87477081  0.74421397  1
  O  O189  1  0.01265743  0.08860532  0.12475312  1
  O  O190  1  -0.00138800  0.09122666  0.38288343  1
  O  O191  1  -0.00715671  0.11363383  0.62524797  1
  O  O192  1  0.00356297  0.12895339  0.85178639  1
  O  O193  1  -0.00088300  0.38862014  0.13370678  1
  O  O194  1  0.01353723  0.38942800  0.38809900  1
  O  O195  1  0.00464662  0.37300133  0.58703473  1
  O  O196  1  0.00934002  0.35804958  0.88570785  1
  O  O197  1  -0.00488696  0.60690399  0.14983920  1
  O  O198  1  0.01418526  0.60144102  0.35743597  1
  O  O199  1  -0.00963155  0.61570220  0.65540046  1
  O  O200  1  0.00114141  0.57513937  0.86696498  1
  O  O201  1  0.00545995  0.90617779  0.11980354  1
  O  O202  1  -0.00455584  0.90118521  0.37554015  1
  O  O203  1  -0.00852504  0.86915295  0.62475244  1
  O  O204  1  -0.00072300  0.87903707  0.91149412  1
  O  O205  1  0.25150069  0.15739049  0.11525515  1
  O  O206  1  0.25089944  0.15149978  0.37314716  1
  O  O207  1  0.25641024  0.12069869  0.64806948  1
  O  O208  1  0.25595096  0.10540552  0.85382187  1
  O  O209  1  0.26672261  0.35588093  0.14638331  1
  O  O210  1  0.26121880  0.34592298  0.36601797  1
  O  O211  1  0.24788551  0.37459386  0.66178531  1
  O  O212  1  0.25174140  0.36738977  0.83778172  1
  O  O213  1  0.26622202  0.62922750  0.09596568  1
  O  O214  1  0.24512239  0.63818499  0.40858480  1
  O  O215  1  0.24270806  0.63038884  0.60804783  1
  O  O216  1  0.24274424  0.63815698  0.90117932  1
  O  O217  1  0.24849424  0.82845000  0.14242227  1
  O  O218  1  0.23837362  0.82800133  0.36096577  1
  O  O219  1  0.23979690  0.85809339  0.63796848  1
  O  O220  1  0.23706389  0.83860037  0.87434033  1
  O  O221  1  0.49435735  0.10985629  0.09242128  1
  O  O222  1  0.49259418  0.08484986  0.39482220  1
  O  O223  1  0.49239654  0.11834230  0.58886252  1
  O  O224  1  0.50316874  0.11838540  0.91159625  1
  O  O225  1  0.49641193  0.39476970  0.09826265  1
  O  O226  1  0.49621441  0.38829874  0.40720190  1
  O  O227  1  0.49280960  0.37805233  0.60485616  1
  O  O228  1  0.49763935  0.40033457  0.89213394  1
  O  O229  1  0.49972043  0.59321946  0.14476115  1
  O  O230  1  0.50483496  0.65676028  0.35655308  1
  O  O231  1  0.49294855  0.61028276  0.63804125  1
  O  O232  1  0.49765616  0.59999859  0.85847246  1
  O  O233  1  0.50285224  0.88812576  0.12547819  1
  O  O234  1  0.49991172  0.84871750  0.35874041  1
  O  O235  1  0.49406045  0.86654803  0.64395820  1
  O  O236  1  0.51310159  0.88571162  0.85669789  1
  O  O237  1  0.76289178  0.16445912  0.13505004  1
  O  O238  1  0.72639685  0.12276638  0.33595439  1
  O  O239  1  0.73909998  0.11240563  0.62753281  1
  O  O240  1  0.74713646  0.14495712  0.88542778  1
  O  O241  1  0.74253053  0.35418565  0.15024168  1
  O  O242  1  0.73375875  0.37410691  0.34799128  1
  O  O243  1  0.74689223  0.37856231  0.60865822  1
  O  O244  1  0.74101412  0.36524751  0.86879962  1
  O  O245  1  0.74804600  0.63848708  0.11938111  1
  O  O246  1  0.74985560  0.64749977  0.38856905  1
  O  O247  1  0.74947630  0.62688024  0.58618920  1
  O  O248  1  0.74561447  0.65091155  0.88966743  1
  O  O249  1  0.74346639  0.84399429  0.12582860  1
  O  O250  1  0.74011992  0.88341882  0.39414137  1
  O  O251  1  0.73937110  0.88728591  0.59697160  1
  O  O252  1  0.74670401  0.84465865  0.88288358  1
  O  O253  1  0.15448849  -0.00739649  0.14892111  1
  O  O254  1  0.15672981  -0.01621855  0.35425847  1
  O  O255  1  0.11283580  -0.01724870  0.64248286  1
  O  O256  1  0.12152463  -0.01585697  0.85430883  1
  O  O257  1  0.10532883  0.23779970  0.12375738  1
  O  O258  1  0.11533087  0.25382409  0.36877827  1
  O  O259  1  0.13202577  0.25862058  0.64274458  1
  O  O260  1  0.13269859  0.25199730  0.83645258  1
  O  O261  1  0.14195036  0.51147620  0.14951056  1
  O  O262  1  0.15533057  0.50150234  0.37408970  1
  O  O263  1  0.12547253  0.50428310  0.64169005  1
  O  O264  1  0.14218365  0.49301346  0.86549879  1
  O  O265  1  0.09081382  0.75346437  0.10696632  1
  O  O266  1  0.09473660  0.74710325  0.39174052  1
  O  O267  1  0.10107370  0.74316414  0.62529346  1
  O  O268  1  0.08179279  0.73644693  0.89385039  1
  O  O269  1  0.34069084  -0.01406047  0.16965685  1
  O  O270  1  0.33498013  -0.00372278  0.35471829  1
  O  O271  1  0.37456617  -0.00732678  0.65213659  1
  O  O272  1  0.38798275  0.00144190  0.86798401  1
  O  O273  1  0.39474632  0.24812796  0.09866124  1
  O  O274  1  0.39348990  0.25550739  0.41040289  1
  O  O275  1  0.36772423  0.24889852  0.61339821  1
  O  O276  1  0.39072850  0.25791394  0.88867481  1
  O  O277  1  0.36910800  0.49010402  0.15052378  1
  O  O278  1  0.35507199  0.49165325  0.36779598  1
  O  O279  1  0.36192381  0.49923011  0.64775733  1
  O  O280  1  0.34731461  0.50168201  0.86210797  1
  O  O281  1  0.40318017  0.73852964  0.09789787  1
  O  O282  1  0.37777869  0.74517383  0.40806875  1
  O  O283  1  0.37526778  0.74388794  0.60096345  1
  O  O284  1  0.39520213  0.73596465  0.89512899  1
  O  O285  1  0.65924181  0.00183604  0.15936294  1
  O  O286  1  0.61844460  -0.00285385  0.34499664  1
  O  O287  1  0.60435877  0.00231315  0.62168313  1
  O  O288  1  0.64959835  -0.00131947  0.87686290  1
  O  O289  1  0.59205077  0.25928579  0.14079126  1
  O  O290  1  0.59018812  0.25083130  0.36504039  1
  O  O291  1  0.61101322  0.24459135  0.62982333  1
  O  O292  1  0.59714624  0.25664985  0.86180964  1
  O  O293  1  0.62964776  0.49851940  0.11236834  1
  O  O294  1  0.62199597  0.51167094  0.38550594  1
  O  O295  1  0.62309833  0.50372765  0.61325247  1
  O  O296  1  0.63470798  0.50174319  0.89496951  1
  O  O297  1  0.60297514  0.74047978  0.12953279  1
  O  O298  1  0.63134014  0.75559502  0.40086072  1
  O  O299  1  0.62893820  0.76299648  0.60113049  1
  O  O300  1  0.60362248  0.74902209  0.86836722  1
  O  O301  1  0.86386583  0.00767291  0.12095191  1
  O  O302  1  0.84135949  0.00043342  0.35240525  1
  O  O303  1  0.86549111  -0.00188873  0.63642670  1
  O  O304  1  0.84702949  0.00431739  0.87019754  1
  O  O305  1  0.92261751  0.24201737  0.11373085  1
  O  O306  1  0.86359862  0.22771554  0.38905089  1
  O  O307  1  0.86033309  0.24407082  0.61799719  1
  O  O308  1  0.87952904  0.25358761  0.85105201  1
  O  O309  1  0.85506225  0.50127649  0.17456542  1
  O  O310  1  0.86904366  0.52049196  0.37467424  1
  O  O311  1  0.85341363  0.50647322  0.61768931  1
  O  O312  1  0.84160497  0.49871016  0.87315461  1
  O  O313  1  0.90491510  0.74454874  0.10192322  1
  O  O314  1  0.89240949  0.75911073  0.39696951  1
  O  O315  1  0.86117409  0.75218784  0.61719634  1
  O  O316  1  0.88972130  0.74514929  0.87308362  1
