# generated using pymatgen
data_Mg32Ti42(Bi17O64)3
_symmetry_space_group_name_H-M   'P 1'
_cell_length_a   15.92898885
_cell_length_b   15.97101838
_cell_length_c   15.95220178
_cell_angle_alpha   90.04668867
_cell_angle_beta   89.91578545
_cell_angle_gamma   89.92195628
_symmetry_Int_Tables_number   1
_chemical_formula_structural   Mg32Ti42(Bi17O64)3
_chemical_formula_sum   'Mg32 Ti42 Bi51 O192'
_cell_volume   4058.26530480
_cell_formula_units_Z   1
loop_
 _symmetry_equiv_pos_site_id
 _symmetry_equiv_pos_as_xyz
  1  'x, y, z'
loop_
 _atom_site_type_symbol
 _atom_site_label
 _atom_site_symmetry_multiplicity
 _atom_site_fract_x
 _atom_site_fract_y
 _atom_site_fract_z
 _atom_site_occupancy
  Mg  Mg0  1  0.86792956  0.12442214  0.87459388  1
  Mg  Mg1  1  0.37512030  0.13283613  0.87016562  1
  Mg  Mg2  1  0.61973156  0.14553897  0.63535205  1
  Mg  Mg3  1  0.63399407  0.86902479  0.62555741  1
  Mg  Mg4  1  0.37390153  0.87534147  0.37697864  1
  Mg  Mg5  1  0.86968817  0.11647695  0.38367681  1
  Mg  Mg6  1  0.62141967  0.62381737  0.12315378  1
  Mg  Mg7  1  0.36688913  0.37192586  0.12540543  1
  Mg  Mg8  1  0.87516767  0.62770819  0.37419221  1
  Mg  Mg9  1  0.37350633  0.37530564  0.38024118  1
  Mg  Mg10  1  0.12288441  0.12107081  0.13572300  1
  Mg  Mg11  1  0.62967700  0.13158608  0.37899954  1
  Mg  Mg12  1  0.37288311  0.12581349  0.12270284  1
  Mg  Mg13  1  0.88158843  0.12975005  0.62689534  1
  Mg  Mg14  1  0.87013324  0.87185288  0.87402551  1
  Mg  Mg15  1  0.11187542  0.13282400  0.36863194  1
  Mg  Mg16  1  0.12402605  0.13040438  0.88812649  1
  Mg  Mg17  1  0.87801208  0.37539984  0.87967906  1
  Mg  Mg18  1  0.12582346  0.86742082  0.37880424  1
  Mg  Mg19  1  0.21747587  0.21895171  0.75034370  1
  Mg  Mg20  1  0.75462172  0.06407421  0.03888564  1
  Mg  Mg21  1  0.78064491  0.73961902  -0.05262348  1
  Mg  Mg22  1  0.73961462  0.05715213  0.74088524  1
  Mg  Mg23  1  0.73849033  0.04581464  0.55969176  1
  Mg  Mg24  1  -0.02713261  0.20787663  0.02850990  1
  Mg  Mg25  1  0.29809261  0.23541726  0.26785610  1
  Mg  Mg26  1  0.27175000  0.19597757  0.44409626  1
  Mg  Mg27  1  0.49891025  0.80876530  0.01049065  1
  Mg  Mg28  1  0.04356968  0.51308271  0.01752744  1
  Mg  Mg29  1  0.71745162  0.78574450  0.75261336  1
  Mg  Mg30  1  0.19563791  0.51405042  0.70968480  1
  Mg  Mg31  1  -0.03523360  0.18217607  0.20784844  1
  Ti  Ti32  1  0.63383407  0.88488268  0.11918793  1
  Ti  Ti33  1  0.13189126  0.36584892  0.61111761  1
  Ti  Ti34  1  0.11846557  0.88599992  0.62090792  1
  Ti  Ti35  1  0.37936528  0.13823180  0.63146494  1
  Ti  Ti36  1  0.63159591  0.37534853  0.62274735  1
  Ti  Ti37  1  0.36650465  0.38529729  0.87087538  1
  Ti  Ti38  1  0.11835321  0.35790212  0.37269352  1
  Ti  Ti39  1  0.12051866  0.87247064  0.11527327  1
  Ti  Ti40  1  0.88210820  0.37348078  0.62712625  1
  Ti  Ti41  1  0.11208365  0.37166649  0.13116446  1
  Ti  Ti42  1  0.89155202  0.38523413  0.12524636  1
  Ti  Ti43  1  0.37000117  0.37833051  0.62408820  1
  Ti  Ti44  1  0.87512128  0.62876854  0.61885135  1
  Ti  Ti45  1  0.37108031  0.63071815  0.37705773  1
  Ti  Ti46  1  0.13306363  0.61782989  0.87586507  1
  Ti  Ti47  1  0.61928964  0.62747614  0.37782740  1
  Ti  Ti48  1  0.87269372  0.85662162  0.11415544  1
  Ti  Ti49  1  0.13372663  0.37270504  0.87642664  1
  Ti  Ti50  1  0.62306520  0.37285480  0.37307731  1
  Ti  Ti51  1  0.12698649  0.87651279  0.86990726  1
  Ti  Ti52  1  0.63209588  0.62567592  0.88611851  1
  Ti  Ti53  1  0.88410960  0.62223980  0.12471530  1
  Ti  Ti54  1  0.61313231  0.13022151  0.13730585  1
  Ti  Ti55  1  0.13497016  0.62570402  0.36816379  1
  Ti  Ti56  1  0.63191339  0.37782722  0.88416236  1
  Ti  Ti57  1  0.63220564  0.87209260  0.88421327  1
  Ti  Ti58  1  0.38729061  0.62059698  0.88095257  1
  Ti  Ti59  1  0.38893419  0.62315631  0.62129652  1
  Ti  Ti60  1  0.37626736  0.63225564  0.13119213  1
  Ti  Ti61  1  0.88369553  0.37622866  0.36581552  1
  Ti  Ti62  1  0.63037398  0.88957579  0.37146440  1
  Ti  Ti63  1  0.13340718  0.63562503  0.12404820  1
  Ti  Ti64  1  0.38118006  0.87196608  0.86718941  1
  Ti  Ti65  1  0.63593106  0.62412553  0.62292696  1
  Ti  Ti66  1  0.38711214  0.87619766  0.63012991  1
  Ti  Ti67  1  0.87846022  0.62114682  0.85374461  1
  Ti  Ti68  1  0.86603153  0.88429707  0.61852971  1
  Ti  Ti69  1  0.63212583  0.38613920  0.12945019  1
  Ti  Ti70  1  0.62960283  0.13822019  0.88045604  1
  Ti  Ti71  1  0.36560722  0.88339382  0.12192564  1
  Ti  Ti72  1  0.12784094  0.13478141  0.60820886  1
  Ti  Ti73  1  0.87115736  0.87479308  0.36416291  1
  Bi  Bi74  1  0.26739271  0.70785605  0.74405849  1
  Bi  Bi75  1  0.53871813  0.01735871  0.51232070  1
  Bi  Bi76  1  -0.01580673  0.23315430  0.48952375  1
  Bi  Bi77  1  0.52045784  0.49332813  0.74788526  1
  Bi  Bi78  1  0.00459314  0.51389107  0.26921554  1
  Bi  Bi79  1  0.78173149  0.23950827  0.26087062  1
  Bi  Bi80  1  0.00835016  0.49779793  0.51791056  1
  Bi  Bi81  1  0.03094749  -0.00680770  0.24919097  1
  Bi  Bi82  1  0.75742194  0.48286698  0.76454525  1
  Bi  Bi83  1  0.76653603  0.24890218  0.74789308  1
  Bi  Bi84  1  0.76238279  0.26924417  0.02791463  1
  Bi  Bi85  1  0.26190657  0.00489041  0.52808040  1
  Bi  Bi86  1  0.47036536  0.23042473  0.47132359  1
  Bi  Bi87  1  0.50502768  0.77782307  0.48294692  1
  Bi  Bi88  1  0.47659653  0.49432679  0.02276097  1
  Bi  Bi89  1  0.23828529  0.48706441  0.02201018  1
  Bi  Bi90  1  0.24031392  0.53041707  0.52318185  1
  Bi  Bi91  1  0.01791446  0.49051672  0.77256699  1
  Bi  Bi92  1  0.75513698  0.25426699  0.48753717  1
  Bi  Bi93  1  0.25240209  0.77861431  0.25427368  1
  Bi  Bi94  1  0.25220188  0.46809650  0.27249149  1
  Bi  Bi95  1  -0.00532236  0.74446852  -0.03300840  1
  Bi  Bi96  1  0.48876869  0.27830275  0.75997780  1
  Bi  Bi97  1  0.47791380  0.02417741  -0.00768148  1
  Bi  Bi98  1  0.76499450  0.52302243  0.00058125  1
  Bi  Bi99  1  0.03366178  0.72619579  0.52007632  1
  Bi  Bi100  1  0.77948461  0.01567239  0.22310596  1
  Bi  Bi101  1  -0.02447083  -0.00446182  0.77194179  1
  Bi  Bi102  1  0.52761870  0.73960049  0.75217270  1
  Bi  Bi103  1  0.75365228  0.76812770  0.49183873  1
  Bi  Bi104  1  0.25889248  0.77312149  0.51190249  1
  Bi  Bi105  1  0.74486032  0.52436889  0.26203264  1
  Bi  Bi106  1  0.23434080  0.00526970  -0.02016199  1
  Bi  Bi107  1  0.47252895  0.25253295  -0.00113294  1
  Bi  Bi108  1  0.48005595  0.03356749  0.28997016  1
  Bi  Bi109  1  -0.04649130  0.01841344  0.01967231  1
  Bi  Bi110  1  -0.00078400  0.77466845  0.73163477  1
  Bi  Bi111  1  0.22303339  0.24207732  0.03704558  1
  Bi  Bi112  1  0.49615880  0.27605041  0.23418351  1
  Bi  Bi113  1  0.54563956  -0.00116357  0.75063209  1
  Bi  Bi114  1  0.26736652  0.75403612  -0.01720458  1
  Bi  Bi115  1  0.26786036  0.03353942  0.27779073  1
  Bi  Bi116  1  -0.00161772  -0.01195733  0.46964305  1
  Bi  Bi117  1  0.49138434  0.51179491  0.26577053  1
  Bi  Bi118  1  0.50725910  0.78290756  0.23403633  1
  Bi  Bi119  1  0.50318855  0.47293183  0.50890582  1
  Bi  Bi120  1  0.24330916  0.03049055  0.75816425  1
  Bi  Bi121  1  0.76070345  0.51336526  0.49696274  1
  Bi  Bi122  1  0.00561251  0.75861951  0.26994650  1
  Bi  Bi123  1  0.74177039  0.74578415  0.23062601  1
  Bi  Bi124  1  0.00076785  0.24240842  0.78894372  1
  O  O125  1  0.15560438  0.11648884  0.01242590  1
  O  O126  1  0.06863279  0.12472213  0.25062713  1
  O  O127  1  0.16403728  0.14535919  0.49793881  1
  O  O128  1  0.13745593  0.11704496  0.74578997  1
  O  O129  1  0.13616798  0.38073096  -0.00802836  1
  O  O130  1  0.10307483  0.37442096  0.24342184  1
  O  O131  1  0.13379378  0.36411776  0.49482961  1
  O  O132  1  0.12990547  0.41052551  0.74597158  1
  O  O133  1  0.14132476  0.60469037  0.00218640  1
  O  O134  1  0.09904297  0.63044933  0.24207351  1
  O  O135  1  0.14412611  0.63232906  0.48788666  1
  O  O136  1  0.11171482  0.59657603  0.76091721  1
  O  O137  1  0.13042066  0.88679821  0.00237631  1
  O  O138  1  0.12566920  0.84859920  0.24691407  1
  O  O139  1  0.12080382  0.85359491  0.50515354  1
  O  O140  1  0.11777043  0.87561109  0.75010993  1
  O  O141  1  0.38762943  0.13541992  -0.00316939  1
  O  O142  1  0.38061216  0.11672094  0.24731517  1
  O  O143  1  0.35816253  0.14373993  0.51511360  1
  O  O144  1  0.33825961  0.13884415  0.74972245  1
  O  O145  1  0.38801626  0.36779545  -0.00600510  1
  O  O146  1  0.37798137  0.36175790  0.24952952  1
  O  O147  1  0.39731158  0.36938391  0.50720557  1
  O  O148  1  0.38679844  0.38108846  0.75097647  1
  O  O149  1  0.36021125  0.63953650  -0.00315759  1
  O  O150  1  0.38746188  0.61314481  0.24937884  1
  O  O151  1  0.35058851  0.63402766  0.49800082  1
  O  O152  1  0.38463919  0.62789926  0.74732189  1
  O  O153  1  0.37531228  0.84284038  0.00237981  1
  O  O154  1  0.36322883  0.87694725  0.24340862  1
  O  O155  1  0.37324418  0.85062135  0.50496283  1
  O  O156  1  0.38535351  0.87699124  0.75069120  1
  O  O157  1  0.65125789  0.12522361  -0.00437844  1
  O  O158  1  0.59233946  0.12018371  0.25319491  1
  O  O159  1  0.63926206  0.11211276  0.51294914  1
  O  O160  1  0.61652430  0.11382645  0.75668185  1
  O  O161  1  0.64873016  0.36051909  -0.00039807  1
  O  O162  1  0.61348041  0.37803538  0.24911302  1
  O  O163  1  0.61821717  0.37803206  0.50146401  1
  O  O164  1  0.63093278  0.40692098  0.74661113  1
  O  O165  1  0.64805048  0.63690069  -0.00303536  1
  O  O166  1  0.60650663  0.59326653  0.25705941  1
  O  O167  1  0.64340480  0.63457003  0.49774333  1
  O  O168  1  0.60311195  0.60992381  0.74668786  1
  O  O169  1  0.61920727  0.85380588  0.00354048  1
  O  O170  1  0.61211711  0.88647197  0.25233403  1
  O  O171  1  0.63566079  0.85178899  0.49803022  1
  O  O172  1  0.60911205  0.86779775  0.75729213  1
  O  O173  1  0.86148827  0.12351220  -0.00083204  1
  O  O174  1  0.87088303  0.11235178  0.25547573  1
  O  O175  1  0.85778449  0.16172861  0.50428299  1
  O  O176  1  0.88460488  0.09024559  0.74705141  1
  O  O177  1  0.85157211  0.36762972  0.00331713  1
  O  O178  1  0.88411481  0.40165107  0.24475310  1
  O  O179  1  0.86755832  0.34455698  0.49046714  1
  O  O180  1  0.87628948  0.40780334  0.73917222  1
  O  O181  1  0.84128686  0.64222171  0.01005034  1
  O  O182  1  0.89306351  0.59683949  0.24679661  1
  O  O183  1  0.84268368  0.63376613  0.49971125  1
  O  O184  1  0.88959615  0.60517649  0.74138520  1
  O  O185  1  0.86480480  0.83284235  0.00286429  1
  O  O186  1  0.86904762  0.89900257  0.24894560  1
  O  O187  1  0.86455868  0.85093281  0.50213040  1
  O  O188  1  0.89636615  0.88395134  0.74656243  1
  O  O189  1  -0.00175643  0.11401281  0.10495181  1
  O  O190  1  -0.00608962  0.11506664  0.41757437  1
  O  O191  1  0.01187980  0.14010988  0.60003513  1
  O  O192  1  0.00337986  0.16479391  0.90401692  1
  O  O193  1  0.00047908  0.41512209  0.09652071  1
  O  O194  1  -0.00376653  0.40557126  0.37935528  1
  O  O195  1  0.00555108  0.37353799  0.61166678  1
  O  O196  1  0.00688568  0.36089811  0.85862560  1
  O  O197  1  -0.00426920  0.60661911  0.09536613  1
  O  O198  1  0.00401764  0.59344729  0.38483778  1
  O  O199  1  -0.00751420  0.61097431  0.59428002  1
  O  O200  1  -0.00693293  0.62151796  0.89370548  1
  O  O201  1  -0.00665958  0.88267983  0.11990911  1
  O  O202  1  -0.00597330  0.87706016  0.36730288  1
  O  O203  1  -0.00289561  0.88519278  0.62430528  1
  O  O204  1  0.00772307  0.85645304  0.88252781  1
  O  O205  1  0.25067204  0.17351368  0.15149803  1
  O  O206  1  0.23361418  0.14907285  0.33724712  1
  O  O207  1  0.25299331  0.09882562  0.62902655  1
  O  O208  1  0.25096135  0.10268771  0.87813449  1
  O  O209  1  0.23833872  0.36502847  0.11835990  1
  O  O210  1  0.23632920  0.34903108  0.34529879  1
  O  O211  1  0.25593516  0.39280503  0.62434422  1
  O  O212  1  0.25421446  0.39234810  0.87161617  1
  O  O213  1  0.24931550  0.64361812  0.13513831  1
  O  O214  1  0.24995789  0.65002447  0.35167045  1
  O  O215  1  0.25615431  0.60163357  0.64345855  1
  O  O216  1  0.24788777  0.61117297  0.85581752  1
  O  O217  1  0.24877965  0.85003648  0.12033808  1
  O  O218  1  0.24990014  0.84231428  0.37973937  1
  O  O219  1  0.24646980  0.88080820  0.61138633  1
  O  O220  1  0.24979016  0.86767841  0.88448307  1
  O  O221  1  0.50478062  0.09426433  0.11026733  1
  O  O222  1  0.50291932  0.10397532  0.40737454  1
  O  O223  1  0.49433786  0.11027413  0.62384556  1
  O  O224  1  0.50727330  0.10995278  0.88425583  1
  O  O225  1  0.50862634  0.39724491  0.11882158  1
  O  O226  1  0.50332049  0.40789944  0.37599450  1
  O  O227  1  0.50370425  0.39362605  0.63797690  1
  O  O228  1  0.51299210  0.38644414  0.85993716  1
  O  O229  1  0.49329390  0.59834725  0.11355501  1
  O  O230  1  0.49464290  0.59134894  0.38524234  1
  O  O231  1  0.50001749  0.64048088  0.60640150  1
  O  O232  1  0.50137795  0.62929158  0.88469956  1
  O  O233  1  0.49853945  0.87661194  0.12020351  1
  O  O234  1  0.50518084  0.88560179  0.39601904  1
  O  O235  1  0.50093161  0.86575880  0.61076539  1
  O  O236  1  0.49673378  0.85340012  0.89011867  1
  O  O237  1  0.73671151  0.13227070  0.14700293  1
  O  O238  1  0.74967040  0.16315526  0.37242612  1
  O  O239  1  0.75099355  0.13773365  0.64710748  1
  O  O240  1  0.74548613  0.13048778  0.84518281  1
  O  O241  1  0.74882685  0.34734661  0.13854775  1
  O  O242  1  0.74583152  0.34184415  0.36701841  1
  O  O243  1  0.75254740  0.38024121  0.62608893  1
  O  O244  1  0.74821706  0.37157729  0.85093910  1
  O  O245  1  0.74962072  0.63149524  0.15950742  1
  O  O246  1  0.74067549  0.63689461  0.34688281  1
  O  O247  1  0.75121719  0.61443266  0.63831342  1
  O  O248  1  0.75287203  0.63907505  0.86328743  1
  O  O249  1  0.74607506  0.85015841  0.13263196  1
  O  O250  1  0.74757290  0.85279528  0.37438962  1
  O  O251  1  0.76020724  0.84217504  0.64466266  1
  O  O252  1  0.74609003  0.84285727  0.86693240  1
  O  O253  1  0.13547107  -0.01149704  0.15339620  1
  O  O254  1  0.11023926  -0.00308411  0.36968057  1
  O  O255  1  0.12652286  0.00312093  0.59894198  1
  O  O256  1  0.12812010  -0.00635648  0.87658926  1
  O  O257  1  0.09678987  0.25736738  0.09914576  1
  O  O258  1  0.08458322  0.25477613  0.37654314  1
  O  O259  1  0.15185533  0.25120411  0.64563850  1
  O  O260  1  0.14743028  0.25737384  0.84902727  1
  O  O261  1  0.14117084  0.50063527  0.12094247  1
  O  O262  1  0.14898448  0.50271126  0.36007903  1
  O  O263  1  0.12743455  0.49171160  0.60198210  1
  O  O264  1  0.09530646  0.49614454  0.89110926  1
  O  O265  1  0.10816400  0.74685031  0.10777407  1
  O  O266  1  0.09419155  0.73894192  0.37397160  1
  O  O267  1  0.10396386  0.75574339  0.63567490  1
  O  O268  1  0.12408027  0.73817271  0.88841653  1
  O  O269  1  0.35673297  -0.00579778  0.09844535  1
  O  O270  1  0.35533252  -0.00004719  0.37334451  1
  O  O271  1  0.37583736  -0.00835118  0.61195900  1
  O  O272  1  0.37542981  -0.01366934  0.89306982  1
  O  O273  1  0.40976501  0.25041597  0.12384171  1
  O  O274  1  0.37415865  0.24851410  0.37918933  1
  O  O275  1  0.39161113  0.25543746  0.64057272  1
  O  O276  1  0.39824255  0.26038396  0.86863661  1
  O  O277  1  0.35953401  0.50069796  0.10512680  1
  O  O278  1  0.34263742  0.50061953  0.37100437  1
  O  O279  1  0.38656089  0.50385965  0.60739386  1
  O  O280  1  0.38621479  0.50221705  0.88748105  1
  O  O281  1  0.39738551  0.74473374  0.13640421  1
  O  O282  1  0.40181270  0.74182248  0.37151656  1
  O  O283  1  0.35321286  0.74670211  0.63407608  1
  O  O284  1  0.35304968  0.74311360  0.86401049  1
  O  O285  1  0.65521364  -0.00419315  0.11240854  1
  O  O286  1  0.63786128  -0.00137064  0.39057485  1
  O  O287  1  0.64748373  -0.00513249  0.64343504  1
  O  O288  1  0.62904184  -0.01318341  0.86816161  1
  O  O289  1  0.59661574  0.24573549  0.12790493  1
  O  O290  1  0.58902024  0.25774294  0.38093390  1
  O  O291  1  0.61527315  0.26607905  0.64319418  1
  O  O292  1  0.61371131  0.25376100  0.86557953  1
  O  O293  1  0.65298526  0.49477225  0.11484174  1
  O  O294  1  0.65618119  0.49453951  0.38262367  1
  O  O295  1  0.61498860  0.50729010  0.61280389  1
  O  O296  1  0.64025988  0.50184660  0.88215345  1
  O  O297  1  0.61282517  0.74825050  0.15412318  1
  O  O298  1  0.59705018  0.74071884  0.36440638  1
  O  O299  1  0.63109067  0.74137421  0.65736133  1
  O  O300  1  0.62389607  0.74202155  0.84977443  1
  O  O301  1  0.84192401  -0.01642998  0.09967713  1
  O  O302  1  0.87554945  -0.00922483  0.40048991  1
  O  O303  1  0.84576906  -0.00483029  0.60020343  1
  O  O304  1  0.89575143  -0.00440957  0.88375877  1
  O  O305  1  0.90471119  0.26491861  0.12667181  1
  O  O306  1  0.89730626  0.25836706  0.34153696  1
  O  O307  1  0.87932043  0.25890378  0.65721338  1
  O  O308  1  0.87216282  0.25115768  0.84040935  1
  O  O309  1  0.85169513  0.50326178  0.10786230  1
  O  O310  1  0.84110637  0.49321013  0.38592713  1
  O  O311  1  0.87937834  0.49343504  0.58603636  1
  O  O312  1  0.85662464  0.50499172  0.88286227  1
  O  O313  1  0.87943179  0.74446734  0.15521604  1
  O  O314  1  0.88784318  0.75254594  0.35379552  1
  O  O315  1  0.90225894  0.74107365  0.63256180  1
  O  O316  1  0.88630262  0.74057650  0.86846265  1
