# generated using pymatgen
data_Mg32Ti42(Bi17O64)3
_symmetry_space_group_name_H-M   'P 1'
_cell_length_a   16.02675439
_cell_length_b   15.98785521
_cell_length_c   15.97177156
_cell_angle_alpha   89.88822629
_cell_angle_beta   90.28537474
_cell_angle_gamma   90.07083449
_symmetry_Int_Tables_number   1
_chemical_formula_structural   Mg32Ti42(Bi17O64)3
_chemical_formula_sum   'Mg32 Ti42 Bi51 O192'
_cell_volume   4092.44016025
_cell_formula_units_Z   1
loop_
 _symmetry_equiv_pos_site_id
 _symmetry_equiv_pos_as_xyz
  1  'x, y, z'
loop_
 _atom_site_type_symbol
 _atom_site_label
 _atom_site_symmetry_multiplicity
 _atom_site_fract_x
 _atom_site_fract_y
 _atom_site_fract_z
 _atom_site_occupancy
  Mg  Mg0  1  0.13410801  0.12247032  0.36743189  1
  Mg  Mg1  1  0.13503757  0.38367428  0.88512199  1
  Mg  Mg2  1  0.11977890  0.62795133  0.13115469  1
  Mg  Mg3  1  0.36516209  0.61909124  0.88134652  1
  Mg  Mg4  1  0.89028242  0.13172125  0.11858607  1
  Mg  Mg5  1  0.11661256  0.38119292  0.38316930  1
  Mg  Mg6  1  0.61345700  0.36692463  0.87668938  1
  Mg  Mg7  1  0.85413595  0.87033315  0.35967121  1
  Mg  Mg8  1  0.87426296  0.88487530  0.88703334  1
  Mg  Mg9  1  0.63493048  0.62693651  0.37230816  1
  Mg  Mg10  1  0.13052342  0.88188527  0.62866465  1
  Mg  Mg11  1  0.86881127  0.62306708  0.63257480  1
  Mg  Mg12  1  0.86850482  0.12193481  0.37163034  1
  Mg  Mg13  1  0.62136294  0.62303465  0.87003003  1
  Mg  Mg14  1  0.62598543  0.38007922  0.12972118  1
  Mg  Mg15  1  0.37921290  0.86641667  0.62296115  1
  Mg  Mg16  1  0.37825455  0.37739989  0.37849377  1
  Mg  Mg17  1  0.13916884  0.12648781  0.63357485  1
  Mg  Mg18  1  0.12548942  0.88695758  0.86652558  1
  Mg  Mg19  1  0.47853641  0.29626210  0.02069993  1
  Mg  Mg20  1  0.79413265  0.20862899  0.24229397  1
  Mg  Mg21  1  0.46305335  0.51233115  0.74948430  1
  Mg  Mg22  1  0.25564969  0.04331050  0.04496785  1
  Mg  Mg23  1  0.79011747  0.49675648  0.30461298  1
  Mg  Mg24  1  0.26606237  0.00044544  0.70939594  1
  Mg  Mg25  1  0.74243051  0.03195014  0.26784840  1
  Mg  Mg26  1  0.01512556  0.17651457  0.49441717  1
  Mg  Mg27  1  0.80039716  0.03483469  0.72747041  1
  Mg  Mg28  1  0.19257100  0.51142232  0.51359284  1
  Mg  Mg29  1  0.23861113  0.52748325  0.04738808  1
  Mg  Mg30  1  0.74729227  0.76431829  0.20590837  1
  Mg  Mg31  1  -0.04932574  -0.05302094  0.72998810  1
  Ti  Ti32  1  0.87960831  0.36401008  0.38693643  1
  Ti  Ti33  1  0.63621556  0.62407059  0.12218526  1
  Ti  Ti34  1  0.63219567  0.13619625  0.37773728  1
  Ti  Ti35  1  0.38229445  0.38028812  0.62694393  1
  Ti  Ti36  1  0.87220578  0.11096502  0.88199445  1
  Ti  Ti37  1  0.37365264  0.62376415  0.37840021  1
  Ti  Ti38  1  0.38161362  0.86858714  0.38489462  1
  Ti  Ti39  1  0.62599263  0.36590186  0.61998843  1
  Ti  Ti40  1  0.12893665  0.88519199  0.12507284  1
  Ti  Ti41  1  0.62312264  0.10819884  0.87957260  1
  Ti  Ti42  1  0.87213682  0.63042674  0.11780007  1
  Ti  Ti43  1  0.61176867  0.12890489  0.13515854  1
  Ti  Ti44  1  0.85593631  0.37633268  0.14046191  1
  Ti  Ti45  1  0.61356013  0.87076851  0.64099550  1
  Ti  Ti46  1  0.86995697  0.87756041  0.12059564  1
  Ti  Ti47  1  0.62348799  0.12571374  0.63537716  1
  Ti  Ti48  1  0.12718177  0.12934031  0.86713484  1
  Ti  Ti49  1  0.37976924  0.13356522  0.62743461  1
  Ti  Ti50  1  0.10839295  0.37750598  0.62242917  1
  Ti  Ti51  1  0.37093589  0.38975551  0.13078333  1
  Ti  Ti52  1  0.87892176  0.37355524  0.62397290  1
  Ti  Ti53  1  0.11571645  0.63700198  0.37679847  1
  Ti  Ti54  1  0.61753541  0.88146827  0.88141978  1
  Ti  Ti55  1  0.61827811  0.61571552  0.63729821  1
  Ti  Ti56  1  0.37386769  0.12983328  0.37874427  1
  Ti  Ti57  1  0.61105477  0.87896277  0.12010320  1
  Ti  Ti58  1  0.11625847  0.87755666  0.37770578  1
  Ti  Ti59  1  0.10875707  0.63185947  0.62001450  1
  Ti  Ti60  1  0.64280294  0.86823490  0.35700169  1
  Ti  Ti61  1  0.12235263  0.13778875  0.12026756  1
  Ti  Ti62  1  0.37594406  0.62774977  0.12074650  1
  Ti  Ti63  1  0.36233312  0.87092358  0.87249593  1
  Ti  Ti64  1  0.63848017  0.37211627  0.37870987  1
  Ti  Ti65  1  0.38092838  0.12985556  0.14282790  1
  Ti  Ti66  1  0.12686757  0.61984298  0.88994057  1
  Ti  Ti67  1  0.86563980  0.63181245  0.86810708  1
  Ti  Ti68  1  0.12712951  0.38892804  0.12322249  1
  Ti  Ti69  1  0.37985612  0.38318849  0.87964787  1
  Ti  Ti70  1  0.86975746  0.63700593  0.37375732  1
  Ti  Ti71  1  0.36790803  0.61524222  0.61984739  1
  Ti  Ti72  1  0.34998680  0.11710126  0.85520136  1
  Ti  Ti73  1  0.37429510  0.87649067  0.12418260  1
  Bi  Bi74  1  0.51999834  0.74278488  0.25084422  1
  Bi  Bi75  1  0.75156280  0.02488182  0.04012927  1
  Bi  Bi76  1  0.23801185  0.76828073  0.73755919  1
  Bi  Bi77  1  -0.02427420  0.49533897  0.79051333  1
  Bi  Bi78  1  0.50134814  0.27744441  0.23027923  1
  Bi  Bi79  1  -0.04288253  0.78197423  0.54087733  1
  Bi  Bi80  1  -0.03566701  -0.00136570  0.26081732  1
  Bi  Bi81  1  0.51125984  0.73404173  0.50768050  1
  Bi  Bi82  1  0.22407018  0.26393789  0.26245082  1
  Bi  Bi83  1  0.02218760  0.01612943  -0.01534756  1
  Bi  Bi84  1  0.25750350  -0.02594285  0.27188877  1
  Bi  Bi85  1  0.74532073  0.74918230  -0.01333258  1
  Bi  Bi86  1  0.47740942  0.25410245  0.77036089  1
  Bi  Bi87  1  0.77383967  0.80009591  0.75192790  1
  Bi  Bi88  1  0.23086386  0.25991505  0.00531398  1
  Bi  Bi89  1  0.72870986  0.46878600  -0.00946364  1
  Bi  Bi90  1  -0.01367820  0.76216721  0.23976461  1
  Bi  Bi91  1  0.21666366  0.51758172  0.75309101  1
  Bi  Bi92  1  0.21992195  0.25770796  0.49431162  1
  Bi  Bi93  1  -0.03272176  0.47890707  -0.00131462  1
  Bi  Bi94  1  0.51169158  0.00086542  0.28250605  1
  Bi  Bi95  1  0.52281506  0.50384384  0.26778705  1
  Bi  Bi96  1  0.73769185  0.25128131  -0.01196603  1
  Bi  Bi97  1  0.50366917  0.51271761  -0.00761969  1
  Bi  Bi98  1  0.24977515  0.74296285  0.02454732  1
  Bi  Bi99  1  -0.01876636  0.51234209  0.23375115  1
  Bi  Bi100  1  0.51400851  0.51318500  0.48913211  1
  Bi  Bi101  1  0.74767550  0.77020143  0.52848268  1
  Bi  Bi102  1  0.75224535  0.46448844  0.76447389  1
  Bi  Bi103  1  -0.03754601  0.00339318  0.53682233  1
  Bi  Bi104  1  0.24313265  0.48518769  0.28187734  1
  Bi  Bi105  1  0.50978015  0.74113049  -0.01665304  1
  Bi  Bi106  1  0.78286154  0.21703871  0.53176980  1
  Bi  Bi107  1  0.73353387  0.24203389  0.76247124  1
  Bi  Bi108  1  0.48139291  0.73485189  0.76115683  1
  Bi  Bi109  1  0.24877109  0.76187339  0.50575567  1
  Bi  Bi110  1  0.25123807  0.72874320  0.25485723  1
  Bi  Bi111  1  -0.02432561  0.52424800  0.49198527  1
  Bi  Bi112  1  -0.03596020  0.26969040  -0.03150464  1
  Bi  Bi113  1  0.49097021  0.01130068  0.51501376  1
  Bi  Bi114  1  0.74351863  -0.00802010  0.53747731  1
  Bi  Bi115  1  0.22601995  0.00843329  0.50795840  1
  Bi  Bi116  1  0.23180367  0.28294466  0.75079947  1
  Bi  Bi117  1  0.01397913  0.75592355  0.77813262  1
  Bi  Bi118  1  0.48979572  0.27210892  0.48674024  1
  Bi  Bi119  1  0.47594270  -0.01204091  0.75422471  1
  Bi  Bi120  1  -0.02617708  0.19059085  0.71921657  1
  Bi  Bi121  1  0.01620576  0.77234682  0.00683288  1
  Bi  Bi122  1  0.46379176  0.00456899  0.00151078  1
  Bi  Bi123  1  -0.00341435  0.23465009  0.28153882  1
  Bi  Bi124  1  0.74486006  0.49997931  0.52578281  1
  O  O125  1  0.16531518  0.12484419  -0.00317535  1
  O  O126  1  0.11665642  0.14577006  0.23793527  1
  O  O127  1  0.14441792  0.12859030  0.49890292  1
  O  O128  1  0.10161980  0.15310108  0.75395667  1
  O  O129  1  0.17085427  0.39505776  0.00885011  1
  O  O130  1  0.12702072  0.36581578  0.24695826  1
  O  O131  1  0.15557299  0.38725235  0.50790140  1
  O  O132  1  0.12620447  0.37333082  0.74114860  1
  O  O133  1  0.14317860  0.60441659  0.00074001  1
  O  O134  1  0.13686575  0.64422340  0.25916207  1
  O  O135  1  0.12350028  0.61923090  0.49709838  1
  O  O136  1  0.13276731  0.63062186  0.73536559  1
  O  O137  1  0.09791318  0.88242055  -0.00672244  1
  O  O138  1  0.12451081  0.87716907  0.24371410  1
  O  O139  1  0.15488156  0.88293092  0.49503297  1
  O  O140  1  0.12317203  0.83978256  0.74790148  1
  O  O141  1  0.35092587  0.08996630  -0.03142876  1
  O  O142  1  0.39883473  0.12622880  0.25372548  1
  O  O143  1  0.37724208  0.11293106  0.50200372  1
  O  O144  1  0.41596868  0.11992503  0.74683850  1
  O  O145  1  0.37218875  0.37311697  -0.00082651  1
  O  O146  1  0.40023736  0.37560333  0.24686296  1
  O  O147  1  0.37466892  0.35476936  0.51133420  1
  O  O148  1  0.42153697  0.38128659  0.75347488  1
  O  O149  1  0.33753215  0.61113563  0.00685196  1
  O  O150  1  0.36719928  0.64278068  0.24603435  1
  O  O151  1  0.39771546  0.62396207  0.49504483  1
  O  O152  1  0.38698427  0.61683610  0.74341446  1
  O  O153  1  0.36367141  0.89553912  -0.01515567  1
  O  O154  1  0.38201995  0.87621285  0.23722986  1
  O  O155  1  0.34887782  0.87297077  0.49639463  1
  O  O156  1  0.41505549  0.85673706  0.74877115  1
  O  O157  1  0.65953815  0.12843336  0.00164374  1
  O  O158  1  0.59401564  0.12128373  0.24873832  1
  O  O159  1  0.65681834  0.11456931  0.48842367  1
  O  O160  1  0.61675283  0.12962228  0.75095743  1
  O  O161  1  0.64492384  0.35975829  0.00466990  1
  O  O162  1  0.59966384  0.37899014  0.25722296  1
  O  O163  1  0.65183634  0.36870605  0.49954868  1
  O  O164  1  0.64069879  0.36727374  0.74467269  1
  O  O165  1  0.63023306  0.66317434  0.00662621  1
  O  O166  1  0.60624490  0.61077963  0.24094722  1
  O  O167  1  0.60566125  0.62721911  0.49822344  1
  O  O168  1  0.58806904  0.59012851  0.74679754  1
  O  O169  1  0.62663879  0.84724393  0.00228889  1
  O  O170  1  0.57964142  0.87266116  0.24217660  1
  O  O171  1  0.66040567  0.87001513  0.47312465  1
  O  O172  1  0.61932148  0.87874571  0.75414078  1
  O  O173  1  0.83933393  0.13350231  0.00307953  1
  O  O174  1  0.90452628  0.13177439  0.24254400  1
  O  O175  1  0.88406762  0.13259250  0.49397752  1
  O  O176  1  0.91725645  0.07655944  0.76660602  1
  O  O177  1  0.87303250  0.37653866  0.01484436  1
  O  O178  1  0.88223816  0.41095972  0.25473787  1
  O  O179  1  0.85556211  0.34071866  0.50065440  1
  O  O180  1  0.87380795  0.40043464  0.73968080  1
  O  O181  1  0.87468825  0.64950321  0.00543837  1
  O  O182  1  0.87108916  0.58749187  0.25983706  1
  O  O183  1  0.89389087  0.63869694  0.49342333  1
  O  O184  1  0.87286651  0.59572256  0.75600995  1
  O  O185  1  0.88031784  0.84752546  0.00814098  1
  O  O186  1  0.90483759  0.87587255  0.24391894  1
  O  O187  1  0.85378507  0.85994586  0.48640160  1
  O  O188  1  0.83440409  0.91803953  0.76798173  1
  O  O189  1  0.01271593  0.12832124  0.09223187  1
  O  O190  1  0.00509220  0.13641735  0.37781113  1
  O  O191  1  0.01123780  0.12167801  0.60720559  1
  O  O192  1  0.00582545  0.14080098  0.90384395  1
  O  O193  1  0.01265389  0.39272678  0.11192296  1
  O  O194  1  -0.00688954  0.36497904  0.38746550  1
  O  O195  1  -0.00362569  0.35955898  0.61325136  1
  O  O196  1  0.00811944  0.37882185  0.90044157  1
  O  O197  1  -0.00684391  0.63439364  0.14669452  1
  O  O198  1  0.00367122  0.60272964  0.36446129  1
  O  O199  1  -0.00072468  0.65182586  0.62553010  1
  O  O200  1  -0.00117635  0.61572782  0.87056333  1
  O  O201  1  0.00398271  0.85635218  0.12348580  1
  O  O202  1  0.00925245  0.91037240  0.38291089  1
  O  O203  1  0.00223405  0.89202033  0.62311869  1
  O  O204  1  -0.00854569  0.87909026  0.83237994  1
  O  O205  1  0.26480439  0.13864008  0.13107992  1
  O  O206  1  0.26359015  0.14704711  0.36513097  1
  O  O207  1  0.27002697  0.11700194  0.64463260  1
  O  O208  1  0.24302206  0.11351584  0.82596915  1
  O  O209  1  0.26295307  0.35283540  0.14594567  1
  O  O210  1  0.25634780  0.36574093  0.35333758  1
  O  O211  1  0.27164100  0.38264736  0.65324761  1
  O  O212  1  0.26639412  0.38679406  0.84405736  1
  O  O213  1  0.24797777  0.65147094  0.12967508  1
  O  O214  1  0.25508727  0.65807330  0.37918969  1
  O  O215  1  0.26149789  0.57962322  0.59998066  1
  O  O216  1  0.24161051  0.61680952  0.85601025  1
  O  O217  1  0.24886321  0.86017715  0.11540189  1
  O  O218  1  0.25816354  0.86106671  0.34972734  1
  O  O219  1  0.26148833  0.88067721  0.66390733  1
  O  O220  1  0.25146507  0.85129305  0.85981123  1
  O  O221  1  0.49943827  0.10185994  0.10402571  1
  O  O222  1  0.51080365  0.09227758  0.39346263  1
  O  O223  1  0.51200442  0.12723474  0.59792988  1
  O  O224  1  0.51267845  0.10445686  0.88930779  1
  O  O225  1  0.49749485  0.37744584  0.11624844  1
  O  O226  1  0.50409620  0.38343677  0.40732693  1
  O  O227  1  0.51491215  0.35390512  0.60998440  1
  O  O228  1  0.49616314  0.33098279  0.89927389  1
  O  O229  1  0.49132220  0.62138005  0.10400651  1
  O  O230  1  0.49269506  0.60360584  0.36435408  1
  O  O231  1  0.49903830  0.65216754  0.61925571  1
  O  O232  1  0.49499707  0.62329624  0.91251896  1
  O  O233  1  0.49374425  0.88486763  0.09809407  1
  O  O234  1  0.49499969  0.90336245  0.38942241  1
  O  O235  1  0.50642388  0.85646478  0.59534598  1
  O  O236  1  0.50268994  0.90622121  0.88627994  1
  O  O237  1  0.74222702  0.10790927  0.15814692  1
  O  O238  1  0.74240409  0.13841624  0.33462916  1
  O  O239  1  0.74300682  0.10123020  0.63370357  1
  O  O240  1  0.76699457  0.10787214  0.82975169  1
  O  O241  1  0.74877522  0.39824723  0.13903229  1
  O  O242  1  0.74823801  0.39021380  0.35697461  1
  O  O243  1  0.75260072  0.40368220  0.62869084  1
  O  O244  1  0.74269812  0.38379265  0.87399893  1
  O  O245  1  0.75000332  0.64016269  0.13712473  1
  O  O246  1  0.75741312  0.60990833  0.37453487  1
  O  O247  1  0.73838769  0.60507497  0.62127900  1
  O  O248  1  0.74921921  0.64526849  0.88103474  1
  O  O249  1  0.75243339  0.86606786  0.12902892  1
  O  O250  1  0.74064546  0.83540270  0.31313202  1
  O  O251  1  0.73375101  0.87486097  0.61959108  1
  O  O252  1  0.73874426  0.84152211  0.88324755  1
  O  O253  1  0.14774359  0.00185876  0.11376791  1
  O  O254  1  0.16115955  -0.00203292  0.36945072  1
  O  O255  1  0.15814786  0.00321631  0.62827165  1
  O  O256  1  0.11128624  0.01334861  0.87547590  1
  O  O257  1  0.13110044  0.25519640  0.10177964  1
  O  O258  1  0.13323206  0.25424249  0.38309347  1
  O  O259  1  0.14522061  0.25895833  0.61308030  1
  O  O260  1  0.15403479  0.25537239  0.88764801  1
  O  O261  1  0.15045859  0.50213137  0.13917927  1
  O  O262  1  0.15342301  0.50912106  0.38123085  1
  O  O263  1  0.11162062  0.50155004  0.61956356  1
  O  O264  1  0.11939759  0.50352343  0.85147088  1
  O  O265  1  0.12478463  0.75404674  0.09516626  1
  O  O266  1  0.10590722  0.75729692  0.38319945  1
  O  O267  1  0.15593773  0.74461399  0.61038778  1
  O  O268  1  0.10353690  0.74109311  0.88790742  1
  O  O269  1  0.36065532  0.00164559  0.11452206  1
  O  O270  1  0.35850311  -0.00004446  0.36297394  1
  O  O271  1  0.39589659  -0.00123467  0.63440203  1
  O  O272  1  0.35485414  -0.01038981  0.81915509  1
  O  O273  1  0.40688658  0.24107543  0.11375457  1
  O  O274  1  0.40562854  0.24322365  0.37826961  1
  O  O275  1  0.38777438  0.24884071  0.64859559  1
  O  O276  1  0.36384399  0.23818048  0.84980405  1
  O  O277  1  0.34766801  0.50316281  0.12937271  1
  O  O278  1  0.35167625  0.50811522  0.36907832  1
  O  O279  1  0.41593811  0.49641560  0.62812418  1
  O  O280  1  0.41015113  0.49351563  0.87112388  1
  O  O281  1  0.37625196  0.75387161  0.10166189  1
  O  O282  1  0.40118579  0.75436525  0.37782896  1
  O  O283  1  0.34335576  0.73548732  0.61305713  1
  O  O284  1  0.39695666  0.75174446  0.87644009  1
  O  O285  1  0.63074308  -0.00840018  0.11831550  1
  O  O286  1  0.64536856  -0.01032014  0.33846223  1
  O  O287  1  0.61498098  -0.00703595  0.60967516  1
  O  O288  1  0.64927803  -0.00538521  0.89358162  1
  O  O289  1  0.60504534  0.24272458  0.12709683  1
  O  O290  1  0.60994531  0.24966586  0.37959392  1
  O  O291  1  0.65239458  0.24341155  0.62722199  1
  O  O292  1  0.65335864  0.23434416  0.87652599  1
  O  O293  1  0.62553466  0.51145217  0.09240709  1
  O  O294  1  0.61385338  0.49568259  0.37773831  1
  O  O295  1  0.61348066  0.49683868  0.60051808  1
  O  O296  1  0.61593850  0.49878838  0.90900375  1
  O  O297  1  0.62539804  0.75131715  0.15501119  1
  O  O298  1  0.59851910  0.75035015  0.36141812  1
  O  O299  1  0.63466180  0.74679624  0.62451582  1
  O  O300  1  0.58439436  0.75457557  0.86498830  1
  O  O301  1  0.88154782  -0.00520364  0.12576336  1
  O  O302  1  0.85006322  -0.00002394  0.33573563  1
  O  O303  1  0.86552155  -0.00548622  0.62151727  1
  O  O304  1  0.89369699  0.00359991  0.92348310  1
  O  O305  1  0.85536227  0.26019709  0.14574420  1
  O  O306  1  0.86703437  0.25496206  0.34188053  1
  O  O307  1  0.85076050  0.25578774  0.64562410  1
  O  O308  1  0.86790522  0.23694286  0.87600061  1
  O  O309  1  0.88722337  0.50942398  0.11605829  1
  O  O310  1  0.87397563  0.48974570  0.40714965  1
  O  O311  1  0.88094609  0.49607469  0.59002652  1
  O  O312  1  0.87635435  0.50749817  0.89102511  1
  O  O313  1  0.86974636  0.74673730  0.16172649  1
  O  O314  1  0.89146290  0.74462522  0.34972534  1
  O  O315  1  0.85800042  0.75158098  0.62862238  1
  O  O316  1  0.88025158  0.74958087  0.84414665  1
