# generated using pymatgen
data_Mg32Ti42(Bi17O64)3
_symmetry_space_group_name_H-M   'P 1'
_cell_length_a   15.95141593
_cell_length_b   15.97203498
_cell_length_c   15.94582003
_cell_angle_alpha   90.03536633
_cell_angle_beta   89.84563182
_cell_angle_gamma   89.91411445
_symmetry_Int_Tables_number   1
_chemical_formula_structural   Mg32Ti42(Bi17O64)3
_chemical_formula_sum   'Mg32 Ti42 Bi51 O192'
_cell_volume   4062.60129257
_cell_formula_units_Z   1
loop_
 _symmetry_equiv_pos_site_id
 _symmetry_equiv_pos_as_xyz
  1  'x, y, z'
loop_
 _atom_site_type_symbol
 _atom_site_label
 _atom_site_symmetry_multiplicity
 _atom_site_fract_x
 _atom_site_fract_y
 _atom_site_fract_z
 _atom_site_occupancy
  Mg  Mg0  1  0.86914092  0.62596860  0.62129197  1
  Mg  Mg1  1  0.63316429  0.37540347  0.13782333  1
  Mg  Mg2  1  0.87311943  0.36634221  0.61740260  1
  Mg  Mg3  1  0.37749756  0.61169851  0.36869714  1
  Mg  Mg4  1  0.11739395  0.87822481  0.63955196  1
  Mg  Mg5  1  0.11778813  0.87287768  0.37142134  1
  Mg  Mg6  1  0.12678189  0.87803372  0.11292035  1
  Mg  Mg7  1  0.86720462  0.37335341  0.88191406  1
  Mg  Mg8  1  0.62581362  0.88090767  0.62740107  1
  Mg  Mg9  1  0.37372864  0.87683783  0.37842314  1
  Mg  Mg10  1  0.37436678  0.36333579  0.12243965  1
  Mg  Mg11  1  0.89339931  0.12570278  0.11729135  1
  Mg  Mg12  1  0.63693240  0.12995142  0.13688928  1
  Mg  Mg13  1  0.36986513  0.13455412  0.63247255  1
  Mg  Mg14  1  0.10728317  0.62657827  0.35820420  1
  Mg  Mg15  1  0.86772101  0.11837164  0.38109213  1
  Mg  Mg16  1  0.62709319  0.87634033  0.13575885  1
  Mg  Mg17  1  0.86939414  0.11999489  0.86922886  1
  Mg  Mg18  1  0.12513143  0.62427499  0.60881204  1
  Mg  Mg19  1  0.83217893  0.25117388  0.22439900  1
  Mg  Mg20  1  0.71252012  0.03593913  0.75211442  1
  Mg  Mg21  1  -0.01208089  0.23822285  0.32658367  1
  Mg  Mg22  1  0.01761339  0.41267845  0.27020515  1
  Mg  Mg23  1  0.55432006  0.52724418  0.80556316  1
  Mg  Mg24  1  0.22262154  0.28752336  0.42506623  1
  Mg  Mg25  1  -0.07436545  -0.00967855  0.73371276  1
  Mg  Mg26  1  0.52817355  0.71370372  -0.06232764  1
  Mg  Mg27  1  0.69315480  0.56296437  -0.01736799  1
  Mg  Mg28  1  0.77051678  0.00820174  0.54407628  1
  Mg  Mg29  1  0.28606183  -0.02169006  0.02120687  1
  Mg  Mg30  1  0.28598505  0.23125057  0.02136556  1
  Mg  Mg31  1  0.47751823  0.46049060  0.24335980  1
  Ti  Ti32  1  0.62822452  0.61962004  0.37618928  1
  Ti  Ti33  1  0.87069712  0.13066991  0.62774291  1
  Ti  Ti34  1  0.62565783  0.12561180  0.88643017  1
  Ti  Ti35  1  0.86130101  0.37117342  0.37199472  1
  Ti  Ti36  1  0.39207775  0.37967417  0.87807540  1
  Ti  Ti37  1  0.38618503  0.60870589  0.87569867  1
  Ti  Ti38  1  0.62774558  0.11993970  0.37833833  1
  Ti  Ti39  1  0.63392009  0.37344830  0.36864134  1
  Ti  Ti40  1  0.37835246  0.37725505  0.36330599  1
  Ti  Ti41  1  0.61632327  0.11975900  0.61599111  1
  Ti  Ti42  1  0.61631890  0.87437040  0.38552375  1
  Ti  Ti43  1  0.11399599  0.61583081  0.11854596  1
  Ti  Ti44  1  0.61370213  0.63733035  0.12692953  1
  Ti  Ti45  1  0.88096124  0.62632255  0.10210376  1
  Ti  Ti46  1  0.14549015  0.88257662  0.88075681  1
  Ti  Ti47  1  0.38033607  0.11764266  0.88463875  1
  Ti  Ti48  1  0.12325574  0.11828830  0.39268709  1
  Ti  Ti49  1  0.62658318  0.61876565  0.62762946  1
  Ti  Ti50  1  0.14350693  0.63386536  0.88268603  1
  Ti  Ti51  1  0.13724507  0.12153426  0.63819818  1
  Ti  Ti52  1  0.88119726  0.62003322  0.87000167  1
  Ti  Ti53  1  0.60973258  0.38230274  0.64557348  1
  Ti  Ti54  1  0.87315670  0.87083793  0.38534192  1
  Ti  Ti55  1  0.88588273  0.38630516  0.12270173  1
  Ti  Ti56  1  0.37457269  0.87121398  0.13286797  1
  Ti  Ti57  1  0.86356435  0.61730561  0.37305049  1
  Ti  Ti58  1  0.37490691  0.37395708  0.63621074  1
  Ti  Ti59  1  0.37993758  0.62534260  0.13197635  1
  Ti  Ti60  1  0.38872963  0.86891667  0.88017720  1
  Ti  Ti61  1  0.86372966  0.86397231  0.62302292  1
  Ti  Ti62  1  0.13141609  0.11435026  0.10467381  1
  Ti  Ti63  1  0.12005814  0.36530478  0.11917945  1
  Ti  Ti64  1  0.36357487  0.12791310  0.37526860  1
  Ti  Ti65  1  0.37098729  0.12163038  0.13563243  1
  Ti  Ti66  1  0.37293503  0.60859937  0.63000174  1
  Ti  Ti67  1  0.63296286  0.88683054  0.86910710  1
  Ti  Ti68  1  0.13720802  0.37340566  0.61962154  1
  Ti  Ti69  1  0.13184249  0.11481902  0.86389760  1
  Ti  Ti70  1  0.86803478  0.86895759  0.86052719  1
  Ti  Ti71  1  0.62680464  0.37538265  0.89295418  1
  Ti  Ti72  1  0.38455360  0.87490007  0.62010957  1
  Ti  Ti73  1  0.88312947  0.88319474  0.12010004  1
  Bi  Bi74  1  -0.01380296  0.03236898  0.24989287  1
  Bi  Bi75  1  0.26187822  0.74235440  0.01835971  1
  Bi  Bi76  1  0.03288441  0.27342807  0.76910680  1
  Bi  Bi77  1  0.21997189  0.48008982  0.76885668  1
  Bi  Bi78  1  0.73179404  0.70519171  0.78791475  1
  Bi  Bi79  1  0.22907321  -0.00268890  0.24386327  1
  Bi  Bi80  1  0.24329514  0.46472762  0.00215480  1
  Bi  Bi81  1  0.76058232  0.24097918  0.49403751  1
  Bi  Bi82  1  0.24216043  0.74523153  0.71044425  1
  Bi  Bi83  1  0.27398505  0.24910066  0.78456974  1
  Bi  Bi84  1  0.20841725  0.23476675  0.24007354  1
  Bi  Bi85  1  0.49705384  0.49171912  0.02846568  1
  Bi  Bi86  1  0.48136166  0.72407167  0.49594151  1
  Bi  Bi87  1  0.50722634  -0.01226237  0.74467172  1
  Bi  Bi88  1  0.77604649  0.26512334  0.02872887  1
  Bi  Bi89  1  -0.01199487  0.00657302  -0.03139007  1
  Bi  Bi90  1  0.01911913  0.47649251  -0.04779106  1
  Bi  Bi91  1  0.00068921  -0.01585415  0.53485173  1
  Bi  Bi92  1  0.46417232  0.24428564  0.50225553  1
  Bi  Bi93  1  0.73612176  0.75563072  0.25804960  1
  Bi  Bi94  1  0.02973405  0.24978897  0.52420066  1
  Bi  Bi95  1  0.75320852  0.52390200  0.21188556  1
  Bi  Bi96  1  0.02448195  0.73709286  0.74115485  1
  Bi  Bi97  1  0.00551815  0.76995903  -0.02662566  1
  Bi  Bi98  1  0.75990461  -0.01378852  0.27405799  1
  Bi  Bi99  1  0.47747437  0.01587327  0.48441590  1
  Bi  Bi100  1  0.27660684  -0.01511339  0.74401372  1
  Bi  Bi101  1  0.73192427  0.78357844  0.01136522  1
  Bi  Bi102  1  0.71875842  0.75183716  0.51941048  1
  Bi  Bi103  1  0.51992178  0.25687963  0.02910735  1
  Bi  Bi104  1  0.47390671  0.74851664  0.26301430  1
  Bi  Bi105  1  0.22413349  0.75144780  0.23867288  1
  Bi  Bi106  1  -0.01037685  0.72034918  0.48437351  1
  Bi  Bi107  1  0.00116964  0.50140349  0.70927093  1
  Bi  Bi108  1  0.51873437  0.00651105  0.23310077  1
  Bi  Bi109  1  0.76297178  0.26013490  0.77447466  1
  Bi  Bi110  1  0.52473307  0.24843518  0.26359758  1
  Bi  Bi111  1  0.00552566  0.48666827  0.45825900  1
  Bi  Bi112  1  0.78415642  0.48206199  0.74555860  1
  Bi  Bi113  1  0.51927455  -0.01974449  0.01648009  1
  Bi  Bi114  1  0.24476656  0.73158200  0.46412397  1
  Bi  Bi115  1  0.48164463  0.73459937  0.74148531  1
  Bi  Bi116  1  0.51821722  0.23059919  0.75272844  1
  Bi  Bi117  1  -0.02809268  0.76637262  0.24358908  1
  Bi  Bi118  1  0.20550921  0.49389749  0.26181858  1
  Bi  Bi119  1  0.02940151  0.24483575  -0.02441096  1
  Bi  Bi120  1  0.74913413  0.03193954  0.01932908  1
  Bi  Bi121  1  0.49292413  0.47929324  0.48796769  1
  Bi  Bi122  1  0.24619503  0.48697027  0.48983613  1
  Bi  Bi123  1  0.22285455  -0.03157164  0.50323921  1
  Bi  Bi124  1  0.73360264  0.48220385  0.51608524  1
  O  O125  1  0.13926390  0.13771058  -0.00957239  1
  O  O126  1  0.13809131  0.11134618  0.24079674  1
  O  O127  1  0.13259313  0.13339181  0.50754543  1
  O  O128  1  0.10008957  0.13346017  0.75033778  1
  O  O129  1  0.11904415  0.39099856  -0.00164577  1
  O  O130  1  0.13827889  0.37275826  0.23948077  1
  O  O131  1  0.15634153  0.35782177  0.50442472  1
  O  O132  1  0.11721661  0.38196777  0.74445658  1
  O  O133  1  0.11623194  0.60195140  -0.00296743  1
  O  O134  1  0.15010479  0.62843597  0.23695041  1
  O  O135  1  0.09214484  0.62683114  0.48659769  1
  O  O136  1  0.14278426  0.65275146  0.75966397  1
  O  O137  1  0.08986869  0.88084082  -0.00866466  1
  O  O138  1  0.15561371  0.87864243  0.24197405  1
  O  O139  1  0.10763428  0.89120354  0.50459518  1
  O  O140  1  0.14592044  0.85484883  0.76538237  1
  O  O141  1  0.34452815  0.09770501  -0.00555739  1
  O  O142  1  0.37203445  0.14206169  0.25121988  1
  O  O143  1  0.37888308  0.11895062  0.50138459  1
  O  O144  1  0.38236856  0.16548627  0.76213223  1
  O  O145  1  0.37666833  0.41229864  -0.00523641  1
  O  O146  1  0.38957141  0.36239080  0.24980923  1
  O  O147  1  0.36318040  0.41548582  0.50687988  1
  O  O148  1  0.38277093  0.35006648  0.75630943  1
  O  O149  1  0.41017665  0.61267016  -0.01002183  1
  O  O150  1  0.36503831  0.65217379  0.24565401  1
  O  O151  1  0.40459658  0.60744256  0.50695776  1
  O  O152  1  0.36570060  0.65207382  0.74966059  1
  O  O153  1  0.39646888  0.90825440  -0.00398297  1
  O  O154  1  0.35717465  0.85662622  0.24709878  1
  O  O155  1  0.39979470  0.89875887  0.50805626  1
  O  O156  1  0.35064743  0.86318252  0.76105544  1
  O  O157  1  0.64087605  0.13602326  0.00206219  1
  O  O158  1  0.59797446  0.12038579  0.25918985  1
  O  O159  1  0.63264276  0.14417682  0.50023566  1
  O  O160  1  0.60336896  0.11330531  0.75258166  1
  O  O161  1  0.64288914  0.34881685  0.00335866  1
  O  O162  1  0.58148520  0.38832938  0.25769016  1
  O  O163  1  0.64630313  0.37282674  0.48771800  1
  O  O164  1  0.58976569  0.41277010  0.75315071  1
  O  O165  1  0.60734616  0.65072273  0.01053783  1
  O  O166  1  0.65467488  0.62760389  0.25284101  1
  O  O167  1  0.60791834  0.65052854  0.49577848  1
  O  O168  1  0.64193493  0.59724771  0.74156304  1
  O  O169  1  0.60923869  0.86906050  0.00102972  1
  O  O170  1  0.65089840  0.88369600  0.26125668  1
  O  O171  1  0.61251674  0.85397514  0.49982880  1
  O  O172  1  0.64805432  0.92443263  0.75552464  1
  O  O173  1  0.87062574  0.08932236  -0.00435768  1
  O  O174  1  0.91341263  0.15220637  0.25013209  1
  O  O175  1  0.82946178  0.11577937  0.50189110  1
  O  O176  1  0.87590557  0.11452891  0.74216636  1
  O  O177  1  0.85712479  0.38362561  0.00846829  1
  O  O178  1  0.90262289  0.35308154  0.25290139  1
  O  O179  1  0.84054881  0.37378597  0.49117922  1
  O  O180  1  0.86432647  0.36345016  0.74785547  1
  O  O181  1  0.90324071  0.61551776  -0.00704992  1
  O  O182  1  0.84095045  0.62720170  0.25499073  1
  O  O183  1  0.90590019  0.61288367  0.49511857  1
  O  O184  1  0.85280699  0.63218103  0.75261318  1
  O  O185  1  0.90191476  0.88323695  0.00069313  1
  O  O186  1  0.85678720  0.85271429  0.24656379  1
  O  O187  1  0.90103928  0.88578790  0.49801099  1
  O  O188  1  0.85140398  0.88032604  0.74482809  1
  O  O189  1  0.01776918  0.09500022  0.11072678  1
  O  O190  1  0.00376083  0.12737329  0.38856547  1
  O  O191  1  -0.01522045  0.14472697  0.60409110  1
  O  O192  1  0.00002952  0.13691221  0.89362370  1
  O  O193  1  0.00687871  0.39274042  0.13195964  1
  O  O194  1  -0.01273052  0.35908496  0.38846313  1
  O  O195  1  0.00295202  0.36139583  0.60629896  1
  O  O196  1  -0.00867769  0.35275772  0.88661248  1
  O  O197  1  0.00291632  0.62470264  0.13556397  1
  O  O198  1  -0.01728186  0.66021773  0.35783543  1
  O  O199  1  0.00047716  0.62787143  0.65412146  1
  O  O200  1  0.00050089  0.65778344  0.85895120  1
  O  O201  1  -0.00002138  0.86456857  0.14595071  1
  O  O202  1  -0.00755008  0.85337444  0.35082676  1
  O  O203  1  -0.01243608  0.89401148  0.64598951  1
  O  O204  1  -0.01173219  0.84062471  0.85823225  1
  O  O205  1  0.25194744  0.15705471  0.12180182  1
  O  O206  1  0.24864220  0.13414217  0.37477876  1
  O  O207  1  0.24729750  0.11181000  0.65298525  1
  O  O208  1  0.24698274  0.12020950  0.84788419  1
  O  O209  1  0.24990528  0.35176061  0.08785658  1
  O  O210  1  0.25911200  0.40347936  0.37647719  1
  O  O211  1  0.25030305  0.39209034  0.64937999  1
  O  O212  1  0.26339549  0.40421921  0.87088911  1
  O  O213  1  0.27009783  0.62008692  0.09738963  1
  O  O214  1  0.25153349  0.59641458  0.39657475  1
  O  O215  1  0.25608422  0.62611206  0.61296230  1
  O  O216  1  0.25969083  0.60856703  0.88559165  1
  O  O217  1  0.25860679  0.86553053  0.08691877  1
  O  O218  1  0.25153500  0.87051195  0.41430755  1
  O  O219  1  0.25597678  0.89322370  0.62075638  1
  O  O220  1  0.25461311  0.90144151  0.90666443  1
  O  O221  1  0.48689911  0.09650923  0.12647154  1
  O  O222  1  0.49287938  0.15077177  0.38847515  1
  O  O223  1  0.49911392  0.15703114  0.62659999  1
  O  O224  1  0.49467997  0.14277734  0.89144701  1
  O  O225  1  0.50205118  0.37375500  0.10252971  1
  O  O226  1  0.49492873  0.35768950  0.40344784  1
  O  O227  1  0.49440062  0.37553572  0.60402403  1
  O  O228  1  0.50327982  0.34895374  0.89498374  1
  O  O229  1  0.50519254  0.65271861  0.15182552  1
  O  O230  1  0.50764897  0.65645026  0.36270332  1
  O  O231  1  0.50061738  0.64363258  0.63843319  1
  O  O232  1  0.50149195  0.63569721  0.84365865  1
  O  O233  1  0.49429597  0.88998670  0.14090267  1
  O  O234  1  0.50315226  0.85914857  0.36136675  1
  O  O235  1  0.49791943  0.87198542  0.65847266  1
  O  O236  1  0.50139545  0.88169167  0.84959751  1
  O  O237  1  0.76218742  0.12873358  0.12415905  1
  O  O238  1  0.73891179  0.10364874  0.35499507  1
  O  O239  1  0.73121857  0.09141747  0.64054552  1
  O  O240  1  0.73756200  0.09287682  0.86178112  1
  O  O241  1  0.76405798  0.34780045  0.15071777  1
  O  O242  1  0.74639277  0.39413386  0.34342862  1
  O  O243  1  0.73416335  0.40511634  0.63556344  1
  O  O244  1  0.73831132  0.37993303  0.84926974  1
  O  O245  1  0.75643251  0.60609868  0.09695621  1
  O  O246  1  0.74923996  0.61199166  0.40139473  1
  O  O247  1  0.74205144  0.61380445  0.59701310  1
  O  O248  1  0.75901571  0.61310436  0.88956690  1
  O  O249  1  0.75995350  0.88582148  0.09938319  1
  O  O250  1  0.75524363  0.91264898  0.39281273  1
  O  O251  1  0.75252311  0.89253833  0.59187900  1
  O  O252  1  0.74874631  0.88989751  0.90159417  1
  O  O253  1  0.17125221  0.00342510  0.11064176  1
  O  O254  1  0.13651925  0.00194714  0.37403183  1
  O  O255  1  0.11277923  0.00791633  0.62651889  1
  O  O256  1  0.11117041  -0.00206254  0.86944573  1
  O  O257  1  0.11321287  0.24841798  0.13292376  1
  O  O258  1  0.12228625  0.23925832  0.35775278  1
  O  O259  1  0.12196284  0.25010276  0.63173943  1
  O  O260  1  0.12320683  0.24569506  0.86899845  1
  O  O261  1  0.14651165  0.49787916  0.13246200  1
  O  O262  1  0.08281320  0.50225038  0.33837184  1
  O  O263  1  0.11037388  0.49506389  0.61597539  1
  O  O264  1  0.10787989  0.51662208  0.85362689  1
  O  O265  1  0.14805095  0.73900134  0.11029561  1
  O  O266  1  0.15177762  0.74693132  0.36166052  1
  O  O267  1  0.12794446  0.75206044  0.62572910  1
  O  O268  1  0.14026762  0.75106076  0.90726602  1
  O  O269  1  0.34683244  -0.00072101  0.13926879  1
  O  O270  1  0.38730550  0.01024302  0.37070912  1
  O  O271  1  0.38477482  0.00245768  0.65753078  1
  O  O272  1  0.38414289  0.00864365  0.84367365  1
  O  O273  1  0.39260252  0.23779696  0.09380592  1
  O  O274  1  0.35133864  0.26212567  0.40381034  1
  O  O275  1  0.36031594  0.26481870  0.60431771  1
  O  O276  1  0.34146227  0.25812778  0.90605114  1
  O  O277  1  0.41212531  0.50983043  0.14371319  1
  O  O278  1  0.41660119  0.49307680  0.35259389  1
  O  O279  1  0.37853338  0.50140496  0.65382526  1
  O  O280  1  0.41607033  0.49808683  0.85122007  1
  O  O281  1  0.37655422  0.75385260  0.10578047  1
  O  O282  1  0.36653724  0.74297555  0.39876648  1
  O  O283  1  0.37652097  0.75836122  0.61263134  1
  O  O284  1  0.39974869  0.75638044  0.89878668  1
  O  O285  1  0.62078890  0.00241853  0.13225650  1
  O  O286  1  0.59706151  0.00396925  0.38753823  1
  O  O287  1  0.58742167  0.00983704  0.60848684  1
  O  O288  1  0.60014360  0.00471821  0.89622819  1
  O  O289  1  0.60068356  0.24808247  0.14410373  1
  O  O290  1  0.63330574  0.25427569  0.35458245  1
  O  O291  1  0.62602917  0.26641569  0.65442342  1
  O  O292  1  0.63659277  0.24545943  0.85481217  1
  O  O293  1  0.62168327  0.51258090  0.11697972  1
  O  O294  1  0.61043257  0.50698511  0.38583499  1
  O  O295  1  0.60901714  0.50474393  0.59240480  1
  O  O296  1  0.61533413  0.49058480  0.91013544  1
  O  O297  1  0.65541196  0.75268457  0.13664982  1
  O  O298  1  0.65181307  0.75697645  0.37019609  1
  O  O299  1  0.64259828  0.74689089  0.63779042  1
  O  O300  1  0.62381439  0.76798264  0.86695288  1
  O  O301  1  0.88488205  -0.00485806  0.15462081  1
  O  O302  1  0.88579981  -0.00318260  0.34314489  1
  O  O303  1  0.87793351  0.00611876  0.61665028  1
  O  O304  1  0.90547176  -0.01193553  0.85757081  1
  O  O305  1  0.89232009  0.25204329  0.10486276  1
  O  O306  1  0.85195050  0.24963747  0.37402375  1
  O  O307  1  0.83541226  0.24436039  0.61231917  1
  O  O308  1  0.84029102  0.24438856  0.88517931  1
  O  O309  1  0.87414895  0.50079757  0.14053844  1
  O  O310  1  0.89299485  0.49862100  0.37172595  1
  O  O311  1  0.88178870  0.49566355  0.63912359  1
  O  O312  1  0.89799118  0.50369764  0.85497103  1
  O  O313  1  0.87062070  0.74299270  0.11280102  1
  O  O314  1  0.84899032  0.75612694  0.39042166  1
  O  O315  1  0.86375800  0.75350993  0.60656123  1
  O  O316  1  0.84514906  0.75308163  0.87929184  1
