# generated using pymatgen
data_Mg32Ti42(Bi17O64)3
_symmetry_space_group_name_H-M   'P 1'
_cell_length_a   15.92815034
_cell_length_b   15.95986556
_cell_length_c   15.93366065
_cell_angle_alpha   89.96967436
_cell_angle_beta   89.95535396
_cell_angle_gamma   90.16807310
_symmetry_Int_Tables_number   1
_chemical_formula_structural   Mg32Ti42(Bi17O64)3
_chemical_formula_sum   'Mg32 Ti42 Bi51 O192'
_cell_volume   4050.49477709
_cell_formula_units_Z   1
loop_
 _symmetry_equiv_pos_site_id
 _symmetry_equiv_pos_as_xyz
  1  'x, y, z'
loop_
 _atom_site_type_symbol
 _atom_site_label
 _atom_site_symmetry_multiplicity
 _atom_site_fract_x
 _atom_site_fract_y
 _atom_site_fract_z
 _atom_site_occupancy
  Mg  Mg0  1  0.88154892  0.12727388  0.38192297  1
  Mg  Mg1  1  0.88717730  0.61750515  0.38890252  1
  Mg  Mg2  1  0.11814285  0.13509327  0.61352323  1
  Mg  Mg3  1  0.37100808  0.62380071  0.37893847  1
  Mg  Mg4  1  0.61831153  0.86775445  0.62606930  1
  Mg  Mg5  1  0.13433653  0.62381607  0.61291990  1
  Mg  Mg6  1  0.63001540  0.64404381  0.13269520  1
  Mg  Mg7  1  0.37592789  0.62294224  0.12048954  1
  Mg  Mg8  1  0.62970554  0.12842946  0.63635293  1
  Mg  Mg9  1  0.87736647  0.37141795  0.13510000  1
  Mg  Mg10  1  0.37944254  0.37577075  0.62263287  1
  Mg  Mg11  1  0.12441392  0.37621882  0.62592862  1
  Mg  Mg12  1  0.12504109  0.86866268  0.13947425  1
  Mg  Mg13  1  0.38157598  0.87591500  0.38474900  1
  Mg  Mg14  1  0.37283732  0.37422805  0.37290772  1
  Mg  Mg15  1  0.87646444  0.87142598  0.37541827  1
  Mg  Mg16  1  0.87230154  0.63703354  0.12462985  1
  Mg  Mg17  1  0.37951300  0.11683666  0.62635753  1
  Mg  Mg18  1  0.12458497  0.38501128  0.87268966  1
  Mg  Mg19  1  0.70446356  -0.02334671  0.73380622  1
  Mg  Mg20  1  0.23959553  0.77301159  0.52379613  1
  Mg  Mg21  1  0.47994330  0.68009750  0.73412536  1
  Mg  Mg22  1  0.54752771  0.00572671  0.01863742  1
  Mg  Mg23  1  0.00010942  0.30335679  0.51840775  1
  Mg  Mg24  1  0.50031885  0.02162665  0.21991394  1
  Mg  Mg25  1  0.28085562  0.23999821  0.56878288  1
  Mg  Mg26  1  0.78429815  0.72611446  0.28111778  1
  Mg  Mg27  1  -0.01663077  0.52770574  0.53803062  1
  Mg  Mg28  1  0.24650064  0.45244236  0.54942474  1
  Mg  Mg29  1  0.26090307  0.32739681  0.75775352  1
  Mg  Mg30  1  0.23219799  0.77476014  0.76114251  1
  Mg  Mg31  1  0.73543564  0.76242382  -0.00107792  1
  Ti  Ti32  1  0.37464483  0.87404878  0.86474110  1
  Ti  Ti33  1  0.88159882  0.38203672  0.38570348  1
  Ti  Ti34  1  0.88137101  0.13076594  0.12189304  1
  Ti  Ti35  1  0.37576462  0.13036262  0.38846430  1
  Ti  Ti36  1  0.13027498  0.87964723  0.87152300  1
  Ti  Ti37  1  0.12194368  0.87480847  0.62601687  1
  Ti  Ti38  1  0.86714977  0.63387645  0.62619397  1
  Ti  Ti39  1  0.38503105  0.88241986  0.12762987  1
  Ti  Ti40  1  0.62891237  0.37432195  0.63405900  1
  Ti  Ti41  1  0.36005151  0.62901585  0.61153033  1
  Ti  Ti42  1  0.87761860  0.87606656  0.86960745  1
  Ti  Ti43  1  0.12866423  0.38125139  0.38562096  1
  Ti  Ti44  1  0.87142691  0.64376526  0.88009599  1
  Ti  Ti45  1  0.62957665  0.63148307  0.37493693  1
  Ti  Ti46  1  0.62856735  0.38335593  0.37136038  1
  Ti  Ti47  1  0.12399988  0.61347121  0.39477213  1
  Ti  Ti48  1  0.63618008  0.11800948  0.12803396  1
  Ti  Ti49  1  0.37473073  0.12074769  0.12272137  1
  Ti  Ti50  1  0.86983418  0.86945035  0.14270115  1
  Ti  Ti51  1  0.13260987  0.62186402  0.12119113  1
  Ti  Ti52  1  0.61488961  0.62575178  0.61666231  1
  Ti  Ti53  1  0.36753274  0.10735159  0.87851146  1
  Ti  Ti54  1  0.87067415  0.13970680  0.63196260  1
  Ti  Ti55  1  0.85860704  0.87507772  0.64048391  1
  Ti  Ti56  1  0.13333332  0.13575252  0.37882395  1
  Ti  Ti57  1  0.36475892  0.64460353  0.87152030  1
  Ti  Ti58  1  0.63313639  0.87334847  0.13148418  1
  Ti  Ti59  1  0.37883994  0.38431851  0.12314801  1
  Ti  Ti60  1  0.12765390  0.38150052  0.11419871  1
  Ti  Ti61  1  0.11940771  0.12279605  0.88442152  1
  Ti  Ti62  1  0.12764886  0.87530838  0.37914652  1
  Ti  Ti63  1  0.12530908  0.62916450  0.88539103  1
  Ti  Ti64  1  0.62242114  0.38319297  0.12965348  1
  Ti  Ti65  1  0.61972241  0.12766267  0.36545674  1
  Ti  Ti66  1  0.12654758  0.13149721  0.12395464  1
  Ti  Ti67  1  0.36580552  0.87556105  0.63183455  1
  Ti  Ti68  1  0.61741668  0.36135978  0.87778354  1
  Ti  Ti69  1  0.87867401  0.38902468  0.61611119  1
  Ti  Ti70  1  0.62167801  0.87504087  0.36405400  1
  Ti  Ti71  1  0.86832324  0.11715388  0.88008067  1
  Ti  Ti72  1  0.63390404  0.12131904  0.88102061  1
  Ti  Ti73  1  0.62349137  0.89353413  0.87806591  1
  Bi  Bi74  1  0.74471959  0.54464186  -0.00378898  1
  Bi  Bi75  1  0.52612542  0.54878956  -0.04012877  1
  Bi  Bi76  1  -0.02988292  0.51153422  0.77111948  1
  Bi  Bi77  1  0.52714218  0.01066254  0.51483248  1
  Bi  Bi78  1  0.75388775  0.29304186  0.00016391  1
  Bi  Bi79  1  0.73787657  0.00211684  0.50535667  1
  Bi  Bi80  1  0.48878317  0.26783314  0.51844842  1
  Bi  Bi81  1  0.49817687  0.76894498  -0.00862602  1
  Bi  Bi82  1  0.73679355  0.51581661  0.50682444  1
  Bi  Bi83  1  0.48299612  0.74622137  0.25093991  1
  Bi  Bi84  1  0.73548800  0.25580649  0.51794976  1
  Bi  Bi85  1  0.26635602  0.75221458  0.03137284  1
  Bi  Bi86  1  0.46331956  0.47985475  0.77590501  1
  Bi  Bi87  1  0.74313572  0.52174770  0.23752864  1
  Bi  Bi88  1  0.02601936  0.73030705  0.73177753  1
  Bi  Bi89  1  0.46766599  0.49862767  0.50238245  1
  Bi  Bi90  1  -0.02742938  0.47521515  -0.00346378  1
  Bi  Bi91  1  0.45182940  0.25658543  0.77982448  1
  Bi  Bi92  1  0.48917198  0.27167749  0.25899374  1
  Bi  Bi93  1  0.24244690  0.04319083  0.73626021  1
  Bi  Bi94  1  0.26220627  0.25483588  -0.03274239  1
  Bi  Bi95  1  0.02797807  0.76541825  0.00220481  1
  Bi  Bi96  1  -0.01926200  0.76937444  0.50871747  1
  Bi  Bi97  1  0.74040759  0.76560590  0.47981771  1
  Bi  Bi98  1  0.24456068  0.74948926  0.28724648  1
  Bi  Bi99  1  0.01660218  0.01960334  0.26633043  1
  Bi  Bi100  1  0.24710218  -0.00673148  0.02626463  1
  Bi  Bi101  1  0.72278989  0.51843971  0.76907107  1
  Bi  Bi102  1  0.75602156  0.25430188  0.27106560  1
  Bi  Bi103  1  -0.03303526  0.01314280  0.51475742  1
  Bi  Bi104  1  0.79086768  0.28802067  0.76972417  1
  Bi  Bi105  1  0.47826034  0.52151694  0.25295022  1
  Bi  Bi106  1  -0.00892934  0.26878582  0.26639576  1
  Bi  Bi107  1  0.27816350  0.00041536  0.27553616  1
  Bi  Bi108  1  0.23715927  0.00339923  0.50612262  1
  Bi  Bi109  1  0.76908233  -0.02072574  0.00235144  1
  Bi  Bi110  1  0.71686075  0.73640579  0.78376475  1
  Bi  Bi111  1  0.22583796  0.52644747  0.75478870  1
  Bi  Bi112  1  0.03128580  0.25240550  0.74084933  1
  Bi  Bi113  1  0.27983716  0.47383593  -0.02813445  1
  Bi  Bi114  1  0.48117504  0.76863831  0.51543983  1
  Bi  Bi115  1  0.23893850  0.51580645  0.26542307  1
  Bi  Bi116  1  0.50785446  0.00646774  0.75632127  1
  Bi  Bi117  1  0.00995825  -0.00493838  0.02750156  1
  Bi  Bi118  1  0.23330269  0.27669262  0.25145803  1
  Bi  Bi119  1  -0.00270932  0.02359342  0.75552754  1
  Bi  Bi120  1  0.50031330  0.23978551  0.02782234  1
  Bi  Bi121  1  0.77759594  0.01013494  0.27116426  1
  Bi  Bi122  1  -0.00792280  0.74207185  0.25791593  1
  Bi  Bi123  1  -0.02042321  0.26850624  -0.02736182  1
  Bi  Bi124  1  -0.01678246  0.51980068  0.23157800  1
  O  O125  1  0.12815430  0.09652801  0.00053663  1
  O  O126  1  0.10666552  0.12761490  0.24277194  1
  O  O127  1  0.14425699  0.11364917  0.49187380  1
  O  O128  1  0.10449816  0.12685952  0.75121138  1
  O  O129  1  0.16160196  0.38918176  0.00069147  1
  O  O130  1  0.11475556  0.35160879  0.23937525  1
  O  O131  1  0.15064958  0.39151135  0.49413101  1
  O  O132  1  0.12994650  0.34582742  0.75078826  1
  O  O133  1  0.09597367  0.61122855  -0.00572904  1
  O  O134  1  0.15255055  0.62826847  0.23694142  1
  O  O135  1  0.08948044  0.59076326  0.49820104  1
  O  O136  1  0.15550176  0.66545519  0.74789064  1
  O  O137  1  0.11823871  0.88069616  -0.00616955  1
  O  O138  1  0.11655499  0.83833714  0.26428392  1
  O  O139  1  0.16394265  0.87689066  0.50315360  1
  O  O140  1  0.11581579  0.85196164  0.74617972  1
  O  O141  1  0.34666354  0.14663752  -0.00598738  1
  O  O142  1  0.39471061  0.09163019  0.23471965  1
  O  O143  1  0.34718278  0.15130832  0.49641449  1
  O  O144  1  0.37259521  0.10062755  0.75534797  1
  O  O145  1  0.35353114  0.35470431  0.00418556  1
  O  O146  1  0.40463235  0.38132468  0.24384013  1
  O  O147  1  0.38246240  0.36582956  0.49681357  1
  O  O148  1  0.37919093  0.38069329  0.74439577  1
  O  O149  1  0.38342350  0.66506124  -0.01064503  1
  O  O150  1  0.36094347  0.59488530  0.24600451  1
  O  O151  1  0.40933329  0.63350087  0.50049207  1
  O  O152  1  0.37114248  0.60414079  0.74067995  1
  O  O153  1  0.37151617  0.84109862  -0.01227803  1
  O  O154  1  0.40996793  0.91455152  0.23507348  1
  O  O155  1  0.35400116  0.83591674  0.50887545  1
  O  O156  1  0.38918668  0.89392551  0.74694937  1
  O  O157  1  0.63447850  0.10229726  0.00516143  1
  O  O158  1  0.58905739  0.11831302  0.24859813  1
  O  O159  1  0.64121429  0.10702003  0.48777129  1
  O  O160  1  0.62679890  0.08844845  0.75997070  1
  O  O161  1  0.63107570  0.37087446  -0.00312812  1
  O  O162  1  0.62073304  0.35554984  0.24529088  1
  O  O163  1  0.65442704  0.38153036  0.48782175  1
  O  O164  1  0.63105484  0.36343320  0.74739112  1
  O  O165  1  0.63215250  0.62232880  0.00281647  1
  O  O166  1  0.67703165  0.64562897  0.26047330  1
  O  O167  1  0.61470532  0.59329765  0.49642432  1
  O  O168  1  0.63938488  0.62534137  0.73887330  1
  O  O169  1  0.63268693  0.90648819  -0.00027259  1
  O  O170  1  0.60874406  0.85340615  0.24630376  1
  O  O171  1  0.65851857  0.88092921  0.49425732  1
  O  O172  1  0.60113277  0.89973297  0.75304596  1
  O  O173  1  0.86124407  0.14356651  0.00176163  1
  O  O174  1  0.89319598  0.09196017  0.24249046  1
  O  O175  1  0.87936744  0.12723708  0.50966943  1
  O  O176  1  0.87925387  0.10176530  0.75235262  1
  O  O177  1  0.87571886  0.36054191  0.00698839  1
  O  O178  1  0.91398782  0.38589592  0.25935274  1
  O  O179  1  0.87261472  0.33658428  0.49952187  1
  O  O180  1  0.87234835  0.39390026  0.73538998  1
  O  O181  1  0.84092010  0.66064558  -0.00526600  1
  O  O182  1  0.86183610  0.59572678  0.26062624  1
  O  O183  1  0.91201424  0.63596562  0.51453294  1
  O  O184  1  0.85403347  0.59861999  0.74512979  1
  O  O185  1  0.82497388  0.85324827  -0.01449008  1
  O  O186  1  0.89381515  0.90127649  0.24815398  1
  O  O187  1  0.86099001  0.84958391  0.50884982  1
  O  O188  1  0.89327136  0.89646942  0.75111256  1
  O  O189  1  -0.00020077  0.12566251  0.10417041  1
  O  O190  1  0.01135041  0.10975611  0.37747230  1
  O  O191  1  -0.00402661  0.09034571  0.62584474  1
  O  O192  1  -0.00527820  0.10781892  0.87860955  1
  O  O193  1  0.01508049  0.35850629  0.09155504  1
  O  O194  1  0.00838883  0.34406294  0.39577199  1
  O  O195  1  -0.00469052  0.40800377  0.59337971  1
  O  O196  1  0.00360057  0.37867915  0.89662169  1
  O  O197  1  -0.00067722  0.63958866  0.15077761  1
  O  O198  1  0.01689239  0.63567536  0.34465474  1
  O  O199  1  -0.00035357  0.60173271  0.65928411  1
  O  O200  1  -0.00903859  0.63979407  0.85077150  1
  O  O201  1  -0.01562405  0.85902502  0.10161857  1
  O  O202  1  0.01237494  0.87341213  0.40201224  1
  O  O203  1  0.00689482  0.88978985  0.60209387  1
  O  O204  1  -0.01229286  0.85752889  0.89066598  1
  O  O205  1  0.24686880  0.09400549  0.12750277  1
  O  O206  1  0.25300708  0.12035568  0.34672858  1
  O  O207  1  0.24507596  0.14292530  0.64119947  1
  O  O208  1  0.23801278  0.10811797  0.86742120  1
  O  O209  1  0.25885556  0.37516577  0.15018368  1
  O  O210  1  0.24783657  0.38035018  0.34541075  1
  O  O211  1  0.25413053  0.34683163  0.62611267  1
  O  O212  1  0.24607597  0.41230037  0.85457201  1
  O  O213  1  0.24644112  0.61851598  0.09219554  1
  O  O214  1  0.24568005  0.59728391  0.37655138  1
  O  O215  1  0.25638238  0.66055648  0.58390270  1
  O  O216  1  0.24530950  0.61145446  0.89017725  1
  O  O217  1  0.25320380  0.88487545  0.11786330  1
  O  O218  1  0.25754229  0.87384737  0.34943936  1
  O  O219  1  0.25276401  0.83331559  0.64711075  1
  O  O220  1  0.24407798  0.87459598  0.85690072  1
  O  O221  1  0.48992606  0.11011560  0.08820525  1
  O  O222  1  0.49913145  0.12173413  0.39988537  1
  O  O223  1  0.50299543  0.09184350  0.61902229  1
  O  O224  1  0.47732564  0.15054679  0.87967254  1
  O  O225  1  0.50262185  0.35755958  0.11068364  1
  O  O226  1  0.51508953  0.35425651  0.37890827  1
  O  O227  1  0.51251448  0.38324010  0.60652393  1
  O  O228  1  0.49975339  0.36203876  0.86363106  1
  O  O229  1  0.50244154  0.64365941  0.15498497  1
  O  O230  1  0.51294224  0.63397659  0.33447544  1
  O  O231  1  0.50791990  0.59502228  0.64122881  1
  O  O232  1  0.49058841  0.64767411  0.85976074  1
  O  O233  1  0.50048890  0.86226265  0.09788916  1
  O  O234  1  0.50915927  0.87323215  0.39393477  1
  O  O235  1  0.49155264  0.88956576  0.59642817  1
  O  O236  1  0.49285654  0.85295480  0.88144447  1
  O  O237  1  0.74935162  0.11448822  0.14752023  1
  O  O238  1  0.74749626  0.12610117  0.34115396  1
  O  O239  1  0.75596855  0.15389060  0.62743044  1
  O  O240  1  0.74823927  0.11274238  0.87448829  1
  O  O241  1  0.74540528  0.36570725  0.12250730  1
  O  O242  1  0.76322588  0.37584054  0.35192633  1
  O  O243  1  0.75497311  0.34857414  0.62075357  1
  O  O244  1  0.74485028  0.36716893  0.87489484  1
  O  O245  1  0.75214733  0.59777214  0.12216808  1
  O  O246  1  0.75363242  0.62809613  0.40562002  1
  O  O247  1  0.75336821  0.63314091  0.59981174  1
  O  O248  1  0.74735282  0.62168676  0.86454641  1
  O  O249  1  0.74889503  0.90276966  0.13456187  1
  O  O250  1  0.74847971  0.83061342  0.35616586  1
  O  O251  1  0.74815978  0.86685960  0.66142528  1
  O  O252  1  0.73185560  0.92435759  0.84878523  1
  O  O253  1  0.09973949  -0.00745558  0.13409232  1
  O  O254  1  0.13946025  -0.00941121  0.35972608  1
  O  O255  1  0.15190251  -0.00956017  0.62295645  1
  O  O256  1  0.11272998  -0.00880374  0.85566812  1
  O  O257  1  0.14908818  0.24115805  0.11156669  1
  O  O258  1  0.14051734  0.24875381  0.37180079  1
  O  O259  1  0.07664633  0.25502500  0.60864221  1
  O  O260  1  0.11489740  0.23860615  0.89198307  1
  O  O261  1  0.11224539  0.49730026  0.13342683  1
  O  O262  1  0.11611506  0.49423812  0.35148866  1
  O  O263  1  0.16428127  0.50124848  0.63458403  1
  O  O264  1  0.10781156  0.51757843  0.83502243  1
  O  O265  1  0.12889904  0.74472810  0.10312450  1
  O  O266  1  0.16230527  0.73774261  0.40371891  1
  O  O267  1  0.09616605  0.75036534  0.60497126  1
  O  O268  1  0.12517250  0.74903341  0.89224832  1
  O  O269  1  0.37596846  -0.00604110  0.08423622  1
  O  O270  1  0.36225170  0.00491729  0.38738853  1
  O  O271  1  0.33846618  -0.01110343  0.61149379  1
  O  O272  1  0.37291242  -0.00807488  0.89247203  1
  O  O273  1  0.39081299  0.23786578  0.13473709  1
  O  O274  1  0.38023106  0.24210233  0.34503220  1
  O  O275  1  0.40077154  0.24471531  0.62564907  1
  O  O276  1  0.32787633  0.24664288  0.84186673  1
  O  O277  1  0.39227237  0.49464163  0.10269524  1
  O  O278  1  0.40622561  0.49964164  0.37828348  1
  O  O279  1  0.35438088  0.50476463  0.59171195  1
  O  O280  1  0.39087368  0.51688782  0.88738580  1
  O  O281  1  0.35730669  0.75853011  0.14170456  1
  O  O282  1  0.37574329  0.74780487  0.34662561  1
  O  O283  1  0.41319822  0.73870121  0.64035701  1
  O  O284  1  0.34367369  0.75050525  0.83087482  1
  O  O285  1  0.59604141  -0.00345168  0.13877625  1
  O  O286  1  0.64493263  -0.00982902  0.36221006  1
  O  O287  1  0.64774985  -0.00157221  0.61427060  1
  O  O288  1  0.56962410  0.00738958  0.88872269  1
  O  O289  1  0.61410312  0.23318877  0.11315759  1
  O  O290  1  0.64348678  0.24243426  0.37134597  1
  O  O291  1  0.61590987  0.25252890  0.59884145  1
  O  O292  1  0.62642396  0.23843889  0.88247795  1
  O  O293  1  0.61959433  0.49501427  0.14168592  1
  O  O294  1  0.62753541  0.49844162  0.35299215  1
  O  O295  1  0.65920832  0.49284330  0.62929065  1
  O  O296  1  0.61209702  0.48946610  0.86763531  1
  O  O297  1  0.65204279  0.76459551  0.09550828  1
  O  O298  1  0.61815402  0.74263533  0.40286464  1
  O  O299  1  0.60352483  0.74064601  0.61196405  1
  O  O300  1  0.65506520  0.77518514  0.89702716  1
  O  O301  1  0.88267750  -0.00457823  0.09578896  1
  O  O302  1  0.85552790  -0.00319006  0.38755048  1
  O  O303  1  0.85822979  -0.01037343  0.60535662  1
  O  O304  1  0.87797040  -0.00616039  0.90174503  1
  O  O305  1  0.87942247  0.24216453  0.15615950  1
  O  O306  1  0.87339513  0.24758685  0.34712022  1
  O  O307  1  0.89991165  0.25000296  0.64736375  1
  O  O308  1  0.88409349  0.23727327  0.86056035  1
  O  O309  1  0.89822830  0.49911191  0.11862526  1
  O  O310  1  0.89938430  0.48974589  0.41472761  1
  O  O311  1  0.86077056  0.50142455  0.59771959  1
  O  O312  1  0.88244508  0.52160889  0.89712884  1
  O  O313  1  0.85160985  0.75565441  0.17080075  1
  O  O314  1  0.89002638  0.74430535  0.35608473  1
  O  O315  1  0.89665794  0.74957402  0.64012910  1
  O  O316  1  0.84730777  0.75598324  0.84315749  1
