# generated using pymatgen
data_Mg32Ti42(Bi17O64)3
_symmetry_space_group_name_H-M   'P 1'
_cell_length_a   15.99441030
_cell_length_b   16.00364249
_cell_length_c   15.92965518
_cell_angle_alpha   89.87015699
_cell_angle_beta   90.24246128
_cell_angle_gamma   90.14065603
_symmetry_Int_Tables_number   1
_chemical_formula_structural   Mg32Ti42(Bi17O64)3
_chemical_formula_sum   'Mg32 Ti42 Bi51 O192'
_cell_volume   4077.43594041
_cell_formula_units_Z   1
loop_
 _symmetry_equiv_pos_site_id
 _symmetry_equiv_pos_as_xyz
  1  'x, y, z'
loop_
 _atom_site_type_symbol
 _atom_site_label
 _atom_site_symmetry_multiplicity
 _atom_site_fract_x
 _atom_site_fract_y
 _atom_site_fract_z
 _atom_site_occupancy
  Mg  Mg0  1  0.62236300  0.11350606  0.62604688  1
  Mg  Mg1  1  0.61706522  0.11994478  0.11863708  1
  Mg  Mg2  1  0.37842431  0.12121033  0.63022078  1
  Mg  Mg3  1  0.87615286  0.86219301  0.13166196  1
  Mg  Mg4  1  0.11219794  0.36770635  0.38208898  1
  Mg  Mg5  1  0.63496867  0.61713345  0.37609522  1
  Mg  Mg6  1  0.88246232  0.61965805  0.62554726  1
  Mg  Mg7  1  0.37386049  0.87707949  0.86852650  1
  Mg  Mg8  1  0.37390978  0.11865174  0.37309597  1
  Mg  Mg9  1  0.37346553  0.62776245  0.14311683  1
  Mg  Mg10  1  0.36771783  0.37305608  0.37213840  1
  Mg  Mg11  1  0.61793585  0.63270667  0.62834330  1
  Mg  Mg12  1  0.87361382  0.38705882  0.61125370  1
  Mg  Mg13  1  0.63091529  0.86504392  0.13038648  1
  Mg  Mg14  1  0.63957996  0.36774629  0.38318140  1
  Mg  Mg15  1  0.63089813  0.86939470  0.37414670  1
  Mg  Mg16  1  0.88303672  0.87480036  0.86504486  1
  Mg  Mg17  1  0.87907099  0.11797639  0.62556567  1
  Mg  Mg18  1  0.62802861  0.37642708  0.87269474  1
  Mg  Mg19  1  0.74760517  -0.04609161  0.77309425  1
  Mg  Mg20  1  0.51435621  0.32080270  0.03619295  1
  Mg  Mg21  1  -0.00039607  0.44766562  0.73143844  1
  Mg  Mg22  1  0.55115365  0.00484273  0.45876557  1
  Mg  Mg23  1  0.79586532  0.77408862  -0.02975475  1
  Mg  Mg24  1  0.76118249  0.74389257  0.26305591  1
  Mg  Mg25  1  -0.06662997  0.19631706  0.02119759  1
  Mg  Mg26  1  0.02455502  0.48724006  0.52652732  1
  Mg  Mg27  1  0.73994209  0.53834038  0.54083742  1
  Mg  Mg28  1  0.24903800  0.71217463  0.04413379  1
  Mg  Mg29  1  0.24359606  0.70829000  0.27673017  1
  Mg  Mg30  1  0.56547141  0.51236723  -0.00877110  1
  Mg  Mg31  1  0.50060077  0.78990679  0.79265142  1
  Ti  Ti32  1  0.89089858  0.63568480  0.87548371  1
  Ti  Ti33  1  0.12278416  0.86543300  0.88084571  1
  Ti  Ti34  1  0.63788131  0.13168908  0.36293738  1
  Ti  Ti35  1  0.37062176  0.86486818  0.12475554  1
  Ti  Ti36  1  0.12867445  0.12934166  0.87523078  1
  Ti  Ti37  1  0.12238590  0.12378931  0.10341722  1
  Ti  Ti38  1  0.88042568  0.37415421  0.11561702  1
  Ti  Ti39  1  0.86690502  0.86756766  0.36791811  1
  Ti  Ti40  1  0.63565967  0.39103601  0.61776340  1
  Ti  Ti41  1  0.63415792  0.87204500  0.88847590  1
  Ti  Ti42  1  0.38790431  0.38088330  0.88028059  1
  Ti  Ti43  1  0.86600347  0.10832129  0.85828968  1
  Ti  Ti44  1  0.63488170  0.62374489  0.13063445  1
  Ti  Ti45  1  0.12925115  0.36697921  0.11143618  1
  Ti  Ti46  1  0.88364108  0.38468850  0.39374002  1
  Ti  Ti47  1  0.37993280  0.37320427  0.62860425  1
  Ti  Ti48  1  0.37360806  0.63520040  0.87053157  1
  Ti  Ti49  1  0.87616750  0.87917967  0.62415199  1
  Ti  Ti50  1  0.38347519  0.12257770  0.12434991  1
  Ti  Ti51  1  0.12561711  0.36772428  0.63070748  1
  Ti  Ti52  1  0.13733043  0.62384642  0.87459326  1
  Ti  Ti53  1  0.38517264  0.88331335  0.62917665  1
  Ti  Ti54  1  0.62998922  0.13326746  0.88784833  1
  Ti  Ti55  1  0.12811710  0.36390687  0.87370098  1
  Ti  Ti56  1  0.39378846  0.12301612  0.87455971  1
  Ti  Ti57  1  0.86575358  0.61836374  0.37421464  1
  Ti  Ti58  1  0.14087879  0.86433187  0.35990247  1
  Ti  Ti59  1  0.11455858  0.61847928  0.38630775  1
  Ti  Ti60  1  0.12693801  0.62014882  0.13102533  1
  Ti  Ti61  1  0.38366335  0.62227657  0.62689828  1
  Ti  Ti62  1  0.11695331  0.61217659  0.63330497  1
  Ti  Ti63  1  0.88446295  0.09872611  0.37855704  1
  Ti  Ti64  1  0.86735740  0.62169334  0.12623110  1
  Ti  Ti65  1  0.38342285  0.87347314  0.37743466  1
  Ti  Ti66  1  0.36697375  0.38568570  0.12482578  1
  Ti  Ti67  1  0.36902248  0.61717788  0.37873057  1
  Ti  Ti68  1  0.87858435  0.35593556  0.87732748  1
  Ti  Ti69  1  0.64211499  0.64469645  0.87959846  1
  Ti  Ti70  1  0.13368121  0.12888900  0.62584590  1
  Ti  Ti71  1  0.12350336  0.12876107  0.38733739  1
  Ti  Ti72  1  0.60321072  0.86876957  0.62179835  1
  Ti  Ti73  1  0.13243145  0.86662870  0.12155336  1
  Bi  Bi74  1  0.27563954  -0.00730054  0.24184455  1
  Bi  Bi75  1  0.51364112  0.47550994  0.46678777  1
  Bi  Bi76  1  0.78458203  0.00358468  0.03528009  1
  Bi  Bi77  1  0.03359637  -0.02976070  0.51059698  1
  Bi  Bi78  1  0.78530546  0.21646213  0.22343573  1
  Bi  Bi79  1  0.00293573  0.22649160  0.75981181  1
  Bi  Bi80  1  0.01548432  0.49294661  -0.02962468  1
  Bi  Bi81  1  0.77667861  0.49863112  -0.01466922  1
  Bi  Bi82  1  0.75538276  0.73256789  0.71863273  1
  Bi  Bi83  1  0.22011137  -0.01939499  0.74245599  1
  Bi  Bi84  1  0.26799516  0.51890162  0.00707665  1
  Bi  Bi85  1  0.70372221  0.29378649  0.02121728  1
  Bi  Bi86  1  0.53206362  0.73745750  0.25017488  1
  Bi  Bi87  1  0.74328803  -0.01516583  0.53379043  1
  Bi  Bi88  1  0.27054403  0.24310238  0.25238879  1
  Bi  Bi89  1  0.27957739  0.24512450  0.76634936  1
  Bi  Bi90  1  0.25817252  -0.01918605  -0.02173212  1
  Bi  Bi91  1  0.49852807  -0.03531500  0.00858444  1
  Bi  Bi92  1  0.25908758  0.74553643  0.50799974  1
  Bi  Bi93  1  0.02909374  0.00350685  0.25383884  1
  Bi  Bi94  1  0.25003503  0.47127467  0.50145177  1
  Bi  Bi95  1  0.26486845  -0.00620252  0.50015981  1
  Bi  Bi96  1  -0.00077493  -0.01488486  0.75473994  1
  Bi  Bi97  1  0.51131683  0.20941127  0.48782573  1
  Bi  Bi98  1  0.54004966  0.26401758  0.23115618  1
  Bi  Bi99  1  -0.00715806  0.25376528  0.53004827  1
  Bi  Bi100  1  0.49401328  0.71388607  0.00058688  1
  Bi  Bi101  1  0.52790165  -0.00871963  0.76292728  1
  Bi  Bi102  1  0.78151833  0.48692183  0.74327364  1
  Bi  Bi103  1  0.50446915  0.72456544  0.48083832  1
  Bi  Bi104  1  0.53697590  0.48066700  0.24181335  1
  Bi  Bi105  1  0.52693404  0.25000687  0.72501005  1
  Bi  Bi106  1  0.74433220  0.22074628  0.73466528  1
  Bi  Bi107  1  0.77267940  0.22279733  0.49492858  1
  Bi  Bi108  1  0.22883031  0.76561861  0.71966730  1
  Bi  Bi109  1  0.54243015  0.50895598  0.76249666  1
  Bi  Bi110  1  -0.01225401  -0.02214374  0.01832718  1
  Bi  Bi111  1  0.73846088  -0.00585835  0.23543805  1
  Bi  Bi112  1  -0.00203534  0.73204969  0.25553114  1
  Bi  Bi113  1  0.27790272  0.23308673  0.49846430  1
  Bi  Bi114  1  -0.00766171  0.74033548  0.01612333  1
  Bi  Bi115  1  0.00139291  0.74181760  0.73616815  1
  Bi  Bi116  1  0.75187532  0.73241330  0.49018927  1
  Bi  Bi117  1  0.51629142  -0.01374627  0.25629618  1
  Bi  Bi118  1  0.76053732  0.45653836  0.25263773  1
  Bi  Bi119  1  0.00899207  0.47559251  0.24261925  1
  Bi  Bi120  1  0.00146052  0.75532202  0.49029737  1
  Bi  Bi121  1  0.01523308  0.23439026  0.23080043  1
  Bi  Bi122  1  0.23609155  0.47737521  0.27216860  1
  Bi  Bi123  1  0.28188945  0.23983269  0.00223288  1
  Bi  Bi124  1  0.27468114  0.50167650  0.74062071  1
  O  O125  1  0.09888655  0.11762495  -0.01005602  1
  O  O126  1  0.10569952  0.12818548  0.25336042  1
  O  O127  1  0.11242088  0.10333169  0.50492787  1
  O  O128  1  0.13317414  0.15472278  0.74631107  1
  O  O129  1  0.09808521  0.38126130  -0.00579116  1
  O  O130  1  0.13575991  0.38515934  0.23745050  1
  O  O131  1  0.11784087  0.40453871  0.50862860  1
  O  O132  1  0.11508153  0.37480169  0.75152204  1
  O  O133  1  0.14577099  0.63135068  -0.00212201  1
  O  O134  1  0.13020033  0.65156005  0.24759668  1
  O  O135  1  0.09493114  0.59547079  0.49920462  1
  O  O136  1  0.11054934  0.64198487  0.74948785  1
  O  O137  1  0.13878883  0.89596826  -0.00161462  1
  O  O138  1  0.09895904  0.86700472  0.24077755  1
  O  O139  1  0.15281822  0.90044440  0.47971303  1
  O  O140  1  0.12821932  0.87370346  0.75532705  1
  O  O141  1  0.38178683  0.14163377  0.00188816  1
  O  O142  1  0.34259218  0.12025647  0.24629897  1
  O  O143  1  0.38131583  0.14492422  0.50086152  1
  O  O144  1  0.36551283  0.13170350  0.75805351  1
  O  O145  1  0.39401343  0.35233393  0.00271414  1
  O  O146  1  0.33255039  0.37807229  0.24173243  1
  O  O147  1  0.35455399  0.37225273  0.50716726  1
  O  O148  1  0.35708727  0.38022890  0.75490257  1
  O  O149  1  0.34045902  0.64231066  -0.00907334  1
  O  O150  1  0.35310588  0.64447256  0.26688838  1
  O  O151  1  0.35643701  0.63698942  0.50541142  1
  O  O152  1  0.38061622  0.60452657  0.75166504  1
  O  O153  1  0.36674176  0.89147097  0.00199393  1
  O  O154  1  0.38216181  0.89021184  0.24976416  1
  O  O155  1  0.33931765  0.87093147  0.49600466  1
  O  O156  1  0.41418997  0.87642906  0.74231794  1
  O  O157  1  0.62992455  0.09474332  -0.00556319  1
  O  O158  1  0.62806773  0.15379201  0.24918305  1
  O  O159  1  0.61689498  0.10916709  0.49743535  1
  O  O160  1  0.62332096  0.14396190  0.75408240  1
  O  O161  1  0.60762214  0.38905994  -0.00406678  1
  O  O162  1  0.62986741  0.37524870  0.25097875  1
  O  O163  1  0.60715335  0.37796669  0.50645619  1
  O  O164  1  0.62638355  0.39663881  0.74953673  1
  O  O165  1  0.61645513  0.64063756  0.00710473  1
  O  O166  1  0.60656771  0.60982349  0.25057032  1
  O  O167  1  0.65548365  0.62398062  0.50392120  1
  O  O168  1  0.61704790  0.63766439  0.76260189  1
  O  O169  1  0.63005638  0.89015747  0.00064805  1
  O  O170  1  0.58372277  0.86908243  0.25534082  1
  O  O171  1  0.63596509  0.90429656  0.49981031  1
  O  O172  1  0.59182340  0.86046454  0.74220194  1
  O  O173  1  0.88799781  0.09071153  -0.02505218  1
  O  O174  1  0.89814058  0.15653929  0.26894838  1
  O  O175  1  0.86074615  0.11359268  0.49511364  1
  O  O176  1  0.87327599  0.16005606  0.74708919  1
  O  O177  1  0.89278545  0.41285259  -0.00402540  1
  O  O178  1  0.85388317  0.35884757  0.23559809  1
  O  O179  1  0.91668244  0.42637032  0.49505973  1
  O  O180  1  0.85552889  0.36139334  0.76139454  1
  O  O181  1  0.88279053  0.60121969  0.00268382  1
  O  O182  1  0.86799902  0.66837101  0.24040161  1
  O  O183  1  0.84045398  0.60670447  0.49302021  1
  O  O184  1  0.88615621  0.66413084  0.75708130  1
  O  O185  1  0.86221957  0.89715604  -0.01100268  1
  O  O186  1  0.89296336  0.84397909  0.25743243  1
  O  O187  1  0.83514273  0.89014059  0.50309825  1
  O  O188  1  0.89936415  0.85391324  0.73905321  1
  O  O189  1  0.00417316  0.16023111  0.11852914  1
  O  O190  1  -0.00100093  0.08679605  0.38462304  1
  O  O191  1  0.00311827  0.15612700  0.62964316  1
  O  O192  1  -0.00292444  0.10872884  0.83590416  1
  O  O193  1  -0.00084786  0.37072332  0.14097209  1
  O  O194  1  -0.00818747  0.37856075  0.34345568  1
  O  O195  1  -0.00029611  0.35504912  0.63130268  1
  O  O196  1  -0.01213655  0.41112778  0.85733054  1
  O  O197  1  0.00149839  0.65128135  0.13163986  1
  O  O198  1  -0.00969275  0.63121843  0.35925499  1
  O  O199  1  -0.00062941  0.66454910  0.62285835  1
  O  O200  1  0.00279180  0.61594389  0.88074513  1
  O  O201  1  0.00489973  0.85707317  0.09557819  1
  O  O202  1  -0.00609352  0.87932282  0.40814055  1
  O  O203  1  -0.00980337  0.85627036  0.59001827  1
  O  O204  1  0.00798134  0.90040902  0.87868108  1
  O  O205  1  0.23828549  0.12153098  0.09640169  1
  O  O206  1  0.23867763  0.12478875  0.39908180  1
  O  O207  1  0.24754235  0.11818146  0.60978115  1
  O  O208  1  0.24268873  0.15048698  0.88855470  1
  O  O209  1  0.24302341  0.38669194  0.09110122  1
  O  O210  1  0.23641240  0.39137035  0.38157840  1
  O  O211  1  0.23861886  0.40462307  0.63119438  1
  O  O212  1  0.23918748  0.35213931  0.88318255  1
  O  O213  1  0.24419335  0.61453849  0.13048696  1
  O  O214  1  0.23361877  0.64048721  0.38615366  1
  O  O215  1  0.23214572  0.58932984  0.63313903  1
  O  O216  1  0.24883980  0.63570924  0.85006203  1
  O  O217  1  0.24660307  0.89868877  0.13018916  1
  O  O218  1  0.24567190  0.82813878  0.33649239  1
  O  O219  1  0.26324042  0.88096020  0.65199326  1
  O  O220  1  0.24816661  0.88773536  0.86792809  1
  O  O221  1  0.49115537  0.13031279  0.14805283  1
  O  O222  1  0.50144321  0.11123987  0.38396701  1
  O  O223  1  0.50177302  0.15794624  0.62743156  1
  O  O224  1  0.50655199  0.10922206  0.87021736  1
  O  O225  1  0.48043615  0.37046729  0.14769670  1
  O  O226  1  0.49077894  0.38502398  0.36688334  1
  O  O227  1  0.49183467  0.35999656  0.63472803  1
  O  O228  1  0.49648922  0.39814846  0.86470620  1
  O  O229  1  0.49682432  0.65414656  0.12436735  1
  O  O230  1  0.48769624  0.61032271  0.39852935  1
  O  O231  1  0.49156938  0.64323962  0.61623666  1
  O  O232  1  0.48495270  0.60453419  0.91296759  1
  O  O233  1  0.49176967  0.86382081  0.10430154  1
  O  O234  1  0.48879832  0.91169901  0.39657256  1
  O  O235  1  0.49572108  0.84440217  0.59197053  1
  O  O236  1  0.50433167  0.89887215  0.88473519  1
  O  O237  1  0.75215213  0.10471572  0.14651728  1
  O  O238  1  0.75705480  0.13640779  0.36165861  1
  O  O239  1  0.74952852  0.13276438  0.62853176  1
  O  O240  1  0.75277456  0.13758086  0.86286830  1
  O  O241  1  0.76117895  0.40192848  0.09878583  1
  O  O242  1  0.76348973  0.38692988  0.37577381  1
  O  O243  1  0.74816053  0.42366371  0.59936498  1
  O  O244  1  0.75900129  0.37551923  0.90473240  1
  O  O245  1  0.75025030  0.60482187  0.12291527  1
  O  O246  1  0.75423246  0.65395679  0.35456129  1
  O  O247  1  0.75406711  0.60800310  0.65240207  1
  O  O248  1  0.75091925  0.67090913  0.89443094  1
  O  O249  1  0.75412109  0.89864530  0.13763744  1
  O  O250  1  0.75213487  0.84441401  0.34540923  1
  O  O251  1  0.75412019  0.91099547  0.65412521  1
  O  O252  1  0.74663274  0.85273517  0.86062773  1
  O  O253  1  0.10081465  0.00691700  0.13039881  1
  O  O254  1  0.13476210  -0.01115182  0.34129427  1
  O  O255  1  0.11101418  0.01303962  0.65106263  1
  O  O256  1  0.13881943  0.01349895  0.85705907  1
  O  O257  1  0.13668737  0.25404385  0.12458453  1
  O  O258  1  0.10856919  0.24102156  0.38817683  1
  O  O259  1  0.13882307  0.25709236  0.60342488  1
  O  O260  1  0.09656022  0.25251483  0.87583691  1
  O  O261  1  0.10505283  0.50773790  0.12544084  1
  O  O262  1  0.11628764  0.50876500  0.35140625  1
  O  O263  1  0.07547043  0.50285570  0.64279717  1
  O  O264  1  0.13363770  0.50584205  0.87995837  1
  O  O265  1  0.14694034  0.75595533  0.10623972  1
  O  O266  1  0.10306924  0.75179033  0.38671371  1
  O  O267  1  0.15480427  0.73640663  0.60755436  1
  O  O268  1  0.11304962  0.75394152  0.88195848  1
  O  O269  1  0.37532204  0.00498948  0.12896902  1
  O  O270  1  0.33626863  -0.00978611  0.37670572  1
  O  O271  1  0.38537736  -0.00616987  0.60976953  1
  O  O272  1  0.36325891  0.01135965  0.88312529  1
  O  O273  1  0.35096623  0.24872069  0.13647328  1
  O  O274  1  0.35120679  0.24835438  0.36521280  1
  O  O275  1  0.34645425  0.25907763  0.63471676  1
  O  O276  1  0.37740134  0.25335015  0.86854244  1
  O  O277  1  0.37127892  0.50052193  0.10613271  1
  O  O278  1  0.35178752  0.50532191  0.37786330  1
  O  O279  1  0.37384242  0.49969181  0.62767361  1
  O  O280  1  0.34846224  0.49318128  0.89021893  1
  O  O281  1  0.34343096  0.75728004  0.12028873  1
  O  O282  1  0.40199691  0.75700333  0.38813844  1
  O  O283  1  0.33885666  0.74028431  0.63048992  1
  O  O284  1  0.40047032  0.74704701  0.85820991  1
  O  O285  1  0.61673935  -0.00300804  0.15946670  1
  O  O286  1  0.62779197  0.00517821  0.35179208  1
  O  O287  1  0.59969782  -0.00998138  0.63751846  1
  O  O288  1  0.64573560  -0.01200781  0.84000642  1
  O  O289  1  0.59779864  0.24985899  0.10446418  1
  O  O290  1  0.62047932  0.24416413  0.38971898  1
  O  O291  1  0.63679570  0.27002875  0.64044154  1
  O  O292  1  0.62116600  0.24719948  0.89979687  1
  O  O293  1  0.59713790  0.51471843  0.11656867  1
  O  O294  1  0.61502815  0.49452959  0.37811533  1
  O  O295  1  0.59946330  0.50567360  0.63013912  1
  O  O296  1  0.63394235  0.52125372  0.88213910  1
  O  O297  1  0.65236646  0.74383048  0.17481991  1
  O  O298  1  0.59846270  0.74537027  0.37923611  1
  O  O299  1  0.65628907  0.75981389  0.61558434  1
  O  O300  1  0.59080102  0.75659156  0.88213413  1
  O  O301  1  0.89530845  -0.00812585  0.12160468  1
  O  O302  1  0.86016234  -0.00931574  0.35561549  1
  O  O303  1  0.90581907  -0.00534580  0.63531787  1
  O  O304  1  0.85627051  -0.00145494  0.82258352  1
  O  O305  1  0.85886904  0.26005252  0.09846300  1
  O  O306  1  0.87980276  0.26828137  0.41657386  1
  O  O307  1  0.86537938  0.26135116  0.58882893  1
  O  O308  1  0.90390900  0.24898077  0.90426211  1
  O  O309  1  0.88942456  0.50783469  0.15047015  1
  O  O310  1  0.87012935  0.50883750  0.33858126  1
  O  O311  1  0.89687582  0.50011684  0.67067439  1
  O  O312  1  0.84640324  0.52406850  0.86045546  1
  O  O313  1  0.86427864  0.74461422  0.07861593  1
  O  O314  1  0.88386864  0.75166427  0.40888769  1
  O  O315  1  0.83913690  0.75301453  0.61053778  1
  O  O316  1  0.89759601  0.75242508  0.90241656  1
