# generated using pymatgen
data_Mg32Ti42(Bi17O64)3
_symmetry_space_group_name_H-M   'P 1'
_cell_length_a   15.96720750
_cell_length_b   15.93191189
_cell_length_c   15.97897947
_cell_angle_alpha   89.94880211
_cell_angle_beta   89.84525617
_cell_angle_gamma   89.85266112
_symmetry_Int_Tables_number   1
_chemical_formula_structural   Mg32Ti42(Bi17O64)3
_chemical_formula_sum   'Mg32 Ti42 Bi51 O192'
_cell_volume   4064.83305208
_cell_formula_units_Z   1
loop_
 _symmetry_equiv_pos_site_id
 _symmetry_equiv_pos_as_xyz
  1  'x, y, z'
loop_
 _atom_site_type_symbol
 _atom_site_label
 _atom_site_symmetry_multiplicity
 _atom_site_fract_x
 _atom_site_fract_y
 _atom_site_fract_z
 _atom_site_occupancy
  Mg  Mg0  1  0.62552033  0.38339113  0.86866001  1
  Mg  Mg1  1  0.37046417  0.11566522  0.87519761  1
  Mg  Mg2  1  0.87970108  0.87037112  0.12504853  1
  Mg  Mg3  1  0.86911695  0.37309489  0.36976961  1
  Mg  Mg4  1  0.38467321  0.12278424  0.61160778  1
  Mg  Mg5  1  0.12685209  0.62343913  0.12199864  1
  Mg  Mg6  1  0.12532573  0.61876106  0.37396415  1
  Mg  Mg7  1  0.87194828  0.13103376  0.61806703  1
  Mg  Mg8  1  0.38502255  0.62902564  0.37309867  1
  Mg  Mg9  1  0.37719429  0.37281486  0.37124647  1
  Mg  Mg10  1  0.12729387  0.88245799  0.39243774  1
  Mg  Mg11  1  0.37200111  0.63074645  0.88172291  1
  Mg  Mg12  1  0.88554082  0.61861756  0.13747380  1
  Mg  Mg13  1  0.61666746  0.36680241  0.12613546  1
  Mg  Mg14  1  0.61770251  0.12849806  0.12586752  1
  Mg  Mg15  1  0.63151616  0.86661792  0.37392477  1
  Mg  Mg16  1  0.37136983  0.37298432  0.12469260  1
  Mg  Mg17  1  0.12307358  0.37538568  0.87250910  1
  Mg  Mg18  1  0.36986196  0.38365909  0.86416949  1
  Mg  Mg19  1  0.26816562  0.04818819  0.71974439  1
  Mg  Mg20  1  0.48734257  0.48599569  0.46003039  1
  Mg  Mg21  1  0.48910895  -0.01823515  0.82454398  1
  Mg  Mg22  1  0.24539734  0.74955191  -0.02761898  1
  Mg  Mg23  1  0.05928374  0.22429643  -0.00349086  1
  Mg  Mg24  1  0.49287288  0.23956444  0.22937729  1
  Mg  Mg25  1  0.75637572  -0.02690465  0.55967397  1
  Mg  Mg26  1  0.50002064  0.15432684  0.74249220  1
  Mg  Mg27  1  0.25358366  0.55740486  0.78815349  1
  Mg  Mg28  1  0.67934463  0.52042405  0.23790930  1
  Mg  Mg29  1  0.00279216  0.24381356  0.26097659  1
  Mg  Mg30  1  0.80012542  0.80464004  0.72870775  1
  Mg  Mg31  1  0.19628059  0.73248326  0.70552117  1
  Ti  Ti32  1  0.12557449  0.63753631  0.88586079  1
  Ti  Ti33  1  0.87971001  0.38720963  0.88310309  1
  Ti  Ti34  1  0.13213046  0.86608682  0.11646314  1
  Ti  Ti35  1  0.62734451  0.38396840  0.37136530  1
  Ti  Ti36  1  0.36466537  0.62283861  0.11982962  1
  Ti  Ti37  1  0.87430223  0.37223569  0.14170896  1
  Ti  Ti38  1  0.62654891  0.13206863  0.37380593  1
  Ti  Ti39  1  0.88357829  0.37207564  0.62194782  1
  Ti  Ti40  1  0.62949199  0.12905365  0.61699255  1
  Ti  Ti41  1  0.62103251  0.38743107  0.62963111  1
  Ti  Ti42  1  0.62341582  0.12379695  0.88587507  1
  Ti  Ti43  1  0.13157453  0.36686089  0.62615290  1
  Ti  Ti44  1  0.38834993  0.12265355  0.37334850  1
  Ti  Ti45  1  0.38505760  0.64073888  0.63867321  1
  Ti  Ti46  1  0.88717705  0.13663725  0.13041800  1
  Ti  Ti47  1  0.35794373  0.87308656  0.87727734  1
  Ti  Ti48  1  0.63814793  0.87771328  0.12956871  1
  Ti  Ti49  1  0.63258086  0.62551420  0.39211290  1
  Ti  Ti50  1  0.63535168  0.63021195  0.87482072  1
  Ti  Ti51  1  0.86917519  0.86699605  0.36784709  1
  Ti  Ti52  1  0.38025988  0.88049733  0.64357393  1
  Ti  Ti53  1  0.12815807  0.88419854  0.63635143  1
  Ti  Ti54  1  0.87395110  0.61978187  0.38131078  1
  Ti  Ti55  1  0.13188375  0.36158150  0.11834244  1
  Ti  Ti56  1  0.38232539  0.12885440  0.12703996  1
  Ti  Ti57  1  0.11551399  0.13398483  0.62443665  1
  Ti  Ti58  1  0.62276279  0.86835794  0.63475246  1
  Ti  Ti59  1  0.86967243  0.88416480  0.88275808  1
  Ti  Ti60  1  0.36478176  0.86243065  0.13442432  1
  Ti  Ti61  1  0.12356175  0.12078666  0.37957616  1
  Ti  Ti62  1  0.87792767  0.13235513  0.87966771  1
  Ti  Ti63  1  0.86475266  0.62349572  0.62773447  1
  Ti  Ti64  1  0.63351585  0.87695257  0.88504877  1
  Ti  Ti65  1  0.12688766  0.11103146  0.86049189  1
  Ti  Ti66  1  0.12488723  0.88124975  0.87395132  1
  Ti  Ti67  1  0.87554422  0.12918288  0.37756521  1
  Ti  Ti68  1  0.38406358  0.37995742  0.62956110  1
  Ti  Ti69  1  0.62329142  0.62902595  0.62129006  1
  Ti  Ti70  1  0.13686629  0.36633927  0.37317907  1
  Ti  Ti71  1  0.12192553  0.12642125  0.13920063  1
  Ti  Ti72  1  0.87139967  0.62614189  0.86538155  1
  Ti  Ti73  1  0.38107696  0.86730852  0.38932260  1
  Bi  Bi74  1  0.01529559  0.26737658  0.76905279  1
  Bi  Bi75  1  0.75884441  0.50993989  0.74147696  1
  Bi  Bi76  1  0.50368919  0.28537873  -0.03556392  1
  Bi  Bi77  1  -0.00817617  0.76060352  0.76675252  1
  Bi  Bi78  1  0.00738220  0.74725668  0.01434720  1
  Bi  Bi79  1  0.75110999  0.25815598  0.50323646  1
  Bi  Bi80  1  0.00331434  0.48473047  0.01353861  1
  Bi  Bi81  1  -0.04138409  -0.01145168  0.51688924  1
  Bi  Bi82  1  0.27933085  0.26311682  -0.01000708  1
  Bi  Bi83  1  0.26668556  0.24356525  0.26359456  1
  Bi  Bi84  1  0.52275144  0.52481337  0.02015538  1
  Bi  Bi85  1  0.75263262  0.71336618  0.23884461  1
  Bi  Bi86  1  0.75344235  0.00134108  0.26554974  1
  Bi  Bi87  1  0.00248300  -0.03289403  0.26735307  1
  Bi  Bi88  1  0.76851099  0.74532338  0.00768472  1
  Bi  Bi89  1  0.72870283  0.24579655  0.23622511  1
  Bi  Bi90  1  0.24195834  0.00889618  0.52354973  1
  Bi  Bi91  1  0.48063470  0.47327034  0.23640665  1
  Bi  Bi92  1  0.78043589  0.77505661  0.52204024  1
  Bi  Bi93  1  0.00544250  0.72676284  0.26342536  1
  Bi  Bi94  1  0.73504715  0.03328292  0.74908586  1
  Bi  Bi95  1  0.50853524  0.52105075  0.77608032  1
  Bi  Bi96  1  0.49870080  0.72681527  0.49264857  1
  Bi  Bi97  1  0.00023795  0.26347655  0.47157010  1
  Bi  Bi98  1  0.53831131  -0.01468092  0.50820937  1
  Bi  Bi99  1  0.26265686  0.52205820  0.26168793  1
  Bi  Bi100  1  0.01561855  0.45632322  0.24687627  1
  Bi  Bi101  1  0.26382404  0.01556171  0.02124969  1
  Bi  Bi102  1  -0.03634022  -0.00033919  0.72753660  1
  Bi  Bi103  1  0.73742081  0.51884482  0.04675880  1
  Bi  Bi104  1  0.75236686  0.27243119  0.77322267  1
  Bi  Bi105  1  0.51157329  -0.01840204  0.26589940  1
  Bi  Bi106  1  0.22297213  0.75021736  0.28349049  1
  Bi  Bi107  1  0.52962645  0.72439304  0.21539661  1
  Bi  Bi108  1  0.02751159  0.71451534  0.51645090  1
  Bi  Bi109  1  0.25267141  0.75738309  0.52484800  1
  Bi  Bi110  1  0.28144539  0.53144000  0.50832162  1
  Bi  Bi111  1  0.50919878  0.76136221  0.76956431  1
  Bi  Bi112  1  0.01693614  0.01106462  0.01351727  1
  Bi  Bi113  1  0.50890458  -0.01749724  0.02312513  1
  Bi  Bi114  1  0.24400759  0.49294840  -0.02684471  1
  Bi  Bi115  1  0.51559447  0.27188178  0.50952593  1
  Bi  Bi116  1  0.77544010  0.48474211  0.49496212  1
  Bi  Bi117  1  0.75781361  0.27081407  0.01099729  1
  Bi  Bi118  1  0.76846582  0.02323813  0.02737877  1
  Bi  Bi119  1  0.03967847  0.53574692  0.72926499  1
  Bi  Bi120  1  0.27672484  0.25709585  0.51398019  1
  Bi  Bi121  1  0.46955135  0.75585783  -0.00763889  1
  Bi  Bi122  1  0.26847397  -0.00482699  0.27302968  1
  Bi  Bi123  1  0.28742677  0.24312927  0.74765000  1
  Bi  Bi124  1  0.03562396  0.50219200  0.50204623  1
  O  O125  1  0.13318374  0.10510170  -0.01764385  1
  O  O126  1  0.10133218  0.15806961  0.24656334  1
  O  O127  1  0.13331310  0.09855985  0.49439142  1
  O  O128  1  0.09932572  0.13941488  0.74041137  1
  O  O129  1  0.08453536  0.36849831  0.00590435  1
  O  O130  1  0.13468660  0.37057709  0.24834581  1
  O  O131  1  0.09891834  0.37726653  0.49452455  1
  O  O132  1  0.13328966  0.34587384  0.74097943  1
  O  O133  1  0.10163056  0.60211128  -0.00391020  1
  O  O134  1  0.12239139  0.64662774  0.24860420  1
  O  O135  1  0.11885135  0.61529283  0.50007201  1
  O  O136  1  0.14055167  0.63023028  0.75588899  1
  O  O137  1  0.13041399  0.90969663  -0.01084800  1
  O  O138  1  0.11632074  0.85296058  0.23255845  1
  O  O139  1  0.15712145  0.89876734  0.51464270  1
  O  O140  1  0.12589894  0.83608480  0.75041891  1
  O  O141  1  0.35041461  0.13223266  0.00450788  1
  O  O142  1  0.37180148  0.09958257  0.24381116  1
  O  O143  1  0.37067295  0.14858045  0.48587517  1
  O  O144  1  0.37484277  0.12615658  0.74216747  1
  O  O145  1  0.38561070  0.35038205  0.00151993  1
  O  O146  1  0.35733717  0.41441988  0.24843394  1
  O  O147  1  0.38559964  0.34656068  0.49714542  1
  O  O148  1  0.35029992  0.37528800  0.73964800  1
  O  O149  1  0.35459728  0.66257273  0.00866874  1
  O  O150  1  0.38120595  0.59595576  0.24763543  1
  O  O151  1  0.36181996  0.64925781  0.50497784  1
  O  O152  1  0.37205960  0.60407830  0.74871666  1
  O  O153  1  0.35067444  0.83851430  -0.00194998  1
  O  O154  1  0.38318821  0.89825582  0.24495853  1
  O  O155  1  0.36437341  0.85807174  0.50389262  1
  O  O156  1  0.40442375  0.89645482  0.75831654  1
  O  O157  1  0.62751841  0.09972022  -0.00146994  1
  O  O158  1  0.60740875  0.17472477  0.25449073  1
  O  O159  1  0.63323135  0.10848709  0.48999438  1
  O  O160  1  0.62763528  0.13273566  0.73973467  1
  O  O161  1  0.59338825  0.38139269  0.00012796  1
  O  O162  1  0.65225120  0.36868566  0.25638318  1
  O  O163  1  0.57938492  0.39762950  0.49937055  1
  O  O164  1  0.64770303  0.35952894  0.73983461  1
  O  O165  1  0.63939821  0.61262541  -0.00866837  1
  O  O166  1  0.61785752  0.63245031  0.26330527  1
  O  O167  1  0.65279547  0.60927192  0.50964687  1
  O  O168  1  0.58785388  0.63851636  0.74994982  1
  O  O169  1  0.63519407  0.89298701  0.00527606  1
  O  O170  1  0.59292051  0.86843036  0.24533115  1
  O  O171  1  0.64428420  0.89970856  0.49671846  1
  O  O172  1  0.61597399  0.85887173  0.74969031  1
  O  O173  1  0.83996243  0.13989858  -0.00217120  1
  O  O174  1  0.90922743  0.15629586  0.24007938  1
  O  O175  1  0.86539173  0.09782242  0.48670815  1
  O  O176  1  0.87133207  0.10409298  0.75708544  1
  O  O177  1  0.89594273  0.36960898  -0.00634707  1
  O  O178  1  0.84332884  0.37466039  0.24710528  1
  O  O179  1  0.89008154  0.39541765  0.50116120  1
  O  O180  1  0.84063080  0.37409745  0.73859466  1
  O  O181  1  0.86679561  0.64703925  -0.01337804  1
  O  O182  1  0.88368095  0.65110450  0.26282919  1
  O  O183  1  0.85755580  0.62468925  0.50824729  1
  O  O184  1  0.88094916  0.59262474  0.74763012  1
  O  O185  1  0.87014232  0.83654607  -0.00461645  1
  O  O186  1  0.90591884  0.86369265  0.24867174  1
  O  O187  1  0.83995632  0.90234645  0.48521383  1
  O  O188  1  0.87083227  0.90209298  0.76373483  1
  O  O189  1  -0.00040876  0.14566107  0.08351165  1
  O  O190  1  -0.00056537  0.13885555  0.38516528  1
  O  O191  1  0.00253720  0.09655555  0.60839436  1
  O  O192  1  -0.01068065  0.11669962  0.89329585  1
  O  O193  1  -0.00832312  0.33981734  0.16853461  1
  O  O194  1  -0.00250334  0.34173797  0.34991785  1
  O  O195  1  -0.00677678  0.37576700  0.64552654  1
  O  O196  1  -0.00572916  0.38437005  0.84359118  1
  O  O197  1  0.00211528  0.66745076  0.13087364  1
  O  O198  1  -0.00458490  0.63590466  0.38527287  1
  O  O199  1  -0.01075794  0.61797212  0.62252234  1
  O  O200  1  -0.00063016  0.64438802  0.85409036  1
  O  O201  1  0.00918489  0.85957170  0.09620971  1
  O  O202  1  -0.00179450  0.89302978  0.38334581  1
  O  O203  1  0.01581963  0.90285402  0.62683054  1
  O  O204  1  -0.00370189  0.85521023  0.87051883  1
  O  O205  1  0.23629457  0.09829894  0.13480843  1
  O  O206  1  0.24533947  0.13371729  0.35215945  1
  O  O207  1  0.24135784  0.13510220  0.62176733  1
  O  O208  1  0.23833358  0.10377950  0.83494299  1
  O  O209  1  0.23999662  0.38357023  0.09857560  1
  O  O210  1  0.25010386  0.35126252  0.37816481  1
  O  O211  1  0.24372039  0.36942397  0.59943095  1
  O  O212  1  0.24270809  0.37075441  0.90817525  1
  O  O213  1  0.25099960  0.59035056  0.13492035  1
  O  O214  1  0.25428537  0.63064509  0.36178803  1
  O  O215  1  0.26501012  0.65719738  0.62917168  1
  O  O216  1  0.24346455  0.64716879  0.88677034  1
  O  O217  1  0.24915623  0.90415399  0.12698777  1
  O  O218  1  0.25875531  0.87104692  0.35928878  1
  O  O219  1  0.26586285  0.83677228  0.64343895  1
  O  O220  1  0.24595593  0.86100259  0.86928471  1
  O  O221  1  0.49128005  0.15559660  0.12860205  1
  O  O222  1  0.50188592  0.11096403  0.37491958  1
  O  O223  1  0.50833004  0.12516105  0.62099982  1
  O  O224  1  0.50243711  0.10617108  0.85768010  1
  O  O225  1  0.49551663  0.35098154  0.16758997  1
  O  O226  1  0.50304942  0.40179376  0.35739390  1
  O  O227  1  0.49895886  0.36198509  0.63591551  1
  O  O228  1  0.49602531  0.37523515  0.86271296  1
  O  O229  1  0.49157128  0.64646986  0.10610490  1
  O  O230  1  0.51042237  0.60573407  0.41476515  1
  O  O231  1  0.50332403  0.62084224  0.60154712  1
  O  O232  1  0.49733645  0.60442448  0.88976035  1
  O  O233  1  0.48609578  0.86128126  0.09665713  1
  O  O234  1  0.49814521  0.90470897  0.38956202  1
  O  O235  1  0.50164922  0.88937193  0.60773597  1
  O  O236  1  0.50613297  0.87953598  0.89746212  1
  O  O237  1  0.75767107  0.10459280  0.14574052  1
  O  O238  1  0.74946566  0.12832780  0.34540569  1
  O  O239  1  0.74772997  0.11602000  0.62613946  1
  O  O240  1  0.74361713  0.11456911  0.86303484  1
  O  O241  1  0.75744590  0.38893112  0.09578698  1
  O  O242  1  0.74228919  0.36905282  0.41154502  1
  O  O243  1  0.73518287  0.37560416  0.58495136  1
  O  O244  1  0.75435294  0.36417470  0.87859427  1
  O  O245  1  0.76155711  0.58727513  0.16512815  1
  O  O246  1  0.75226800  0.63952305  0.36830757  1
  O  O247  1  0.74258100  0.62710576  0.65771712  1
  O  O248  1  0.74966501  0.62730087  0.85557485  1
  O  O249  1  0.74818109  0.90256359  0.13717413  1
  O  O250  1  0.75525802  0.87047117  0.33611433  1
  O  O251  1  0.74353236  0.86395935  0.63227601  1
  O  O252  1  0.74950027  0.86164039  0.87390244  1
  O  O253  1  0.09346817  0.00832930  0.13056969  1
  O  O254  1  0.12909888  0.00595755  0.34601857  1
  O  O255  1  0.17030631  -0.00382186  0.64947774  1
  O  O256  1  0.10615793  -0.00760078  0.84392330  1
  O  O257  1  0.13522180  0.24256228  0.09930345  1
  O  O258  1  0.12277009  0.24606782  0.39760046  1
  O  O259  1  0.10441400  0.24557346  0.59973756  1
  O  O260  1  0.10251974  0.23973403  0.87831546  1
  O  O261  1  0.08953918  0.48499202  0.12744111  1
  O  O262  1  0.11349399  0.48801422  0.37276971  1
  O  O263  1  0.11574275  0.48725617  0.62241774  1
  O  O264  1  0.15195219  0.50565689  0.86210093  1
  O  O265  1  0.15496513  0.75822122  0.07871057  1
  O  O266  1  0.13072216  0.75511014  0.38558625  1
  O  O267  1  0.12319932  0.76092566  0.60385378  1
  O  O268  1  0.12350852  0.75343312  0.90854840  1
  O  O269  1  0.38576628  0.00100575  0.09851674  1
  O  O270  1  0.35677287  0.00541646  0.38203553  1
  O  O271  1  0.34965942  -0.00584568  0.62673914  1
  O  O272  1  0.37572765  -0.01186706  0.89677850  1
  O  O273  1  0.34535878  0.24254799  0.14412493  1
  O  O274  1  0.39161506  0.24425468  0.32439511  1
  O  O275  1  0.36348692  0.25247620  0.62639925  1
  O  O276  1  0.35639258  0.24509602  0.87004722  1
  O  O277  1  0.40177021  0.50649229  0.10291490  1
  O  O278  1  0.36728259  0.50063009  0.40837807  1
  O  O279  1  0.37855425  0.49680002  0.59751043  1
  O  O280  1  0.33920915  0.50652389  0.87839859  1
  O  O281  1  0.35719078  0.75051141  0.15624682  1
  O  O282  1  0.40691173  0.75696861  0.36875366  1
  O  O283  1  0.41089152  0.75246172  0.65187316  1
  O  O284  1  0.39730960  0.75534787  0.86336936  1
  O  O285  1  0.59077649  -0.00167861  0.13814290  1
  O  O286  1  0.63098238  0.01082447  0.33912360  1
  O  O287  1  0.63747930  -0.00440813  0.62540434  1
  O  O288  1  0.62234821  -0.00950719  0.85060005  1
  O  O289  1  0.66139353  0.24857053  0.11184867  1
  O  O290  1  0.61831969  0.25587356  0.40345114  1
  O  O291  1  0.62922669  0.24879995  0.59598278  1
  O  O292  1  0.62643867  0.24037908  0.88500504  1
  O  O293  1  0.62243026  0.49597265  0.12509856  1
  O  O294  1  0.64707861  0.50117843  0.36113832  1
  O  O295  1  0.62470247  0.50103386  0.65204763  1
  O  O296  1  0.62696526  0.50797123  0.84752667  1
  O  O297  1  0.63915759  0.75882234  0.13220066  1
  O  O298  1  0.60876503  0.74239445  0.39873145  1
  O  O299  1  0.61647717  0.74987291  0.60671671  1
  O  O300  1  0.61044914  0.74890289  0.88171308  1
  O  O301  1  0.89089889  0.01027827  0.10576692  1
  O  O302  1  0.87802325  0.00902691  0.33655165  1
  O  O303  1  0.87146269  -0.00052589  0.62199013  1
  O  O304  1  0.86834334  -0.00638013  0.91243535  1
  O  O305  1  0.84689560  0.25245748  0.11792819  1
  O  O306  1  0.86508344  0.24556693  0.39809881  1
  O  O307  1  0.86716068  0.25592391  0.60179383  1
  O  O308  1  0.87809106  0.24779375  0.85830309  1
  O  O309  1  0.91187428  0.49073447  0.12418188  1
  O  O310  1  0.87170608  0.50646188  0.37633313  1
  O  O311  1  0.84579973  0.49699182  0.62311502  1
  O  O312  1  0.87076023  0.50399088  0.88640316  1
  O  O313  1  0.83339978  0.74333561  0.12584180  1
  O  O314  1  0.87643913  0.75927913  0.40573218  1
  O  O315  1  0.86606867  0.74526325  0.63238802  1
  O  O316  1  0.86599656  0.74677401  0.82715874  1
