# generated using pymatgen
data_Mg32Ti42(Bi17O64)3
_symmetry_space_group_name_H-M   'P 1'
_cell_length_a   15.94987973
_cell_length_b   15.94958620
_cell_length_c   15.94800230
_cell_angle_alpha   90.04101394
_cell_angle_beta   90.02466839
_cell_angle_gamma   90.11268703
_symmetry_Int_Tables_number   1
_chemical_formula_structural   Mg32Ti42(Bi17O64)3
_chemical_formula_sum   'Mg32 Ti42 Bi51 O192'
_cell_volume   4057.06653982
_cell_formula_units_Z   1
loop_
 _symmetry_equiv_pos_site_id
 _symmetry_equiv_pos_as_xyz
  1  'x, y, z'
loop_
 _atom_site_type_symbol
 _atom_site_label
 _atom_site_symmetry_multiplicity
 _atom_site_fract_x
 _atom_site_fract_y
 _atom_site_fract_z
 _atom_site_occupancy
  Mg  Mg0  1  0.88389431  0.88916957  0.87528635  1
  Mg  Mg1  1  0.62954103  0.87591276  0.38284648  1
  Mg  Mg2  1  0.12624906  0.13142776  0.10567119  1
  Mg  Mg3  1  0.63997883  0.87339450  0.62576221  1
  Mg  Mg4  1  0.62673189  0.62945561  0.12416291  1
  Mg  Mg5  1  0.86921589  0.12017091  0.10946383  1
  Mg  Mg6  1  0.11904860  0.13385601  0.62641686  1
  Mg  Mg7  1  0.87185529  0.37719546  0.12632152  1
  Mg  Mg8  1  0.37179108  0.62002670  0.61502495  1
  Mg  Mg9  1  0.37110658  0.37350059  0.12508255  1
  Mg  Mg10  1  0.37094967  0.12040294  0.87711688  1
  Mg  Mg11  1  0.12567723  0.62710316  0.87820205  1
  Mg  Mg12  1  0.86682404  0.63031252  0.87415778  1
  Mg  Mg13  1  0.61477396  0.87036186  0.87859955  1
  Mg  Mg14  1  0.63592527  0.12892491  0.62828336  1
  Mg  Mg15  1  0.12041874  0.37757907  0.38983218  1
  Mg  Mg16  1  0.37713717  0.88149675  0.62396226  1
  Mg  Mg17  1  0.12509750  0.87889781  0.86210928  1
  Mg  Mg18  1  0.86377339  0.63371744  0.62124819  1
  Mg  Mg19  1  0.80000413  0.23063295  0.25337045  1
  Mg  Mg20  1  0.80056183  0.00331438  0.73182023  1
  Mg  Mg21  1  0.27369887  0.48339073  0.46447806  1
  Mg  Mg22  1  -0.05332266  0.48204789  0.53894652  1
  Mg  Mg23  1  0.76669505  0.81587104  0.76965399  1
  Mg  Mg24  1  -0.01037075  0.56261089  -0.01469251  1
  Mg  Mg25  1  -0.01731763  0.24370269  0.75172427  1
  Mg  Mg26  1  -0.11148779  -0.10670234  0.38199813  1
  Mg  Mg27  1  -0.00334108  0.03183214  0.75905441  1
  Mg  Mg28  1  0.25165762  0.29782470  -0.03984263  1
  Mg  Mg29  1  -0.02314813  0.24876575  0.18721730  1
  Mg  Mg30  1  0.78055287  0.48607653  0.56041550  1
  Mg  Mg31  1  0.77626109  0.79510862  0.49423930  1
  Ti  Ti32  1  0.37820871  0.12838685  0.37130342  1
  Ti  Ti33  1  0.87650399  0.61851633  0.38808070  1
  Ti  Ti34  1  0.13596104  0.61320661  0.37198509  1
  Ti  Ti35  1  0.12296412  0.61476804  0.60660260  1
  Ti  Ti36  1  0.88204021  0.86354990  0.62342538  1
  Ti  Ti37  1  0.87446986  0.88315210  0.12369631  1
  Ti  Ti38  1  0.61840884  0.37371775  0.63121505  1
  Ti  Ti39  1  0.87505179  0.12325674  0.62886960  1
  Ti  Ti40  1  0.11232942  0.88390961  0.62366638  1
  Ti  Ti41  1  0.38467837  0.36474070  0.36097722  1
  Ti  Ti42  1  0.37357940  0.12012704  0.12306456  1
  Ti  Ti43  1  0.63053083  0.13809846  0.37784088  1
  Ti  Ti44  1  0.64248414  0.13154956  0.12665206  1
  Ti  Ti45  1  0.13252382  0.38434922  0.62410115  1
  Ti  Ti46  1  0.12173138  0.36821120  0.11539719  1
  Ti  Ti47  1  0.11526235  0.61746887  0.12847607  1
  Ti  Ti48  1  0.36964235  0.62524964  0.37473499  1
  Ti  Ti49  1  0.87538851  0.37019878  0.37106896  1
  Ti  Ti50  1  0.86964120  0.63751697  0.12900105  1
  Ti  Ti51  1  0.62281491  0.63518315  0.88014868  1
  Ti  Ti52  1  0.11201473  0.37325686  0.86075374  1
  Ti  Ti53  1  0.37800487  0.63475091  0.87383974  1
  Ti  Ti54  1  0.63348087  0.62281612  0.38193716  1
  Ti  Ti55  1  0.62232990  0.37392788  0.87687573  1
  Ti  Ti56  1  0.62295833  0.13448048  0.87521437  1
  Ti  Ti57  1  0.37781012  0.12373741  0.62809006  1
  Ti  Ti58  1  0.63036303  0.62945642  0.61629994  1
  Ti  Ti59  1  0.37037674  0.37907534  0.63156246  1
  Ti  Ti60  1  0.63625553  0.87964607  0.13438973  1
  Ti  Ti61  1  0.62249346  0.37691512  0.13163040  1
  Ti  Ti62  1  0.87902464  0.13362306  0.39134537  1
  Ti  Ti63  1  0.37711483  0.88748122  0.37307465  1
  Ti  Ti64  1  0.36422683  0.61937767  0.13626391  1
  Ti  Ti65  1  0.37863339  0.38580972  0.87090846  1
  Ti  Ti66  1  0.62838962  0.37540718  0.38117069  1
  Ti  Ti67  1  0.86153396  0.12113393  0.86603473  1
  Ti  Ti68  1  0.12503977  0.88689118  0.37869291  1
  Ti  Ti69  1  0.11175591  0.13744944  0.39051847  1
  Ti  Ti70  1  0.37772400  0.87739547  0.14185396  1
  Ti  Ti71  1  0.12522163  0.13101298  0.86681901  1
  Ti  Ti72  1  0.88538030  0.38609253  0.87856714  1
  Ti  Ti73  1  0.38139112  0.87290381  0.86496247  1
  Bi  Bi74  1  -0.02375026  0.22428751  -0.01677431  1
  Bi  Bi75  1  0.03251412  0.76290651  -0.00962540  1
  Bi  Bi76  1  0.00830392  0.45909858  0.25692256  1
  Bi  Bi77  1  0.03243236  -0.01376984  0.02823702  1
  Bi  Bi78  1  0.76319673  0.77449045  -0.02011192  1
  Bi  Bi79  1  0.51317622  0.51896794  0.25666375  1
  Bi  Bi80  1  0.77454652  0.76457940  0.27801099  1
  Bi  Bi81  1  -0.00718475  0.05019135  0.23996357  1
  Bi  Bi82  1  0.75660006  0.27891508  0.01122201  1
  Bi  Bi83  1  0.23035250  0.51145642  -0.00931510  1
  Bi  Bi84  1  0.26566220  0.25540477  0.77123235  1
  Bi  Bi85  1  0.22285955  0.76725613  0.24087152  1
  Bi  Bi86  1  0.24099075  0.27324363  0.50183545  1
  Bi  Bi87  1  0.50187171  0.24469025  0.22426452  1
  Bi  Bi88  1  0.50989812  0.01294343  0.50730520  1
  Bi  Bi89  1  0.76209715  0.50448126  0.25848587  1
  Bi  Bi90  1  0.50210238  0.53347167  0.74086314  1
  Bi  Bi91  1  0.21985282  0.23661015  0.23616395  1
  Bi  Bi92  1  0.25304395  -0.01434597  -0.02033077  1
  Bi  Bi93  1  0.53233336  0.74749294  0.25912152  1
  Bi  Bi94  1  0.23367931  0.02322671  0.49542578  1
  Bi  Bi95  1  0.49514901  0.76115996  0.02639514  1
  Bi  Bi96  1  0.75628273  0.28972628  0.51786132  1
  Bi  Bi97  1  0.75639509  0.00416563  0.27714542  1
  Bi  Bi98  1  0.48533650  0.75558112  0.49960771  1
  Bi  Bi99  1  0.00429650  0.77421780  0.23134569  1
  Bi  Bi100  1  0.51642410  0.76422395  0.72026282  1
  Bi  Bi101  1  0.24496556  0.53428318  0.74527481  1
  Bi  Bi102  1  0.49113909  0.52058523  0.02727012  1
  Bi  Bi103  1  0.22798471  -0.00276958  0.21963974  1
  Bi  Bi104  1  0.78025656  0.28800972  0.73633391  1
  Bi  Bi105  1  0.76380645  0.51812140  0.02088112  1
  Bi  Bi106  1  0.48497031  0.24321365  0.51118139  1
  Bi  Bi107  1  -0.00920783  0.26319764  0.53589868  1
  Bi  Bi108  1  0.22968382  0.46738791  0.24842648  1
  Bi  Bi109  1  0.47376984  0.26890651  0.00193372  1
  Bi  Bi110  1  0.48272059  0.48768113  0.48198957  1
  Bi  Bi111  1  0.22020474  0.01212802  0.75202192  1
  Bi  Bi112  1  -0.01167370  0.74986629  0.77080000  1
  Bi  Bi113  1  0.52289277  -0.00200147  0.73817105  1
  Bi  Bi114  1  0.02600152  0.74340277  0.47483100  1
  Bi  Bi115  1  0.72787707  0.51612285  0.76254739  1
  Bi  Bi116  1  0.49611288  0.01290412  -0.01917843  1
  Bi  Bi117  1  0.72911430  -0.00651462  -0.03054345  1
  Bi  Bi118  1  0.22386760  0.74905711  0.71965380  1
  Bi  Bi119  1  0.26102802  0.75681872  0.00371164  1
  Bi  Bi120  1  0.74974433  -0.00492965  0.51945451  1
  Bi  Bi121  1  0.26041070  0.78208076  0.50510148  1
  Bi  Bi122  1  0.50405547  0.24556008  0.74164230  1
  Bi  Bi123  1  -0.02398303  0.52139764  0.73197692  1
  Bi  Bi124  1  0.52817410  0.01806359  0.25266214  1
  O  O125  1  0.11087033  0.10027744  -0.01663432  1
  O  O126  1  0.12410699  0.13421030  0.27030883  1
  O  O127  1  0.12624550  0.10356037  0.50485017  1
  O  O128  1  0.15838167  0.13969580  0.74550542  1
  O  O129  1  0.15329456  0.36888003  0.00434039  1
  O  O130  1  0.12603936  0.37036653  0.25968356  1
  O  O131  1  0.17524408  0.40251124  0.50749124  1
  O  O132  1  0.09566521  0.34532520  0.74851990  1
  O  O133  1  0.11429198  0.58506618  0.00381844  1
  O  O134  1  0.12943718  0.63644765  0.24937182  1
  O  O135  1  0.12157985  0.60412795  0.49383000  1
  O  O136  1  0.13745725  0.63816103  0.75362898  1
  O  O137  1  0.13110581  0.90658398  -0.01284478  1
  O  O138  1  0.11489203  0.85215327  0.25881191  1
  O  O139  1  0.13499382  0.87805726  0.50042641  1
  O  O140  1  0.11742763  0.83890164  0.74054874  1
  O  O141  1  0.37157031  0.09655990  0.01077351  1
  O  O142  1  0.37063372  0.14628359  0.25941150  1
  O  O143  1  0.40922609  0.11211724  0.50228687  1
  O  O144  1  0.37751683  0.14619433  0.74507954  1
  O  O145  1  0.36028174  0.36631363  -0.00756723  1
  O  O146  1  0.39896170  0.35291634  0.25066414  1
  O  O147  1  0.36576670  0.40258678  0.51031602  1
  O  O148  1  0.39010174  0.34320929  0.75359321  1
  O  O149  1  0.39360704  0.61870627  -0.00410866  1
  O  O150  1  0.34910367  0.62990229  0.24988222  1
  O  O151  1  0.37282072  0.58190124  0.49028735  1
  O  O152  1  0.35998661  0.62900766  0.75643148  1
  O  O153  1  0.34138191  0.87654689  0.00878843  1
  O  O154  1  0.39800442  0.85380272  0.25555546  1
  O  O155  1  0.35149697  0.88804559  0.49293682  1
  O  O156  1  0.40337779  0.86128887  0.75275258  1
  O  O157  1  0.64551893  0.11304865  0.01039831  1
  O  O158  1  0.60896749  0.13667089  0.25038619  1
  O  O159  1  0.62312935  0.10683963  0.49380764  1
  O  O160  1  0.60444724  0.12386567  0.75982617  1
  O  O161  1  0.64716649  0.37894099  -0.00879387  1
  O  O162  1  0.59185660  0.36513391  0.24613451  1
  O  O163  1  0.64176198  0.39117509  0.49671956  1
  O  O164  1  0.61343360  0.34871675  0.74700468  1
  O  O165  1  0.60300639  0.61477655  -0.00598203  1
  O  O166  1  0.61595307  0.62318571  0.25312395  1
  O  O167  1  0.61011655  0.62152835  0.49822183  1
  O  O168  1  0.62851285  0.61699306  0.75112009  1
  O  O169  1  0.64863548  0.88261502  0.01286277  1
  O  O170  1  0.59848418  0.87243163  0.25149464  1
  O  O171  1  0.67511632  0.87275933  0.50465565  1
  O  O172  1  0.59922718  0.87375202  0.75176794  1
  O  O173  1  0.89328523  0.10312722  -0.01871981  1
  O  O174  1  0.90450881  0.15943944  0.25641511  1
  O  O175  1  0.86421422  0.10910683  0.50561223  1
  O  O176  1  0.86833109  0.16593132  0.75083786  1
  O  O177  1  0.84291473  0.39084252  -0.00434403  1
  O  O178  1  0.87940842  0.33559827  0.25008699  1
  O  O179  1  0.85089577  0.40585046  0.48613728  1
  O  O180  1  0.90173139  0.34249487  0.76528993  1
  O  O181  1  0.87202978  0.59986358  0.00222109  1
  O  O182  1  0.86585394  0.64817905  0.24736894  1
  O  O183  1  0.87430246  0.58112496  0.49579753  1
  O  O184  1  0.89561757  0.63463057  0.74927370  1
  O  O185  1  0.85523967  0.88939303  0.00597230  1
  O  O186  1  0.88836194  0.84616017  0.25290688  1
  O  O187  1  0.85387451  0.90155288  0.50809842  1
  O  O188  1  0.89080783  0.84653922  0.74478940  1
  O  O189  1  -0.00102709  0.13051239  0.12672453  1
  O  O190  1  -0.00239345  0.14087909  0.39661681  1
  O  O191  1  -0.00327006  0.17240202  0.64261786  1
  O  O192  1  0.00849922  0.15044337  0.83910876  1
  O  O193  1  0.00374412  0.36770700  0.13202800  1
  O  O194  1  -0.00898660  0.37867140  0.37833993  1
  O  O195  1  0.01674650  0.38782121  0.58653632  1
  O  O196  1  0.00192727  0.35053438  0.90249014  1
  O  O197  1  -0.00197075  0.61697995  0.11451558  1
  O  O198  1  -0.00884225  0.64538537  0.37995893  1
  O  O199  1  0.00521196  0.60512752  0.61795954  1
  O  O200  1  -0.00056265  0.65787329  0.89702765  1
  O  O201  1  -0.00737736  0.86877409  0.12269437  1
  O  O202  1  0.00600756  0.84801031  0.38411954  1
  O  O203  1  -0.00140381  0.85588395  0.60880508  1
  O  O204  1  0.00025826  0.84373566  0.88220776  1
  O  O205  1  0.24783313  0.12622311  0.14433961  1
  O  O206  1  0.25986412  0.11963856  0.40110751  1
  O  O207  1  0.26374223  0.10150667  0.60807298  1
  O  O208  1  0.24595397  0.08458806  0.87161714  1
  O  O209  1  0.24735932  0.36526945  0.15227260  1
  O  O210  1  0.26573147  0.39043831  0.36718380  1
  O  O211  1  0.25441898  0.36394682  0.65079971  1
  O  O212  1  0.25336786  0.38028349  0.85564770  1
  O  O213  1  0.25002572  0.60797549  0.09850411  1
  O  O214  1  0.24889244  0.58415891  0.38102281  1
  O  O215  1  0.24732791  0.61461943  0.63165773  1
  O  O216  1  0.25513895  0.60324945  0.88993867  1
  O  O217  1  0.25328686  0.87127193  0.15518797  1
  O  O218  1  0.24907220  0.87042435  0.35476318  1
  O  O219  1  0.24460955  0.86795138  0.63102075  1
  O  O220  1  0.25733770  0.90425289  0.86247377  1
  O  O221  1  0.49229736  0.10621973  0.13805138  1
  O  O222  1  0.50510536  0.11876630  0.36989882  1
  O  O223  1  0.50525949  0.15996808  0.62907044  1
  O  O224  1  0.50461671  0.13254021  0.90204563  1
  O  O225  1  0.50167686  0.37058552  0.09388055  1
  O  O226  1  0.49965648  0.36516837  0.40456645  1
  O  O227  1  0.49769243  0.34544506  0.61948352  1
  O  O228  1  0.50120677  0.35657714  0.88778278  1
  O  O229  1  0.49331688  0.61755269  0.13163031  1
  O  O230  1  0.48877078  0.63014706  0.35660131  1
  O  O231  1  0.50063335  0.63004759  0.63715110  1
  O  O232  1  0.49961299  0.63967635  0.85570964  1
  O  O233  1  0.49132710  0.88041698  0.10180470  1
  O  O234  1  0.49456221  0.86383991  0.40654605  1
  O  O235  1  0.50514927  0.84537956  0.60583972  1
  O  O236  1  0.49137981  0.85573124  0.91297269  1
  O  O237  1  0.75229595  0.15240569  0.15318841  1
  O  O238  1  0.75399666  0.13421530  0.34746881  1
  O  O239  1  0.75964375  0.08839055  0.64330346  1
  O  O240  1  0.74811869  0.09961130  0.86444819  1
  O  O241  1  0.73861419  0.35103245  0.13359896  1
  O  O242  1  0.74058193  0.38872708  0.34613156  1
  O  O243  1  0.74205125  0.38674008  0.63055606  1
  O  O244  1  0.75854827  0.38641361  0.84397313  1
  O  O245  1  0.75022889  0.63256556  0.11005162  1
  O  O246  1  0.74455696  0.60045277  0.37088858  1
  O  O247  1  0.74053979  0.59252224  0.61720346  1
  O  O248  1  0.74174438  0.59348742  0.87920891  1
  O  O249  1  0.74963980  0.86722176  0.15444162  1
  O  O250  1  0.75937375  0.88372192  0.35360860  1
  O  O251  1  0.76323439  0.90209409  0.66518240  1
  O  O252  1  0.74830992  0.89202931  0.86987129  1
  O  O253  1  0.11563647  0.00846635  0.13763850  1
  O  O254  1  0.12306821  -0.00138365  0.37059479  1
  O  O255  1  0.10751641  -0.00534333  0.64927598  1
  O  O256  1  0.10176589  0.00339141  0.82642434  1
  O  O257  1  0.11978395  0.25018963  0.13924785  1
  O  O258  1  0.13820840  0.25109255  0.40188994  1
  O  O259  1  0.13016380  0.25994601  0.58919441  1
  O  O260  1  0.15807475  0.24486956  0.88552088  1
  O  O261  1  0.12624294  0.49113616  0.14731031  1
  O  O262  1  0.10665686  0.50145700  0.35136815  1
  O  O263  1  0.13346818  0.49674781  0.65342742  1
  O  O264  1  0.11655282  0.48640078  0.86571913  1
  O  O265  1  0.13663431  0.73333037  0.11555350  1
  O  O266  1  0.13781515  0.73705181  0.39241005  1
  O  O267  1  0.13667564  0.73609707  0.60898063  1
  O  O268  1  0.14589911  0.75254941  0.91272091  1
  O  O269  1  0.35810584  -0.00459959  0.15409107  1
  O  O270  1  0.38246752  -0.00074503  0.36142965  1
  O  O271  1  0.41799368  0.00605883  0.63196185  1
  O  O272  1  0.40278419  -0.00775648  0.87879041  1
  O  O273  1  0.38984088  0.24021050  0.11624723  1
  O  O274  1  0.37729517  0.24882203  0.40007327  1
  O  O275  1  0.36707933  0.24689021  0.59485278  1
  O  O276  1  0.34366406  0.24221265  0.88969816  1
  O  O277  1  0.38207378  0.50080502  0.12685240  1
  O  O278  1  0.40511194  0.48994407  0.36096439  1
  O  O279  1  0.38296412  0.49051873  0.65551695  1
  O  O280  1  0.39204906  0.49684794  0.86744776  1
  O  O281  1  0.37551883  0.74684798  0.11363891  1
  O  O282  1  0.36457097  0.73803047  0.40167977  1
  O  O283  1  0.37091881  0.74635589  0.58726961  1
  O  O284  1  0.35070043  0.75042891  0.88952228  1
  O  O285  1  0.63082573  0.00280590  0.14837301  1
  O  O286  1  0.63586027  0.00613854  0.35570336  1
  O  O287  1  0.59811959  0.00091487  0.62374067  1
  O  O288  1  0.60982987  0.00043769  0.89099778  1
  O  O289  1  0.59917446  0.24323602  0.11518921  1
  O  O290  1  0.62969246  0.25327993  0.38909267  1
  O  O291  1  0.65090085  0.25358202  0.60804933  1
  O  O292  1  0.64278862  0.24653827  0.88261687  1
  O  O293  1  0.62102061  0.49318110  0.12955299  1
  O  O294  1  0.59812434  0.49889524  0.36750793  1
  O  O295  1  0.60106267  0.49109882  0.64193802  1
  O  O296  1  0.61408022  0.48756614  0.85047376  1
  O  O297  1  0.60363998  0.75783914  0.12810435  1
  O  O298  1  0.62941896  0.74344242  0.36646583  1
  O  O299  1  0.63685915  0.74226200  0.63639264  1
  O  O300  1  0.64960998  0.74615400  0.88329280  1
  O  O301  1  0.87987494  -0.00190428  0.15122587  1
  O  O302  1  0.87820081  0.01643088  0.35197430  1
  O  O303  1  0.91103828  0.01774199  0.66190597  1
  O  O304  1  0.88957169  0.00982410  0.83007666  1
  O  O305  1  0.88363954  0.24976958  0.08862516  1
  O  O306  1  0.85956012  0.25452576  0.39977987  1
  O  O307  1  0.85827322  0.25168873  0.60550918  1
  O  O308  1  0.86369064  0.24582364  0.90517796  1
  O  O309  1  0.85065619  0.50120280  0.14149229  1
  O  O310  1  0.87671172  0.49956000  0.33396938  1
  O  O311  1  0.87765829  0.49838579  0.64467008  1
  O  O312  1  0.91059987  0.49751872  0.86986050  1
  O  O313  1  0.87734249  0.75038214  0.10386449  1
  O  O314  1  0.84003251  0.73694274  0.40064098  1
  O  O315  1  0.84695397  0.75794368  0.59505982  1
  O  O316  1  0.83848800  0.75428535  0.86983281  1
