# generated using pymatgen
data_Mg32Ti42(Bi17O64)3
_symmetry_space_group_name_H-M   'P 1'
_cell_length_a   15.94469123
_cell_length_b   15.93904394
_cell_length_c   15.97296671
_cell_angle_alpha   89.86659389
_cell_angle_beta   89.92179322
_cell_angle_gamma   89.99030054
_symmetry_Int_Tables_number   1
_chemical_formula_structural   Mg32Ti42(Bi17O64)3
_chemical_formula_sum   'Mg32 Ti42 Bi51 O192'
_cell_volume   4059.40498018
_cell_formula_units_Z   1
loop_
 _symmetry_equiv_pos_site_id
 _symmetry_equiv_pos_as_xyz
  1  'x, y, z'
loop_
 _atom_site_type_symbol
 _atom_site_label
 _atom_site_symmetry_multiplicity
 _atom_site_fract_x
 _atom_site_fract_y
 _atom_site_fract_z
 _atom_site_occupancy
  Mg  Mg0  1  0.63420016  0.11949456  0.35896952  1
  Mg  Mg1  1  0.36189723  0.10961964  0.38989056  1
  Mg  Mg2  1  0.12550030  0.87495873  0.87071943  1
  Mg  Mg3  1  0.37588691  0.12220901  0.11396757  1
  Mg  Mg4  1  0.13480270  0.39151065  0.86323982  1
  Mg  Mg5  1  0.87424010  0.62692619  0.37378347  1
  Mg  Mg6  1  0.36659008  0.12502829  0.63095372  1
  Mg  Mg7  1  0.37044821  0.37498868  0.37789001  1
  Mg  Mg8  1  0.65027200  0.88365788  0.35986823  1
  Mg  Mg9  1  0.87307701  0.36728674  0.10950871  1
  Mg  Mg10  1  0.87634007  0.88862185  0.12112339  1
  Mg  Mg11  1  0.36428023  0.86819071  0.60980958  1
  Mg  Mg12  1  0.37854474  0.62890128  0.38818701  1
  Mg  Mg13  1  0.62471944  0.11465434  0.61904077  1
  Mg  Mg14  1  0.87442951  0.63385836  0.62123279  1
  Mg  Mg15  1  0.88609210  0.12778354  0.35588302  1
  Mg  Mg16  1  0.12471565  0.63075684  0.37079811  1
  Mg  Mg17  1  0.62159248  0.62212469  0.62599753  1
  Mg  Mg18  1  0.38378071  0.37082854  0.12519023  1
  Mg  Mg19  1  0.26329812  0.02692052  0.52259853  1
  Mg  Mg20  1  0.76456523  0.01470594  0.46404447  1
  Mg  Mg21  1  0.23851296  0.33160696  0.01087414  1
  Mg  Mg22  1  0.01882654  0.00572289  0.24189068  1
  Mg  Mg23  1  0.20477386  0.56177703  0.50413102  1
  Mg  Mg24  1  0.75465324  0.03406943  0.23435015  1
  Mg  Mg25  1  0.51053314  -0.06013708  0.26220942  1
  Mg  Mg26  1  0.20321853  0.76808018  0.02395594  1
  Mg  Mg27  1  0.01278698  -0.05285444  -0.01305543  1
  Mg  Mg28  1  0.69899714  0.21353050  -0.00439829  1
  Mg  Mg29  1  0.24081371  0.52199515  0.70794804  1
  Mg  Mg30  1  0.25690989  -0.00677929  0.71887659  1
  Mg  Mg31  1  0.23645351  0.76917558  0.48657964  1
  Ti  Ti32  1  0.86965639  0.12516260  0.88674922  1
  Ti  Ti33  1  0.13725528  0.38321758  0.38054989  1
  Ti  Ti34  1  0.37789860  0.62816045  0.62145127  1
  Ti  Ti35  1  0.36245720  0.86668910  0.87444396  1
  Ti  Ti36  1  0.13701959  0.63602632  0.14019751  1
  Ti  Ti37  1  0.12428751  0.87842400  0.36664039  1
  Ti  Ti38  1  0.11672898  0.11785964  0.12204558  1
  Ti  Ti39  1  0.36862960  0.38975566  0.87671449  1
  Ti  Ti40  1  0.88287324  0.12611460  0.62437880  1
  Ti  Ti41  1  0.37628484  0.36646785  0.61757735  1
  Ti  Ti42  1  0.13082857  0.63580004  0.86482309  1
  Ti  Ti43  1  0.62633923  0.36922965  0.61370728  1
  Ti  Ti44  1  0.61458624  0.11644324  0.12451324  1
  Ti  Ti45  1  0.37583630  0.86755107  0.12895466  1
  Ti  Ti46  1  0.12351997  0.38976553  0.62481466  1
  Ti  Ti47  1  0.37289229  0.62389875  0.85468329  1
  Ti  Ti48  1  0.61904591  0.86286002  0.12462700  1
  Ti  Ti49  1  0.12428523  0.12365478  0.37074430  1
  Ti  Ti50  1  0.12522312  0.10961683  0.87057801  1
  Ti  Ti51  1  0.35393215  0.11546448  0.87586977  1
  Ti  Ti52  1  0.10692377  0.63982255  0.63587483  1
  Ti  Ti53  1  0.88697545  0.12228924  0.11579543  1
  Ti  Ti54  1  0.12713041  0.88256565  0.60949295  1
  Ti  Ti55  1  0.12852787  0.14095170  0.63836687  1
  Ti  Ti56  1  0.36552595  0.87616825  0.38859930  1
  Ti  Ti57  1  0.61974765  0.61900410  0.12063380  1
  Ti  Ti58  1  0.86785426  0.37755452  0.37563206  1
  Ti  Ti59  1  0.86906853  0.37544788  0.62863853  1
  Ti  Ti60  1  0.10933355  0.88259194  0.12908341  1
  Ti  Ti61  1  0.62881469  0.61690539  0.36661264  1
  Ti  Ti62  1  0.87433697  0.88885374  0.35536140  1
  Ti  Ti63  1  0.62087003  0.61243149  0.87255014  1
  Ti  Ti64  1  0.87528001  0.88892758  0.88118186  1
  Ti  Ti65  1  0.61975438  0.10713995  0.87461319  1
  Ti  Ti66  1  0.63204642  0.36217436  0.36975688  1
  Ti  Ti67  1  0.87933048  0.88784301  0.60881743  1
  Ti  Ti68  1  0.62365828  0.88859741  0.62684171  1
  Ti  Ti69  1  0.62270687  0.87451632  0.87102514  1
  Ti  Ti70  1  0.62066207  0.36142885  0.11719753  1
  Ti  Ti71  1  0.62859931  0.36017546  0.87486801  1
  Ti  Ti72  1  0.37557223  0.62243004  0.12934601  1
  Ti  Ti73  1  0.86088341  0.36065476  0.87634516  1
  Bi  Bi74  1  0.50117520  0.73331881  0.25178768  1
  Bi  Bi75  1  0.48744373  0.48125077  0.27201680  1
  Bi  Bi76  1  -0.04029145  0.51760006  0.21844121  1
  Bi  Bi77  1  0.00978220  0.00364210  0.74895178  1
  Bi  Bi78  1  0.48789184  -0.02594175  -0.00314938  1
  Bi  Bi79  1  0.02411959  0.24970679  -0.01466204  1
  Bi  Bi80  1  0.01544883  0.29659452  0.22496108  1
  Bi  Bi81  1  0.24878614  0.55610512  -0.00397072  1
  Bi  Bi82  1  0.25310846  0.47233616  0.22353798  1
  Bi  Bi83  1  0.27529925  0.00983602  0.22760431  1
  Bi  Bi84  1  0.74138406  -0.01574670  0.02499310  1
  Bi  Bi85  1  0.52896608  0.00718129  0.46328525  1
  Bi  Bi86  1  -0.00838686  0.00390533  0.46880377  1
  Bi  Bi87  1  -0.00500345  0.50271875  0.46874434  1
  Bi  Bi88  1  0.26602533  0.72506004  0.27542984  1
  Bi  Bi89  1  0.01462700  0.75156828  0.47258512  1
  Bi  Bi90  1  0.74336865  0.46783733  0.22632976  1
  Bi  Bi91  1  -0.00236138  0.25809723  0.48803970  1
  Bi  Bi92  1  -0.02023713  0.50000675  0.76669958  1
  Bi  Bi93  1  0.75899432  0.72057149  0.22666433  1
  Bi  Bi94  1  -0.02220830  0.70823215  0.00379328  1
  Bi  Bi95  1  0.49206785  0.72983942  -0.02113294  1
  Bi  Bi96  1  0.46935446  0.24754419  -0.02668980  1
  Bi  Bi97  1  0.47864435  0.23750989  0.47290549  1
  Bi  Bi98  1  0.24613118  0.24912722  0.21705090  1
  Bi  Bi99  1  0.76313026  0.23507517  0.21493473  1
  Bi  Bi100  1  0.25616798  0.29121026  0.74745820  1
  Bi  Bi101  1  0.48498621  0.50032608  0.49823522  1
  Bi  Bi102  1  0.51325405  0.48144473  -0.00584091  1
  Bi  Bi103  1  0.74692213  0.51585294  0.51469791  1
  Bi  Bi104  1  0.80535162  0.51834677  -0.00915822  1
  Bi  Bi105  1  0.22982811  0.77815208  0.73644426  1
  Bi  Bi106  1  0.24349023  -0.02814544  0.00289562  1
  Bi  Bi107  1  0.49927091  0.49189097  0.72712718  1
  Bi  Bi108  1  0.23110149  0.23416379  0.49328952  1
  Bi  Bi109  1  0.46760935  0.20772259  0.25772995  1
  Bi  Bi110  1  0.76106563  0.77076457  0.72069915  1
  Bi  Bi111  1  -0.00571045  0.26376328  0.76135579  1
  Bi  Bi112  1  0.74437953  0.23886447  0.72535531  1
  Bi  Bi113  1  0.47311862  0.00712012  0.73488535  1
  Bi  Bi114  1  0.04360121  0.47602835  0.01562805  1
  Bi  Bi115  1  0.50807304  0.24157550  0.72759115  1
  Bi  Bi116  1  0.75755359  0.21343194  0.47913290  1
  Bi  Bi117  1  0.75923891  0.73441219  0.48013886  1
  Bi  Bi118  1  -0.02230971  0.74327520  0.22158012  1
  Bi  Bi119  1  -0.03050232  0.73522760  0.78209642  1
  Bi  Bi120  1  0.52774460  0.77776904  0.48606019  1
  Bi  Bi121  1  0.76406819  0.54131261  0.75358091  1
  Bi  Bi122  1  0.74939219  0.74610994  -0.02259091  1
  Bi  Bi123  1  0.75996742  0.01849610  0.74320018  1
  Bi  Bi124  1  0.50795649  0.75456150  0.71980716  1
  O  O125  1  0.10712278  0.13744403  0.00874795  1
  O  O126  1  0.11936035  0.09597185  0.26206350  1
  O  O127  1  0.10866638  0.16611181  0.52354927  1
  O  O128  1  0.14357048  0.08118477  0.75315021  1
  O  O129  1  0.11533318  0.35972108  -0.00790790  1
  O  O130  1  0.11714692  0.39334028  0.26758671  1
  O  O131  1  0.11983970  0.34526250  0.51268301  1
  O  O132  1  0.17254963  0.40853052  0.74102650  1
  O  O133  1  0.13801420  0.66019719  -0.01085306  1
  O  O134  1  0.15281163  0.61436501  0.24958174  1
  O  O135  1  0.12521327  0.65974822  0.51920128  1
  O  O136  1  0.15263156  0.60364431  0.74605007  1
  O  O137  1  0.11029086  0.86307698  0.00900679  1
  O  O138  1  0.10363337  0.90417420  0.25436198  1
  O  O139  1  0.12765454  0.84293482  0.49683728  1
  O  O140  1  0.15968505  0.89888178  0.74193316  1
  O  O141  1  0.39273515  0.13246100  -0.00858445  1
  O  O142  1  0.37045036  0.10489321  0.26373538  1
  O  O143  1  0.38095093  0.15333073  0.50865550  1
  O  O144  1  0.35125054  0.08272604  0.75985043  1
  O  O145  1  0.36956825  0.34628687  -0.00063300  1
  O  O146  1  0.37397984  0.40279613  0.25083549  1
  O  O147  1  0.39924972  0.36157497  0.50444608  1
  O  O148  1  0.36098385  0.39204172  0.75834528  1
  O  O149  1  0.39264156  0.63506809  0.01010906  1
  O  O150  1  0.34048470  0.60798897  0.25009218  1
  O  O151  1  0.41962512  0.62695254  0.51066179  1
  O  O152  1  0.35601330  0.58745580  0.74859312  1
  O  O153  1  0.40680295  0.85897135  0.00955477  1
  O  O154  1  0.37818597  0.90880542  0.24981834  1
  O  O155  1  0.35685851  0.82336081  0.48972597  1
  O  O156  1  0.33621918  0.88711560  0.76431676  1
  O  O157  1  0.62038829  0.10568532  0.00136262  1
  O  O158  1  0.66312788  0.13646033  0.23586398  1
  O  O159  1  0.64393932  0.07625354  0.49690568  1
  O  O160  1  0.65235206  0.13748245  0.76422704  1
  O  O161  1  0.62097601  0.39494339  0.00312790  1
  O  O162  1  0.64032877  0.36157205  0.24938998  1
  O  O163  1  0.61710663  0.38374804  0.50201163  1
  O  O164  1  0.63067303  0.35210717  0.76253425  1
  O  O165  1  0.58891736  0.60912382  0.00592549  1
  O  O166  1  0.63622071  0.65239098  0.24343811  1
  O  O167  1  0.63949234  0.60486243  0.49060079  1
  O  O168  1  0.64440630  0.63579963  0.76227094  1
  O  O169  1  0.61161045  0.90238530  0.00040316  1
  O  O170  1  0.61705751  0.85809686  0.24122772  1
  O  O171  1  0.61417927  0.89194672  0.50519835  1
  O  O172  1  0.62755288  0.85167168  0.75598058  1
  O  O173  1  0.90591676  0.11092399  -0.00125236  1
  O  O174  1  0.84716600  0.12889567  0.23806547  1
  O  O175  1  0.87155527  0.10369074  0.51062770  1
  O  O176  1  0.84825241  0.13908704  0.75608953  1
  O  O177  1  0.89125492  0.39194669  -0.01280050  1
  O  O178  1  0.87094115  0.37085592  0.26007205  1
  O  O179  1  0.88394848  0.39382193  0.51571217  1
  O  O180  1  0.86531037  0.34011687  0.75294939  1
  O  O181  1  0.90858097  0.59550331  -0.00142852  1
  O  O182  1  0.87891398  0.64698865  0.24889872  1
  O  O183  1  0.84519636  0.61552699  0.49843055  1
  O  O184  1  0.85203694  0.65170312  0.74726947  1
  O  O185  1  0.88842884  0.91170107  -0.00621783  1
  O  O186  1  0.88079596  0.85490368  0.24745698  1
  O  O187  1  0.85591528  0.92590612  0.50227146  1
  O  O188  1  0.86761232  0.85132032  0.75261520  1
  O  O189  1  0.00055203  0.09408407  0.14922244  1
  O  O190  1  0.00725510  0.14223857  0.39673995  1
  O  O191  1  0.00300163  0.11379161  0.65035853  1
  O  O192  1  -0.00073324  0.09917855  0.84490998  1
  O  O193  1  -0.00336527  0.40255178  0.13738130  1
  O  O194  1  0.00031730  0.37171331  0.39451412  1
  O  O195  1  0.00882497  0.38140116  0.65301713  1
  O  O196  1  0.00850408  0.38239278  0.83926683  1
  O  O197  1  0.01521801  0.62338819  0.13879232  1
  O  O198  1  -0.00097726  0.62604769  0.39613173  1
  O  O199  1  -0.00308763  0.61939089  0.64102381  1
  O  O200  1  0.01137047  0.61928820  0.85132940  1
  O  O201  1  0.00220188  0.91939430  0.12361655  1
  O  O202  1  -0.00615121  0.87601550  0.40177285  1
  O  O203  1  -0.00217995  0.88610924  0.60918390  1
  O  O204  1  -0.00503171  0.89971866  0.86431341  1
  O  O205  1  0.24346829  0.13397801  0.14074320  1
  O  O206  1  0.23594938  0.11322921  0.42135446  1
  O  O207  1  0.24204770  0.13741561  0.60868827  1
  O  O208  1  0.24266142  0.13048194  0.88952805  1
  O  O209  1  0.25188197  0.35823735  0.13248502  1
  O  O210  1  0.24864012  0.38811997  0.37591693  1
  O  O211  1  0.25969291  0.35834194  0.61644257  1
  O  O212  1  0.25431031  0.35462743  0.88666099  1
  O  O213  1  0.25285346  0.66237074  0.10503498  1
  O  O214  1  0.25046241  0.65841780  0.40676119  1
  O  O215  1  0.26581872  0.60142055  0.60666543  1
  O  O216  1  0.25961542  0.64098685  0.87921337  1
  O  O217  1  0.25733479  0.85953251  0.10253917  1
  O  O218  1  0.24018930  0.85289170  0.36665214  1
  O  O219  1  0.23966155  0.83183482  0.60969378  1
  O  O220  1  0.25317426  0.84989028  0.91723536  1
  O  O221  1  0.50497405  0.10923161  0.14574035  1
  O  O222  1  0.50488662  0.13027162  0.38523191  1
  O  O223  1  0.49542230  0.11854575  0.65521982  1
  O  O224  1  0.50783990  0.09223387  0.85068877  1
  O  O225  1  0.50687159  0.39963420  0.12365387  1
  O  O226  1  0.51299086  0.37332623  0.36216491  1
  O  O227  1  0.50309878  0.36435420  0.65065305  1
  O  O228  1  0.49452587  0.37584311  0.88792338  1
  O  O229  1  0.49242444  0.61806150  0.15820796  1
  O  O230  1  0.51058227  0.63400568  0.35397378  1
  O  O231  1  0.50036552  0.61868902  0.66242778  1
  O  O232  1  0.49771104  0.62517949  0.86633937  1
  O  O233  1  0.50149548  0.90970258  0.13461323  1
  O  O234  1  0.48713398  0.87615876  0.38094233  1
  O  O235  1  0.49442388  0.86830976  0.63603342  1
  O  O236  1  0.50256726  0.89164907  0.87213035  1
  O  O237  1  0.76383692  0.16729717  0.09518592  1
  O  O238  1  0.76148025  0.11410222  0.38585735  1
  O  O239  1  0.75526109  0.13213849  0.62680204  1
  O  O240  1  0.75896903  0.14404563  0.90690384  1
  O  O241  1  0.74574613  0.36950534  0.12506171  1
  O  O242  1  0.75222906  0.38876089  0.38893240  1
  O  O243  1  0.74899036  0.36633774  0.62233310  1
  O  O244  1  0.74847925  0.34815244  0.89336640  1
  O  O245  1  0.73311355  0.65205127  0.10733837  1
  O  O246  1  0.74882271  0.64781792  0.36134972  1
  O  O247  1  0.74562355  0.60109713  0.62500396  1
  O  O248  1  0.73868967  0.62125645  0.90728756  1
  O  O249  1  0.74067755  0.85898454  0.09820116  1
  O  O250  1  0.76548180  0.93771935  0.35535527  1
  O  O251  1  0.74307065  0.88637122  0.63479298  1
  O  O252  1  0.75165332  0.85822765  0.88837263  1
  O  O253  1  0.15399269  -0.00214467  0.11780359  1
  O  O254  1  0.11380077  -0.00184036  0.40126160  1
  O  O255  1  0.15345904  -0.00845798  0.59347871  1
  O  O256  1  0.12338668  -0.00025351  0.91244999  1
  O  O257  1  0.11454512  0.23755184  0.14944591  1
  O  O258  1  0.14384021  0.24714977  0.37100611  1
  O  O259  1  0.12590767  0.25028462  0.67573339  1
  O  O260  1  0.09603481  0.23401561  0.86731068  1
  O  O261  1  0.14796013  0.52018245  0.09986305  1
  O  O262  1  0.12761781  0.50400173  0.41515786  1
  O  O263  1  0.13568401  0.50059082  0.59936032  1
  O  O264  1  0.13679797  0.51215264  0.90623571  1
  O  O265  1  0.11393326  0.76046459  0.14192935  1
  O  O266  1  0.09724434  0.75742828  0.35988229  1
  O  O267  1  0.10686860  0.75169434  0.66463156  1
  O  O268  1  0.11397773  0.75120295  0.84403121  1
  O  O269  1  0.34810490  -0.00247139  0.11055442  1
  O  O270  1  0.35002604  -0.01416829  0.42259135  1
  O  O271  1  0.34010743  -0.00748798  0.61833293  1
  O  O272  1  0.36169036  -0.01108025  0.90548741  1
  O  O273  1  0.37938966  0.24424775  0.15753123  1
  O  O274  1  0.38492505  0.24794540  0.36569981  1
  O  O275  1  0.38301572  0.25244109  0.66050373  1
  O  O276  1  0.39448952  0.23208320  0.85787843  1
  O  O277  1  0.34667038  0.50791608  0.11449115  1
  O  O278  1  0.40315737  0.50198119  0.38917429  1
  O  O279  1  0.40292927  0.48988232  0.61650327  1
  O  O280  1  0.36955946  0.50312443  0.89720319  1
  O  O281  1  0.38925153  0.75410996  0.15634741  1
  O  O282  1  0.38373197  0.75003414  0.33839134  1
  O  O283  1  0.38092663  0.73925778  0.65471215  1
  O  O284  1  0.39340585  0.74897843  0.86266702  1
  O  O285  1  0.65948116  0.00612394  0.13875155  1
  O  O286  1  0.59362117  -0.00310215  0.34374422  1
  O  O287  1  0.61103267  -0.00421088  0.66041738  1
  O  O288  1  0.65259151  -0.00437251  0.86222480  1
  O  O289  1  0.61439420  0.24816401  0.09766057  1
  O  O290  1  0.64585059  0.24887704  0.39081790  1
  O  O291  1  0.61774781  0.24593357  0.62612511  1
  O  O292  1  0.61218044  0.24473955  0.90222824  1
  O  O293  1  0.64002581  0.50656074  0.13993044  1
  O  O294  1  0.62734318  0.50354263  0.35118624  1
  O  O295  1  0.61135619  0.48859714  0.64123202  1
  O  O296  1  0.61633315  0.49536630  0.87014902  1
  O  O297  1  0.59026535  0.75372679  0.10417885  1
  O  O298  1  0.63224535  0.76005269  0.39860881  1
  O  O299  1  0.60987675  0.75111583  0.61349442  1
  O  O300  1  0.62370670  0.75234962  0.90511534  1
  O  O301  1  0.83330172  0.00957330  0.13223749  1
  O  O302  1  0.92895790  0.00463575  0.34100782  1
  O  O303  1  0.87683457  0.00079269  0.66122478  1
  O  O304  1  0.84998762  0.00410234  0.85334106  1
  O  O305  1  0.91029737  0.24614184  0.13037624  1
  O  O306  1  0.86859916  0.25456277  0.40058589  1
  O  O307  1  0.89018939  0.24597660  0.61326977  1
  O  O308  1  0.90799544  0.24538663  0.88530333  1
  O  O309  1  0.85205303  0.49849132  0.13830839  1
  O  O310  1  0.89033271  0.49832815  0.37285669  1
  O  O311  1  0.86991933  0.49090023  0.66455967  1
  O  O312  1  0.86363316  0.48360058  0.85087950  1
  O  O313  1  0.90395078  0.76200818  0.10801210  1
  O  O314  1  0.86183748  0.77280451  0.39839615  1
  O  O315  1  0.85506458  0.76538404  0.60434119  1
  O  O316  1  0.89314905  0.76014286  0.89962674  1
