# generated using pymatgen
data_Mg32Ti42(Bi17O64)3
_symmetry_space_group_name_H-M   'P 1'
_cell_length_a   15.96137785
_cell_length_b   15.97165458
_cell_length_c   15.91792278
_cell_angle_alpha   90.08770820
_cell_angle_beta   89.94757525
_cell_angle_gamma   89.97925245
_symmetry_Int_Tables_number   1
_chemical_formula_structural   Mg32Ti42(Bi17O64)3
_chemical_formula_sum   'Mg32 Ti42 Bi51 O192'
_cell_volume   4057.94318489
_cell_formula_units_Z   1
loop_
 _symmetry_equiv_pos_site_id
 _symmetry_equiv_pos_as_xyz
  1  'x, y, z'
loop_
 _atom_site_type_symbol
 _atom_site_label
 _atom_site_symmetry_multiplicity
 _atom_site_fract_x
 _atom_site_fract_y
 _atom_site_fract_z
 _atom_site_occupancy
  Mg  Mg0  1  0.12967796  0.88623541  0.37500221  1
  Mg  Mg1  1  0.61500021  0.12829396  0.63099173  1
  Mg  Mg2  1  0.63377865  0.62381721  0.62405563  1
  Mg  Mg3  1  0.87261955  0.86963646  0.63512069  1
  Mg  Mg4  1  0.61403377  0.37947323  0.62207674  1
  Mg  Mg5  1  0.37771669  0.87327364  0.11111474  1
  Mg  Mg6  1  0.38328534  0.63278075  0.37918442  1
  Mg  Mg7  1  0.37748788  0.37191944  0.12557016  1
  Mg  Mg8  1  0.62791472  0.38210719  0.87722395  1
  Mg  Mg9  1  0.36412956  0.13046899  0.87047979  1
  Mg  Mg10  1  0.36989787  0.12073465  0.11527591  1
  Mg  Mg11  1  0.13095063  0.61387327  0.38340279  1
  Mg  Mg12  1  0.62390994  0.12729642  0.87667593  1
  Mg  Mg13  1  0.87293235  0.13317765  0.86972497  1
  Mg  Mg14  1  0.37831808  0.62456582  0.12101243  1
  Mg  Mg15  1  0.11966133  0.88300402  0.12974171  1
  Mg  Mg16  1  0.63203271  0.63109997  0.88282043  1
  Mg  Mg17  1  0.37292382  0.12802933  0.61674885  1
  Mg  Mg18  1  0.37447173  0.63094704  0.87530596  1
  Mg  Mg19  1  0.28787348  0.53565899  0.49884615  1
  Mg  Mg20  1  0.45345609  0.00162398  -0.04467056  1
  Mg  Mg21  1  0.23575057  -0.05717936  0.00682798  1
  Mg  Mg22  1  0.22804154  0.24367797  0.47069293  1
  Mg  Mg23  1  0.52434474  0.07114896  0.44618271  1
  Mg  Mg24  1  0.71054770  0.45658017  0.25492089  1
  Mg  Mg25  1  0.23037407  0.78616537  0.23858449  1
  Mg  Mg26  1  0.22291229  0.79638414  0.75687485  1
  Mg  Mg27  1  0.50129764  0.68875470  0.24201790  1
  Mg  Mg28  1  -0.04232176  -0.07354689  0.28888495  1
  Mg  Mg29  1  0.75879191  0.47029105  0.73705421  1
  Mg  Mg30  1  0.51346176  0.23215130  0.75362341  1
  Mg  Mg31  1  0.04333892  0.26223070  0.72278512  1
  Ti  Ti32  1  0.87845022  0.87420805  0.87156613  1
  Ti  Ti33  1  0.13373620  0.62594780  0.86679628  1
  Ti  Ti34  1  0.36891271  0.38755673  0.60094759  1
  Ti  Ti35  1  0.13740677  0.37655772  0.61752839  1
  Ti  Ti36  1  0.12527832  0.37029362  0.36545268  1
  Ti  Ti37  1  0.12746261  0.13199979  0.62222576  1
  Ti  Ti38  1  0.12269650  0.13035595  0.87444950  1
  Ti  Ti39  1  0.36254403  0.11625521  0.37584400  1
  Ti  Ti40  1  0.87236703  0.62245680  0.86103926  1
  Ti  Ti41  1  0.88013236  0.62155502  0.13775163  1
  Ti  Ti42  1  0.11876586  0.89003403  0.62457801  1
  Ti  Ti43  1  0.11898135  0.88789837  0.88172914  1
  Ti  Ti44  1  0.87339770  0.12356828  0.62905196  1
  Ti  Ti45  1  0.62909623  0.36364748  0.11421521  1
  Ti  Ti46  1  0.64088472  0.62114477  0.13281216  1
  Ti  Ti47  1  0.87100438  0.37106647  0.86903736  1
  Ti  Ti48  1  0.38275354  0.86849757  0.63383911  1
  Ti  Ti49  1  0.62537104  0.87610946  0.62315903  1
  Ti  Ti50  1  0.35899032  0.87551509  0.87067859  1
  Ti  Ti51  1  0.37731745  0.64487838  0.62524523  1
  Ti  Ti52  1  0.63549124  0.61979935  0.36696785  1
  Ti  Ti53  1  0.61822152  0.85955429  0.12297703  1
  Ti  Ti54  1  0.61713318  0.87452671  0.36490642  1
  Ti  Ti55  1  0.88701637  0.11903261  0.37256500  1
  Ti  Ti56  1  0.12455460  0.11969687  0.36771241  1
  Ti  Ti57  1  0.13706602  0.62475585  0.62007417  1
  Ti  Ti58  1  0.89093867  0.86995377  0.12779445  1
  Ti  Ti59  1  0.87306180  0.38268314  0.13106154  1
  Ti  Ti60  1  0.61700329  0.11657079  0.11175537  1
  Ti  Ti61  1  0.86824293  0.62428562  0.37788498  1
  Ti  Ti62  1  0.87551850  0.36668485  0.36880449  1
  Ti  Ti63  1  0.61204369  0.37624444  0.38265468  1
  Ti  Ti64  1  0.12193515  0.37716104  0.12979023  1
  Ti  Ti65  1  0.39301116  0.37344722  0.87317268  1
  Ti  Ti66  1  0.35817075  0.37896373  0.36234738  1
  Ti  Ti67  1  0.86500725  0.62357905  0.62282076  1
  Ti  Ti68  1  0.13442355  0.11401942  0.11282003  1
  Ti  Ti69  1  0.12771877  0.37518358  0.86172726  1
  Ti  Ti70  1  0.88057861  0.36338505  0.62957684  1
  Ti  Ti71  1  0.12310770  0.61547731  0.12741726  1
  Ti  Ti72  1  0.61653971  0.88338195  0.88319080  1
  Ti  Ti73  1  0.37796740  0.86539701  0.37999102  1
  Bi  Bi74  1  0.02439199  0.74616779  0.73488755  1
  Bi  Bi75  1  0.70922957  0.00671386  0.48206484  1
  Bi  Bi76  1  0.50989517  0.51033692  0.50326017  1
  Bi  Bi77  1  0.46347117  0.25233171  0.49702439  1
  Bi  Bi78  1  0.00457353  0.50866384  0.72511390  1
  Bi  Bi79  1  -0.00638401  0.73289661  -0.02503395  1
  Bi  Bi80  1  0.77161066  0.78793944  0.48244471  1
  Bi  Bi81  1  0.48735976  0.75221410  -0.01009538  1
  Bi  Bi82  1  0.72887755  0.21504331  0.49120014  1
  Bi  Bi83  1  0.48417856  0.22099853  -0.01364183  1
  Bi  Bi84  1  0.52135338  0.73524881  0.74349266  1
  Bi  Bi85  1  0.49747431  0.48910926  0.22368091  1
  Bi  Bi86  1  0.28208809  0.51698456  0.74648533  1
  Bi  Bi87  1  0.76730169  0.75145642  0.00735915  1
  Bi  Bi88  1  0.24587682  0.23871444  0.23881438  1
  Bi  Bi89  1  0.76070044  0.47855816  0.51397628  1
  Bi  Bi90  1  0.76264267  0.48732534  -0.01296739  1
  Bi  Bi91  1  0.71495503  0.25499458  0.74922619  1
  Bi  Bi92  1  -0.02707786  -0.01449611  0.50027802  1
  Bi  Bi93  1  0.27961185  0.54026625  0.26046714  1
  Bi  Bi94  1  0.49969635  0.22366869  0.24746797  1
  Bi  Bi95  1  0.52274763  0.74185538  0.47463605  1
  Bi  Bi96  1  0.26080499  -0.02087963  0.24197690  1
  Bi  Bi97  1  -0.00363241  0.47292736  0.49258283  1
  Bi  Bi98  1  -0.00095498  0.23444508  0.50341524  1
  Bi  Bi99  1  0.26032905  0.02675094  0.74670867  1
  Bi  Bi100  1  -0.00325918  0.76388567  0.48720550  1
  Bi  Bi101  1  0.00203113  0.50464162  0.26925299  1
  Bi  Bi102  1  0.23396223  0.74630023  0.03161885  1
  Bi  Bi103  1  0.72949418  0.00350048  0.73645574  1
  Bi  Bi104  1  -0.00453626  0.02019992  0.75207666  1
  Bi  Bi105  1  0.51602461  0.52087291  -0.01174721  1
  Bi  Bi106  1  0.73612255  0.76715033  0.77021660  1
  Bi  Bi107  1  0.77002265  0.77293198  0.24564362  1
  Bi  Bi108  1  0.77500610  0.02217645  0.20951659  1
  Bi  Bi109  1  0.27711596  -0.01812900  0.51142315  1
  Bi  Bi110  1  0.78498710  0.22391180  0.01787772  1
  Bi  Bi111  1  0.48606653  0.02749762  0.74330390  1
  Bi  Bi112  1  0.00671983  0.49725259  -0.01447986  1
  Bi  Bi113  1  0.23384220  0.75100378  0.46994706  1
  Bi  Bi114  1  -0.02936787  0.03769010  0.01145203  1
  Bi  Bi115  1  0.03605354  0.73627867  0.26966218  1
  Bi  Bi116  1  0.28421481  0.26536793  0.73437256  1
  Bi  Bi117  1  0.72575212  0.25079047  0.26424078  1
  Bi  Bi118  1  0.26736952  0.26967073  0.00651796  1
  Bi  Bi119  1  0.53534533  0.50346609  0.75420968  1
  Bi  Bi120  1  0.01819807  0.26951668  -0.00174178  1
  Bi  Bi121  1  -0.01939530  0.21151392  0.21460470  1
  Bi  Bi122  1  0.26201999  0.51208167  -0.00149750  1
  Bi  Bi123  1  0.49710882  -0.00775778  0.22217778  1
  Bi  Bi124  1  0.74468511  0.00396660  -0.01767349  1
  O  O125  1  0.10494675  0.14056315  -0.00166510  1
  O  O126  1  0.15015440  0.12447506  0.25081686  1
  O  O127  1  0.11873182  0.15805870  0.50460596  1
  O  O128  1  0.11700071  0.09759588  0.74931615  1
  O  O129  1  0.13287577  0.34761421  -0.00997017  1
  O  O130  1  0.10131655  0.38589248  0.24740119  1
  O  O131  1  0.15277924  0.35246733  0.50571863  1
  O  O132  1  0.09288324  0.38003219  0.74816028  1
  O  O133  1  0.11685819  0.64175584  -0.00112567  1
  O  O134  1  0.11978955  0.60435706  0.24679527  1
  O  O135  1  0.11553370  0.64852162  0.51021340  1
  O  O136  1  0.12779061  0.59605342  0.75172956  1
  O  O137  1  0.12742373  0.85500549  -0.00240847  1
  O  O138  1  0.15542639  0.88727276  0.25083465  1
  O  O139  1  0.10781550  0.84709195  0.50564843  1
  O  O140  1  0.13307086  0.88800962  0.74862209  1
  O  O141  1  0.40326622  0.10809017  -0.00806744  1
  O  O142  1  0.35593022  0.15413087  0.25871385  1
  O  O143  1  0.40755393  0.10633810  0.49378916  1
  O  O144  1  0.34462070  0.13546046  0.74297283  1
  O  O145  1  0.34239792  0.39223437  -0.00601720  1
  O  O146  1  0.38037711  0.33831591  0.25707940  1
  O  O147  1  0.34210915  0.42352735  0.49680546  1
  O  O148  1  0.41149719  0.32522829  0.75844121  1
  O  O149  1  0.37687120  0.58105844  -0.00097149  1
  O  O150  1  0.36893135  0.64822206  0.24970489  1
  O  O151  1  0.39673587  0.60047632  0.50931032  1
  O  O152  1  0.35914592  0.63640990  0.74462774  1
  O  O153  1  0.36502446  0.91640096  -0.01293300  1
  O  O154  1  0.33510307  0.85972242  0.26670623  1
  O  O155  1  0.38622746  0.89789340  0.50970591  1
  O  O156  1  0.34114589  0.84798884  0.74655332  1
  O  O157  1  0.58439969  0.10360441  0.00044786  1
  O  O158  1  0.63055992  0.15757797  0.23730228  1
  O  O159  1  0.61799511  0.12993488  0.50546695  1
  O  O160  1  0.66502673  0.12518622  0.75209756  1
  O  O161  1  0.65490080  0.39242743  0.00658958  1
  O  O162  1  0.62490789  0.35464023  0.25559044  1
  O  O163  1  0.64643773  0.39277102  0.49497745  1
  O  O164  1  0.63757127  0.41293476  0.74542271  1
  O  O165  1  0.63091839  0.61349201  0.01601725  1
  O  O166  1  0.63000437  0.65243578  0.25579960  1
  O  O167  1  0.60572316  0.61828720  0.49360407  1
  O  O168  1  0.60825907  0.62116561  0.75414319  1
  O  O169  1  0.62258677  0.87757607  0.00289155  1
  O  O170  1  0.63610652  0.86793307  0.25333501  1
  O  O171  1  0.60103309  0.86566252  0.51253426  1
  O  O172  1  0.65436504  0.88084697  0.75801587  1
  O  O173  1  0.89911882  0.14902341  -0.00297189  1
  O  O174  1  0.86105333  0.12447581  0.25643219  1
  O  O175  1  0.90934746  0.12123641  0.50188186  1
  O  O176  1  0.87468253  0.10431787  0.74653230  1
  O  O177  1  0.84295833  0.37619463  0.00436649  1
  O  O178  1  0.90671174  0.38673664  0.24975152  1
  O  O179  1  0.87134527  0.38323352  0.49835442  1
  O  O180  1  0.88172438  0.38997095  0.74912607  1
  O  O181  1  0.88285696  0.65915485  0.01318144  1
  O  O182  1  0.88218406  0.60532823  0.25601655  1
  O  O183  1  0.87622765  0.62689096  0.50318610  1
  O  O184  1  0.86731052  0.58640285  0.75301992  1
  O  O185  1  0.88722875  0.83724781  0.01153601  1
  O  O186  1  0.84494046  0.89718446  0.24288292  1
  O  O187  1  0.89343609  0.86264891  0.50645274  1
  O  O188  1  0.85990010  0.89020571  0.76049730  1
  O  O189  1  0.01614267  0.10197230  0.14016502  1
  O  O190  1  0.00624911  0.15403663  0.36603986  1
  O  O191  1  0.00356363  0.16105455  0.64055366  1
  O  O192  1  -0.00250808  0.09186028  0.87069513  1
  O  O193  1  -0.00444910  0.38877036  0.09044845  1
  O  O194  1  0.00662111  0.35742597  0.40039273  1
  O  O195  1  0.00311193  0.34344314  0.61530416  1
  O  O196  1  -0.01116958  0.38191942  0.90218223  1
  O  O197  1  0.00069892  0.61930674  0.12768664  1
  O  O198  1  0.00050278  0.65107876  0.37188951  1
  O  O199  1  0.00010445  0.63549295  0.64919250  1
  O  O200  1  0.00339823  0.62651081  0.87656283  1
  O  O201  1  -0.00310533  0.89459878  0.16474774  1
  O  O202  1  0.00990333  0.84074023  0.36217435  1
  O  O203  1  0.00400288  0.84289799  0.63841466  1
  O  O204  1  0.00137690  0.88192381  0.87060753  1
  O  O205  1  0.24586688  0.16186784  0.11653184  1
  O  O206  1  0.24826743  0.12723943  0.40315707  1
  O  O207  1  0.23932756  0.09807120  0.61847153  1
  O  O208  1  0.23565071  0.13461703  0.87066533  1
  O  O209  1  0.23734439  0.35090755  0.13033572  1
  O  O210  1  0.24451743  0.39633564  0.34769357  1
  O  O211  1  0.24913037  0.38926261  0.65337802  1
  O  O212  1  0.23986689  0.36686917  0.84541114  1
  O  O213  1  0.24712790  0.61459524  0.10954185  1
  O  O214  1  0.25646818  0.60295159  0.39982771  1
  O  O215  1  0.25091089  0.59652706  0.60626620  1
  O  O216  1  0.24824589  0.60727247  0.88553949  1
  O  O217  1  0.25311272  0.86093785  0.11116292  1
  O  O218  1  0.25172398  0.88392914  0.41434550  1
  O  O219  1  0.23749827  0.89289239  0.60898161  1
  O  O220  1  0.24585571  0.86807537  0.88047701  1
  O  O221  1  0.49595035  0.11697523  0.15479753  1
  O  O222  1  0.48359049  0.15339325  0.36208381  1
  O  O223  1  0.49337329  0.13850474  0.66160267  1
  O  O224  1  0.49769484  0.13200381  0.83989679  1
  O  O225  1  0.51281507  0.39404613  0.12055773  1
  O  O226  1  0.49934194  0.35977352  0.39557624  1
  O  O227  1  0.48344846  0.36892607  0.58214261  1
  O  O228  1  0.49818258  0.37902550  0.90914451  1
  O  O229  1  0.50696246  0.60611412  0.14527517  1
  O  O230  1  0.50749863  0.65112264  0.36340040  1
  O  O231  1  0.49269015  0.65922633  0.63159238  1
  O  O232  1  0.49903843  0.63627058  0.90822339  1
  O  O233  1  0.50110940  0.88797782  0.13428572  1
  O  O234  1  0.49538038  0.84973864  0.36862348  1
  O  O235  1  0.49504027  0.85825661  0.65623531  1
  O  O236  1  0.50415025  0.90429529  0.87997084  1
  O  O237  1  0.73772497  0.11739053  0.10130132  1
  O  O238  1  0.76513123  0.11124516  0.40526634  1
  O  O239  1  0.76056094  0.10956191  0.60417747  1
  O  O240  1  0.74959743  0.12791957  0.91805211  1
  O  O241  1  0.75341141  0.37227670  0.15811689  1
  O  O242  1  0.76552478  0.39949180  0.35395515  1
  O  O243  1  0.76159747  0.40042216  0.62818409  1
  O  O244  1  0.75855194  0.41682289  0.86059650  1
  O  O245  1  0.75632767  0.65475605  0.13274546  1
  O  O246  1  0.75181714  0.60194032  0.37851069  1
  O  O247  1  0.75423419  0.57835823  0.62733147  1
  O  O248  1  0.75913216  0.64331169  0.88045736  1
  O  O249  1  0.74483039  0.84580534  0.11841101  1
  O  O250  1  0.73548552  0.89111477  0.40043245  1
  O  O251  1  0.74398159  0.88390280  0.60584581  1
  O  O252  1  0.75957815  0.85216191  0.89592382  1
  O  O253  1  0.16669121  0.00563056  0.10039728  1
  O  O254  1  0.10898600  0.01096330  0.38764335  1
  O  O255  1  0.09231679  0.00038078  0.60822538  1
  O  O256  1  0.13936399  -0.00362547  0.90095939  1
  O  O257  1  0.09031087  0.25482813  0.13014914  1
  O  O258  1  0.15053133  0.25664435  0.36585364  1
  O  O259  1  0.14785490  0.24691930  0.65162260  1
  O  O260  1  0.08957664  0.24391433  0.84906259  1
  O  O261  1  0.12702528  0.49386231  0.10607969  1
  O  O262  1  0.09668148  0.49250742  0.38406824  1
  O  O263  1  0.10439400  0.49346865  0.61581115  1
  O  O264  1  0.11693104  0.49138272  0.89035268  1
  O  O265  1  0.14471769  0.74031202  0.14412579  1
  O  O266  1  0.16209839  0.74463855  0.34563046  1
  O  O267  1  0.14751186  0.73847913  0.66179165  1
  O  O268  1  0.13727941  0.74257244  0.84551367  1
  O  O269  1  0.37259315  -0.00238481  0.15540637  1
  O  O270  1  0.37200334  0.00274197  0.35614834  1
  O  O271  1  0.37275979  -0.00760464  0.65313529  1
  O  O272  1  0.37378413  -0.00019986  0.84174585  1
  O  O273  1  0.38911273  0.25077005  0.08775943  1
  O  O274  1  0.34831598  0.26775369  0.41931220  1
  O  O275  1  0.34728376  0.26013192  0.59647141  1
  O  O276  1  0.37083320  0.25370590  0.90347032  1
  O  O277  1  0.37253994  0.49358344  0.16177227  1
  O  O278  1  0.38728181  0.49597923  0.34468440  1
  O  O279  1  0.38421272  0.49315758  0.65331536  1
  O  O280  1  0.37781967  0.48836752  0.84353918  1
  O  O281  1  0.38448212  0.74581449  0.07983744  1
  O  O282  1  0.36091161  0.75487467  0.40728016  1
  O  O283  1  0.35081208  0.75297842  0.60245969  1
  O  O284  1  0.38798366  0.76217624  0.89375415  1
  O  O285  1  0.62494381  0.00231453  0.14564668  1
  O  O286  1  0.60111551  -0.00852299  0.38883697  1
  O  O287  1  0.61854805  -0.00358146  0.64304941  1
  O  O288  1  0.65630384  -0.00294754  0.86816979  1
  O  O289  1  0.61803698  0.25105351  0.09745388  1
  O  O290  1  0.65381038  0.26173990  0.38447776  1
  O  O291  1  0.61821496  0.25775642  0.65518421  1
  O  O292  1  0.61713116  0.25888392  0.84331798  1
  O  O293  1  0.64621099  0.50652459  0.15927918  1
  O  O294  1  0.61911707  0.49811085  0.35231363  1
  O  O295  1  0.58270864  0.50646426  0.61873012  1
  O  O296  1  0.60387795  0.50802181  0.88197114  1
  O  O297  1  0.59653176  0.74875159  0.12569988  1
  O  O298  1  0.64135350  0.75186689  0.39785680  1
  O  O299  1  0.63486366  0.75293253  0.65834498  1
  O  O300  1  0.62162988  0.75982608  0.86120592  1
  O  O301  1  0.85696802  -0.01244492  0.10101363  1
  O  O302  1  0.90939100  0.00625103  0.37182315  1
  O  O303  1  0.90264326  0.00272668  0.61917971  1
  O  O304  1  0.86457252  -0.00999725  0.91157124  1
  O  O305  1  0.88426205  0.26332093  0.12704342  1
  O  O306  1  0.85971503  0.25245130  0.37798947  1
  O  O307  1  0.85474585  0.25006069  0.62468252  1
  O  O308  1  0.85546610  0.26065795  0.87033061  1
  O  O309  1  0.86276810  0.50789548  0.11152640  1
  O  O310  1  0.91167515  0.50080367  0.38372435  1
  O  O311  1  0.91044838  0.49350718  0.61622336  1
  O  O312  1  0.88372309  0.51368869  0.90949309  1
  O  O313  1  0.88707694  0.75412586  0.16774167  1
  O  O314  1  0.84948699  0.74113610  0.37095453  1
  O  O315  1  0.84914452  0.73438350  0.64290091  1
  O  O316  1  0.89562725  0.74798119  0.86315418  1
