# generated using pymatgen
data_Mg32Ti42(Bi17O64)3
_symmetry_space_group_name_H-M   'P 1'
_cell_length_a   15.96124860
_cell_length_b   15.92799398
_cell_length_c   15.94897830
_cell_angle_alpha   89.85781756
_cell_angle_beta   89.96758903
_cell_angle_gamma   89.95353279
_symmetry_Int_Tables_number   1
_chemical_formula_structural   Mg32Ti42(Bi17O64)3
_chemical_formula_sum   'Mg32 Ti42 Bi51 O192'
_cell_volume   4054.70500131
_cell_formula_units_Z   1
loop_
 _symmetry_equiv_pos_site_id
 _symmetry_equiv_pos_as_xyz
  1  'x, y, z'
loop_
 _atom_site_type_symbol
 _atom_site_label
 _atom_site_symmetry_multiplicity
 _atom_site_fract_x
 _atom_site_fract_y
 _atom_site_fract_z
 _atom_site_occupancy
  Mg  Mg0  1  0.62885533  0.12957185  0.63197240  1
  Mg  Mg1  1  0.37449794  0.61962693  0.63923346  1
  Mg  Mg2  1  0.62035343  0.87476155  0.62029509  1
  Mg  Mg3  1  0.37887638  0.87369033  0.63153187  1
  Mg  Mg4  1  0.61254557  0.62884735  0.36920790  1
  Mg  Mg5  1  0.12767924  0.11466219  0.37358512  1
  Mg  Mg6  1  0.62696567  0.36132284  0.87140570  1
  Mg  Mg7  1  0.87716930  0.62503884  0.37490363  1
  Mg  Mg8  1  0.36912908  0.37734669  0.11928443  1
  Mg  Mg9  1  0.63366190  0.38228766  0.62565807  1
  Mg  Mg10  1  0.13301955  0.11625463  0.12544085  1
  Mg  Mg11  1  0.86792573  0.87145407  0.62203876  1
  Mg  Mg12  1  0.62182114  0.63715090  0.87419268  1
  Mg  Mg13  1  0.63793946  0.12305198  0.36253699  1
  Mg  Mg14  1  0.62349394  0.62649038  0.11818042  1
  Mg  Mg15  1  0.38160571  0.11618816  0.12290305  1
  Mg  Mg16  1  0.12012128  0.37969090  0.11727640  1
  Mg  Mg17  1  0.62973376  0.37382013  0.37722279  1
  Mg  Mg18  1  0.37504718  0.12234317  0.63342414  1
  Mg  Mg19  1  0.47697462  0.73026275  0.53471594  1
  Mg  Mg20  1  0.30667080  0.00888127  0.78819417  1
  Mg  Mg21  1  0.73882085  0.43200216  0.01390309  1
  Mg  Mg22  1  -0.01746705  0.72990368  -0.04067150  1
  Mg  Mg23  1  0.48730179  0.00292108  0.72921767  1
  Mg  Mg24  1  0.00420051  0.20522816  0.71078604  1
  Mg  Mg25  1  0.68388808  0.00860298  0.49680337  1
  Mg  Mg26  1  0.71514561  0.50061002  0.80713723  1
  Mg  Mg27  1  0.32634458  0.03436750  0.30468832  1
  Mg  Mg28  1  0.31570850  0.52174329  0.50156619  1
  Mg  Mg29  1  0.52512214  0.01099683  0.28552029  1
  Mg  Mg30  1  -0.01664076  0.70964456  0.72401102  1
  Mg  Mg31  1  0.30745428  -0.00336681  -0.01129556  1
  Ti  Ti32  1  0.62067240  0.12793440  0.86610442  1
  Ti  Ti33  1  0.38455626  0.87315741  0.87185506  1
  Ti  Ti34  1  0.12206517  0.37308596  0.62012305  1
  Ti  Ti35  1  0.87090796  0.37079282  0.87031534  1
  Ti  Ti36  1  0.12608689  0.61541653  0.38329381  1
  Ti  Ti37  1  0.87965820  0.36880837  0.37316383  1
  Ti  Ti38  1  0.36611351  0.38818210  0.36653634  1
  Ti  Ti39  1  0.11346506  0.63663645  0.10753844  1
  Ti  Ti40  1  0.38045170  0.62635226  0.35583465  1
  Ti  Ti41  1  0.12845085  0.38174850  0.38232433  1
  Ti  Ti42  1  0.87123057  0.12031824  0.62494864  1
  Ti  Ti43  1  0.62542704  0.11577521  0.12609358  1
  Ti  Ti44  1  0.87748788  0.36542032  0.62109628  1
  Ti  Ti45  1  0.87745468  0.12914881  0.86559777  1
  Ti  Ti46  1  0.87869403  0.11565213  0.36721893  1
  Ti  Ti47  1  0.86408866  0.62194650  0.86714126  1
  Ti  Ti48  1  0.88643159  0.86219573  0.12076678  1
  Ti  Ti49  1  0.11887682  0.85488197  0.63433352  1
  Ti  Ti50  1  0.37999342  0.36859419  0.87577870  1
  Ti  Ti51  1  0.36969375  0.61988886  0.12025273  1
  Ti  Ti52  1  0.14007832  0.88013979  0.86884151  1
  Ti  Ti53  1  0.62234016  0.62046028  0.62636267  1
  Ti  Ti54  1  0.87662491  0.86092910  0.87922126  1
  Ti  Ti55  1  0.39753015  0.12985913  0.87840071  1
  Ti  Ti56  1  0.86397033  0.62120190  0.62162372  1
  Ti  Ti57  1  0.12086616  0.61402809  0.61831286  1
  Ti  Ti58  1  0.37210993  0.85842896  0.38358462  1
  Ti  Ti59  1  0.87836065  0.62498182  0.10999637  1
  Ti  Ti60  1  0.12123427  0.86189397  0.37242532  1
  Ti  Ti61  1  0.12819515  0.11643633  0.86358698  1
  Ti  Ti62  1  0.35813880  0.89315202  0.14706657  1
  Ti  Ti63  1  0.87227419  0.11495141  0.12819920  1
  Ti  Ti64  1  0.61677344  0.87793689  0.86429768  1
  Ti  Ti65  1  0.88389419  0.36871867  0.12088201  1
  Ti  Ti66  1  0.13264837  0.87717131  0.11080066  1
  Ti  Ti67  1  0.86971731  0.87522764  0.36737790  1
  Ti  Ti68  1  0.11934321  0.63533571  0.86492988  1
  Ti  Ti69  1  0.11685819  0.35922249  0.87257643  1
  Ti  Ti70  1  0.61366686  0.88023124  0.38250306  1
  Ti  Ti71  1  0.37388967  0.37859640  0.62180046  1
  Ti  Ti72  1  0.37569729  0.61464341  0.87592974  1
  Ti  Ti73  1  0.13389544  0.11109705  0.62844075  1
  Bi  Bi74  1  0.25461830  0.23526371  0.01012624  1
  Bi  Bi75  1  0.49367339  0.73707486  0.02491658  1
  Bi  Bi76  1  0.52409743  0.22601770  0.49053747  1
  Bi  Bi77  1  0.23181983  0.49873504  0.22075411  1
  Bi  Bi78  1  0.51425934  0.79325962  0.22409416  1
  Bi  Bi79  1  0.71449369  0.76856229  0.02550607  1
  Bi  Bi80  1  0.50235982  0.75517107  0.72697689  1
  Bi  Bi81  1  0.25687287  0.24550691  0.74051188  1
  Bi  Bi82  1  0.23900673  0.48761439  -0.02358712  1
  Bi  Bi83  1  -0.00367613  0.48406842  0.25104691  1
  Bi  Bi84  1  0.75832320  0.23269043  0.00930567  1
  Bi  Bi85  1  0.71733148  0.74170406  0.48413258  1
  Bi  Bi86  1  0.74549250  0.71941077  0.24666193  1
  Bi  Bi87  1  -0.01352099  -0.02928343  0.73475107  1
  Bi  Bi88  1  0.52343661  0.47250387  0.49179372  1
  Bi  Bi89  1  0.75576654  0.00062190  -0.03652151  1
  Bi  Bi90  1  0.53214517  -0.02652483  0.02477623  1
  Bi  Bi91  1  0.25102577  0.48166625  0.73969769  1
  Bi  Bi92  1  0.50097735  0.24852308  0.72186842  1
  Bi  Bi93  1  0.71205414  0.27385342  0.23387363  1
  Bi  Bi94  1  0.25753115  0.73486202  0.73767892  1
  Bi  Bi95  1  0.25997655  0.74960581  -0.01809377  1
  Bi  Bi96  1  0.75039778  0.50404601  0.47042979  1
  Bi  Bi97  1  0.47433169  0.21176120  0.27335269  1
  Bi  Bi98  1  0.02662643  0.22999954  0.50303751  1
  Bi  Bi99  1  0.00015089  -0.00628688  0.48481278  1
  Bi  Bi100  1  -0.01060900  0.72579874  0.25650880  1
  Bi  Bi101  1  0.01368880  0.23053583  0.25514580  1
  Bi  Bi102  1  0.74496507  0.75610952  0.74467167  1
  Bi  Bi103  1  0.54538492  0.47690637  0.01195274  1
  Bi  Bi104  1  0.72458711  -0.00611567  0.72593244  1
  Bi  Bi105  1  -0.01156508  0.49113170  -0.01659302  1
  Bi  Bi106  1  0.74315485  0.26315996  0.73515228  1
  Bi  Bi107  1  0.22927500  -0.04365763  0.50397815  1
  Bi  Bi108  1  0.23126145  0.25530703  0.23031837  1
  Bi  Bi109  1  -0.02517062  0.49605583  0.50293885  1
  Bi  Bi110  1  0.72581273  -0.04198678  0.22099363  1
  Bi  Bi111  1  -0.03198239  0.75948755  0.50079833  1
  Bi  Bi112  1  0.75669546  0.23243624  0.47162186  1
  Bi  Bi113  1  -0.00564989  -0.01432046  -0.01904846  1
  Bi  Bi114  1  0.26224350  0.72814635  0.50165930  1
  Bi  Bi115  1  -0.00494970  0.48679862  0.74452862  1
  Bi  Bi116  1  0.28167055  0.21053470  0.45260106  1
  Bi  Bi117  1  0.51440912  0.26295717  0.04968070  1
  Bi  Bi118  1  0.01973759  -0.01268195  0.22412026  1
  Bi  Bi119  1  0.01679641  0.22278471  0.00987656  1
  Bi  Bi120  1  0.23067330  0.73473188  0.23462314  1
  Bi  Bi121  1  0.73443161  0.49259725  0.20914026  1
  Bi  Bi122  1  0.52667455  0.49383828  0.77448629  1
  Bi  Bi123  1  0.46038256  0.02040292  0.48940848  1
  Bi  Bi124  1  0.50719725  0.46518160  0.24308228  1
  O  O125  1  0.13766155  0.14898444  -0.00574524  1
  O  O126  1  0.09089084  0.11546799  0.25155383  1
  O  O127  1  0.14205898  0.15148438  0.51021988  1
  O  O128  1  0.09365528  0.11937728  0.74784682  1
  O  O129  1  0.13401300  0.36346788  -0.00780807  1
  O  O130  1  0.11995172  0.41126793  0.25261556  1
  O  O131  1  0.12004570  0.35869167  0.50212610  1
  O  O132  1  0.10971547  0.40330239  0.75583099  1
  O  O133  1  0.08917987  0.66768700  0.00169294  1
  O  O134  1  0.15316438  0.61002187  0.25499421  1
  O  O135  1  0.10784235  0.64088800  0.50272269  1
  O  O136  1  0.14300280  0.61465558  0.75518810  1
  O  O137  1  0.14660288  0.87229713  -0.00063502  1
  O  O138  1  0.11433397  0.89450322  0.26205108  1
  O  O139  1  0.12889107  0.85384872  0.51286148  1
  O  O140  1  0.09892307  0.88858270  0.75620370  1
  O  O141  1  0.34473982  0.13229861  -0.00925428  1
  O  O142  1  0.42165361  0.08807008  0.24668966  1
  O  O143  1  0.37794969  0.13520202  0.50642391  1
  O  O144  1  0.39915273  0.09927869  0.75991296  1
  O  O145  1  0.36028281  0.35372311  -0.00885865  1
  O  O146  1  0.37997120  0.40172976  0.25000723  1
  O  O147  1  0.36609772  0.38230620  0.50396273  1
  O  O148  1  0.36660622  0.40153650  0.75520234  1
  O  O149  1  0.37524245  0.65911065  -0.00237208  1
  O  O150  1  0.35064596  0.61280070  0.24100180  1
  O  O151  1  0.37830221  0.64216542  0.50316448  1
  O  O152  1  0.33782923  0.60996949  0.76385846  1
  O  O153  1  0.35102275  0.87216363  -0.01054399  1
  O  O154  1  0.35835541  0.91322383  0.26150239  1
  O  O155  1  0.37849963  0.82686810  0.49781906  1
  O  O156  1  0.39075741  0.91364433  0.75784227  1
  O  O157  1  0.65159535  0.15150048  -0.00138109  1
  O  O158  1  0.61429967  0.09077185  0.23949533  1
  O  O159  1  0.64647099  0.14506926  0.50267296  1
  O  O160  1  0.59218580  0.09764046  0.75732596  1
  O  O161  1  0.62659505  0.36599842  -0.00354037  1
  O  O162  1  0.63482620  0.39992303  0.25130049  1
  O  O163  1  0.60273153  0.36017459  0.50217007  1
  O  O164  1  0.63798499  0.41054951  0.75119189  1
  O  O165  1  0.61923786  0.66882539  -0.00496759  1
  O  O166  1  0.65103552  0.61168131  0.24342013  1
  O  O167  1  0.60039677  0.67255943  0.50847896  1
  O  O168  1  0.63395481  0.58945953  0.74286703  1
  O  O169  1  0.62203053  0.86474328  -0.01177857  1
  O  O170  1  0.60339942  0.90609147  0.25667482  1
  O  O171  1  0.65082044  0.87670187  0.49572562  1
  O  O172  1  0.59496684  0.91742561  0.75285472  1
  O  O173  1  0.84726813  0.12707861  0.00431640  1
  O  O174  1  0.89871096  0.12302457  0.25246888  1
  O  O175  1  0.84962953  0.13171384  0.51190836  1
  O  O176  1  0.90758652  0.13507721  0.75684284  1
  O  O177  1  0.86713590  0.38776903  0.00317532  1
  O  O178  1  0.88235361  0.38634719  0.25250135  1
  O  O179  1  0.90103129  0.36933021  0.50257453  1
  O  O180  1  0.88322046  0.38620660  0.75256839  1
  O  O181  1  0.90809930  0.62512080  -0.00724070  1
  O  O182  1  0.86525662  0.64124360  0.24311245  1
  O  O183  1  0.90184715  0.63301946  0.50431845  1
  O  O184  1  0.87218237  0.62886546  0.74700340  1
  O  O185  1  0.85557340  0.88699453  0.00672773  1
  O  O186  1  0.90496881  0.87512440  0.24947574  1
  O  O187  1  0.86439457  0.85555566  0.49396809  1
  O  O188  1  0.90350032  0.86244276  0.76417543  1
  O  O189  1  -0.00674993  0.11642320  0.09760563  1
  O  O190  1  -0.00238647  0.12117138  0.40981707  1
  O  O191  1  -0.00022895  0.12178688  0.60561887  1
  O  O192  1  -0.00813329  0.13482736  0.90762200  1
  O  O193  1  -0.00298564  0.40669657  0.12578575  1
  O  O194  1  0.00245435  0.39645388  0.37023379  1
  O  O195  1  0.00278070  0.40912297  0.62709209  1
  O  O196  1  -0.00371014  0.37416310  0.89324991  1
  O  O197  1  0.00359573  0.61376338  0.14739159  1
  O  O198  1  0.00761779  0.61485277  0.34821579  1
  O  O199  1  0.00382518  0.60208499  0.64759287  1
  O  O200  1  0.00588531  0.66849675  0.84690394  1
  O  O201  1  0.00462009  0.89405031  0.11206830  1
  O  O202  1  0.00419948  0.88266526  0.39813637  1
  O  O203  1  -0.00173395  0.89892242  0.61830443  1
  O  O204  1  -0.00658508  0.85732439  0.91456350  1
  O  O205  1  0.25343681  0.16131393  0.13365383  1
  O  O206  1  0.25210156  0.12661542  0.35089383  1
  O  O207  1  0.24610816  0.13128609  0.65518766  1
  O  O208  1  0.23924657  0.10478355  0.84579590  1
  O  O209  1  0.24627987  0.35485257  0.13710031  1
  O  O210  1  0.24563630  0.36873803  0.36522170  1
  O  O211  1  0.24020124  0.36278729  0.64925511  1
  O  O212  1  0.23837266  0.39508080  0.86307212  1
  O  O213  1  0.24611356  0.66173863  0.11289591  1
  O  O214  1  0.24730112  0.63856830  0.39619590  1
  O  O215  1  0.24126772  0.64837545  0.61759933  1
  O  O216  1  0.24008722  0.61908814  0.91085610  1
  O  O217  1  0.24586652  0.84776620  0.13980966  1
  O  O218  1  0.24500165  0.86075526  0.39110353  1
  O  O219  1  0.23824637  0.85398929  0.64115399  1
  O  O220  1  0.24662362  0.91494649  0.85414239  1
  O  O221  1  0.51375114  0.10763072  0.08912453  1
  O  O222  1  0.51071229  0.12698583  0.38677446  1
  O  O223  1  0.50448288  0.15757519  0.61476792  1
  O  O224  1  0.50593028  0.15158521  0.90058310  1
  O  O225  1  0.49711566  0.39325349  0.11896239  1
  O  O226  1  0.49507330  0.39585021  0.36727093  1
  O  O227  1  0.49033613  0.36991892  0.63808221  1
  O  O228  1  0.49503268  0.37426269  0.86859331  1
  O  O229  1  0.49089682  0.61651638  0.10845847  1
  O  O230  1  0.49013832  0.61162117  0.35201960  1
  O  O231  1  0.50186970  0.64153494  0.63943258  1
  O  O232  1  0.48847903  0.62865571  0.85667968  1
  O  O233  1  0.48143819  0.89745337  0.13545169  1
  O  O234  1  0.49517950  0.89133545  0.37948620  1
  O  O235  1  0.50352855  0.83094100  0.61353364  1
  O  O236  1  0.49826047  0.85625921  0.88410262  1
  O  O237  1  0.75343206  0.15729902  0.13832557  1
  O  O238  1  0.76294617  0.13381842  0.37054299  1
  O  O239  1  0.75824958  0.14348525  0.66272301  1
  O  O240  1  0.75395438  0.10504526  0.86117574  1
  O  O241  1  0.75978704  0.36987474  0.12965782  1
  O  O242  1  0.75973166  0.37995266  0.39144233  1
  O  O243  1  0.76239748  0.35436993  0.61652374  1
  O  O244  1  0.75734124  0.40496673  0.88220389  1
  O  O245  1  0.76110712  0.66251364  0.11539728  1
  O  O246  1  0.74786827  0.62984951  0.39889731  1
  O  O247  1  0.74985377  0.63592454  0.60347311  1
  O  O248  1  0.75381345  0.60553918  0.87032060  1
  O  O249  1  0.76444513  0.84552496  0.15136520  1
  O  O250  1  0.75635029  0.87912989  0.34416037  1
  O  O251  1  0.74761497  0.86925127  0.66455274  1
  O  O252  1  0.75034687  0.89449582  0.86239276  1
  O  O253  1  0.12935341  -0.00711502  0.12754937  1
  O  O254  1  0.12963119  -0.00637541  0.41481191  1
  O  O255  1  0.13495589  0.00024585  0.61175838  1
  O  O256  1  0.09790020  0.00186325  0.88714919  1
  O  O257  1  0.10737717  0.25295421  0.15285856  1
  O  O258  1  0.10626048  0.25749654  0.36100746  1
  O  O259  1  0.09639177  0.26035676  0.64252088  1
  O  O260  1  0.12286470  0.24842996  0.85400112  1
  O  O261  1  0.14907052  0.51704894  0.10567260  1
  O  O262  1  0.13257658  0.50153200  0.40068565  1
  O  O263  1  0.14471304  0.50233757  0.61364830  1
  O  O264  1  0.10362224  0.51947148  0.90206277  1
  O  O265  1  0.11226872  0.75221065  0.15643340  1
  O  O266  1  0.11238761  0.74752334  0.35279025  1
  O  O267  1  0.08958684  0.74632390  0.65472185  1
  O  O268  1  0.15460819  0.76172399  0.86835316  1
  O  O269  1  0.34012228  -0.00203980  0.10686200  1
  O  O270  1  0.35409089  -0.01673080  0.41519665  1
  O  O271  1  0.40985090  -0.00202528  0.61551768  1
  O  O272  1  0.38681395  0.00847503  0.89540102  1
  O  O273  1  0.40901462  0.24370013  0.14005602  1
  O  O274  1  0.37900225  0.26309552  0.36247303  1
  O  O275  1  0.36797676  0.25601172  0.65715434  1
  O  O276  1  0.36122126  0.24874497  0.84964215  1
  O  O277  1  0.34206553  0.51040710  0.10231388  1
  O  O278  1  0.35662337  0.50688247  0.38715338  1
  O  O279  1  0.34832791  0.49827873  0.61898188  1
  O  O280  1  0.37174145  0.50120352  0.90121908  1
  O  O281  1  0.39986935  0.75875855  0.13965044  1
  O  O282  1  0.37887286  0.74947687  0.34342996  1
  O  O283  1  0.37448008  0.74763359  0.66634642  1
  O  O284  1  0.34723631  0.75924546  0.85965551  1
  O  O285  1  0.65191595  0.00195852  0.09562236  1
  O  O286  1  0.62791804  0.00059115  0.38915928  1
  O  O287  1  0.64666333  0.00473357  0.61209462  1
  O  O288  1  0.61995182  0.00496423  0.90396428  1
  O  O289  1  0.60676441  0.23956022  0.15167442  1
  O  O290  1  0.63487187  0.25060454  0.35504863  1
  O  O291  1  0.62844909  0.25699540  0.66185665  1
  O  O292  1  0.64605682  0.24108677  0.84198981  1
  O  O293  1  0.66173420  0.50972022  0.08743310  1
  O  O294  1  0.62594894  0.50427149  0.40523051  1
  O  O295  1  0.62232964  0.50830403  0.58847695  1
  O  O296  1  0.60980405  0.50577790  0.88533381  1
  O  O297  1  0.60703813  0.75447108  0.13223998  1
  O  O298  1  0.63273492  0.76128010  0.36439398  1
  O  O299  1  0.63657940  0.74406670  0.66381607  1
  O  O300  1  0.64182924  0.76368435  0.83958280  1
  O  O301  1  0.85952373  0.00359655  0.13218172  1
  O  O302  1  0.88517966  -0.00042084  0.38654207  1
  O  O303  1  0.86248138  0.00508982  0.64506965  1
  O  O304  1  0.88930673  0.00227963  0.88380008  1
  O  O305  1  0.89874021  0.25536314  0.11946218  1
  O  O306  1  0.88276295  0.25128961  0.37884421  1
  O  O307  1  0.90414095  0.25394973  0.63973855  1
  O  O308  1  0.85651989  0.25353498  0.87973986  1
  O  O309  1  0.85708940  0.51256644  0.11833172  1
  O  O310  1  0.87360530  0.49950131  0.39652672  1
  O  O311  1  0.86856021  0.50271491  0.60404130  1
  O  O312  1  0.90185254  0.50804557  0.87431217  1
  O  O313  1  0.91030923  0.75259428  0.10795481  1
  O  O314  1  0.89557559  0.75351988  0.37099814  1
  O  O315  1  0.89809586  0.74331322  0.62914334  1
  O  O316  1  0.85906989  0.74774013  0.89184990  1
