# generated using pymatgen
data_Mg32Ti42(Bi17O64)3
_symmetry_space_group_name_H-M   'P 1'
_cell_length_a   15.97506551
_cell_length_b   15.95048914
_cell_length_c   15.99316942
_cell_angle_alpha   89.98716173
_cell_angle_beta   90.09806375
_cell_angle_gamma   89.87612659
_symmetry_Int_Tables_number   1
_chemical_formula_structural   Mg32Ti42(Bi17O64)3
_chemical_formula_sum   'Mg32 Ti42 Bi51 O192'
_cell_volume   4075.20564351
_cell_formula_units_Z   1
loop_
 _symmetry_equiv_pos_site_id
 _symmetry_equiv_pos_as_xyz
  1  'x, y, z'
loop_
 _atom_site_type_symbol
 _atom_site_label
 _atom_site_symmetry_multiplicity
 _atom_site_fract_x
 _atom_site_fract_y
 _atom_site_fract_z
 _atom_site_occupancy
  Mg  Mg0  1  0.38757106  0.37660301  0.63496418  1
  Mg  Mg1  1  0.63261640  0.36859841  0.37455800  1
  Mg  Mg2  1  0.86151177  0.38125813  0.12947006  1
  Mg  Mg3  1  0.37677971  0.12374701  0.87808189  1
  Mg  Mg4  1  0.87754741  0.12236347  0.36848032  1
  Mg  Mg5  1  0.87845063  0.37257363  0.62947519  1
  Mg  Mg6  1  0.12479015  0.87588427  0.87127142  1
  Mg  Mg7  1  0.86998439  0.62930863  0.11138403  1
  Mg  Mg8  1  0.62336514  0.87123763  0.86812525  1
  Mg  Mg9  1  0.37876529  0.87259697  0.37518260  1
  Mg  Mg10  1  0.63295754  0.62218161  0.87617095  1
  Mg  Mg11  1  0.88542638  0.12241766  0.62602702  1
  Mg  Mg12  1  0.12418588  0.12545793  0.61012623  1
  Mg  Mg13  1  0.36843686  0.87175813  0.62637608  1
  Mg  Mg14  1  0.63285359  0.61680888  0.37043886  1
  Mg  Mg15  1  0.62528650  0.62037881  0.12233834  1
  Mg  Mg16  1  0.39782885  0.12561713  0.61131786  1
  Mg  Mg17  1  0.36913051  0.61361909  0.37869844  1
  Mg  Mg18  1  0.88179248  0.86997235  0.12443175  1
  Mg  Mg19  1  0.75615805  0.52663590  0.21107927  1
  Mg  Mg20  1  0.45434357  -0.04997009  0.50812081  1
  Mg  Mg21  1  0.31390849  0.24380306  -0.01176362  1
  Mg  Mg22  1  -0.03250019  0.47663160  0.02849735  1
  Mg  Mg23  1  0.42395996  0.27001147  0.49477129  1
  Mg  Mg24  1  0.01893395  0.78451353  0.01085038  1
  Mg  Mg25  1  0.71083537  0.79615013  0.06709108  1
  Mg  Mg26  1  0.26089487  0.25397836  0.63208494  1
  Mg  Mg27  1  0.29269060  0.05977139  0.50012521  1
  Mg  Mg28  1  0.07762761  0.27881076  0.50951335  1
  Mg  Mg29  1  0.25059064  0.26198748  0.41932852  1
  Mg  Mg30  1  0.25442362  0.44617370  0.53119294  1
  Mg  Mg31  1  0.05365235  0.00332070  0.27390974  1
  Ti  Ti32  1  0.88029763  0.61595311  0.88048167  1
  Ti  Ti33  1  0.88432254  0.86621737  0.88917190  1
  Ti  Ti34  1  0.87787051  0.61270324  0.37666321  1
  Ti  Ti35  1  0.88008375  0.88173244  0.61887332  1
  Ti  Ti36  1  0.88019087  0.36781840  0.37057690  1
  Ti  Ti37  1  0.36151560  0.39018203  0.37682231  1
  Ti  Ti38  1  0.12882276  0.87375053  0.38488688  1
  Ti  Ti39  1  0.36994454  0.38696811  0.11714766  1
  Ti  Ti40  1  0.36412199  0.86957973  0.12865817  1
  Ti  Ti41  1  0.11445299  0.37603835  0.11563295  1
  Ti  Ti42  1  0.10860779  0.37539783  0.89033070  1
  Ti  Ti43  1  0.11962896  0.38977627  0.35922746  1
  Ti  Ti44  1  0.63423035  0.87036735  0.62085050  1
  Ti  Ti45  1  0.11856019  0.62815177  0.86760760  1
  Ti  Ti46  1  0.36614238  0.61895788  0.85555471  1
  Ti  Ti47  1  0.13519662  0.61631561  0.60832238  1
  Ti  Ti48  1  0.12644133  0.88537602  0.62007706  1
  Ti  Ti49  1  0.62373539  0.89319383  0.38690989  1
  Ti  Ti50  1  0.12802608  0.12098495  0.13175490  1
  Ti  Ti51  1  0.62028600  0.12072351  0.86489705  1
  Ti  Ti52  1  0.11996366  0.62818007  0.37410837  1
  Ti  Ti53  1  0.87892579  0.10855231  0.87483245  1
  Ti  Ti54  1  0.36390832  0.11921483  0.12060837  1
  Ti  Ti55  1  0.38411232  0.37456739  0.87009119  1
  Ti  Ti56  1  0.37766308  0.88288977  0.86246283  1
  Ti  Ti57  1  0.62974185  0.13136210  0.62177653  1
  Ti  Ti58  1  0.37988252  0.63204387  0.12538678  1
  Ti  Ti59  1  0.63451613  0.36458894  0.62452674  1
  Ti  Ti60  1  0.62545274  0.13346123  0.39292945  1
  Ti  Ti61  1  0.63274954  0.38194605  0.12492919  1
  Ti  Ti62  1  0.87773118  0.62171723  0.62204631  1
  Ti  Ti63  1  0.64089034  0.62201773  0.61683515  1
  Ti  Ti64  1  0.11518554  0.63666683  0.11071030  1
  Ti  Ti65  1  0.14186930  0.14251913  0.88978171  1
  Ti  Ti66  1  0.37675274  0.61413552  0.61947489  1
  Ti  Ti67  1  0.87722217  0.37173382  0.88247988  1
  Ti  Ti68  1  0.12461410  0.13427282  0.38001210  1
  Ti  Ti69  1  0.12769783  0.87069118  0.13464390  1
  Ti  Ti70  1  0.39052850  0.13075422  0.37183544  1
  Ti  Ti71  1  0.87915152  0.88376220  0.36730733  1
  Ti  Ti72  1  0.61999157  0.36474736  0.88349991  1
  Ti  Ti73  1  0.88376948  0.10225170  0.13286916  1
  Bi  Bi74  1  0.76578921  0.74109456  0.24649335  1
  Bi  Bi75  1  0.51863516  -0.04587889  0.02117021  1
  Bi  Bi76  1  0.76129660  0.75262856  0.48428461  1
  Bi  Bi77  1  0.77624226  0.25460388  0.74326796  1
  Bi  Bi78  1  -0.03227687  0.24642067  0.23381736  1
  Bi  Bi79  1  0.23752943  0.52188946  0.22923421  1
  Bi  Bi80  1  0.47101616  0.22561596  0.74939445  1
  Bi  Bi81  1  0.51429622  0.03830680  0.22608688  1
  Bi  Bi82  1  0.51411796  -0.01935906  0.72192816  1
  Bi  Bi83  1  0.26110840  -0.02071992  -0.01662288  1
  Bi  Bi84  1  0.53470666  0.73070688  0.74507487  1
  Bi  Bi85  1  -0.00086337  0.52029098  0.73748133  1
  Bi  Bi86  1  0.73279184  -0.02443999  -0.02247431  1
  Bi  Bi87  1  0.24977638  0.48958563  -0.02696538  1
  Bi  Bi88  1  0.24678919  0.26642850  0.22241462  1
  Bi  Bi89  1  0.26731871  -0.00541807  0.28324627  1
  Bi  Bi90  1  0.75528527  0.01410563  0.72295736  1
  Bi  Bi91  1  -0.02188265  0.23555723  0.01258803  1
  Bi  Bi92  1  0.77970549  0.25588480  0.49786235  1
  Bi  Bi93  1  0.74485733  0.48453497  0.76374061  1
  Bi  Bi94  1  0.50179624  0.73431063  -0.03430407  1
  Bi  Bi95  1  0.77198939  0.74966530  0.77421119  1
  Bi  Bi96  1  0.51541444  0.50366374  0.48039165  1
  Bi  Bi97  1  0.74953084  0.20565024  0.00819084  1
  Bi  Bi98  1  0.25534741  0.75017882  -0.03379676  1
  Bi  Bi99  1  0.26792966  0.03524038  0.71277084  1
  Bi  Bi100  1  0.52461271  0.22514755  0.03620264  1
  Bi  Bi101  1  0.03936274  0.27527388  0.70883480  1
  Bi  Bi102  1  0.53497190  0.78034088  0.22930953  1
  Bi  Bi103  1  0.23346442  0.75909463  0.72779996  1
  Bi  Bi104  1  0.77161919  0.01308048  0.48253122  1
  Bi  Bi105  1  0.49642255  0.28599628  0.24967256  1
  Bi  Bi106  1  0.00709392  0.75902130  0.24519478  1
  Bi  Bi107  1  0.75392238  0.50914649  -0.00622824  1
  Bi  Bi108  1  0.00222955  0.77273969  0.74720386  1
  Bi  Bi109  1  0.72102612  0.20936561  0.23530468  1
  Bi  Bi110  1  0.51794855  0.51698791  0.24237526  1
  Bi  Bi111  1  0.51312726  0.48844755  0.71741764  1
  Bi  Bi112  1  0.22389289  0.46652782  0.73984038  1
  Bi  Bi113  1  0.51099933  0.51105314  -0.01563901  1
  Bi  Bi114  1  -0.00038287  0.52099036  0.22767406  1
  Bi  Bi115  1  0.02986439  0.03701295  0.75460948  1
  Bi  Bi116  1  0.28299734  0.74769255  0.49999842  1
  Bi  Bi117  1  0.71695345  -0.01736113  0.20562809  1
  Bi  Bi118  1  0.75609054  0.47728672  0.47619405  1
  Bi  Bi119  1  0.02990937  -0.00062707  -0.00062228  1
  Bi  Bi120  1  0.00440846  0.01812919  0.47654513  1
  Bi  Bi121  1  0.26988124  0.74261760  0.27320821  1
  Bi  Bi122  1  0.02418435  0.46396874  0.51516807  1
  Bi  Bi123  1  0.51505930  0.75000777  0.46924725  1
  Bi  Bi124  1  -0.01321998  0.73736964  0.50527580  1
  O  O125  1  0.09884458  0.12893358  0.00667963  1
  O  O126  1  0.13281095  0.11494476  0.25216664  1
  O  O127  1  0.08276954  0.13803818  0.49286001  1
  O  O128  1  0.15041415  0.11144049  0.76804172  1
  O  O129  1  0.15360807  0.37871130  0.00414242  1
  O  O130  1  0.09829583  0.39073411  0.24201573  1
  O  O131  1  0.14201313  0.39222246  0.48876633  1
  O  O132  1  0.10736640  0.39597449  0.77043248  1
  O  O133  1  0.08586547  0.66881458  0.00638595  1
  O  O134  1  0.13211511  0.61538299  0.24932292  1
  O  O135  1  0.09540662  0.62335721  0.49682006  1
  O  O136  1  0.14215644  0.62336654  0.75349526  1
  O  O137  1  0.10672729  0.87612142  0.00685399  1
  O  O138  1  0.11633388  0.89139820  0.25089040  1
  O  O139  1  0.11583067  0.87152859  0.50129318  1
  O  O140  1  0.11988818  0.85662082  0.74269412  1
  O  O141  1  0.39601528  0.14463510  0.00861767  1
  O  O142  1  0.35150574  0.10629026  0.25389395  1
  O  O143  1  0.39464038  0.14517889  0.48839614  1
  O  O144  1  0.36357963  0.12910294  0.74783543  1
  O  O145  1  0.34881125  0.36903463  0.00381400  1
  O  O146  1  0.39204303  0.38453391  0.25659768  1
  O  O147  1  0.32026519  0.34229620  0.48771935  1
  O  O148  1  0.40815006  0.38736741  0.75911713  1
  O  O149  1  0.38914446  0.64673363  0.01080016  1
  O  O150  1  0.33878915  0.61480895  0.24735762  1
  O  O151  1  0.38148284  0.64806589  0.50327096  1
  O  O152  1  0.34596902  0.60661436  0.74611195  1
  O  O153  1  0.36125421  0.87842332  0.00733459  1
  O  O154  1  0.36404654  0.89383469  0.24821603  1
  O  O155  1  0.37467396  0.84882476  0.50171674  1
  O  O156  1  0.38447600  0.89211606  0.74978733  1
  O  O157  1  0.62364252  0.13963318  -0.00750938  1
  O  O158  1  0.64170761  0.10096367  0.26495826  1
  O  O159  1  0.61013006  0.14648143  0.50915138  1
  O  O160  1  0.66222259  0.11946753  0.75376288  1
  O  O161  1  0.63994802  0.35081083  0.00788750  1
  O  O162  1  0.59117857  0.38905250  0.25161638  1
  O  O163  1  0.66620313  0.36219399  0.51376046  1
  O  O164  1  0.61672048  0.40164860  0.76168523  1
  O  O165  1  0.58953330  0.63392622  0.00083916  1
  O  O166  1  0.64134640  0.57776606  0.24768965  1
  O  O167  1  0.60041974  0.63719267  0.50537138  1
  O  O168  1  0.62482279  0.61999746  0.74397618  1
  O  O169  1  0.63255236  0.87369673  -0.00224483  1
  O  O170  1  0.61665748  0.89391830  0.26605145  1
  O  O171  1  0.62513538  0.84249006  0.50412299  1
  O  O172  1  0.60786473  0.87536256  0.74330198  1
  O  O173  1  0.88917608  0.11882180  0.00797109  1
  O  O174  1  0.86967019  0.14987822  0.24643986  1
  O  O175  1  0.88899090  0.09394745  0.49818179  1
  O  O176  1  0.84952283  0.12678205  0.76073094  1
  O  O177  1  0.86048208  0.40809125  -0.00168795  1
  O  O178  1  0.89223219  0.36357597  0.25564273  1
  O  O179  1  0.85151372  0.37676404  0.50486622  1
  O  O180  1  0.89193498  0.34211749  0.76264081  1
  O  O181  1  0.89552989  0.58579002  -0.01034403  1
  O  O182  1  0.83784113  0.62046076  0.25697041  1
  O  O183  1  0.90759670  0.61793476  0.50071852  1
  O  O184  1  0.85104046  0.64316719  0.73896385  1
  O  O185  1  0.90907282  0.85944418  -0.00251304  1
  O  O186  1  0.87366568  0.83910391  0.25694367  1
  O  O187  1  0.88266887  0.90269839  0.50177100  1
  O  O188  1  0.87167831  0.83971451  0.74195852  1
  O  O189  1  0.00116818  0.14667976  0.13576634  1
  O  O190  1  0.00276909  0.09148646  0.35587609  1
  O  O191  1  0.00633395  0.13701292  0.66362482  1
  O  O192  1  -0.00410520  0.12423160  0.86091772  1
  O  O193  1  0.00424324  0.36294071  0.09365393  1
  O  O194  1  0.00347394  0.37319975  0.39907908  1
  O  O195  1  -0.00037342  0.34485920  0.59409754  1
  O  O196  1  -0.00221544  0.39245368  0.91258381  1
  O  O197  1  -0.00542315  0.64843790  0.15599838  1
  O  O198  1  -0.00945529  0.63173916  0.34563249  1
  O  O199  1  -0.00414384  0.63865213  0.64918619  1
  O  O200  1  0.00064248  0.62684230  0.84856372  1
  O  O201  1  0.00442277  0.83565891  0.12892877  1
  O  O202  1  -0.00519871  0.90552239  0.36370570  1
  O  O203  1  0.00054114  0.85255368  0.62792528  1
  O  O204  1  -0.00108496  0.86167946  0.85897997  1
  O  O205  1  0.24371365  0.10792822  0.11282893  1
  O  O206  1  0.23898973  0.13497951  0.40964164  1
  O  O207  1  0.25273128  0.12334886  0.60684237  1
  O  O208  1  0.24948964  0.15300878  0.91803411  1
  O  O209  1  0.24832523  0.38814264  0.15147954  1
  O  O210  1  0.23941116  0.36547953  0.34034085  1
  O  O211  1  0.26122025  0.38075704  0.64485529  1
  O  O212  1  0.25606269  0.39714196  0.86126220  1
  O  O213  1  0.23186089  0.59872189  0.11140683  1
  O  O214  1  0.23424147  0.64768632  0.38169820  1
  O  O215  1  0.24099318  0.57829952  0.59004190  1
  O  O216  1  0.25074258  0.62271547  0.90187759  1
  O  O217  1  0.24298659  0.89717088  0.12034301  1
  O  O218  1  0.24325725  0.86086107  0.37069787  1
  O  O219  1  0.24156684  0.87516358  0.63827069  1
  O  O220  1  0.24998764  0.87590726  0.88955516  1
  O  O221  1  0.48329556  0.15357629  0.15384792  1
  O  O222  1  0.50306503  0.12144302  0.35474537  1
  O  O223  1  0.51527460  0.12446951  0.65732660  1
  O  O224  1  0.50570941  0.12427519  0.84723035  1
  O  O225  1  0.48384143  0.34760626  0.12133022  1
  O  O226  1  0.47617150  0.37253745  0.42010486  1
  O  O227  1  0.51708213  0.37756077  0.62252956  1
  O  O228  1  0.50212636  0.38037288  0.90557816  1
  O  O229  1  0.49012544  0.64133527  0.15875806  1
  O  O230  1  0.49419947  0.58453799  0.36814512  1
  O  O231  1  0.48917716  0.63233535  0.64336482  1
  O  O232  1  0.48629330  0.63613928  0.86181536  1
  O  O233  1  0.48579847  0.85444528  0.11200719  1
  O  O234  1  0.50288171  0.88984299  0.40393106  1
  O  O235  1  0.50357058  0.89326467  0.61343887  1
  O  O236  1  0.49087247  0.87679989  0.88893804  1
  O  O237  1  0.75926342  0.11559610  0.12415362  1
  O  O238  1  0.74535667  0.12978712  0.40268208  1
  O  O239  1  0.75182540  0.09855762  0.61249850  1
  O  O240  1  0.75640767  0.12354483  0.90098991  1
  O  O241  1  0.73870091  0.41057144  0.15324914  1
  O  O242  1  0.75894087  0.38489314  0.37167409  1
  O  O243  1  0.75237403  0.38670030  0.66568340  1
  O  O244  1  0.75157406  0.38449868  0.86185224  1
  O  O245  1  0.74708211  0.58963256  0.10305741  1
  O  O246  1  0.75716581  0.63906642  0.40261993  1
  O  O247  1  0.75305292  0.61621684  0.59927336  1
  O  O248  1  0.75831543  0.61098788  0.88954146  1
  O  O249  1  0.76046623  0.90415058  0.10169674  1
  O  O250  1  0.74500797  0.85592608  0.38705648  1
  O  O251  1  0.75164508  0.88602091  0.62216605  1
  O  O252  1  0.75964290  0.87598758  0.88217779  1
  O  O253  1  0.09692911  0.00329451  0.12606124  1
  O  O254  1  0.13711099  -0.00076872  0.38004523  1
  O  O255  1  0.11720753  -0.00099240  0.63104429  1
  O  O256  1  0.12716736  0.00791482  0.89837374  1
  O  O257  1  0.13660136  0.25491732  0.13701164  1
  O  O258  1  0.12528864  0.25426565  0.38430928  1
  O  O259  1  0.13792216  0.24920691  0.61874722  1
  O  O260  1  0.11091817  0.25838122  0.87950653  1
  O  O261  1  0.08203224  0.50872487  0.10916571  1
  O  O262  1  0.11624638  0.50603702  0.37142183  1
  O  O263  1  0.09819149  0.50291350  0.63273803  1
  O  O264  1  0.12943668  0.51093112  0.89751877  1
  O  O265  1  0.14158017  0.75219516  0.14589601  1
  O  O266  1  0.10212273  0.75531840  0.37205280  1
  O  O267  1  0.14822778  0.73544744  0.62203308  1
  O  O268  1  0.14466170  0.74673133  0.87672778  1
  O  O269  1  0.39781991  0.00597958  0.11866593  1
  O  O270  1  0.35350543  0.00643515  0.39592683  1
  O  O271  1  0.36971804  0.00270365  0.59028780  1
  O  O272  1  0.35760163  -0.00022139  0.88436722  1
  O  O273  1  0.34038816  0.24927584  0.12288804  1
  O  O274  1  0.36787495  0.24581065  0.36125190  1
  O  O275  1  0.38856890  0.25254225  0.62280732  1
  O  O276  1  0.37981055  0.25929120  0.87532462  1
  O  O277  1  0.38090101  0.50333316  0.11749275  1
  O  O278  1  0.33754201  0.49412144  0.40821362  1
  O  O279  1  0.39147694  0.49900136  0.60913071  1
  O  O280  1  0.37664965  0.50668979  0.89338892  1
  O  O281  1  0.34880614  0.75183814  0.14412912  1
  O  O282  1  0.37562839  0.74494230  0.35894972  1
  O  O283  1  0.33730268  0.73674749  0.63365067  1
  O  O284  1  0.35911983  0.75111954  0.87065792  1
  O  O285  1  0.60438796  0.00378709  0.12711314  1
  O  O286  1  0.63493781  0.00284539  0.40789904  1
  O  O287  1  0.62674945  0.00005723  0.63670981  1
  O  O288  1  0.62758722  0.00269761  0.88156430  1
  O  O289  1  0.62349793  0.25802210  0.14694001  1
  O  O290  1  0.62769088  0.24429305  0.35235397  1
  O  O291  1  0.64694402  0.24930338  0.64636361  1
  O  O292  1  0.62359872  0.25322660  0.85987620  1
  O  O293  1  0.58725898  0.49066993  0.10460942  1
  O  O294  1  0.62883751  0.49090517  0.40803522  1
  O  O295  1  0.61901447  0.50386020  0.61750815  1
  O  O296  1  0.62126442  0.49681409  0.90316266  1
  O  O297  1  0.64191373  0.74299566  0.15506971  1
  O  O298  1  0.59819332  0.74316235  0.35910847  1
  O  O299  1  0.63301463  0.74886497  0.64232159  1
  O  O300  1  0.61220634  0.74601425  0.86483609  1
  O  O301  1  0.90217000  -0.00373519  0.14993789  1
  O  O302  1  0.84180559  -0.00677433  0.35808855  1
  O  O303  1  0.88836844  -0.00804765  0.65495763  1
  O  O304  1  0.88084242  -0.00681852  0.87488541  1
  O  O305  1  0.88005721  0.25624342  0.11655661  1
  O  O306  1  0.87643804  0.25142966  0.39090585  1
  O  O307  1  0.84669570  0.24453384  0.62378637  1
  O  O308  1  0.87300281  0.25630853  0.90989977  1
  O  O309  1  0.89847568  0.50231310  0.13811180  1
  O  O310  1  0.87655162  0.49936762  0.38224399  1
  O  O311  1  0.89569823  0.50352343  0.63951983  1
  O  O312  1  0.87681960  0.49948079  0.83607312  1
  O  O313  1  0.81941330  0.74772642  0.12154743  1
  O  O314  1  0.88388021  0.75803018  0.40781176  1
  O  O315  1  0.87098017  0.75018486  0.59216479  1
  O  O316  1  0.86658461  0.74097588  0.87646418  1
