# generated using pymatgen
data_Mg32Ti42(Bi17O64)3
_symmetry_space_group_name_H-M   'P 1'
_cell_length_a   15.97428095
_cell_length_b   15.90971287
_cell_length_c   15.90995241
_cell_angle_alpha   89.90851611
_cell_angle_beta   90.09403862
_cell_angle_gamma   90.00637793
_symmetry_Int_Tables_number   1
_chemical_formula_structural   Mg32Ti42(Bi17O64)3
_chemical_formula_sum   'Mg32 Ti42 Bi51 O192'
_cell_volume   4043.44369406
_cell_formula_units_Z   1
loop_
 _symmetry_equiv_pos_site_id
 _symmetry_equiv_pos_as_xyz
  1  'x, y, z'
loop_
 _atom_site_type_symbol
 _atom_site_label
 _atom_site_symmetry_multiplicity
 _atom_site_fract_x
 _atom_site_fract_y
 _atom_site_fract_z
 _atom_site_occupancy
  Mg  Mg0  1  0.88008987  0.87755451  0.11209186  1
  Mg  Mg1  1  0.88644771  0.37626534  0.63947193  1
  Mg  Mg2  1  0.37869674  0.12625594  0.38100017  1
  Mg  Mg3  1  0.87426864  0.13586513  0.87152886  1
  Mg  Mg4  1  0.11986450  0.38240682  0.86899223  1
  Mg  Mg5  1  0.38440564  0.86034659  0.36873032  1
  Mg  Mg6  1  0.12932355  0.38072064  0.12111649  1
  Mg  Mg7  1  0.63009629  0.37043574  0.63121012  1
  Mg  Mg8  1  0.38016079  0.38158212  0.88208054  1
  Mg  Mg9  1  0.12197129  0.87331778  0.87185205  1
  Mg  Mg10  1  0.62379793  0.37256696  0.12092292  1
  Mg  Mg11  1  0.13282452  0.11856321  0.86920382  1
  Mg  Mg12  1  0.62678798  0.36777305  0.38155082  1
  Mg  Mg13  1  0.86723253  0.62451552  0.13100784  1
  Mg  Mg14  1  0.11636518  0.87904137  0.61844776  1
  Mg  Mg15  1  0.37152386  0.11789726  0.62793838  1
  Mg  Mg16  1  0.12515046  0.63452203  0.11044417  1
  Mg  Mg17  1  0.12173723  0.62163331  0.61538052  1
  Mg  Mg18  1  0.11887273  0.63316514  0.87141560  1
  Mg  Mg19  1  0.02443218  0.78331764  0.42370697  1
  Mg  Mg20  1  0.05416488  -0.02584818  0.46008947  1
  Mg  Mg21  1  0.48623918  0.71542090  0.71728013  1
  Mg  Mg22  1  0.25048182  0.54030459  0.22897927  1
  Mg  Mg23  1  0.70990429  0.45451334  0.24846866  1
  Mg  Mg24  1  0.76952955  0.27804892  0.55699474  1
  Mg  Mg25  1  0.26956220  0.22053176  0.51895856  1
  Mg  Mg26  1  0.49418764  0.69694401  0.29472655  1
  Mg  Mg27  1  0.30737509  0.43119557  0.54201951  1
  Mg  Mg28  1  -0.01889376  0.72072064  0.01382070  1
  Mg  Mg29  1  0.74940242  0.44878892  0.74442427  1
  Mg  Mg30  1  0.26617834  0.31279596  0.72612727  1
  Mg  Mg31  1  0.02587829  0.53285734  -0.01478653  1
  Ti  Ti32  1  0.37840969  0.13302662  0.11087677  1
  Ti  Ti33  1  0.37813464  0.86570740  0.12572305  1
  Ti  Ti34  1  0.37468688  0.63265930  0.12902971  1
  Ti  Ti35  1  0.36119442  0.61930702  0.38024703  1
  Ti  Ti36  1  0.88416612  0.62935499  0.36971176  1
  Ti  Ti37  1  0.37917290  0.61966375  0.87655652  1
  Ti  Ti38  1  0.37473922  0.37874173  0.13450413  1
  Ti  Ti39  1  0.37123959  0.12903406  0.86610076  1
  Ti  Ti40  1  0.12908480  0.11213804  0.60867973  1
  Ti  Ti41  1  0.87550936  0.87460176  0.38123730  1
  Ti  Ti42  1  0.88444407  0.13283240  0.62848260  1
  Ti  Ti43  1  0.13328408  0.13633846  0.12803907  1
  Ti  Ti44  1  0.12832569  0.37731212  0.61061099  1
  Ti  Ti45  1  0.36817813  0.62949761  0.60949582  1
  Ti  Ti46  1  0.62443343  0.62752354  0.63624879  1
  Ti  Ti47  1  0.86495698  0.39507038  0.37788451  1
  Ti  Ti48  1  0.13784752  0.37362633  0.37694653  1
  Ti  Ti49  1  0.63178476  0.12226224  0.13264075  1
  Ti  Ti50  1  0.87586308  0.38687511  0.12558780  1
  Ti  Ti51  1  0.13672107  0.13848327  0.38709345  1
  Ti  Ti52  1  0.62269663  0.87820670  0.63540249  1
  Ti  Ti53  1  0.61974657  0.39176843  0.87515086  1
  Ti  Ti54  1  0.88445825  0.86819748  0.87925942  1
  Ti  Ti55  1  0.62422589  0.14058603  0.61566381  1
  Ti  Ti56  1  0.62522203  0.12681504  0.38012879  1
  Ti  Ti57  1  0.87910737  0.61270442  0.87171319  1
  Ti  Ti58  1  0.39161917  0.87358586  0.87082165  1
  Ti  Ti59  1  0.62840631  0.86960272  0.12479516  1
  Ti  Ti60  1  0.87859314  0.62096333  0.61619253  1
  Ti  Ti61  1  0.88199878  0.11439151  0.13457301  1
  Ti  Ti62  1  0.64102384  0.62654771  0.37422571  1
  Ti  Ti63  1  0.62602011  0.62679333  0.13248154  1
  Ti  Ti64  1  0.12731326  0.87714559  0.11072189  1
  Ti  Ti65  1  0.89088911  0.11022099  0.38425271  1
  Ti  Ti66  1  0.12482023  0.60307094  0.37154876  1
  Ti  Ti67  1  0.87833328  0.88239216  0.62713830  1
  Ti  Ti68  1  0.63664451  0.86776118  0.87249680  1
  Ti  Ti69  1  0.87439243  0.38193603  0.87639799  1
  Ti  Ti70  1  0.62449700  0.87383371  0.36814137  1
  Ti  Ti71  1  0.39175639  0.87672277  0.63062678  1
  Ti  Ti72  1  0.37068258  0.38184747  0.37343425  1
  Ti  Ti73  1  0.61642683  0.62363883  0.87731206  1
  Bi  Bi74  1  0.24907815  0.27031576  -0.04589048  1
  Bi  Bi75  1  0.01731372  0.51080817  0.21146585  1
  Bi  Bi76  1  0.76463408  0.72445355  0.74585308  1
  Bi  Bi77  1  0.04566846  0.24266397  0.74184307  1
  Bi  Bi78  1  0.25580066  0.74361793  -0.03845816  1
  Bi  Bi79  1  0.20568851  0.75591260  0.48417221  1
  Bi  Bi80  1  0.25683472  -0.02900167  0.48065828  1
  Bi  Bi81  1  0.27385147  -0.01204929  -0.01929895  1
  Bi  Bi82  1  0.53573401  0.22319202  -0.02738773  1
  Bi  Bi83  1  0.51521783  0.75828054  0.50885053  1
  Bi  Bi84  1  0.78390771  0.26255329  0.25715371  1
  Bi  Bi85  1  0.48845172  -0.01332814  0.48283452  1
  Bi  Bi86  1  0.50067985  0.49844429  0.01213125  1
  Bi  Bi87  1  -0.00279535  0.75268462  0.22281445  1
  Bi  Bi88  1  0.21943518  0.78901439  0.26366970  1
  Bi  Bi89  1  0.75971924  0.01502622  0.51677973  1
  Bi  Bi90  1  0.25892484  0.49396291  0.02298171  1
  Bi  Bi91  1  0.24887687  0.51809587  0.74749297  1
  Bi  Bi92  1  0.02908622  0.25437226  -0.01965489  1
  Bi  Bi93  1  -0.01976735  0.26420749  0.47886672  1
  Bi  Bi94  1  0.76672020  0.73574170  -0.01343953  1
  Bi  Bi95  1  0.24204074  0.75424991  0.73048238  1
  Bi  Bi96  1  0.03909829  -0.00784595  0.24589848  1
  Bi  Bi97  1  0.49222663  0.01056558  0.25381049  1
  Bi  Bi98  1  0.76520721  0.76717479  0.23251203  1
  Bi  Bi99  1  0.53306448  -0.00246523  0.00242704  1
  Bi  Bi100  1  0.74475156  0.50406904  -0.00529962  1
  Bi  Bi101  1  0.47585753  0.48443386  0.71293976  1
  Bi  Bi102  1  0.45757770  0.27008426  0.72764227  1
  Bi  Bi103  1  0.51962682  0.49131039  0.26064400  1
  Bi  Bi104  1  0.47358224  0.25455967  0.51083799  1
  Bi  Bi105  1  0.00681758  0.02925870  -0.01212621  1
  Bi  Bi106  1  0.00166292  0.49383450  0.50308596  1
  Bi  Bi107  1  0.50245818  0.74358583  0.00479623  1
  Bi  Bi108  1  0.75764279  0.01080281  0.26864203  1
  Bi  Bi109  1  0.27671996  0.23880210  0.26374455  1
  Bi  Bi110  1  0.01465528  0.27403333  0.23801087  1
  Bi  Bi111  1  0.52379223  0.03565853  0.76901079  1
  Bi  Bi112  1  0.25789385  -0.01704842  0.74640543  1
  Bi  Bi113  1  0.00689322  0.74915820  0.72789062  1
  Bi  Bi114  1  0.26827802  0.00378634  0.22061409  1
  Bi  Bi115  1  0.02061754  0.50739561  0.75737734  1
  Bi  Bi116  1  0.71757963  0.22459546  0.79032231  1
  Bi  Bi117  1  0.01856774  -0.00978105  0.75759271  1
  Bi  Bi118  1  0.77020325  0.25119771  0.01471008  1
  Bi  Bi119  1  0.76155882  0.00922135  0.75111466  1
  Bi  Bi120  1  0.76176421  0.75947605  0.50782952  1
  Bi  Bi121  1  0.76742739  0.01596643  -0.01672906  1
  Bi  Bi122  1  0.73733244  0.49618251  0.53519631  1
  Bi  Bi123  1  0.51342527  0.49784647  0.48893010  1
  Bi  Bi124  1  0.52215810  0.24996131  0.24753335  1
  O  O125  1  0.12116850  0.13713242  0.00959085  1
  O  O126  1  0.12363069  0.11190510  0.26092804  1
  O  O127  1  0.12256069  0.16624047  0.50224113  1
  O  O128  1  0.11129306  0.10762400  0.73775221  1
  O  O129  1  0.14150839  0.35024996  -0.00381806  1
  O  O130  1  0.09415958  0.39002553  0.25856603  1
  O  O131  1  0.16503090  0.35439463  0.50080482  1
  O  O132  1  0.09049123  0.38697179  0.74133695  1
  O  O133  1  0.08348542  0.65121918  -0.00949886  1
  O  O134  1  0.12925693  0.58366951  0.24639141  1
  O  O135  1  0.12349690  0.64052898  0.48844394  1
  O  O136  1  0.13095207  0.59039301  0.74537751  1
  O  O137  1  0.12162314  0.86317679  0.00067240  1
  O  O138  1  0.14005632  0.89853552  0.25977392  1
  O  O139  1  0.10481349  0.84710157  0.49677378  1
  O  O140  1  0.13026233  0.91443581  0.74081950  1
  O  O141  1  0.37508178  0.15260796  -0.00086092  1
  O  O142  1  0.36803933  0.10412980  0.25186380  1
  O  O143  1  0.38157411  0.15674252  0.50319862  1
  O  O144  1  0.37905395  0.09540333  0.75535312  1
  O  O145  1  0.33553818  0.36880694  0.00650546  1
  O  O146  1  0.38842581  0.40521773  0.25046033  1
  O  O147  1  0.35209052  0.32822587  0.48724874  1
  O  O148  1  0.38610205  0.39267116  0.75683980  1
  O  O149  1  0.37069594  0.66634072  -0.00169749  1
  O  O150  1  0.38196499  0.60053552  0.24160559  1
  O  O151  1  0.35463815  0.64519448  0.49740117  1
  O  O152  1  0.39790726  0.61040374  0.75863642  1
  O  O153  1  0.35329731  0.85747329  -0.00044053  1
  O  O154  1  0.36754219  0.90233006  0.24397340  1
  O  O155  1  0.40947001  0.85998361  0.50839351  1
  O  O156  1  0.38222599  0.90193134  0.75564025  1
  O  O157  1  0.62253521  0.11223144  0.00940448  1
  O  O158  1  0.59912190  0.12360533  0.25160062  1
  O  O159  1  0.62524956  0.10810019  0.49789110  1
  O  O160  1  0.61705458  0.13323520  0.73942152  1
  O  O161  1  0.63877876  0.40988672  -0.00074167  1
  O  O162  1  0.60003549  0.36978933  0.25102620  1
  O  O163  1  0.63048023  0.40968674  0.50098062  1
  O  O164  1  0.64765970  0.36281311  0.76164162  1
  O  O165  1  0.62408580  0.59658613  0.00088007  1
  O  O166  1  0.59733948  0.64503093  0.24830673  1
  O  O167  1  0.62221225  0.59611103  0.49131612  1
  O  O168  1  0.60548227  0.65631428  0.75049906  1
  O  O169  1  0.62290425  0.89163149  0.00295332  1
  O  O170  1  0.63653537  0.85985440  0.25029692  1
  O  O171  1  0.59270621  0.87348658  0.49961692  1
  O  O172  1  0.64473652  0.86363322  0.75345736  1
  O  O173  1  0.84765384  0.13600860  0.00580328  1
  O  O174  1  0.88013698  0.08543608  0.25369708  1
  O  O175  1  0.85264142  0.12946527  0.49868434  1
  O  O176  1  0.87327372  0.09931226  0.74484754  1
  O  O177  1  0.84858087  0.36794889  0.00999479  1
  O  O178  1  0.89003550  0.36602049  0.25987147  1
  O  O179  1  0.85117785  0.33646591  0.48117941  1
  O  O180  1  0.86933315  0.40073361  0.76262523  1
  O  O181  1  0.87935220  0.64859897  -0.00467693  1
  O  O182  1  0.86295977  0.62139979  0.26094929  1
  O  O183  1  0.87600276  0.64778137  0.50583844  1
  O  O184  1  0.83761770  0.60284047  0.75771854  1
  O  O185  1  0.90316319  0.83013162  -0.00921905  1
  O  O186  1  0.84616692  0.88049755  0.26469439  1
  O  O187  1  0.87345732  0.85008362  0.50617024  1
  O  O188  1  0.85486283  0.90112765  0.74843684  1
  O  O189  1  -0.00384914  0.12652839  0.12838054  1
  O  O190  1  0.00051091  0.08434032  0.40132101  1
  O  O191  1  -0.00338619  0.14661531  0.62057991  1
  O  O192  1  -0.00649746  0.13825149  0.89957551  1
  O  O193  1  -0.00876476  0.35895206  0.12235832  1
  O  O194  1  -0.00837456  0.38284236  0.40670339  1
  O  O195  1  0.00281001  0.36379212  0.58250770  1
  O  O196  1  -0.01442835  0.34908084  0.88588718  1
  O  O197  1  -0.00352353  0.64635258  0.13561793  1
  O  O198  1  0.00192043  0.60681112  0.36662214  1
  O  O199  1  -0.00662755  0.63512392  0.64453068  1
  O  O200  1  -0.01417178  0.64344924  0.84189258  1
  O  O201  1  0.00569880  0.87599309  0.14895293  1
  O  O202  1  -0.01134385  0.89948190  0.38035542  1
  O  O203  1  -0.00871432  0.87175654  0.64610423  1
  O  O204  1  -0.00717702  0.86457215  0.84129927  1
  O  O205  1  0.24818722  0.12800678  0.13190544  1
  O  O206  1  0.24920173  0.16912100  0.39071424  1
  O  O207  1  0.24368870  0.10979661  0.60268874  1
  O  O208  1  0.25546815  0.09605027  0.88200360  1
  O  O209  1  0.25021239  0.42781856  0.14643008  1
  O  O210  1  0.24789633  0.35961519  0.34337292  1
  O  O211  1  0.23972118  0.41139032  0.64663005  1
  O  O212  1  0.24633424  0.36473524  0.84992433  1
  O  O213  1  0.25357360  0.61076108  0.11985754  1
  O  O214  1  0.25017859  0.60764829  0.34850971  1
  O  O215  1  0.25567503  0.61704987  0.64472245  1
  O  O216  1  0.25716410  0.61608116  0.88130364  1
  O  O217  1  0.24714071  0.88204511  0.12917131  1
  O  O218  1  0.26050170  0.85742617  0.39774370  1
  O  O219  1  0.26441923  0.87697421  0.63906603  1
  O  O220  1  0.25115743  0.90764910  0.86565566  1
  O  O221  1  0.49200678  0.12603451  0.12448128  1
  O  O222  1  0.50290102  0.08816560  0.37306753  1
  O  O223  1  0.50363860  0.16430045  0.62076112  1
  O  O224  1  0.49586408  0.13166695  0.87479618  1
  O  O225  1  0.48970373  0.38652490  0.10708608  1
  O  O226  1  0.49422893  0.40081096  0.38640088  1
  O  O227  1  0.50393122  0.36480101  0.63084263  1
  O  O228  1  0.50850108  0.35979912  0.89422537  1
  O  O229  1  0.49720968  0.62351339  0.09926932  1
  O  O230  1  0.48401542  0.58708078  0.37730206  1
  O  O231  1  0.50209080  0.62866547  0.62026269  1
  O  O232  1  0.50081334  0.65183570  0.89314627  1
  O  O233  1  0.49088437  0.88245025  0.11371001  1
  O  O234  1  0.50379694  0.90430903  0.36021870  1
  O  O235  1  0.50627672  0.83415328  0.65178611  1
  O  O236  1  0.50080272  0.84907063  0.88232475  1
  O  O237  1  0.74422135  0.11485970  0.15105850  1
  O  O238  1  0.73992717  0.12797716  0.35219299  1
  O  O239  1  0.74320542  0.10074296  0.63047920  1
  O  O240  1  0.75242838  0.10098534  0.86232722  1
  O  O241  1  0.75359051  0.37237933  0.16052223  1
  O  O242  1  0.75030041  0.37502699  0.34504073  1
  O  O243  1  0.75881005  0.39022638  0.62502556  1
  O  O244  1  0.74898779  0.43043621  0.87525036  1
  O  O245  1  0.74052590  0.64895115  0.12113330  1
  O  O246  1  0.74849026  0.65511765  0.38250523  1
  O  O247  1  0.74922786  0.63155144  0.62076820  1
  O  O248  1  0.74440606  0.61725983  0.89774342  1
  O  O249  1  0.74513366  0.85728320  0.12087218  1
  O  O250  1  0.74024493  0.84080780  0.39479555  1
  O  O251  1  0.74112416  0.87710430  0.60462460  1
  O  O252  1  0.75123448  0.89330653  0.89050375  1
  O  O253  1  0.11722874  0.00233368  0.12619237  1
  O  O254  1  0.15667321  0.01973730  0.40240118  1
  O  O255  1  0.10264432  0.00393381  0.57746473  1
  O  O256  1  0.08930884  -0.00023234  0.88155517  1
  O  O257  1  0.12876691  0.25154331  0.15222490  1
  O  O258  1  0.09468782  0.25626121  0.36389062  1
  O  O259  1  0.15184796  0.26193811  0.65880154  1
  O  O260  1  0.11934607  0.24444906  0.86518263  1
  O  O261  1  0.08928544  0.50278390  0.09347457  1
  O  O262  1  0.12509473  0.48947097  0.40242204  1
  O  O263  1  0.09837055  0.49566915  0.60427031  1
  O  O264  1  0.08945282  0.50317872  0.88162820  1
  O  O265  1  0.12944756  0.75838140  0.15553144  1
  O  O266  1  0.12755022  0.73712091  0.35843807  1
  O  O267  1  0.13035166  0.75013943  0.64735183  1
  O  O268  1  0.15304416  0.75406133  0.84299100  1
  O  O269  1  0.36065884  0.00872689  0.10856384  1
  O  O270  1  0.36388835  -0.00038294  0.40642074  1
  O  O271  1  0.39965045  -0.00923261  0.60872753  1
  O  O272  1  0.39210406  -0.00535495  0.90912735  1
  O  O273  1  0.36872252  0.25993480  0.14830936  1
  O  O274  1  0.39278563  0.25575505  0.33681803  1
  O  O275  1  0.34699288  0.24712768  0.65515117  1
  O  O276  1  0.36326159  0.24420771  0.85212715  1
  O  O277  1  0.38039301  0.50904744  0.08903225  1
  O  O278  1  0.35018340  0.48368837  0.42605050  1
  O  O279  1  0.38528364  0.50714210  0.61092373  1
  O  O280  1  0.39030200  0.50899447  0.90725080  1
  O  O281  1  0.37926980  0.75141073  0.14790557  1
  O  O282  1  0.39131212  0.73059372  0.35493873  1
  O  O283  1  0.37693572  0.74174783  0.64856384  1
  O  O284  1  0.34789972  0.75901722  0.85811911  1
  O  O285  1  0.61297777  -0.00413424  0.13454596  1
  O  O286  1  0.64985177  -0.01141529  0.37039775  1
  O  O287  1  0.60258736  -0.00955927  0.63622141  1
  O  O288  1  0.60118247  -0.01391020  0.87223567  1
  O  O289  1  0.61850172  0.24329855  0.12112694  1
  O  O290  1  0.59634270  0.24189144  0.37421495  1
  O  O291  1  0.65696262  0.24838665  0.60058337  1
  O  O292  1  0.64975535  0.26458701  0.90242024  1
  O  O293  1  0.63348467  0.50790479  0.15491791  1
  O  O294  1  0.64024826  0.51033109  0.34024664  1
  O  O295  1  0.64437629  0.50813757  0.64675134  1
  O  O296  1  0.59576044  0.50987952  0.85285356  1
  O  O297  1  0.60803140  0.75253259  0.10696403  1
  O  O298  1  0.58406119  0.74072672  0.38195560  1
  O  O299  1  0.63101557  0.74276281  0.59707819  1
  O  O300  1  0.64059544  0.74915858  0.90064485  1
  O  O301  1  0.86889024  0.00109787  0.09563949  1
  O  O302  1  0.83925580  -0.00768676  0.39081779  1
  O  O303  1  0.87293749  -0.00287486  0.60240021  1
  O  O304  1  0.88706771  -0.00893917  0.91006956  1
  O  O305  1  0.86012819  0.23871243  0.13832153  1
  O  O306  1  0.89735669  0.22330102  0.35431009  1
  O  O307  1  0.85796552  0.24505223  0.63783135  1
  O  O308  1  0.83059383  0.26285435  0.88098881  1
  O  O309  1  0.88022409  0.49917406  0.12168527  1
  O  O310  1  0.86121170  0.50617496  0.39927734  1
  O  O311  1  0.88819235  0.50407314  0.60359796  1
  O  O312  1  0.90476070  0.50431067  0.91067824  1
  O  O313  1  0.87701892  0.75571662  0.14968382  1
  O  O314  1  0.90938344  0.75229859  0.37093644  1
  O  O315  1  0.87052511  0.75059103  0.66089133  1
  O  O316  1  0.84445982  0.75076425  0.85785054  1
