# generated using pymatgen
data_Mg32Ti42(Bi17O64)3
_symmetry_space_group_name_H-M   'P 1'
_cell_length_a   15.94053487
_cell_length_b   15.94254237
_cell_length_c   15.97149705
_cell_angle_alpha   90.18806384
_cell_angle_beta   89.99270714
_cell_angle_gamma   90.03527966
_symmetry_Int_Tables_number   1
_chemical_formula_structural   Mg32Ti42(Bi17O64)3
_chemical_formula_sum   'Mg32 Ti42 Bi51 O192'
_cell_volume   4058.85624494
_cell_formula_units_Z   1
loop_
 _symmetry_equiv_pos_site_id
 _symmetry_equiv_pos_as_xyz
  1  'x, y, z'
loop_
 _atom_site_type_symbol
 _atom_site_label
 _atom_site_symmetry_multiplicity
 _atom_site_fract_x
 _atom_site_fract_y
 _atom_site_fract_z
 _atom_site_occupancy
  Mg  Mg0  1  0.12141161  0.88097309  0.86902426  1
  Mg  Mg1  1  0.86868135  0.37305098  0.12283585  1
  Mg  Mg2  1  0.86143759  0.88642140  0.12756785  1
  Mg  Mg3  1  0.12388749  0.62862086  0.86500001  1
  Mg  Mg4  1  0.37139209  0.62351297  0.87959946  1
  Mg  Mg5  1  0.12625575  0.36799081  0.86654059  1
  Mg  Mg6  1  0.12564794  0.63083553  0.13071676  1
  Mg  Mg7  1  0.61787934  0.11755041  0.86864255  1
  Mg  Mg8  1  0.37230731  0.38315202  0.12438618  1
  Mg  Mg9  1  0.87646111  0.12225766  0.36944070  1
  Mg  Mg10  1  0.88030681  0.61967323  0.62747961  1
  Mg  Mg11  1  0.37741455  0.62891738  0.61744170  1
  Mg  Mg12  1  0.38289211  0.87653179  0.86383777  1
  Mg  Mg13  1  0.13039029  0.37261779  0.12642581  1
  Mg  Mg14  1  0.62240097  0.63026393  0.11981195  1
  Mg  Mg15  1  0.86378331  0.13001173  0.87439969  1
  Mg  Mg16  1  0.37179281  0.87928952  0.39022055  1
  Mg  Mg17  1  0.13183126  0.11834184  0.63395908  1
  Mg  Mg18  1  0.62758610  0.61618321  0.36931622  1
  Mg  Mg19  1  0.48302387  0.06405628  0.73544139  1
  Mg  Mg20  1  0.48549582  0.25803968  0.79997352  1
  Mg  Mg21  1  0.29202181  -0.00056056  0.73200645  1
  Mg  Mg22  1  0.51269357  -0.01752202  0.33365951  1
  Mg  Mg23  1  0.56013231  0.49175838  -0.01620711  1
  Mg  Mg24  1  0.66885073  0.26977708  -0.05358590  1
  Mg  Mg25  1  0.45918601  0.71327464  0.75199291  1
  Mg  Mg26  1  0.04047979  0.25233075  0.69936181  1
  Mg  Mg27  1  0.48044333  0.32116400  -0.00629028  1
  Mg  Mg28  1  0.74750797  -0.04397150  -0.03846419  1
  Mg  Mg29  1  -0.00092967  0.00499621  0.18065971  1
  Mg  Mg30  1  0.67123489  -0.00024520  0.23735264  1
  Mg  Mg31  1  0.43099171  0.02206685  0.56066598  1
  Ti  Ti32  1  0.87649272  0.36952307  0.61809209  1
  Ti  Ti33  1  0.61903867  0.13167363  0.37509188  1
  Ti  Ti34  1  0.62557897  0.87478315  0.85755115  1
  Ti  Ti35  1  0.36154827  0.38641475  0.88031375  1
  Ti  Ti36  1  0.62192558  0.37155113  0.12418534  1
  Ti  Ti37  1  0.86540423  0.87452439  0.62539886  1
  Ti  Ti38  1  0.87299925  0.62659834  0.11903485  1
  Ti  Ti39  1  0.11858148  0.63233102  0.36933680  1
  Ti  Ti40  1  0.88483430  0.87695168  0.37148406  1
  Ti  Ti41  1  0.12585632  0.37955960  0.37198367  1
  Ti  Ti42  1  0.61307661  0.63879504  0.62868054  1
  Ti  Ti43  1  0.61521213  0.37486767  0.36542980  1
  Ti  Ti44  1  0.37771517  0.11759096  0.11615441  1
  Ti  Ti45  1  0.62531875  0.62770205  0.87498718  1
  Ti  Ti46  1  0.37585653  0.38767436  0.61715916  1
  Ti  Ti47  1  0.12813512  0.63067068  0.62324302  1
  Ti  Ti48  1  0.86357884  0.12328733  0.11579890  1
  Ti  Ti49  1  0.13068409  0.88648031  0.63211972  1
  Ti  Ti50  1  0.37465085  0.37056114  0.37229396  1
  Ti  Ti51  1  0.62292356  0.88349361  0.11935356  1
  Ti  Ti52  1  0.37725775  0.11777363  0.36738606  1
  Ti  Ti53  1  0.62946406  0.88089541  0.62799150  1
  Ti  Ti54  1  0.87608838  0.87396948  0.87194372  1
  Ti  Ti55  1  0.62262272  0.13103774  0.10385121  1
  Ti  Ti56  1  0.62344608  0.12019857  0.61610029  1
  Ti  Ti57  1  0.38328206  0.13547300  0.88286035  1
  Ti  Ti58  1  0.37643415  0.63364974  0.37949389  1
  Ti  Ti59  1  0.12995665  0.88295817  0.11401488  1
  Ti  Ti60  1  0.88256573  0.36203054  0.86881322  1
  Ti  Ti61  1  0.87554294  0.61691923  0.87479498  1
  Ti  Ti62  1  0.12046843  0.11987465  0.36572546  1
  Ti  Ti63  1  0.88142681  0.61897783  0.37099956  1
  Ti  Ti64  1  0.13304192  0.12191236  0.11614205  1
  Ti  Ti65  1  0.39637313  0.86678143  0.62941054  1
  Ti  Ti66  1  0.61258290  0.36665922  0.61497856  1
  Ti  Ti67  1  0.12385862  0.12454173  0.86537172  1
  Ti  Ti68  1  0.87123978  0.37738670  0.37173002  1
  Ti  Ti69  1  0.12466005  0.87199225  0.37508320  1
  Ti  Ti70  1  0.38455610  0.87961419  0.11355822  1
  Ti  Ti71  1  0.14163784  0.37324493  0.62168680  1
  Ti  Ti72  1  0.38254050  0.63142947  0.11495085  1
  Ti  Ti73  1  0.87160963  0.13815517  0.62770602  1
  Bi  Bi74  1  0.49815076  0.73596472  -0.02953194  1
  Bi  Bi75  1  0.26029864  0.77158863  0.73908703  1
  Bi  Bi76  1  0.51453634  0.79336305  0.26229904  1
  Bi  Bi77  1  0.23133422  0.24176531  0.48230835  1
  Bi  Bi78  1  0.53141567  0.77705623  0.47859382  1
  Bi  Bi79  1  0.26206479  0.00022382  0.23338879  1
  Bi  Bi80  1  0.73168034  0.50205772  0.72074309  1
  Bi  Bi81  1  0.74329477  0.03256526  0.75190860  1
  Bi  Bi82  1  0.00173901  0.47093902  0.22504981  1
  Bi  Bi83  1  0.74403650  0.75354294  0.46840472  1
  Bi  Bi84  1  0.26669192  0.52853724  0.73313661  1
  Bi  Bi85  1  -0.00255054  0.76435598  0.73560149  1
  Bi  Bi86  1  0.25434403  0.51480620  0.48165219  1
  Bi  Bi87  1  0.01690603  0.72875172  -0.01156050  1
  Bi  Bi88  1  0.27486706  0.21579558  0.72368642  1
  Bi  Bi89  1  0.75695016  0.45620827  -0.01862317  1
  Bi  Bi90  1  0.00588891  0.47748033  0.74169795  1
  Bi  Bi91  1  0.51560339  0.46419222  0.78009979  1
  Bi  Bi92  1  0.51433223  -0.00410345  -0.02292891  1
  Bi  Bi93  1  0.72081464  -0.02388720  0.46742770  1
  Bi  Bi94  1  0.25397331  0.00186432  -0.04763411  1
  Bi  Bi95  1  0.25065325  0.76430270  -0.03087981  1
  Bi  Bi96  1  0.73027604  0.51274562  0.49995074  1
  Bi  Bi97  1  0.50440838  0.50865824  0.48090784  1
  Bi  Bi98  1  -0.00897422  0.25738773  -0.01528384  1
  Bi  Bi99  1  0.45750709  0.21961959  0.52610493  1
  Bi  Bi100  1  0.75327128  0.51812833  0.22625552  1
  Bi  Bi101  1  -0.02917173  0.00525754  0.49245279  1
  Bi  Bi102  1  -0.02350480  0.74610216  0.51273810  1
  Bi  Bi103  1  0.51219950  0.52007541  0.22848729  1
  Bi  Bi104  1  0.74664151  0.25496622  0.46835039  1
  Bi  Bi105  1  0.24463746  0.76265279  0.49328450  1
  Bi  Bi106  1  0.74443319  0.21636804  0.24205715  1
  Bi  Bi107  1  0.75777558  0.73174127  0.76649049  1
  Bi  Bi108  1  0.75115528  0.77495453  0.24051238  1
  Bi  Bi109  1  -0.00415683  0.24962755  0.48067173  1
  Bi  Bi110  1  0.26410867  0.52001413  0.23233920  1
  Bi  Bi111  1  -0.02588790  0.01170516  -0.01933839  1
  Bi  Bi112  1  0.00282303  0.50375385  0.50933774  1
  Bi  Bi113  1  0.02903588  0.49197377  -0.00348075  1
  Bi  Bi114  1  0.01013540  0.77175671  0.22282602  1
  Bi  Bi115  1  0.27222909  0.76548657  0.23972254  1
  Bi  Bi116  1  0.23513737  0.01304556  0.48709423  1
  Bi  Bi117  1  0.70773418  0.26526363  0.76063998  1
  Bi  Bi118  1  0.23580047  0.26911016  -0.01288208  1
  Bi  Bi119  1  0.23693260  0.51767949  -0.01519754  1
  Bi  Bi120  1  0.25353251  0.26775258  0.23077110  1
  Bi  Bi121  1  -0.02021523  0.24123400  0.22038242  1
  Bi  Bi122  1  0.48334651  0.24512153  0.21647852  1
  Bi  Bi123  1  0.75611069  0.75433129  0.00430534  1
  Bi  Bi124  1  -0.01273895  0.02045055  0.73382169  1
  O  O125  1  0.13206937  0.09904743  0.00451086  1
  O  O126  1  0.12855597  0.13514706  0.25600217  1
  O  O127  1  0.14674812  0.11619038  0.50806878  1
  O  O128  1  0.11891423  0.16508358  0.76058496  1
  O  O129  1  0.15201043  0.38282679  0.00239572  1
  O  O130  1  0.11139724  0.35863217  0.26015196  1
  O  O131  1  0.15024566  0.37621361  0.50436062  1
  O  O132  1  0.09197999  0.36398905  0.74285605  1
  O  O133  1  0.09634980  0.61875182  0.00565678  1
  O  O134  1  0.14499077  0.64136929  0.25828737  1
  O  O135  1  0.10827361  0.60029836  0.50016520  1
  O  O136  1  0.14702146  0.62330133  0.74084633  1
  O  O137  1  0.14421760  0.89781857  0.00396607  1
  O  O138  1  0.11548627  0.86163849  0.26261956  1
  O  O139  1  0.15963840  0.88560480  0.51233093  1
  O  O140  1  0.10859239  0.84645765  0.74693889  1
  O  O141  1  0.37875983  0.09486753  0.00300209  1
  O  O142  1  0.37755285  0.14552839  0.25424044  1
  O  O143  1  0.37766310  0.11102308  0.49580410  1
  O  O144  1  0.40504921  0.16288983  0.76595601  1
  O  O145  1  0.35441279  0.37234208  -0.00068028  1
  O  O146  1  0.38266146  0.34294347  0.25869220  1
  O  O147  1  0.36219413  0.40172264  0.50489194  1
  O  O148  1  0.41562684  0.35878211  0.77063792  1
  O  O149  1  0.41079176  0.61762182  0.00638729  1
  O  O150  1  0.34940819  0.64088530  0.26213829  1
  O  O151  1  0.38297002  0.58820191  0.49642228  1
  O  O152  1  0.35141914  0.64205815  0.75106547  1
  O  O153  1  0.35680827  0.89690985  0.00475936  1
  O  O154  1  0.38687927  0.84560573  0.24997389  1
  O  O155  1  0.37395223  0.91319325  0.51994545  1
  O  O156  1  0.39497312  0.82231179  0.74727894  1
  O  O157  1  0.62937784  0.15867899  -0.00480836  1
  O  O158  1  0.63875970  0.12253353  0.24967121  1
  O  O159  1  0.63839303  0.13196669  0.49570007  1
  O  O160  1  0.61119759  0.09093256  0.73661263  1
  O  O161  1  0.61752957  0.36659598  0.00318697  1
  O  O162  1  0.61236141  0.38979639  0.25097014  1
  O  O163  1  0.64325695  0.36467589  0.50219673  1
  O  O164  1  0.61486014  0.37649213  0.74232097  1
  O  O165  1  0.60068385  0.62294276  -0.00753724  1
  O  O166  1  0.63833280  0.59504155  0.24532804  1
  O  O167  1  0.61217588  0.60777116  0.50888036  1
  O  O168  1  0.64982782  0.63123683  0.74750085  1
  O  O169  1  0.66466543  0.87054422  0.01252067  1
  O  O170  1  0.57232601  0.91515063  0.23817881  1
  O  O171  1  0.64450163  0.86268712  0.50300434  1
  O  O172  1  0.61000874  0.88193457  0.74654244  1
  O  O173  1  0.89266874  0.13150384  0.00096743  1
  O  O174  1  0.87760527  0.14004073  0.24439860  1
  O  O175  1  0.88459137  0.11993604  0.51150622  1
  O  O176  1  0.87258322  0.09864524  0.74945604  1
  O  O177  1  0.86854871  0.38352326  -0.00176580  1
  O  O178  1  0.89193821  0.36571288  0.25750257  1
  O  O179  1  0.85853710  0.38048008  0.50476360  1
  O  O180  1  0.89895002  0.38128341  0.75455525  1
  O  O181  1  0.87943449  0.63878068  0.00193006  1
  O  O182  1  0.84347938  0.63119808  0.25698109  1
  O  O183  1  0.91076691  0.61349706  0.49904861  1
  O  O184  1  0.85441453  0.62906512  0.75479737  1
  O  O185  1  0.83746176  0.86803999  0.00101077  1
  O  O186  1  0.88631070  0.85747636  0.25724276  1
  O  O187  1  0.87756951  0.88053606  0.50792638  1
  O  O188  1  0.89938942  0.87778834  0.75136416  1
  O  O189  1  0.01131899  0.12716924  0.13259183  1
  O  O190  1  0.00619118  0.11423095  0.38913863  1
  O  O191  1  -0.00358283  0.14119061  0.64897302  1
  O  O192  1  0.00763539  0.09582151  0.87435757  1
  O  O193  1  0.00150064  0.36512785  0.13047939  1
  O  O194  1  0.00553147  0.37080748  0.40300004  1
  O  O195  1  -0.00331531  0.33522917  0.60689446  1
  O  O196  1  0.00046829  0.37749496  0.90209973  1
  O  O197  1  -0.01526516  0.65808253  0.13738639  1
  O  O198  1  0.00120724  0.62310424  0.35206042  1
  O  O199  1  0.01028387  0.65515404  0.63543591  1
  O  O200  1  -0.00876988  0.63579838  0.86987038  1
  O  O201  1  0.00167560  0.87931815  0.13164740  1
  O  O202  1  0.00575532  0.87759795  0.40061382  1
  O  O203  1  0.01066182  0.84244441  0.61974375  1
  O  O204  1  -0.00935403  0.88910053  0.89720606  1
  O  O205  1  0.25620722  0.09953377  0.13441411  1
  O  O206  1  0.25427856  0.12622877  0.38244471  1
  O  O207  1  0.25447338  0.09783264  0.66532491  1
  O  O208  1  0.26186039  0.14926506  0.88136699  1
  O  O209  1  0.25171191  0.38660905  0.16078887  1
  O  O210  1  0.24888174  0.34290789  0.36917395  1
  O  O211  1  0.25240281  0.39647869  0.64915545  1
  O  O212  1  0.25473513  0.33981605  0.86164305  1
  O  O213  1  0.25527222  0.60615886  0.11308994  1
  O  O214  1  0.24872763  0.63285184  0.40428575  1
  O  O215  1  0.24782914  0.59041975  0.60784743  1
  O  O216  1  0.24639921  0.63563266  0.90935856  1
  O  O217  1  0.25009222  0.88387059  0.15121926  1
  O  O218  1  0.24941241  0.85442218  0.36908968  1
  O  O219  1  0.24904198  0.89565843  0.66860176  1
  O  O220  1  0.25200899  0.85554033  0.86465835  1
  O  O221  1  0.50044725  0.13666545  0.12326588  1
  O  O222  1  0.50461721  0.10843188  0.37109419  1
  O  O223  1  0.50476073  0.11032657  0.61227300  1
  O  O224  1  0.49489732  0.08037283  0.87086236  1
  O  O225  1  0.49446745  0.34500524  0.11648725  1
  O  O226  1  0.49671492  0.38985882  0.38626751  1
  O  O227  1  0.49791840  0.36955643  0.60433107  1
  O  O228  1  0.48522407  0.41908468  0.90947589  1
  O  O229  1  0.49437659  0.64071044  0.15909021  1
  O  O230  1  0.49382307  0.59833538  0.37149540  1
  O  O231  1  0.50136692  0.65353868  0.64793620  1
  O  O232  1  0.50357402  0.65029373  0.85336991  1
  O  O233  1  0.50042556  0.86337501  0.09907045  1
  O  O234  1  0.49877306  0.86807727  0.38353837  1
  O  O235  1  0.50982100  0.85424470  0.60650341  1
  O  O236  1  0.50779014  0.88187556  0.89848478  1
  O  O237  1  0.74903301  0.12667244  0.12649562  1
  O  O238  1  0.75039101  0.14768929  0.37246661  1
  O  O239  1  0.75015062  0.11127706  0.63803709  1
  O  O240  1  0.74106856  0.14060763  0.84292846  1
  O  O241  1  0.74017787  0.40172678  0.12139617  1
  O  O242  1  0.75250167  0.35790034  0.36742920  1
  O  O243  1  0.75680040  0.38971631  0.64283264  1
  O  O244  1  0.75617363  0.34597099  0.88405338  1
  O  O245  1  0.75009139  0.59396039  0.11242956  1
  O  O246  1  0.75800609  0.61788242  0.40914960  1
  O  O247  1  0.75567381  0.59230676  0.61565257  1
  O  O248  1  0.74682746  0.64494812  0.88194014  1
  O  O249  1  0.73325709  0.90074536  0.17974578  1
  O  O250  1  0.76301993  0.86689984  0.38254645  1
  O  O251  1  0.75381228  0.88138640  0.64446413  1
  O  O252  1  0.74838335  0.87866931  0.85335649  1
  O  O253  1  0.12115116  -0.00150902  0.15465924  1
  O  O254  1  0.14301107  -0.00410016  0.37989858  1
  O  O255  1  0.09867560  -0.00512841  0.63623200  1
  O  O256  1  0.15674895  0.00909782  0.84938326  1
  O  O257  1  0.15329808  0.24105622  0.11765033  1
  O  O258  1  0.11901048  0.24188137  0.39925441  1
  O  O259  1  0.15198961  0.25289911  0.62239422  1
  O  O260  1  0.11205473  0.24145518  0.91369172  1
  O  O261  1  0.09833196  0.50239195  0.12971750  1
  O  O262  1  0.13783469  0.49531278  0.36695780  1
  O  O263  1  0.09266294  0.49096882  0.62882067  1
  O  O264  1  0.12619022  0.50040531  0.88965116  1
  O  O265  1  0.11778416  0.76160277  0.11874062  1
  O  O266  1  0.11934909  0.74770007  0.40368312  1
  O  O267  1  0.15790039  0.74251757  0.60772006  1
  O  O268  1  0.11928610  0.75371560  0.90035358  1
  O  O269  1  0.38151943  -0.00554435  0.15387538  1
  O  O270  1  0.37941600  0.00063339  0.35055635  1
  O  O271  1  0.40597182  -0.01900343  0.67529224  1
  O  O272  1  0.34719805  0.00403195  0.84728390  1
  O  O273  1  0.36093615  0.23725675  0.12538138  1
  O  O274  1  0.38602368  0.24911300  0.40632429  1
  O  O275  1  0.35801175  0.26315521  0.61360124  1
  O  O276  1  0.42497547  0.24259160  0.91157813  1
  O  O277  1  0.38307881  0.50804241  0.15486304  1
  O  O278  1  0.34637859  0.48757017  0.35724792  1
  O  O279  1  0.38825537  0.49704771  0.65998968  1
  O  O280  1  0.33544373  0.49814166  0.87212527  1
  O  O281  1  0.35527328  0.75144360  0.11697222  1
  O  O282  1  0.38749523  0.74306501  0.40640903  1
  O  O283  1  0.34485459  0.75704998  0.60656461  1
  O  O284  1  0.37815633  0.75110796  0.90400492  1
  O  O285  1  0.62376849  0.01009425  0.10788104  1
  O  O286  1  0.63795788  0.00699977  0.36568396  1
  O  O287  1  0.63080545  -0.00800145  0.59890464  1
  O  O288  1  0.63811639  -0.00665024  0.90487646  1
  O  O289  1  0.63460702  0.25311932  0.14322460  1
  O  O290  1  0.62084111  0.25336835  0.37144276  1
  O  O291  1  0.62785779  0.24416618  0.63407703  1
  O  O292  1  0.60091041  0.24231414  0.84394935  1
  O  O293  1  0.58365409  0.49200030  0.10978045  1
  O  O294  1  0.63048347  0.49061420  0.39408817  1
  O  O295  1  0.62201280  0.49503970  0.63147863  1
  O  O296  1  0.62468865  0.51106681  0.87203069  1
  O  O297  1  0.64481283  0.76146454  0.14374219  1
  O  O298  1  0.63145922  0.74090810  0.37960850  1
  O  O299  1  0.64818168  0.74612438  0.61744211  1
  O  O300  1  0.62817965  0.75912436  0.88150723  1
  O  O301  1  0.88945019  0.00783409  0.12291859  1
  O  O302  1  0.87666928  -0.00511630  0.38625112  1
  O  O303  1  0.90331346  -0.00705964  0.62435995  1
  O  O304  1  0.85664798  -0.00183838  0.90268138  1
  O  O305  1  0.87898254  0.24717465  0.12697143  1
  O  O306  1  0.88320798  0.25389668  0.39575368  1
  O  O307  1  0.85291156  0.24971166  0.63144754  1
  O  O308  1  0.90434223  0.24900973  0.87517686  1
  O  O309  1  0.89371829  0.50789871  0.14081692  1
  O  O310  1  0.87719862  0.49725646  0.37020713  1
  O  O311  1  0.91676611  0.49057596  0.63031153  1
  O  O312  1  0.86160060  0.50263317  0.88053359  1
  O  O313  1  0.83175627  0.75133815  0.12866964  1
  O  O314  1  0.87696051  0.74529090  0.39671349  1
  O  O315  1  0.87329533  0.75171108  0.61753737  1
  O  O316  1  0.86524303  0.75600000  0.87018570  1
