# generated using pymatgen
data_Mg32Ti42(Bi17O64)3
_symmetry_space_group_name_H-M   'P 1'
_cell_length_a   15.93097053
_cell_length_b   15.95085529
_cell_length_c   15.91419115
_cell_angle_alpha   90.06969319
_cell_angle_beta   89.96304005
_cell_angle_gamma   90.13408109
_symmetry_Int_Tables_number   1
_chemical_formula_structural   Mg32Ti42(Bi17O64)3
_chemical_formula_sum   'Mg32 Ti42 Bi51 O192'
_cell_volume   4043.98167648
_cell_formula_units_Z   1
loop_
 _symmetry_equiv_pos_site_id
 _symmetry_equiv_pos_as_xyz
  1  'x, y, z'
loop_
 _atom_site_type_symbol
 _atom_site_label
 _atom_site_symmetry_multiplicity
 _atom_site_fract_x
 _atom_site_fract_y
 _atom_site_fract_z
 _atom_site_occupancy
  Mg  Mg0  1  0.11607223  0.63219728  0.62882714  1
  Mg  Mg1  1  0.12784881  0.37684132  0.36476648  1
  Mg  Mg2  1  0.62966802  0.87739375  0.63227762  1
  Mg  Mg3  1  0.87429452  0.62516813  0.37988614  1
  Mg  Mg4  1  0.12493209  0.37239662  0.62932788  1
  Mg  Mg5  1  0.37679648  0.62559276  0.37977475  1
  Mg  Mg6  1  0.63478726  0.61098096  0.62125104  1
  Mg  Mg7  1  0.13595823  0.12711290  0.87580380  1
  Mg  Mg8  1  0.61711253  0.13404243  0.63988224  1
  Mg  Mg9  1  0.61513355  0.12758792  0.13285460  1
  Mg  Mg10  1  0.87399933  0.88268244  0.38287566  1
  Mg  Mg11  1  0.37975670  0.36926408  0.63015143  1
  Mg  Mg12  1  0.88844253  0.36859601  0.11645332  1
  Mg  Mg13  1  0.62966057  0.62264323  0.38447423  1
  Mg  Mg14  1  0.61896793  0.87494887  0.38449479  1
  Mg  Mg15  1  0.87428972  0.11770503  0.12638132  1
  Mg  Mg16  1  0.37074321  0.36737420  0.37201468  1
  Mg  Mg17  1  0.12788566  0.12449408  0.36553036  1
  Mg  Mg18  1  0.12872482  0.87001586  0.38147191  1
  Mg  Mg19  1  0.44519390  0.52564240  0.56470096  1
  Mg  Mg20  1  0.69727434  0.74270024  0.72373286  1
  Mg  Mg21  1  0.78692828  0.26044956  0.73654746  1
  Mg  Mg22  1  0.71320700  0.04103518  0.01184004  1
  Mg  Mg23  1  0.71272899  0.02467844  0.25183540  1
  Mg  Mg24  1  0.03734606  0.25232121  -0.01220405  1
  Mg  Mg25  1  0.25474290  0.29442075  0.22927555  1
  Mg  Mg26  1  0.71801511  0.02651310  0.72164525  1
  Mg  Mg27  1  0.52122390  0.28800386  0.76262723  1
  Mg  Mg28  1  0.54199948  0.00500592  0.53368235  1
  Mg  Mg29  1  0.52367660  -0.03979069  0.75496195  1
  Mg  Mg30  1  0.47907792  0.69286091  0.70665850  1
  Mg  Mg31  1  -0.00620846  0.53295007  -0.00777005  1
  Ti  Ti32  1  0.62498506  0.37455545  0.38688616  1
  Ti  Ti33  1  0.87667096  0.62813012  0.62527278  1
  Ti  Ti34  1  0.87010514  0.12667940  0.37053791  1
  Ti  Ti35  1  0.87936124  0.38040986  0.62919171  1
  Ti  Ti36  1  0.63741060  0.37938926  0.13305392  1
  Ti  Ti37  1  0.87527694  0.36563976  0.36822184  1
  Ti  Ti38  1  0.38042460  0.62579243  0.87436293  1
  Ti  Ti39  1  0.86392515  0.12531009  0.87473560  1
  Ti  Ti40  1  0.37361013  0.13528191  0.89461996  1
  Ti  Ti41  1  0.36918718  0.13762225  0.36876288  1
  Ti  Ti42  1  0.12124249  0.87546976  0.12295114  1
  Ti  Ti43  1  0.39308600  0.87286846  0.13088623  1
  Ti  Ti44  1  0.12283412  0.62782818  0.38268369  1
  Ti  Ti45  1  0.37979197  0.11745473  0.13194474  1
  Ti  Ti46  1  0.13483394  0.12470124  0.62600820  1
  Ti  Ti47  1  0.63013602  0.63183838  0.11824533  1
  Ti  Ti48  1  0.61925428  0.13954246  0.37500634  1
  Ti  Ti49  1  0.63831185  0.63782281  0.87619446  1
  Ti  Ti50  1  0.62967434  0.11903045  0.85783976  1
  Ti  Ti51  1  0.63803067  0.38037649  0.87287761  1
  Ti  Ti52  1  0.85943492  0.12874674  0.63253536  1
  Ti  Ti53  1  0.87597252  0.63595487  0.87413589  1
  Ti  Ti54  1  0.37351034  0.86710267  0.38709264  1
  Ti  Ti55  1  0.87825649  0.88770397  0.12216140  1
  Ti  Ti56  1  0.85575340  0.88436899  0.63751687  1
  Ti  Ti57  1  0.61831647  0.38601546  0.62680294  1
  Ti  Ti58  1  0.12013921  0.62558981  0.11766570  1
  Ti  Ti59  1  0.88088265  0.62771736  0.11868546  1
  Ti  Ti60  1  0.38215321  0.37636564  0.86855270  1
  Ti  Ti61  1  0.13428185  0.37972359  0.87045559  1
  Ti  Ti62  1  0.64781081  0.89009759  0.87283445  1
  Ti  Ti63  1  0.87693049  0.88639268  0.87700444  1
  Ti  Ti64  1  0.88583553  0.36653961  0.87652649  1
  Ti  Ti65  1  0.62571228  0.89190045  0.12417900  1
  Ti  Ti66  1  0.38135217  0.12114306  0.62550354  1
  Ti  Ti67  1  0.12202730  0.88924145  0.87253911  1
  Ti  Ti68  1  0.12734927  0.12973859  0.13112146  1
  Ti  Ti69  1  0.13628525  0.88182376  0.62683903  1
  Ti  Ti70  1  0.11078242  0.39332783  0.10759240  1
  Ti  Ti71  1  0.39322728  0.89025416  0.62464133  1
  Ti  Ti72  1  0.39502304  0.63839554  0.12434124  1
  Ti  Ti73  1  0.13474085  0.63484402  0.87125922  1
  Bi  Bi74  1  0.75841972  0.26300122  0.52234705  1
  Bi  Bi75  1  0.28356523  0.78596247  0.77428900  1
  Bi  Bi76  1  0.00280031  0.51142981  0.27526088  1
  Bi  Bi77  1  -0.00021727  0.76663917  -0.00559360  1
  Bi  Bi78  1  0.29075940  0.00528056  0.77397600  1
  Bi  Bi79  1  0.73301249  0.01978702  0.49277893  1
  Bi  Bi80  1  0.00996954  -0.01258313  0.27069230  1
  Bi  Bi81  1  0.25524075  -0.01084953  0.25658283  1
  Bi  Bi82  1  0.52924587  0.73244433  0.52897954  1
  Bi  Bi83  1  0.53600915  0.24264832  -0.01727319  1
  Bi  Bi84  1  0.51783286  0.73552862  0.27645141  1
  Bi  Bi85  1  0.49241789  0.46755276  0.02639225  1
  Bi  Bi86  1  0.27556529  0.51240175  0.02209417  1
  Bi  Bi87  1  0.77200336  0.50050815  0.47577754  1
  Bi  Bi88  1  0.25620325  0.26636517  0.52311648  1
  Bi  Bi89  1  0.49670908  0.77658667  -0.04562899  1
  Bi  Bi90  1  0.75598260  0.52253673  0.74013017  1
  Bi  Bi91  1  0.49917753  0.00590987  0.30031719  1
  Bi  Bi92  1  0.00635887  0.02104112  0.48915844  1
  Bi  Bi93  1  0.50529148  0.48676359  0.29484661  1
  Bi  Bi94  1  0.46629418  0.27993856  0.21621394  1
  Bi  Bi95  1  0.02055838  0.26407803  0.23248944  1
  Bi  Bi96  1  0.24279147  0.75763940  0.01865797  1
  Bi  Bi97  1  0.03216636  0.25641506  0.47946692  1
  Bi  Bi98  1  0.28551795  0.49325813  0.25635019  1
  Bi  Bi99  1  0.50670551  0.24260753  0.52661006  1
  Bi  Bi100  1  0.48699929  -0.01154599  -0.02992430  1
  Bi  Bi101  1  0.74690279  0.52460040  0.24802216  1
  Bi  Bi102  1  0.75031521  0.77359302  0.01801519  1
  Bi  Bi103  1  0.00904780  0.04446729  0.00159646  1
  Bi  Bi104  1  0.27021165  0.01097575  0.48026892  1
  Bi  Bi105  1  -0.00248553  0.78601446  0.52792821  1
  Bi  Bi106  1  0.26976249  0.28025653  0.02831223  1
  Bi  Bi107  1  0.26609540  0.25829877  0.76225152  1
  Bi  Bi108  1  0.51686087  0.51167303  0.77475031  1
  Bi  Bi109  1  0.29342720  0.72398964  0.54897204  1
  Bi  Bi110  1  0.76374656  0.24529379  0.00266066  1
  Bi  Bi111  1  0.00093451  0.77855574  0.74757898  1
  Bi  Bi112  1  -0.00148402  0.01829416  0.73228614  1
  Bi  Bi113  1  0.25391721  0.00195545  0.02037631  1
  Bi  Bi114  1  0.00594492  0.51181567  0.77625093  1
  Bi  Bi115  1  0.02315149  0.50065602  0.51901751  1
  Bi  Bi116  1  0.25377365  0.72680352  0.26680108  1
  Bi  Bi117  1  0.78500325  0.49240599  0.01014176  1
  Bi  Bi118  1  0.74875075  0.77227165  0.49672121  1
  Bi  Bi119  1  0.26542138  0.54172529  0.72792985  1
  Bi  Bi120  1  0.02518825  0.25141047  0.75834231  1
  Bi  Bi121  1  0.75097847  0.79032361  0.26574321  1
  Bi  Bi122  1  -0.01867339  0.75537801  0.27671612  1
  Bi  Bi123  1  0.26107565  0.49494527  0.50343848  1
  Bi  Bi124  1  0.75949451  0.22784509  0.22839893  1
  O  O125  1  0.12283522  0.14685521  0.00324381  1
  O  O126  1  0.10668790  0.08807516  0.24137816  1
  O  O127  1  0.12314761  0.12476809  0.50586418  1
  O  O128  1  0.09382847  0.11607892  0.75012025  1
  O  O129  1  0.13992710  0.34195015  -0.00942896  1
  O  O130  1  0.08541110  0.39042823  0.22913628  1
  O  O131  1  0.14389717  0.35034295  0.49501035  1
  O  O132  1  0.09204820  0.38154352  0.75433227  1
  O  O133  1  0.14097620  0.64865412  -0.00866754  1
  O  O134  1  0.10277710  0.60105578  0.22873074  1
  O  O135  1  0.12360477  0.63733385  0.49401259  1
  O  O136  1  0.11386625  0.59808391  0.75549102  1
  O  O137  1  0.12874359  0.84331580  -0.01027887  1
  O  O138  1  0.12545758  0.89854830  0.23697683  1
  O  O139  1  0.11499033  0.86982917  0.50971480  1
  O  O140  1  0.10328653  0.88402059  0.75126143  1
  O  O141  1  0.35453952  0.13439758  0.00825808  1
  O  O142  1  0.37936855  0.08814936  0.24930568  1
  O  O143  1  0.34792109  0.13070744  0.48671129  1
  O  O144  1  0.38586323  0.11737859  0.73939084  1
  O  O145  1  0.35153539  0.38361771  -0.00819272  1
  O  O146  1  0.39874579  0.39331173  0.24226753  1
  O  O147  1  0.33921307  0.37241328  0.49394337  1
  O  O148  1  0.39940295  0.34235872  0.75305137  1
  O  O149  1  0.36585132  0.62306504  -0.00447224  1
  O  O150  1  0.38049852  0.63280500  0.24044719  1
  O  O151  1  0.35846056  0.60788528  0.50393984  1
  O  O152  1  0.38108384  0.61876292  0.75197776  1
  O  O153  1  0.41180673  0.86863568  0.00498324  1
  O  O154  1  0.36236535  0.88867778  0.24467308  1
  O  O155  1  0.37443946  0.86171098  0.50310545  1
  O  O156  1  0.38214578  0.89447146  0.74359160  1
  O  O157  1  0.64107781  0.14623992  -0.00517130  1
  O  O158  1  0.60634594  0.09401803  0.26070762  1
  O  O159  1  0.64289965  0.13700666  0.49521269  1
  O  O160  1  0.59041385  0.07676696  0.75629949  1
  O  O161  1  0.63752958  0.34960219  -0.01015937  1
  O  O162  1  0.61581529  0.39481573  0.24627847  1
  O  O163  1  0.63316348  0.34603456  0.50338943  1
  O  O164  1  0.59966037  0.38778756  0.75029196  1
  O  O165  1  0.63365333  0.64503794  -0.00836035  1
  O  O166  1  0.62596782  0.60482121  0.23731517  1
  O  O167  1  0.64347190  0.66086226  0.50575888  1
  O  O168  1  0.62635035  0.59773576  0.75302705  1
  O  O169  1  0.61961028  0.84746810  -0.00061762  1
  O  O170  1  0.65764313  0.90878193  0.23996156  1
  O  O171  1  0.62791025  0.84184183  0.50850006  1
  O  O172  1  0.64762331  0.91356723  0.75813407  1
  O  O173  1  0.82119383  0.11240599  -0.00708852  1
  O  O174  1  0.88739420  0.13794798  0.25945680  1
  O  O175  1  0.83351145  0.11584248  0.51520809  1
  O  O176  1  0.89777963  0.11735813  0.75605336  1
  O  O177  1  0.85194107  0.35772034  -0.00948016  1
  O  O178  1  0.89559938  0.36489191  0.25365907  1
  O  O179  1  0.84511084  0.37023740  0.51015713  1
  O  O180  1  0.88009334  0.36144178  0.74924259  1
  O  O181  1  0.86156115  0.62510194  -0.00630525  1
  O  O182  1  0.87668318  0.59581938  0.23502364  1
  O  O183  1  0.85656651  0.62421815  0.51028031  1
  O  O184  1  0.88660716  0.59950476  0.75677959  1
  O  O185  1  0.88712822  0.85117348  0.00013221  1
  O  O186  1  0.87677180  0.87494368  0.23977174  1
  O  O187  1  0.86643825  0.86743497  0.51435313  1
  O  O188  1  0.88541304  0.87321387  0.75662752  1
  O  O189  1  0.00467041  0.13776833  0.11053668  1
  O  O190  1  -0.01514864  0.13637244  0.41063223  1
  O  O191  1  -0.02063382  0.09386160  0.61623492  1
  O  O192  1  -0.02422466  0.15288751  0.91324248  1
  O  O193  1  0.01128767  0.32490470  0.09510485  1
  O  O194  1  -0.00945798  0.36223016  0.39758505  1
  O  O195  1  -0.00741772  0.39082877  0.60504220  1
  O  O196  1  -0.00453433  0.33103838  0.89082330  1
  O  O197  1  -0.00145186  0.64020355  0.09516061  1
  O  O198  1  0.00006489  0.63748041  0.36041992  1
  O  O199  1  -0.00643551  0.58968834  0.62169697  1
  O  O200  1  0.00161091  0.62046484  0.88798859  1
  O  O201  1  0.00552307  0.84776313  0.11642301  1
  O  O202  1  0.00053553  0.85817234  0.36387764  1
  O  O203  1  -0.01557939  0.88675583  0.62550972  1
  O  O204  1  0.00272032  0.85757092  0.88146209  1
  O  O205  1  0.24554876  0.09190145  0.12786138  1
  O  O206  1  0.25094531  0.09139937  0.36047845  1
  O  O207  1  0.24715710  0.14107387  0.63614855  1
  O  O208  1  0.25799678  0.11398572  0.85806729  1
  O  O209  1  0.23112442  0.38285282  0.12584060  1
  O  O210  1  0.24528203  0.37981115  0.32205272  1
  O  O211  1  0.24785587  0.33654898  0.64227250  1
  O  O212  1  0.24880852  0.38311829  0.84082950  1
  O  O213  1  0.24314593  0.60600419  0.12215321  1
  O  O214  1  0.24028493  0.61052416  0.34502829  1
  O  O215  1  0.23937616  0.65273243  0.65144901  1
  O  O216  1  0.25338747  0.60814366  0.86401127  1
  O  O217  1  0.25182678  0.88430471  0.09925518  1
  O  O218  1  0.25136567  0.90333415  0.37435940  1
  O  O219  1  0.24757460  0.85932026  0.63693350  1
  O  O220  1  0.24303647  0.88879094  0.85790579  1
  O  O221  1  0.48969051  0.14938000  0.12016174  1
  O  O222  1  0.49291236  0.13372238  0.37589629  1
  O  O223  1  0.49445246  0.10987109  0.58601320  1
  O  O224  1  0.49404628  0.12671257  0.89904155  1
  O  O225  1  0.51127441  0.35090701  0.10240541  1
  O  O226  1  0.50392987  0.36743124  0.37434919  1
  O  O227  1  0.50178276  0.41354277  0.60237598  1
  O  O228  1  0.49598251  0.35122577  0.88607201  1
  O  O229  1  0.50682206  0.65014615  0.11322934  1
  O  O230  1  0.50234480  0.64678610  0.37747672  1
  O  O231  1  0.50949538  0.61419824  0.61337345  1
  O  O232  1  0.50384439  0.63539243  0.85787487  1
  O  O233  1  0.50951426  0.86847635  0.14836299  1
  O  O234  1  0.49063055  0.84796682  0.35810384  1
  O  O235  1  0.50461671  0.92225872  0.62966965  1
  O  O236  1  0.51967861  0.88875726  0.86768993  1
  O  O237  1  0.74550764  0.10471885  0.16031316  1
  O  O238  1  0.74204081  0.09382764  0.35811426  1
  O  O239  1  0.74504601  0.14869324  0.67009324  1
  O  O240  1  0.74032579  0.09676043  0.83650970  1
  O  O241  1  0.75128685  0.40593235  0.12409813  1
  O  O242  1  0.74763350  0.39335539  0.37165286  1
  O  O243  1  0.73668135  0.33641014  0.64461691  1
  O  O244  1  0.74728322  0.39027533  0.85645986  1
  O  O245  1  0.75042697  0.59197190  0.11854926  1
  O  O246  1  0.75176953  0.59728990  0.36795554  1
  O  O247  1  0.75642441  0.64171465  0.66312917  1
  O  O248  1  0.75343807  0.60438808  0.86455108  1
  O  O249  1  0.75658750  0.88812157  0.09931162  1
  O  O250  1  0.74822561  0.87140270  0.38348570  1
  O  O251  1  0.75029258  0.82660257  0.63808870  1
  O  O252  1  0.76053262  0.87684212  0.89768877  1
  O  O253  1  0.11904386  -0.01035882  0.08658261  1
  O  O254  1  0.09322570  -0.00060270  0.37961483  1
  O  O255  1  0.12804254  0.00036265  0.62846750  1
  O  O256  1  0.11283861  0.00045296  0.89481599  1
  O  O257  1  0.15128791  0.23660516  0.17050687  1
  O  O258  1  0.10667680  0.24756055  0.35688092  1
  O  O259  1  0.09795457  0.23979052  0.63699133  1
  O  O260  1  0.13804359  0.25018728  0.84121653  1
  O  O261  1  0.09477352  0.50209067  0.07775488  1
  O  O262  1  0.10345446  0.50422063  0.37740005  1
  O  O263  1  0.14091870  0.49710032  0.59489463  1
  O  O264  1  0.10024192  0.48852945  0.89185295  1
  O  O265  1  0.15024115  0.74760852  0.12763532  1
  O  O266  1  0.13681330  0.74461172  0.34336823  1
  O  O267  1  0.08926981  0.75864266  0.63412260  1
  O  O268  1  0.14069626  0.74531504  0.84466748  1
  O  O269  1  0.38252368  -0.00365305  0.09939020  1
  O  O270  1  0.38829128  -0.00890052  0.39676902  1
  O  O271  1  0.35184616  0.00292112  0.60649418  1
  O  O272  1  0.37703917  0.01012307  0.88469486  1
  O  O273  1  0.34525758  0.23879314  0.15409881  1
  O  O274  1  0.35353121  0.24411173  0.33722559  1
  O  O275  1  0.39001007  0.24251221  0.60291001  1
  O  O276  1  0.35115946  0.25279007  0.88679776  1
  O  O277  1  0.38740030  0.51322307  0.10871767  1
  O  O278  1  0.37373180  0.49928434  0.36506495  1
  O  O279  1  0.33860108  0.48834224  0.61897912  1
  O  O280  1  0.39499618  0.49473990  0.87086554  1
  O  O281  1  0.35970559  0.75513208  0.11992351  1
  O  O282  1  0.34059655  0.75135334  0.37192196  1
  O  O283  1  0.39650427  0.76378830  0.63488872  1
  O  O284  1  0.37008874  0.74450260  0.87747142  1
  O  O285  1  0.62027604  0.00059940  0.09495783  1
  O  O286  1  0.58892902  -0.00490126  0.41404170  1
  O  O287  1  0.64973863  0.00662473  0.60578505  1
  O  O288  1  0.63449267  0.00011576  0.91460628  1
  O  O289  1  0.65347161  0.25633971  0.14206590  1
  O  O290  1  0.63490367  0.24884354  0.35749223  1
  O  O291  1  0.57111304  0.25370338  0.64687937  1
  O  O292  1  0.61331480  0.24023309  0.84946922  1
  O  O293  1  0.60215721  0.49673717  0.10124848  1
  O  O294  1  0.60993994  0.49241064  0.39435111  1
  O  O295  1  0.66264531  0.48994718  0.61759517  1
  O  O296  1  0.60250785  0.49329176  0.88530176  1
  O  O297  1  0.65728109  0.74564192  0.13357568  1
  O  O298  1  0.63632462  0.75130175  0.34267485  1
  O  O299  1  0.58651653  0.75403314  0.65969555  1
  O  O300  1  0.65019324  0.74960799  0.84507209  1
  O  O301  1  0.90476671  -0.00443606  0.11680628  1
  O  O302  1  0.89884342  0.00599529  0.38306824  1
  O  O303  1  0.82361450  -0.00602612  0.64592098  1
  O  O304  1  0.89337093  -0.00199929  0.88270354  1
  O  O305  1  0.84326839  0.24477923  0.12212810  1
  O  O306  1  0.84880976  0.24702862  0.38984996  1
  O  O307  1  0.87579057  0.24430313  0.62729382  1
  O  O308  1  0.83116684  0.23986913  0.86079631  1
  O  O309  1  0.90186402  0.49531868  0.08338063  1
  O  O310  1  0.88608744  0.49099525  0.39276170  1
  O  O311  1  0.84912443  0.49274842  0.62720543  1
  O  O312  1  0.90467195  0.48187224  0.89130770  1
  O  O313  1  0.85347005  0.73958901  0.12808666  1
  O  O314  1  0.86476463  0.74824455  0.35317104  1
  O  O315  1  0.90607968  0.74008760  0.63582497  1
  O  O316  1  0.87732162  0.74567018  0.86609579  1
