# generated using pymatgen
data_Mg32Ti42(Bi17O64)3
_symmetry_space_group_name_H-M   'P 1'
_cell_length_a   15.98656986
_cell_length_b   15.92145819
_cell_length_c   15.94935408
_cell_angle_alpha   90.03888954
_cell_angle_beta   90.03775891
_cell_angle_gamma   89.90826713
_symmetry_Int_Tables_number   1
_chemical_formula_structural   Mg32Ti42(Bi17O64)3
_chemical_formula_sum   'Mg32 Ti42 Bi51 O192'
_cell_volume   4059.57416119
_cell_formula_units_Z   1
loop_
 _symmetry_equiv_pos_site_id
 _symmetry_equiv_pos_as_xyz
  1  'x, y, z'
loop_
 _atom_site_type_symbol
 _atom_site_label
 _atom_site_symmetry_multiplicity
 _atom_site_fract_x
 _atom_site_fract_y
 _atom_site_fract_z
 _atom_site_occupancy
  Mg  Mg0  1  0.63812336  0.62939177  0.87111931  1
  Mg  Mg1  1  0.61635878  0.89017573  0.62714812  1
  Mg  Mg2  1  0.13152491  0.87805295  0.36445841  1
  Mg  Mg3  1  0.61844123  0.12104692  0.61831990  1
  Mg  Mg4  1  0.63700361  0.11840253  0.12746112  1
  Mg  Mg5  1  0.86781768  0.87605481  0.13570570  1
  Mg  Mg6  1  0.11486881  0.37656352  0.62735019  1
  Mg  Mg7  1  0.86633244  0.87557039  0.87198071  1
  Mg  Mg8  1  0.63289802  0.37535229  0.62236168  1
  Mg  Mg9  1  0.37765819  0.87259839  0.12192138  1
  Mg  Mg10  1  0.61373462  0.63183931  0.37462206  1
  Mg  Mg11  1  0.11673134  0.64068664  0.87268512  1
  Mg  Mg12  1  0.38277628  0.37926929  0.37711792  1
  Mg  Mg13  1  0.86568932  0.62914122  0.11818596  1
  Mg  Mg14  1  0.88185345  0.63412788  0.38497427  1
  Mg  Mg15  1  0.61313955  0.62146811  0.62573362  1
  Mg  Mg16  1  0.11805924  0.11822070  0.88015891  1
  Mg  Mg17  1  0.13112786  0.11761139  0.62127169  1
  Mg  Mg18  1  0.88024057  0.36815010  0.12041667  1
  Mg  Mg19  1  0.72916079  0.01536387  -0.08202866  1
  Mg  Mg20  1  0.46114453  0.00891430  0.51579141  1
  Mg  Mg21  1  -0.06762136  0.73690462  0.76600810  1
  Mg  Mg22  1  0.30206484  -0.00224671  0.25654376  1
  Mg  Mg23  1  0.02170868  0.82152483  0.49161448  1
  Mg  Mg24  1  0.29285974  0.73068779  -0.01030083  1
  Mg  Mg25  1  0.68378013  0.74792829  0.51360726  1
  Mg  Mg26  1  0.44714333  0.51087055  0.27451079  1
  Mg  Mg27  1  0.71112940  0.46103276  0.81193675  1
  Mg  Mg28  1  -0.05811283  -0.02953087  0.00795384  1
  Mg  Mg29  1  0.70106808  0.75336014  0.70088135  1
  Mg  Mg30  1  0.55585191  0.05639854  -0.02162782  1
  Mg  Mg31  1  0.78487111  0.05168772  0.70347324  1
  Ti  Ti32  1  0.86994078  0.38477100  0.63983997  1
  Ti  Ti33  1  0.37519211  0.87783019  0.37464943  1
  Ti  Ti34  1  0.86373387  0.37588210  0.37425364  1
  Ti  Ti35  1  0.11962842  0.62729217  0.38443945  1
  Ti  Ti36  1  0.13013594  0.63615312  0.12268504  1
  Ti  Ti37  1  0.37190425  0.61827960  0.87058384  1
  Ti  Ti38  1  0.13165340  0.11817963  0.36377657  1
  Ti  Ti39  1  0.13148915  0.63265392  0.62394311  1
  Ti  Ti40  1  0.35601485  0.12334227  0.12801022  1
  Ti  Ti41  1  0.12905748  0.87333803  0.62953577  1
  Ti  Ti42  1  0.37703763  0.88732185  0.64386419  1
  Ti  Ti43  1  0.63199638  0.62093613  0.12478947  1
  Ti  Ti44  1  0.86081674  0.63296492  0.62096373  1
  Ti  Ti45  1  0.36796944  0.62048478  0.62944562  1
  Ti  Ti46  1  0.88025070  0.36117201  0.87057164  1
  Ti  Ti47  1  0.11749608  0.38013565  0.37822085  1
  Ti  Ti48  1  0.86927303  0.11532034  0.12520310  1
  Ti  Ti49  1  0.37626775  0.62644167  0.39187950  1
  Ti  Ti50  1  0.61931162  0.38268538  0.37161638  1
  Ti  Ti51  1  0.36470083  0.37181773  0.87935203  1
  Ti  Ti52  1  0.38333441  0.87400784  0.87959887  1
  Ti  Ti53  1  0.12447722  0.11168368  0.12580485  1
  Ti  Ti54  1  0.86653249  0.85295556  0.62054806  1
  Ti  Ti55  1  0.36908493  0.11613899  0.88542741  1
  Ti  Ti56  1  0.12970666  0.37561086  0.11942078  1
  Ti  Ti57  1  0.12465291  0.87358493  0.12972085  1
  Ti  Ti58  1  0.87898107  0.87128040  0.37885484  1
  Ti  Ti59  1  0.61089638  0.87885603  0.37832101  1
  Ti  Ti60  1  0.37848775  0.36133413  0.63516045  1
  Ti  Ti61  1  0.62440340  0.38560701  0.13001263  1
  Ti  Ti62  1  0.37762834  0.61590251  0.12275759  1
  Ti  Ti63  1  0.86689295  0.12787969  0.36021382  1
  Ti  Ti64  1  0.36612025  0.38716734  0.12254737  1
  Ti  Ti65  1  0.86074774  0.62332621  0.87892360  1
  Ti  Ti66  1  0.11288138  0.87752626  0.88616704  1
  Ti  Ti67  1  0.61952789  0.87117761  0.12743128  1
  Ti  Ti68  1  0.62462883  0.86740045  0.86842549  1
  Ti  Ti69  1  0.60282688  0.11603137  0.37678348  1
  Ti  Ti70  1  0.38311507  0.12207328  0.63674236  1
  Ti  Ti71  1  0.87932176  0.11601251  0.88137670  1
  Ti  Ti72  1  0.11423312  0.37368425  0.87420362  1
  Ti  Ti73  1  0.37290380  0.12874185  0.37779930  1
  Bi  Bi74  1  0.52368281  0.48546952  -0.02559741  1
  Bi  Bi75  1  0.75271967  0.53790450  0.27653318  1
  Bi  Bi76  1  0.27766042  0.76283564  0.24523090  1
  Bi  Bi77  1  0.72622387  0.53644745  0.50162648  1
  Bi  Bi78  1  0.50589731  0.01303369  0.20892495  1
  Bi  Bi79  1  0.48108593  0.77679560  0.52301071  1
  Bi  Bi80  1  0.73334349  0.76496245  0.27079710  1
  Bi  Bi81  1  0.72063360  0.22464323  0.77384998  1
  Bi  Bi82  1  -0.03013385  0.25050765  0.49608438  1
  Bi  Bi83  1  0.24411111  0.27062794  0.27765320  1
  Bi  Bi84  1  0.74735206  0.23735820  0.53613152  1
  Bi  Bi85  1  0.23819459  0.47865152  0.51270884  1
  Bi  Bi86  1  0.50448243  0.25330037  0.50567682  1
  Bi  Bi87  1  -0.03498695  0.02711000  0.50177061  1
  Bi  Bi88  1  -0.03009207  0.50577613  0.23698027  1
  Bi  Bi89  1  0.52585965  0.03436346  0.77658517  1
  Bi  Bi90  1  0.74613033  0.00266154  0.25929805  1
  Bi  Bi91  1  0.51381602  0.73022104  -0.01021468  1
  Bi  Bi92  1  -0.01307921  0.53092757  0.76218831  1
  Bi  Bi93  1  0.49811004  0.72291488  0.24307558  1
  Bi  Bi94  1  0.50832567  0.26179703  0.25910631  1
  Bi  Bi95  1  -0.02092221  -0.02148391  0.71943080  1
  Bi  Bi96  1  0.21968837  0.52460112  -0.00685099  1
  Bi  Bi97  1  0.24639242  0.75687001  0.77188800  1
  Bi  Bi98  1  0.00190288  -0.01432311  0.26999468  1
  Bi  Bi99  1  0.22536806  0.49887243  0.75665910  1
  Bi  Bi100  1  0.75865061  0.47178468  0.00362297  1
  Bi  Bi101  1  0.00651341  0.26984697  0.23641887  1
  Bi  Bi102  1  -0.01317499  0.72467510  0.24593277  1
  Bi  Bi103  1  -0.01807717  0.50793522  0.52779967  1
  Bi  Bi104  1  0.75934486  0.27265535  0.24066839  1
  Bi  Bi105  1  0.22408613  -0.01091650  0.76089961  1
  Bi  Bi106  1  0.25206567  -0.02898605  0.00758617  1
  Bi  Bi107  1  -0.00375693  0.21755391  0.01329735  1
  Bi  Bi108  1  0.51336035  0.25216713  0.80492803  1
  Bi  Bi109  1  0.74670388  0.78604652  -0.00070130  1
  Bi  Bi110  1  0.21184814  0.23812238  0.74803068  1
  Bi  Bi111  1  0.23057873  0.51006294  0.25328583  1
  Bi  Bi112  1  -0.02230594  0.50194541  0.00489559  1
  Bi  Bi113  1  -0.01583171  0.77426843  0.01701404  1
  Bi  Bi114  1  0.48527879  0.25358182  0.03081542  1
  Bi  Bi115  1  0.73509066  -0.00455687  0.51274016  1
  Bi  Bi116  1  0.49630814  0.48199421  0.52487477  1
  Bi  Bi117  1  0.71431410  0.23022228  -0.00519896  1
  Bi  Bi118  1  0.51113552  0.72701667  0.74571697  1
  Bi  Bi119  1  0.23750215  0.23554090  -0.01813474  1
  Bi  Bi120  1  0.52166344  0.47062588  0.75932586  1
  Bi  Bi121  1  0.23437605  -0.00257392  0.49828083  1
  Bi  Bi122  1  0.23587167  0.76017216  0.48304626  1
  Bi  Bi123  1  -0.01652103  0.20209356  0.71760345  1
  Bi  Bi124  1  0.23711263  0.23573323  0.52007680  1
  O  O125  1  0.14319756  0.13845061  0.00585052  1
  O  O126  1  0.10606309  0.12777435  0.24438231  1
  O  O127  1  0.15670115  0.11854376  0.49139290  1
  O  O128  1  0.12377460  0.13127180  0.75156597  1
  O  O129  1  0.11604305  0.38986153  0.00212804  1
  O  O130  1  0.14676294  0.37396161  0.24992438  1
  O  O131  1  0.12412001  0.38926363  0.49601931  1
  O  O132  1  0.14458594  0.37715063  0.75444515  1
  O  O133  1  0.10728628  0.60989707  0.00505209  1
  O  O134  1  0.15460823  0.62990139  0.25097919  1
  O  O135  1  0.12426846  0.60028780  0.49998894  1
  O  O136  1  0.15137031  0.62032993  0.74232443  1
  O  O137  1  0.15314683  0.86985725  -0.00282496  1
  O  O138  1  0.09456577  0.87362586  0.24269972  1
  O  O139  1  0.14686864  0.87924841  0.50230814  1
  O  O140  1  0.11446002  0.89686401  0.74820478  1
  O  O141  1  0.35865401  0.14142696  0.00242913  1
  O  O142  1  0.38464901  0.10067304  0.24570474  1
  O  O143  1  0.35534632  0.13901161  0.49220691  1
  O  O144  1  0.39414884  0.10723686  0.75126748  1
  O  O145  1  0.38875098  0.35809092  -0.00170454  1
  O  O146  1  0.37408578  0.40499111  0.23727872  1
  O  O147  1  0.41261040  0.36844779  0.50193959  1
  O  O148  1  0.36490297  0.38266541  0.74862531  1
  O  O149  1  0.39251973  0.64796488  0.00069738  1
  O  O150  1  0.34814017  0.59961756  0.23811848  1
  O  O151  1  0.40071096  0.64591825  0.50360210  1
  O  O152  1  0.34812185  0.62002437  0.75216411  1
  O  O153  1  0.34339714  0.85577775  -0.00314077  1
  O  O154  1  0.36292024  0.88488175  0.25360239  1
  O  O155  1  0.35739837  0.85621471  0.49371146  1
  O  O156  1  0.40421763  0.89844061  0.75290350  1
  O  O157  1  0.67133657  0.09903013  0.00143601  1
  O  O158  1  0.58500719  0.13183781  0.25347532  1
  O  O159  1  0.65435670  0.10589731  0.48862465  1
  O  O160  1  0.60274310  0.14097777  0.74255877  1
  O  O161  1  0.63242654  0.40763941  0.00895598  1
  O  O162  1  0.63728713  0.34412976  0.24685169  1
  O  O163  1  0.58898153  0.37450639  0.48492452  1
  O  O164  1  0.63144437  0.38912868  0.74710155  1
  O  O165  1  0.59051589  0.60859870  0.00738911  1
  O  O166  1  0.64585981  0.64315420  0.24692099  1
  O  O167  1  0.62547625  0.62896752  0.49780747  1
  O  O168  1  0.63388064  0.66013229  0.74829871  1
  O  O169  1  0.64261917  0.88176719  0.01594707  1
  O  O170  1  0.61938062  0.84685038  0.25879581  1
  O  O171  1  0.64645404  0.89262305  0.49485969  1
  O  O172  1  0.62641658  0.85055965  0.75510213  1
  O  O173  1  0.86384163  0.15179726  0.00325379  1
  O  O174  1  0.90196651  0.10529186  0.24845418  1
  O  O175  1  0.88054996  0.13925131  0.48935095  1
  O  O176  1  0.89995338  0.09916590  0.75714798  1
  O  O177  1  0.89376091  0.38105596  -0.00555778  1
  O  O178  1  0.86964146  0.36556983  0.25027660  1
  O  O179  1  0.89165221  0.36436894  0.48971152  1
  O  O180  1  0.85407759  0.39247567  0.75312580  1
  O  O181  1  0.89745819  0.62333496  -0.00683969  1
  O  O182  1  0.87343647  0.62037751  0.24863794  1
  O  O183  1  0.89241629  0.62337591  0.50794476  1
  O  O184  1  0.87176391  0.61075244  0.74391325  1
  O  O185  1  0.86883491  0.85658379  0.00419276  1
  O  O186  1  0.89822794  0.89934952  0.25636942  1
  O  O187  1  0.88905835  0.85422893  0.50063310  1
  O  O188  1  0.90001986  0.86580534  0.74821844  1
  O  O189  1  0.00732932  0.10464861  0.09311503  1
  O  O190  1  0.01707547  0.10372549  0.39213761  1
  O  O191  1  0.00693378  0.10898786  0.61967092  1
  O  O192  1  -0.00593440  0.12953511  0.89505193  1
  O  O193  1  0.01182946  0.39060033  0.15009857  1
  O  O194  1  0.00486029  0.38275455  0.35958919  1
  O  O195  1  -0.00746148  0.40671978  0.62907048  1
  O  O196  1  0.00241471  0.36263060  0.85850706  1
  O  O197  1  0.01334230  0.60900367  0.15372925  1
  O  O198  1  0.00904837  0.61356275  0.35433891  1
  O  O199  1  0.01482344  0.59746902  0.63175309  1
  O  O200  1  -0.00392203  0.64721628  0.83623906  1
  O  O201  1  0.00735266  0.89170814  0.08843848  1
  O  O202  1  0.00568419  0.90268194  0.39118218  1
  O  O203  1  0.01391928  0.88698949  0.60708795  1
  O  O204  1  0.00048261  0.88526249  0.90505343  1
  O  O205  1  0.24722041  0.14865193  0.13838380  1
  O  O206  1  0.25847887  0.14674430  0.35186100  1
  O  O207  1  0.26181692  0.15238806  0.63351591  1
  O  O208  1  0.25583337  0.14243606  0.86715114  1
  O  O209  1  0.25429717  0.35533012  0.11533731  1
  O  O210  1  0.25835362  0.35662148  0.38272953  1
  O  O211  1  0.26491295  0.36279298  0.59815222  1
  O  O212  1  0.25123193  0.37309353  0.89081397  1
  O  O213  1  0.24924455  0.64660839  0.08923983  1
  O  O214  1  0.25753532  0.64819551  0.39185534  1
  O  O215  1  0.25709720  0.64741102  0.60625055  1
  O  O216  1  0.25230760  0.63508662  0.90488491  1
  O  O217  1  0.24046761  0.85367481  0.14254423  1
  O  O218  1  0.25233443  0.84210593  0.36663765  1
  O  O219  1  0.25806049  0.86572428  0.65743357  1
  O  O220  1  0.25903794  0.88030116  0.84059229  1
  O  O221  1  0.50746342  0.08935730  0.09320739  1
  O  O222  1  0.49669366  0.08770186  0.40890943  1
  O  O223  1  0.49355621  0.10057227  0.59825758  1
  O  O224  1  0.49502316  0.12022716  0.88478333  1
  O  O225  1  0.50530378  0.37110549  0.11764090  1
  O  O226  1  0.50941091  0.39783047  0.33412040  1
  O  O227  1  0.49895019  0.39640386  0.63471705  1
  O  O228  1  0.49290321  0.38159616  0.86390731  1
  O  O229  1  0.49089104  0.60428853  0.15698525  1
  O  O230  1  0.49273662  0.61432346  0.33952088  1
  O  O231  1  0.48983970  0.61976268  0.65647506  1
  O  O232  1  0.49039819  0.64718346  0.86367564  1
  O  O233  1  0.50390704  0.89141028  0.12682147  1
  O  O234  1  0.49722525  0.89060255  0.39199726  1
  O  O235  1  0.49196961  0.90517073  0.59087741  1
  O  O236  1  0.49729667  0.85528009  0.89199431  1
  O  O237  1  0.76004607  0.13746818  0.15571568  1
  O  O238  1  0.75379774  0.12976200  0.34151315  1
  O  O239  1  0.75008277  0.15654901  0.64483552  1
  O  O240  1  0.75747108  0.10318981  0.82773429  1
  O  O241  1  0.74904431  0.35458113  0.11764647  1
  O  O242  1  0.74834768  0.34596021  0.37443643  1
  O  O243  1  0.75817887  0.35474751  0.60743553  1
  O  O244  1  0.76398496  0.38918276  0.89576715  1
  O  O245  1  0.74099598  0.63008327  0.09928291  1
  O  O246  1  0.75365376  0.62781751  0.37890769  1
  O  O247  1  0.74886625  0.65733861  0.60778404  1
  O  O248  1  0.75418233  0.57490715  0.88344134  1
  O  O249  1  0.74471051  0.84032004  0.14649964  1
  O  O250  1  0.76198654  0.88068941  0.35624235  1
  O  O251  1  0.75605000  0.83379103  0.62182859  1
  O  O252  1  0.74042626  0.88526476  0.88735171  1
  O  O253  1  0.14864629  -0.00185994  0.12063643  1
  O  O254  1  0.16614214  0.00488482  0.35870946  1
  O  O255  1  0.15722031  -0.00525964  0.62021750  1
  O  O256  1  0.14692364  -0.00363806  0.87913292  1
  O  O257  1  0.10191986  0.25586074  0.12510247  1
  O  O258  1  0.12821552  0.25176250  0.36489596  1
  O  O259  1  0.12781464  0.24996666  0.62383437  1
  O  O260  1  0.13492027  0.25522412  0.88107623  1
  O  O261  1  0.15443970  0.50226259  0.13073152  1
  O  O262  1  0.14612486  0.50012078  0.36761345  1
  O  O263  1  0.16428844  0.50036140  0.62900154  1
  O  O264  1  0.13279256  0.50131367  0.86895615  1
  O  O265  1  0.09919773  0.74955133  0.12044603  1
  O  O266  1  0.10784022  0.74635256  0.40814214  1
  O  O267  1  0.12123284  0.75076366  0.61581859  1
  O  O268  1  0.13626326  0.76410932  0.86018603  1
  O  O269  1  0.34248256  0.00157027  0.12375417  1
  O  O270  1  0.35266681  -0.00409007  0.37918466  1
  O  O271  1  0.35687826  0.00392040  0.60246302  1
  O  O272  1  0.36832105  -0.00082501  0.89804349  1
  O  O273  1  0.40096458  0.24148087  0.13804916  1
  O  O274  1  0.40546316  0.24199632  0.35643218  1
  O  O275  1  0.40385683  0.24746176  0.63266589  1
  O  O276  1  0.38537694  0.25036846  0.86757081  1
  O  O277  1  0.35884946  0.49959566  0.09300591  1
  O  O278  1  0.37321421  0.50969986  0.38773571  1
  O  O279  1  0.36434861  0.50632339  0.60554733  1
  O  O280  1  0.37338947  0.50292703  0.88457954  1
  O  O281  1  0.38702914  0.74238523  0.14948435  1
  O  O282  1  0.39344033  0.74913892  0.34700642  1
  O  O283  1  0.40070418  0.76428602  0.63468675  1
  O  O284  1  0.35533663  0.75445972  0.86569085  1
  O  O285  1  0.64161751  -0.00958569  0.16197990  1
  O  O286  1  0.63879730  -0.00180675  0.34869297  1
  O  O287  1  0.67658544  0.00283332  0.63639968  1
  O  O288  1  0.60705903  -0.01118189  0.88168830  1
  O  O289  1  0.61639358  0.24512631  0.09521667  1
  O  O290  1  0.58991612  0.23825715  0.38117595  1
  O  O291  1  0.61784184  0.24906540  0.59077739  1
  O  O292  1  0.62847143  0.24489726  0.88602768  1
  O  O293  1  0.63608725  0.49795509  0.15069173  1
  O  O294  1  0.64983028  0.49538419  0.37534632  1
  O  O295  1  0.62965377  0.49975134  0.59818082  1
  O  O296  1  0.60485903  0.50927811  0.86552993  1
  O  O297  1  0.59773246  0.74178409  0.11460161  1
  O  O298  1  0.63442510  0.76237522  0.39419927  1
  O  O299  1  0.60057508  0.76057870  0.61091002  1
  O  O300  1  0.63243179  0.75028044  0.90717185  1
  O  O301  1  0.86511748  0.00270950  0.10728576  1
  O  O302  1  0.87212644  0.00652752  0.39167940  1
  O  O303  1  0.86631999  -0.01998696  0.62907930  1
  O  O304  1  0.86339213  0.00495938  0.91135545  1
  O  O305  1  0.91246988  0.24226352  0.13466944  1
  O  O306  1  0.89836809  0.24456382  0.36510981  1
  O  O307  1  0.90260626  0.26144304  0.62116226  1
  O  O308  1  0.85931320  0.24769638  0.85688598  1
  O  O309  1  0.88451022  0.49965713  0.12008697  1
  O  O310  1  0.85733822  0.49210655  0.36976922  1
  O  O311  1  0.86080619  0.50161979  0.60697311  1
  O  O312  1  0.90900407  0.50225753  0.88013270  1
  O  O313  1  0.90682505  0.75061787  0.13414493  1
  O  O314  1  0.89400061  0.75872582  0.35477758  1
  O  O315  1  0.90448734  0.74073502  0.64224767  1
  O  O316  1  0.85050109  0.73878442  0.86557146  1
