# generated using pymatgen
data_Mg32Ti42(Bi17O64)3
_symmetry_space_group_name_H-M   'P 1'
_cell_length_a   15.91361333
_cell_length_b   15.91176859
_cell_length_c   15.92346330
_cell_angle_alpha   89.99037677
_cell_angle_beta   90.07686337
_cell_angle_gamma   90.16469712
_symmetry_Int_Tables_number   1
_chemical_formula_structural   Mg32Ti42(Bi17O64)3
_chemical_formula_sum   'Mg32 Ti42 Bi51 O192'
_cell_volume   4032.01924243
_cell_formula_units_Z   1
loop_
 _symmetry_equiv_pos_site_id
 _symmetry_equiv_pos_as_xyz
  1  'x, y, z'
loop_
 _atom_site_type_symbol
 _atom_site_label
 _atom_site_symmetry_multiplicity
 _atom_site_fract_x
 _atom_site_fract_y
 _atom_site_fract_z
 _atom_site_occupancy
  Mg  Mg0  1  0.12478316  0.13054109  0.63065921  1
  Mg  Mg1  1  0.86228669  0.87417977  0.37469054  1
  Mg  Mg2  1  0.38003775  0.38361130  0.87287948  1
  Mg  Mg3  1  0.62337093  0.37267352  0.13145416  1
  Mg  Mg4  1  0.86641044  0.62314379  0.11384697  1
  Mg  Mg5  1  0.62703206  0.36603327  0.60335855  1
  Mg  Mg6  1  0.12363795  0.36470362  0.88075165  1
  Mg  Mg7  1  0.61280350  0.87439898  0.11856793  1
  Mg  Mg8  1  0.37051716  0.12816381  0.37716976  1
  Mg  Mg9  1  0.36832863  0.37255742  0.12821392  1
  Mg  Mg10  1  0.62353861  0.61218918  0.87333099  1
  Mg  Mg11  1  0.36854495  0.62182730  0.62970950  1
  Mg  Mg12  1  0.88732570  0.12784380  0.36999724  1
  Mg  Mg13  1  0.37322360  0.87642176  0.62655172  1
  Mg  Mg14  1  0.86775079  0.12443490  0.62637975  1
  Mg  Mg15  1  0.87438784  0.37155997  0.12917868  1
  Mg  Mg16  1  0.86959162  0.11041031  0.12054362  1
  Mg  Mg17  1  0.62368305  0.63390516  0.37901659  1
  Mg  Mg18  1  0.11685181  0.87726565  0.13243163  1
  Mg  Mg19  1  0.55478079  0.22895713  0.43523462  1
  Mg  Mg20  1  0.69855827  0.54906778  0.51896813  1
  Mg  Mg21  1  -0.01076000  0.00940843  0.00023801  1
  Mg  Mg22  1  -0.04462642  0.75054904  0.46125249  1
  Mg  Mg23  1  0.04241962  0.22790895  0.25455853  1
  Mg  Mg24  1  0.49120788  0.00376173  -0.02206055  1
  Mg  Mg25  1  0.53120838  0.48798109  0.70384501  1
  Mg  Mg26  1  0.25508459  -0.02489281  0.49155561  1
  Mg  Mg27  1  0.25477152  0.75574754  -0.03455940  1
  Mg  Mg28  1  0.71370339  0.31600809  0.75049415  1
  Mg  Mg29  1  0.70475131  0.52687237  0.70816554  1
  Mg  Mg30  1  0.52650662  0.73633888  0.51909739  1
  Mg  Mg31  1  0.75802758  0.01527835  0.28730007  1
  Ti  Ti32  1  0.60713164  0.86968623  0.86591866  1
  Ti  Ti33  1  0.11674087  0.37564308  0.37693250  1
  Ti  Ti34  1  0.12744411  0.12744662  0.86727396  1
  Ti  Ti35  1  0.38317460  0.37292750  0.38171894  1
  Ti  Ti36  1  0.37053685  0.87594279  0.86850009  1
  Ti  Ti37  1  0.38041099  0.13470359  0.62303801  1
  Ti  Ti38  1  0.37899261  0.61719326  0.86555231  1
  Ti  Ti39  1  0.11111086  0.62899844  0.12485408  1
  Ti  Ti40  1  0.13112409  0.36535164  0.12591886  1
  Ti  Ti41  1  0.12386800  0.61925621  0.61707813  1
  Ti  Ti42  1  0.86583612  0.87837400  0.11733336  1
  Ti  Ti43  1  0.12379520  0.11269879  0.37482229  1
  Ti  Ti44  1  0.62880175  0.62228262  0.11499510  1
  Ti  Ti45  1  0.62530048  0.10822011  0.11524716  1
  Ti  Ti46  1  0.62225872  0.38924927  0.38132806  1
  Ti  Ti47  1  0.11176912  0.63219427  0.87790002  1
  Ti  Ti48  1  0.86419176  0.36472904  0.88079732  1
  Ti  Ti49  1  0.87001653  0.61312216  0.87445252  1
  Ti  Ti50  1  0.85949173  0.62094154  0.38720472  1
  Ti  Ti51  1  0.62295527  0.13714158  0.87006209  1
  Ti  Ti52  1  0.86987889  0.87178666  0.62181305  1
  Ti  Ti53  1  0.60619015  0.87534783  0.62878116  1
  Ti  Ti54  1  0.85795566  0.37061895  0.62875248  1
  Ti  Ti55  1  0.38774957  0.37823219  0.62511557  1
  Ti  Ti56  1  0.36495985  0.11902085  0.12171170  1
  Ti  Ti57  1  0.37478437  0.86972022  0.37281840  1
  Ti  Ti58  1  0.62118141  0.38404095  0.88623460  1
  Ti  Ti59  1  0.36985004  0.11346621  0.88235671  1
  Ti  Ti60  1  0.88038330  0.61394376  0.62048670  1
  Ti  Ti61  1  0.87263263  0.10904138  0.88266833  1
  Ti  Ti62  1  0.87300363  0.87393267  0.87082518  1
  Ti  Ti63  1  0.86223988  0.37533504  0.37993819  1
  Ti  Ti64  1  0.11961718  0.86315769  0.37547647  1
  Ti  Ti65  1  0.13042874  0.87675204  0.61281451  1
  Ti  Ti66  1  0.12571350  0.87256920  0.86425835  1
  Ti  Ti67  1  0.12782813  0.36741083  0.62440382  1
  Ti  Ti68  1  0.61560111  0.86708512  0.36734220  1
  Ti  Ti69  1  0.11888784  0.63671153  0.37683592  1
  Ti  Ti70  1  0.38219630  0.89191646  0.11078066  1
  Ti  Ti71  1  0.63151905  0.13915953  0.63135208  1
  Ti  Ti72  1  0.38170014  0.63139230  0.38366218  1
  Ti  Ti73  1  0.12678430  0.11715870  0.12795246  1
  Bi  Bi74  1  0.52093243  0.70274267  0.73401113  1
  Bi  Bi75  1  -0.00409100  -0.01607728  0.73276640  1
  Bi  Bi76  1  0.01237284  0.78355616  0.00048551  1
  Bi  Bi77  1  0.47160582  0.50568943  0.24509751  1
  Bi  Bi78  1  -0.03399287  -0.00577808  0.24792660  1
  Bi  Bi79  1  0.48358040  0.24872580  0.24450150  1
  Bi  Bi80  1  0.75607686  0.72776817  0.75755672  1
  Bi  Bi81  1  0.74409012  0.48792162  0.24859613  1
  Bi  Bi82  1  0.24084052  0.21478266  0.49951613  1
  Bi  Bi83  1  0.24442157  -0.03556883  0.25123010  1
  Bi  Bi84  1  0.47925961  0.48377272  0.02209742  1
  Bi  Bi85  1  0.49910207  0.73545924  0.23387444  1
  Bi  Bi86  1  -0.00407273  0.47008649  0.77356112  1
  Bi  Bi87  1  0.50462867  0.53856136  0.51801582  1
  Bi  Bi88  1  0.49020597  0.24311826  0.01253869  1
  Bi  Bi89  1  0.74582338  0.23749252  0.01862737  1
  Bi  Bi90  1  0.25899451  0.73254379  0.50249411  1
  Bi  Bi91  1  0.26158779  0.27948876  -0.00590467  1
  Bi  Bi92  1  0.01408892  0.47820085  0.02311991  1
  Bi  Bi93  1  0.22909597  0.48208432  0.76248997  1
  Bi  Bi94  1  0.47368118  0.00164014  0.50521278  1
  Bi  Bi95  1  0.27516107  0.25456289  0.76173886  1
  Bi  Bi96  1  0.74511826  -0.00346912  0.73432725  1
  Bi  Bi97  1  0.73767028  0.21090455  0.24988483  1
  Bi  Bi98  1  0.22581696  0.51674606  0.26347710  1
  Bi  Bi99  1  0.70867568  0.01282198  0.47763235  1
  Bi  Bi100  1  0.46309590  0.72825398  -0.00009789  1
  Bi  Bi101  1  -0.00750034  0.22636816  0.51506422  1
  Bi  Bi102  1  -0.00627056  0.73439358  0.73416461  1
  Bi  Bi103  1  0.24267814  0.00801917  0.71784257  1
  Bi  Bi104  1  -0.03278470  0.23035719  0.75771758  1
  Bi  Bi105  1  0.25427307  0.48217849  0.49814460  1
  Bi  Bi106  1  0.24625619  0.26227126  0.26770698  1
  Bi  Bi107  1  0.72965535  0.75404873  -0.00509421  1
  Bi  Bi108  1  0.50478792  0.02376399  0.74233118  1
  Bi  Bi109  1  0.74155099  0.48096043  0.01543846  1
  Bi  Bi110  1  0.74157584  0.23220073  0.47039444  1
  Bi  Bi111  1  0.51323497  0.27558733  0.75024398  1
  Bi  Bi112  1  -0.02787623  0.50482410  0.24959234  1
  Bi  Bi113  1  0.71487888  -0.01509607  -0.01273210  1
  Bi  Bi114  1  0.72877844  0.75336621  0.24422969  1
  Bi  Bi115  1  0.20929678  -0.00825599  -0.00614530  1
  Bi  Bi116  1  0.25933318  0.53711889  0.01235909  1
  Bi  Bi117  1  -0.02281839  -0.00535855  0.49592065  1
  Bi  Bi118  1  -0.01069603  0.23330993  0.03345665  1
  Bi  Bi119  1  0.51640611  0.03031387  0.28274238  1
  Bi  Bi120  1  -0.01165395  0.46893369  0.50503679  1
  Bi  Bi121  1  0.72182304  0.75126115  0.51878388  1
  Bi  Bi122  1  -0.03981615  0.74484718  0.23701052  1
  Bi  Bi123  1  0.26321848  0.74113150  0.18456468  1
  Bi  Bi124  1  0.25416502  0.73937542  0.72816320  1
  O  O125  1  0.09739435  0.09601408  0.01157786  1
  O  O126  1  0.15221033  0.15240756  0.25636117  1
  O  O127  1  0.10891828  0.13917671  0.49839088  1
  O  O128  1  0.15990237  0.13154662  0.75624881  1
  O  O129  1  0.13915847  0.39578249  0.00781857  1
  O  O130  1  0.10887480  0.33942835  0.25463549  1
  O  O131  1  0.14462113  0.39121072  0.49781798  1
  O  O132  1  0.11934735  0.38224704  0.74340182  1
  O  O133  1  0.11761621  0.59929485  0.00755959  1
  O  O134  1  0.12491314  0.63056685  0.25351382  1
  O  O135  1  0.14925947  0.61817568  0.50026469  1
  O  O136  1  0.11482887  0.65639998  0.75935099  1
  O  O137  1  0.08380361  0.90528557  0.00827969  1
  O  O138  1  0.14563475  0.86583819  0.25809907  1
  O  O139  1  0.12767667  0.89521003  0.49852143  1
  O  O140  1  0.15152944  0.86633241  0.75432787  1
  O  O141  1  0.41223692  0.10584751  0.00084452  1
  O  O142  1  0.36768647  0.16045057  0.23816284  1
  O  O143  1  0.40529131  0.12570365  0.50739875  1
  O  O144  1  0.35467418  0.13130013  0.75728917  1
  O  O145  1  0.35236823  0.39311635  -0.00200000  1
  O  O146  1  0.39721469  0.37626247  0.25670536  1
  O  O147  1  0.36748832  0.39049789  0.50305892  1
  O  O148  1  0.38574970  0.34828717  0.74784910  1
  O  O149  1  0.38781126  0.60431681  -0.00649210  1
  O  O150  1  0.40203508  0.63318152  0.26146012  1
  O  O151  1  0.34776816  0.61553400  0.50153315  1
  O  O152  1  0.38327122  0.65824738  0.75236499  1
  O  O153  1  0.40540052  0.91100014  0.00164337  1
  O  O154  1  0.35638568  0.86644133  0.25462998  1
  O  O155  1  0.37307365  0.90647481  0.49622185  1
  O  O156  1  0.34658892  0.87239022  0.75804443  1
  O  O157  1  0.61737921  0.15370178  -0.00714525  1
  O  O158  1  0.66002594  0.08857440  0.23191999  1
  O  O159  1  0.62134464  0.14915869  0.51173793  1
  O  O160  1  0.63837014  0.09310562  0.75414704  1
  O  O161  1  0.65693261  0.35844244  0.00083904  1
  O  O162  1  0.62283651  0.40745688  0.26064189  1
  O  O163  1  0.63578689  0.32779763  0.48741197  1
  O  O164  1  0.60247234  0.39315283  0.75835255  1
  O  O165  1  0.64561613  0.64292422  -0.00217851  1
  O  O166  1  0.62205668  0.64719490  0.24947920  1
  O  O167  1  0.62983606  0.65392879  0.50704923  1
  O  O168  1  0.59601144  0.58637508  0.74871857  1
  O  O169  1  0.62908931  0.85536424  -0.01294347  1
  O  O170  1  0.63040614  0.86404654  0.24936370  1
  O  O171  1  0.61614507  0.84654773  0.50500439  1
  O  O172  1  0.63049832  0.90563080  0.74948623  1
  O  O173  1  0.91089577  0.11807417  -0.00303450  1
  O  O174  1  0.85750038  0.08600273  0.24564248  1
  O  O175  1  0.90387176  0.11915048  0.49935370  1
  O  O176  1  0.87669469  0.12130393  0.75822619  1
  O  O177  1  0.84781200  0.38254625  -0.00451030  1
  O  O178  1  0.87647657  0.39990759  0.25876517  1
  O  O179  1  0.87293071  0.38399423  0.50298499  1
  O  O180  1  0.89254098  0.37107416  0.74445771  1
  O  O181  1  0.84400379  0.62565651  -0.01477653  1
  O  O182  1  0.87942474  0.61127485  0.26130500  1
  O  O183  1  0.88330916  0.64885858  0.50358301  1
  O  O184  1  0.89907230  0.62740308  0.74099907  1
  O  O185  1  0.88769803  0.85343564  -0.00347785  1
  O  O186  1  0.86995962  0.89240074  0.24416496  1
  O  O187  1  0.89617616  0.86577110  0.50493151  1
  O  O188  1  0.87638748  0.89388400  0.75089483  1
  O  O189  1  0.01064525  0.15802540  0.15177656  1
  O  O190  1  0.01322932  0.15930546  0.35499186  1
  O  O191  1  0.00101234  0.15944296  0.63816623  1
  O  O192  1  0.01216682  0.13338240  0.85222443  1
  O  O193  1  0.00192033  0.35805220  0.10604880  1
  O  O194  1  0.00478740  0.36331594  0.39554420  1
  O  O195  1  0.01139706  0.35812364  0.60244363  1
  O  O196  1  -0.00323485  0.37359919  0.87564197  1
  O  O197  1  -0.00305498  0.65422886  0.12957319  1
  O  O198  1  0.00915007  0.65254625  0.39040062  1
  O  O199  1  0.01001905  0.66065552  0.61641462  1
  O  O200  1  -0.00385784  0.64440663  0.88435145  1
  O  O201  1  -0.00505356  0.83864266  0.13708114  1
  O  O202  1  0.00754212  0.84241767  0.37701482  1
  O  O203  1  0.01096821  0.86806131  0.64789822  1
  O  O204  1  0.00694182  0.85154581  0.86314373  1
  O  O205  1  0.25240025  0.10882965  0.10749087  1
  O  O206  1  0.24698903  0.09866276  0.41214264  1
  O  O207  1  0.26167116  0.09691904  0.60621200  1
  O  O208  1  0.25703355  0.09667451  0.90521014  1
  O  O209  1  0.24348968  0.38161027  0.15187218  1
  O  O210  1  0.26230038  0.40862597  0.36550454  1
  O  O211  1  0.25518831  0.41060937  0.63282018  1
  O  O212  1  0.24957991  0.37672466  0.85046336  1
  O  O213  1  0.24062860  0.60885172  0.13330841  1
  O  O214  1  0.25823905  0.60633854  0.36087272  1
  O  O215  1  0.24169572  0.61565428  0.65348003  1
  O  O216  1  0.25161536  0.62751878  0.90031335  1
  O  O217  1  0.25437601  0.89558446  0.12604741  1
  O  O218  1  0.25424930  0.90501169  0.38378395  1
  O  O219  1  0.24711657  0.91694147  0.61041266  1
  O  O220  1  0.25096191  0.88049046  0.91158512  1
  O  O221  1  0.51250341  0.15507550  0.13664504  1
  O  O222  1  0.50036580  0.15196779  0.34829513  1
  O  O223  1  0.50355781  0.14393602  0.66001074  1
  O  O224  1  0.50675970  0.14048426  0.85491859  1
  O  O225  1  0.50034139  0.35450138  0.10256540  1
  O  O226  1  0.50620213  0.34072032  0.38349462  1
  O  O227  1  0.50013324  0.34775995  0.62416481  1
  O  O228  1  0.50668890  0.35143785  0.89533831  1
  O  O229  1  0.51101264  0.65809044  0.12131605  1
  O  O230  1  0.49633388  0.65672755  0.41299589  1
  O  O231  1  0.49002577  0.65225514  0.60695492  1
  O  O232  1  0.49647849  0.64677433  0.87960436  1
  O  O233  1  0.48766084  0.84048852  0.13353703  1
  O  O234  1  0.49925900  0.85206225  0.36811548  1
  O  O235  1  0.49878138  0.83962606  0.62685303  1
  O  O236  1  0.49735400  0.85162567  0.85795135  1
  O  O237  1  0.74477666  0.10669565  0.08679267  1
  O  O238  1  0.75664382  0.10536683  0.38874221  1
  O  O239  1  0.74292240  0.09538434  0.62263822  1
  O  O240  1  0.75678040  0.09940765  0.89026546  1
  O  O241  1  0.74931167  0.40814545  0.13761757  1
  O  O242  1  0.74978446  0.39961704  0.37475465  1
  O  O243  1  0.74828806  0.39791789  0.65507188  1
  O  O244  1  0.75113915  0.38021108  0.85147522  1
  O  O245  1  0.74353063  0.58828587  0.13437600  1
  O  O246  1  0.75035171  0.59534486  0.40048745  1
  O  O247  1  0.76435633  0.59642615  0.62142482  1
  O  O248  1  0.75347779  0.60429646  0.82519752  1
  O  O249  1  0.75331683  0.89636936  0.10363424  1
  O  O250  1  0.74088262  0.92121099  0.37537033  1
  O  O251  1  0.75691294  0.90665440  0.61931004  1
  O  O252  1  0.75835107  0.90036301  0.87654928  1
  O  O253  1  0.11856740  0.00791849  0.15865692  1
  O  O254  1  0.10306543  0.00267584  0.36272502  1
  O  O255  1  0.11124347  0.00277353  0.64976248  1
  O  O256  1  0.12827975  -0.00512168  0.87114915  1
  O  O257  1  0.14262924  0.24968710  0.10498516  1
  O  O258  1  0.16519791  0.26043384  0.38653241  1
  O  O259  1  0.15757203  0.25707846  0.61931006  1
  O  O260  1  0.14739297  0.23835748  0.89412647  1
  O  O261  1  0.09521640  0.49820164  0.13968089  1
  O  O262  1  0.11760868  0.49727313  0.35824048  1
  O  O263  1  0.10499397  0.50844802  0.63077815  1
  O  O264  1  0.11634575  0.51194583  0.85675191  1
  O  O265  1  0.14781592  0.74583226  0.10690877  1
  O  O266  1  0.15137490  0.75001059  0.38781807  1
  O  O267  1  0.15690187  0.76120762  0.61735237  1
  O  O268  1  0.13960346  0.75499956  0.90931739  1
  O  O269  1  0.39372004  0.00621836  0.14881126  1
  O  O270  1  0.40899046  0.00427319  0.36418718  1
  O  O271  1  0.40605953  0.00671904  0.63783709  1
  O  O272  1  0.40433272  0.00049273  0.86488685  1
  O  O273  1  0.36610127  0.24377053  0.09089315  1
  O  O274  1  0.34739292  0.25898837  0.38015377  1
  O  O275  1  0.35026239  0.24831045  0.62331342  1
  O  O276  1  0.35251046  0.24041466  0.88886647  1
  O  O277  1  0.39754832  0.49708551  0.13087613  1
  O  O278  1  0.40951112  0.50469210  0.37359885  1
  O  O279  1  0.41781989  0.49377512  0.64259632  1
  O  O280  1  0.37492147  0.50712585  0.84418159  1
  O  O281  1  0.33689874  0.76573193  0.07250291  1
  O  O282  1  0.35592902  0.75322330  0.39207798  1
  O  O283  1  0.33621386  0.75534717  0.61724813  1
  O  O284  1  0.36165598  0.75947907  0.89867057  1
  O  O285  1  0.59015095  0.00175806  0.08265125  1
  O  O286  1  0.59539539  -0.00860020  0.39134018  1
  O  O287  1  0.59211182  -0.00289586  0.61410986  1
  O  O288  1  0.59791851  -0.00505753  0.90038356  1
  O  O289  1  0.66191035  0.24628085  0.13792910  1
  O  O290  1  0.65872046  0.24949285  0.35384235  1
  O  O291  1  0.64897785  0.24864617  0.66128248  1
  O  O292  1  0.64747852  0.24634710  0.84418650  1
  O  O293  1  0.59673675  0.50643857  0.10618657  1
  O  O294  1  0.61093149  0.49849268  0.41833944  1
  O  O295  1  0.61328752  0.49268732  0.60064301  1
  O  O296  1  0.61993830  0.49295190  0.91085118  1
  O  O297  1  0.66194101  0.74951081  0.12103777  1
  O  O298  1  0.66483881  0.75864197  0.37798955  1
  O  O299  1  0.65390123  0.76509382  0.64492555  1
  O  O300  1  0.65185445  0.75398554  0.85192051  1
  O  O301  1  0.91616210  -0.01125701  0.10786615  1
  O  O302  1  0.90644495  -0.00374090  0.37863608  1
  O  O303  1  0.90882357  -0.00140382  0.62310178  1
  O  O304  1  0.90881672  -0.00540520  0.89245915  1
  O  O305  1  0.86258952  0.24359593  0.10837057  1
  O  O306  1  0.85246939  0.25797655  0.37276858  1
  O  O307  1  0.85710687  0.25602351  0.61804106  1
  O  O308  1  0.87246777  0.24633464  0.88078031  1
  O  O309  1  0.91021755  0.50154860  0.12197731  1
  O  O310  1  0.90410617  0.50471515  0.38906715  1
  O  O311  1  0.90649106  0.50032647  0.61746912  1
  O  O312  1  0.89231010  0.49947871  0.87132134  1
  O  O313  1  0.85145956  0.75101316  0.14664778  1
  O  O314  1  0.85993625  0.74463309  0.36817430  1
  O  O315  1  0.86313714  0.75764426  0.63987166  1
  O  O316  1  0.85395404  0.75352880  0.85720560  1
