# generated using pymatgen
data_Mg32Ti42(Bi17O64)3
_symmetry_space_group_name_H-M   'P 1'
_cell_length_a   15.91634424
_cell_length_b   15.95319219
_cell_length_c   15.92788872
_cell_angle_alpha   90.03934102
_cell_angle_beta   90.09792193
_cell_angle_gamma   89.69080964
_symmetry_Int_Tables_number   1
_chemical_formula_structural   Mg32Ti42(Bi17O64)3
_chemical_formula_sum   'Mg32 Ti42 Bi51 O192'
_cell_volume   4044.28801176
_cell_formula_units_Z   1
loop_
 _symmetry_equiv_pos_site_id
 _symmetry_equiv_pos_as_xyz
  1  'x, y, z'
loop_
 _atom_site_type_symbol
 _atom_site_label
 _atom_site_symmetry_multiplicity
 _atom_site_fract_x
 _atom_site_fract_y
 _atom_site_fract_z
 _atom_site_occupancy
  Mg  Mg0  1  0.87249804  0.10560886  0.87554651  1
  Mg  Mg1  1  0.36625627  0.62206097  0.11744934  1
  Mg  Mg2  1  0.61002393  0.37826263  0.62217789  1
  Mg  Mg3  1  0.88035845  0.11863162  0.11136673  1
  Mg  Mg4  1  0.62775938  0.38646991  0.36876755  1
  Mg  Mg5  1  0.38536074  0.13133509  0.37836745  1
  Mg  Mg6  1  0.12951555  0.12046570  0.61784762  1
  Mg  Mg7  1  0.88633732  0.86157460  0.37935804  1
  Mg  Mg8  1  0.37396388  0.37595802  0.37885564  1
  Mg  Mg9  1  0.37213949  0.87761867  0.12778857  1
  Mg  Mg10  1  0.12021855  0.37656138  0.37630872  1
  Mg  Mg11  1  0.12541775  0.85964159  0.87694738  1
  Mg  Mg12  1  0.62108605  0.13046250  0.87069103  1
  Mg  Mg13  1  0.62529647  0.87466120  0.87281547  1
  Mg  Mg14  1  0.37781534  0.12276840  0.86511843  1
  Mg  Mg15  1  0.36578104  0.37657424  0.11676562  1
  Mg  Mg16  1  0.87944925  0.62418859  0.63817462  1
  Mg  Mg17  1  0.61730640  0.12099877  0.12247240  1
  Mg  Mg18  1  0.86465457  0.12101179  0.38402413  1
  Mg  Mg19  1  0.28065103  0.77868375  0.75417422  1
  Mg  Mg20  1  0.53944199  0.00920793  0.70747760  1
  Mg  Mg21  1  0.19451840  0.22826242  0.47905195  1
  Mg  Mg22  1  0.04153353  0.05248816  -0.04306140  1
  Mg  Mg23  1  0.53035741  0.54375897  0.56776600  1
  Mg  Mg24  1  0.23155521  0.47116211  0.73803788  1
  Mg  Mg25  1  0.44749959  -0.01612464  0.27977445  1
  Mg  Mg26  1  0.22286944  0.46288823  0.01627908  1
  Mg  Mg27  1  -0.00320426  0.51877995  0.55468158  1
  Mg  Mg28  1  0.00835004  0.48449236  0.78222405  1
  Mg  Mg29  1  0.47050790  0.47910568  0.73635196  1
  Mg  Mg30  1  0.01892124  0.70716732  0.25913757  1
  Mg  Mg31  1  -0.00902113  0.74383733  -0.01801857  1
  Ti  Ti32  1  0.37107683  0.11648838  0.13325779  1
  Ti  Ti33  1  0.62072723  0.13164549  0.61397361  1
  Ti  Ti34  1  0.11754000  0.62667863  0.10666080  1
  Ti  Ti35  1  0.12999743  0.88316620  0.62567675  1
  Ti  Ti36  1  0.88419905  0.38713711  0.63675783  1
  Ti  Ti37  1  0.86509686  0.38779172  0.86634135  1
  Ti  Ti38  1  0.62431806  0.62675302  0.88418729  1
  Ti  Ti39  1  0.61588544  0.37878022  0.12649670  1
  Ti  Ti40  1  0.62584736  0.88037518  0.12669759  1
  Ti  Ti41  1  0.38418831  0.88281900  0.87201531  1
  Ti  Ti42  1  0.36614823  0.38317930  0.86803995  1
  Ti  Ti43  1  0.61197897  0.61956300  0.36823164  1
  Ti  Ti44  1  0.62466347  0.62625759  0.13454947  1
  Ti  Ti45  1  0.36593499  0.12630868  0.61642946  1
  Ti  Ti46  1  0.62749259  0.87886697  0.62430933  1
  Ti  Ti47  1  0.12288713  0.85614514  0.38130012  1
  Ti  Ti48  1  0.13132336  0.61542970  0.87809625  1
  Ti  Ti49  1  0.88291322  0.37356892  0.38218853  1
  Ti  Ti50  1  0.11010907  0.85941158  0.11482262  1
  Ti  Ti51  1  0.86320662  0.62622376  0.87566525  1
  Ti  Ti52  1  0.61682982  0.37354697  0.87407400  1
  Ti  Ti53  1  0.87204979  0.37203556  0.12741188  1
  Ti  Ti54  1  0.88083572  0.87936635  0.88769887  1
  Ti  Ti55  1  0.12151223  0.37386566  0.63057819  1
  Ti  Ti56  1  0.87897962  0.87447009  0.11620268  1
  Ti  Ti57  1  0.12737603  0.38045768  0.87713769  1
  Ti  Ti58  1  0.13683340  0.61920755  0.64360870  1
  Ti  Ti59  1  0.89481511  0.61923582  0.38069594  1
  Ti  Ti60  1  0.11994759  0.35617467  0.12033929  1
  Ti  Ti61  1  0.36108762  0.86772378  0.37917356  1
  Ti  Ti62  1  0.62574843  0.12371675  0.36104617  1
  Ti  Ti63  1  0.37258026  0.37746200  0.61856423  1
  Ti  Ti64  1  0.61839729  0.86554446  0.36257515  1
  Ti  Ti65  1  0.36667532  0.61594210  0.64554737  1
  Ti  Ti66  1  0.11301186  0.12199417  0.11802533  1
  Ti  Ti67  1  0.37917828  0.89663830  0.63466514  1
  Ti  Ti68  1  0.36982666  0.62262478  0.87960180  1
  Ti  Ti69  1  0.37026728  0.61970326  0.37877287  1
  Ti  Ti70  1  0.87380361  0.86489293  0.62410699  1
  Ti  Ti71  1  0.88183039  0.62366526  0.11790813  1
  Ti  Ti72  1  0.86902795  0.11113161  0.62424128  1
  Ti  Ti73  1  0.13773801  0.61953155  0.37789859  1
  Bi  Bi74  1  0.24126304  0.47566584  0.24613941  1
  Bi  Bi75  1  0.49456558  0.01666723  -0.01190705  1
  Bi  Bi76  1  0.01464464  0.73070252  0.53612358  1
  Bi  Bi77  1  0.26074230  0.22096664  -0.01476369  1
  Bi  Bi78  1  0.48163651  0.23820329  0.73487302  1
  Bi  Bi79  1  0.23631633  0.23267405  0.28356976  1
  Bi  Bi80  1  0.51983040  0.00731493  0.47589747  1
  Bi  Bi81  1  0.78749119  0.74299154  0.26045879  1
  Bi  Bi82  1  -0.01135224  0.23569050  0.53228881  1
  Bi  Bi83  1  0.00437926  0.73514177  0.77100694  1
  Bi  Bi84  1  0.72076355  0.73349764  0.49851316  1
  Bi  Bi85  1  0.22047471  0.01248560  0.78649603  1
  Bi  Bi86  1  0.50354377  0.76610789  0.00069228  1
  Bi  Bi87  1  -0.01040864  -0.03194744  0.75422313  1
  Bi  Bi88  1  0.03814983  0.02319810  0.47429905  1
  Bi  Bi89  1  0.74954984  0.26921844  0.48240865  1
  Bi  Bi90  1  0.47688022  0.49024417  -0.00919126  1
  Bi  Bi91  1  0.23353665  0.47558687  0.50192845  1
  Bi  Bi92  1  0.72553949  0.72570601  0.73221548  1
  Bi  Bi93  1  0.22193198  -0.01141142  0.22975444  1
  Bi  Bi94  1  0.22659823  0.22797855  0.75652862  1
  Bi  Bi95  1  0.77765872  -0.00737080  0.24295840  1
  Bi  Bi96  1  0.73498520  0.49123888  0.01083961  1
  Bi  Bi97  1  0.73261720  0.00580139  0.74930635  1
  Bi  Bi98  1  0.48562559  0.24456237  0.00250458  1
  Bi  Bi99  1  0.26934185  0.76333084  -0.02211153  1
  Bi  Bi100  1  0.71486240  0.49428230  0.73265608  1
  Bi  Bi101  1  0.00120299  -0.02130981  0.25725326  1
  Bi  Bi102  1  0.72637381  0.01080070  -0.01436430  1
  Bi  Bi103  1  0.26353698  0.76088925  0.52541247  1
  Bi  Bi104  1  0.73801390  0.25245605  0.73136563  1
  Bi  Bi105  1  0.73818411  0.23936060  0.02162969  1
  Bi  Bi106  1  0.23508251  0.00314294  0.00616791  1
  Bi  Bi107  1  0.47314239  0.74771196  0.22978797  1
  Bi  Bi108  1  0.75630551  0.50116128  0.26790567  1
  Bi  Bi109  1  0.74670293  0.52329166  0.51557773  1
  Bi  Bi110  1  -0.00068228  0.48313050  0.25198619  1
  Bi  Bi111  1  0.47103326  0.48566808  0.25104600  1
  Bi  Bi112  1  -0.01316872  0.49261788  0.00060273  1
  Bi  Bi113  1  0.76034830  0.21713972  0.23714414  1
  Bi  Bi114  1  0.00919080  0.20674798  0.28523888  1
  Bi  Bi115  1  0.73590219  0.74875343  0.02601658  1
  Bi  Bi116  1  0.48594269  0.25419263  0.25478810  1
  Bi  Bi117  1  -0.03364800  0.24435504  -0.02433701  1
  Bi  Bi118  1  0.75656766  -0.03668389  0.47933011  1
  Bi  Bi119  1  0.51186791  0.28350779  0.47270888  1
  Bi  Bi120  1  0.24002337  0.73396999  0.22281572  1
  Bi  Bi121  1  0.26523315  0.02108164  0.47777342  1
  Bi  Bi122  1  0.50384200  0.72388851  0.75201723  1
  Bi  Bi123  1  -0.01100365  0.21176681  0.75692354  1
  Bi  Bi124  1  0.48867102  0.73478505  0.51033423  1
  O  O125  1  0.15318992  0.11638837  0.00404993  1
  O  O126  1  0.10370360  0.08713267  0.23401116  1
  O  O127  1  0.10060146  0.14682878  0.49938516  1
  O  O128  1  0.14476853  0.11385067  0.73962967  1
  O  O129  1  0.14526945  0.36068838  -0.00396021  1
  O  O130  1  0.11182313  0.39680253  0.23624351  1
  O  O131  1  0.15691488  0.35723220  0.50240780  1
  O  O132  1  0.11143334  0.41755425  0.74545432  1
  O  O133  1  0.09158406  0.65163901  -0.00600087  1
  O  O134  1  0.16187829  0.61271262  0.25488455  1
  O  O135  1  0.10650471  0.63911602  0.49141757  1
  O  O136  1  0.16549573  0.58668073  0.74884840  1
  O  O137  1  0.09994673  0.83244202  0.00508298  1
  O  O138  1  0.11768926  0.90095083  0.25989899  1
  O  O139  1  0.12660020  0.83777647  0.50248489  1
  O  O140  1  0.12940783  0.91355814  0.74232262  1
  O  O141  1  0.34038785  0.10599948  0.00372629  1
  O  O142  1  0.38229196  0.15630340  0.24351104  1
  O  O143  1  0.39832793  0.10319341  0.50524320  1
  O  O144  1  0.36797352  0.15574771  0.74139463  1
  O  O145  1  0.35101213  0.42388780  -0.01034428  1
  O  O146  1  0.40215629  0.36410980  0.24399539  1
  O  O147  1  0.35134312  0.38386323  0.50695525  1
  O  O148  1  0.40589296  0.36541205  0.75563539  1
  O  O149  1  0.39213562  0.60837353  -0.00580516  1
  O  O150  1  0.36417383  0.65506331  0.26850511  1
  O  O151  1  0.42247790  0.61164907  0.51850460  1
  O  O152  1  0.35227520  0.66987689  0.75088394  1
  O  O153  1  0.36068787  0.87911697  -0.00232865  1
  O  O154  1  0.38766310  0.86307462  0.26351479  1
  O  O155  1  0.35027819  0.89517270  0.50684599  1
  O  O156  1  0.37826079  0.85962555  0.74999110  1
  O  O157  1  0.64972623  0.14068764  -0.00550865  1
  O  O158  1  0.64212215  0.12054770  0.24807252  1
  O  O159  1  0.60299177  0.14016522  0.50020305  1
  O  O160  1  0.62632198  0.09676044  0.74958245  1
  O  O161  1  0.64985112  0.37041958  -0.00951289  1
  O  O162  1  0.60907019  0.39662377  0.23947071  1
  O  O163  1  0.63850932  0.35124031  0.49845183  1
  O  O164  1  0.59943274  0.42221315  0.75756115  1
  O  O165  1  0.61361749  0.66249393  0.00095657  1
  O  O166  1  0.65503818  0.61151547  0.24923302  1
  O  O167  1  0.61355883  0.63134057  0.49057381  1
  O  O168  1  0.65059675  0.61509033  0.76020600  1
  O  O169  1  0.62363173  0.83968201  0.00374194  1
  O  O170  1  0.63074842  0.88697730  0.24966676  1
  O  O171  1  0.61385988  0.86977217  0.50693980  1
  O  O172  1  0.62130535  0.91713313  0.74848535  1
  O  O173  1  0.85902485  0.16056082  -0.01008552  1
  O  O174  1  0.85778314  0.11709021  0.24987484  1
  O  O175  1  0.88043544  0.14571154  0.50861264  1
  O  O176  1  0.87947679  0.12115917  0.74851908  1
  O  O177  1  0.87170048  0.36728180  -0.00990148  1
  O  O178  1  0.88304537  0.39414406  0.24428253  1
  O  O179  1  0.86427968  0.36045634  0.49821681  1
  O  O180  1  0.90365724  0.41811668  0.74997872  1
  O  O181  1  0.91357733  0.63939339  0.00506359  1
  O  O182  1  0.84609732  0.60978025  0.24548425  1
  O  O183  1  0.92463758  0.61794867  0.49047667  1
  O  O184  1  0.84583717  0.62124750  0.76136609  1
  O  O185  1  0.90265291  0.84358020  0.00300211  1
  O  O186  1  0.85760410  0.87810463  0.24940335  1
  O  O187  1  0.86997598  0.86428378  0.50639986  1
  O  O188  1  0.87255917  0.89269883  0.75367254  1
  O  O189  1  0.00540300  0.11265899  0.07517061  1
  O  O190  1  -0.01030304  0.09599527  0.36420772  1
  O  O191  1  -0.00573524  0.12569548  0.62740129  1
  O  O192  1  -0.00330435  0.14166019  0.88455925  1
  O  O193  1  0.00320863  0.37923954  0.10029489  1
  O  O194  1  -0.00373645  0.40727147  0.37152275  1
  O  O195  1  0.00239912  0.39953851  0.60112307  1
  O  O196  1  0.01183867  0.40353654  0.88369464  1
  O  O197  1  0.00048020  0.62822615  0.15709740  1
  O  O198  1  0.00860224  0.60232479  0.33980181  1
  O  O199  1  0.00994285  0.61324441  0.63685505  1
  O  O200  1  0.01659110  0.59795700  0.83880556  1
  O  O201  1  -0.00408735  0.88061383  0.14312409  1
  O  O202  1  0.00675566  0.89992671  0.37940795  1
  O  O203  1  0.00169792  0.88650972  0.63537747  1
  O  O204  1  0.00507533  0.86234783  0.84138688  1
  O  O205  1  0.24864856  0.10792945  0.14308339  1
  O  O206  1  0.26218446  0.16004583  0.39633082  1
  O  O207  1  0.25575250  0.15903977  0.59341469  1
  O  O208  1  0.25379920  0.14506215  0.86425751  1
  O  O209  1  0.23825133  0.38754777  0.12840730  1
  O  O210  1  0.25184322  0.35652143  0.34004251  1
  O  O211  1  0.24686405  0.37848281  0.64794680  1
  O  O212  1  0.25481077  0.39235281  0.83974080  1
  O  O213  1  0.23670247  0.65232991  0.10789194  1
  O  O214  1  0.25665233  0.63784093  0.40645163  1
  O  O215  1  0.25231845  0.64114079  0.60352688  1
  O  O216  1  0.25423463  0.63868344  0.89672231  1
  O  O217  1  0.23841491  0.86930701  0.14056674  1
  O  O218  1  0.24834463  0.84473534  0.37032455  1
  O  O219  1  0.24687491  0.84249483  0.64224442  1
  O  O220  1  0.25390789  0.84642632  0.86309462  1
  O  O221  1  0.49154640  0.12613728  0.09066369  1
  O  O222  1  0.50303528  0.07997990  0.35535346  1
  O  O223  1  0.50220654  0.11740998  0.64590292  1
  O  O224  1  0.49575253  0.13361776  0.90600071  1
  O  O225  1  0.50018262  0.38786955  0.09758919  1
  O  O226  1  0.50312037  0.39372341  0.39250791  1
  O  O227  1  0.48532073  0.42697474  0.61438593  1
  O  O228  1  0.50274124  0.37691279  0.90133461  1
  O  O229  1  0.50910308  0.63023932  0.14693025  1
  O  O230  1  0.50140283  0.60717139  0.35634595  1
  O  O231  1  0.48644002  0.59996631  0.67496108  1
  O  O232  1  0.50675841  0.63858836  0.86288265  1
  O  O233  1  0.50784030  0.84872894  0.12550920  1
  O  O234  1  0.50083621  0.90342505  0.37671433  1
  O  O235  1  0.49256482  0.91429731  0.63260045  1
  O  O236  1  0.49734282  0.86180863  0.89022071  1
  O  O237  1  0.75003767  0.13974794  0.12231256  1
  O  O238  1  0.74055182  0.15747875  0.38023367  1
  O  O239  1  0.74840946  0.15084964  0.62725756  1
  O  O240  1  0.75000482  0.08184405  0.86727006  1
  O  O241  1  0.75357969  0.39192665  0.12344559  1
  O  O242  1  0.75785879  0.34817733  0.36639375  1
  O  O243  1  0.75714374  0.36583892  0.65268036  1
  O  O244  1  0.75314149  0.38505918  0.84501437  1
  O  O245  1  0.75739927  0.61579626  0.09431788  1
  O  O246  1  0.76810778  0.65350822  0.39884142  1
  O  O247  1  0.76004818  0.63967156  0.59320623  1
  O  O248  1  0.75393747  0.63941481  0.90594800  1
  O  O249  1  0.75050647  0.87613669  0.10862686  1
  O  O250  1  0.73957960  0.85485608  0.39052254  1
  O  O251  1  0.74577113  0.86434231  0.62787222  1
  O  O252  1  0.76493912  0.89422413  0.89306817  1
  O  O253  1  0.13409715  -0.01235228  0.10820560  1
  O  O254  1  0.14992984  -0.01463434  0.40377584  1
  O  O255  1  0.14380184  -0.00880986  0.58904375  1
  O  O256  1  0.13772544  -0.01248662  0.89806204  1
  O  O257  1  0.11926844  0.24154701  0.13994554  1
  O  O258  1  0.11653810  0.25108052  0.35700165  1
  O  O259  1  0.10595225  0.26105478  0.64161245  1
  O  O260  1  0.12639598  0.27027648  0.84606002  1
  O  O261  1  0.12720188  0.51330660  0.09499057  1
  O  O262  1  0.15301684  0.50134944  0.38600240  1
  O  O263  1  0.13112739  0.50508744  0.59424080  1
  O  O264  1  0.15158450  0.50411532  0.91206556  1
  O  O265  1  0.10788659  0.74985759  0.16265195  1
  O  O266  1  0.10482273  0.74525951  0.34897214  1
  O  O267  1  0.11031648  0.74033442  0.64325602  1
  O  O268  1  0.11934295  0.73408821  0.84507201  1
  O  O269  1  0.39023098  0.00319937  0.16272188  1
  O  O270  1  0.34760730  -0.00664995  0.36348430  1
  O  O271  1  0.34460103  0.00917034  0.64415648  1
  O  O272  1  0.38376614  -0.00381313  0.86728293  1
  O  O273  1  0.37037868  0.24805254  0.08741179  1
  O  O274  1  0.41584816  0.25198407  0.37443940  1
  O  O275  1  0.40623811  0.26233951  0.61943974  1
  O  O276  1  0.37334162  0.26565865  0.90512693  1
  O  O277  1  0.36592446  0.50458342  0.15936834  1
  O  O278  1  0.36160779  0.50530893  0.35274608  1
  O  O279  1  0.34262504  0.50747993  0.67006595  1
  O  O280  1  0.40154924  0.50770306  0.84940585  1
  O  O281  1  0.37681948  0.74778644  0.13132091  1
  O  O282  1  0.39430514  0.75124786  0.41092882  1
  O  O283  1  0.39086230  0.75909232  0.60460752  1
  O  O284  1  0.38044884  0.74515364  0.89747074  1
  O  O285  1  0.61485010  -0.00785387  0.09825889  1
  O  O286  1  0.64478308  0.00232939  0.39531513  1
  O  O287  1  0.63541465  0.00948149  0.61020668  1
  O  O288  1  0.61072745  -0.00246979  0.91322749  1
  O  O289  1  0.62617671  0.26117038  0.12562644  1
  O  O290  1  0.58997632  0.24221978  0.36289066  1
  O  O291  1  0.61621877  0.25228165  0.65541957  1
  O  O292  1  0.62930075  0.26190080  0.84449534  1
  O  O293  1  0.62745372  0.50758159  0.09709286  1
  O  O294  1  0.65998185  0.50979977  0.37815615  1
  O  O295  1  0.64663445  0.49925855  0.60795773  1
  O  O296  1  0.63106772  0.51226278  0.90346758  1
  O  O297  1  0.65285656  0.74365171  0.14112558  1
  O  O298  1  0.60665004  0.74950762  0.36521524  1
  O  O299  1  0.60936726  0.76284520  0.65002405  1
  O  O300  1  0.63221341  0.75213076  0.83510898  1
  O  O301  1  0.86577940  -0.00736770  0.12503400  1
  O  O302  1  0.83950486  -0.00514865  0.37575919  1
  O  O303  1  0.85808802  0.00087861  0.61534895  1
  O  O304  1  0.91979018  -0.01111121  0.90158961  1
  O  O305  1  0.87239389  0.25691906  0.13745689  1
  O  O306  1  0.90891201  0.25547614  0.36763818  1
  O  O307  1  0.89751436  0.26583110  0.64840295  1
  O  O308  1  0.89523430  0.27222854  0.85201024  1
  O  O309  1  0.88881379  0.50207126  0.10653578  1
  O  O310  1  0.85207701  0.50241288  0.37573050  1
  O  O311  1  0.86597395  0.50084487  0.60121002  1
  O  O312  1  0.87847833  0.50759393  0.89919773  1
  O  O313  1  0.86207033  0.74634980  0.14010448  1
  O  O314  1  0.90739127  0.73755195  0.33786445  1
  O  O315  1  0.88890539  0.75263414  0.63825950  1
  O  O316  1  0.90778023  0.74087391  0.87553827  1
