# generated using pymatgen
data_Mg32Ti42(Bi17O64)3
_symmetry_space_group_name_H-M   'P 1'
_cell_length_a   16.02379272
_cell_length_b   15.89197604
_cell_length_c   15.91895275
_cell_angle_alpha   90.31437458
_cell_angle_beta   89.91633143
_cell_angle_gamma   89.66799676
_symmetry_Int_Tables_number   1
_chemical_formula_structural   Mg32Ti42(Bi17O64)3
_chemical_formula_sum   'Mg32 Ti42 Bi51 O192'
_cell_volume   4053.62343369
_cell_formula_units_Z   1
loop_
 _symmetry_equiv_pos_site_id
 _symmetry_equiv_pos_as_xyz
  1  'x, y, z'
loop_
 _atom_site_type_symbol
 _atom_site_label
 _atom_site_symmetry_multiplicity
 _atom_site_fract_x
 _atom_site_fract_y
 _atom_site_fract_z
 _atom_site_occupancy
  Mg  Mg0  1  0.37003992  0.37439326  0.38443799  1
  Mg  Mg1  1  0.37145961  0.87552971  0.12374178  1
  Mg  Mg2  1  0.62519053  0.37178575  0.62437486  1
  Mg  Mg3  1  0.38115764  0.87844939  0.38653229  1
  Mg  Mg4  1  0.87673361  0.12324514  0.37471811  1
  Mg  Mg5  1  0.12594370  0.12263506  0.63285147  1
  Mg  Mg6  1  0.87460838  0.38303914  0.12627335  1
  Mg  Mg7  1  0.11305833  0.36813430  0.62200358  1
  Mg  Mg8  1  0.60905440  0.37781094  0.88011303  1
  Mg  Mg9  1  0.61100589  0.62230938  0.87784272  1
  Mg  Mg10  1  0.88669676  0.37234475  0.38570303  1
  Mg  Mg11  1  0.13092986  0.87883187  0.62815887  1
  Mg  Mg12  1  0.62226483  0.61743639  0.61743045  1
  Mg  Mg13  1  0.87247818  0.12969840  0.63080704  1
  Mg  Mg14  1  0.61483099  0.88241033  0.61286327  1
  Mg  Mg15  1  0.36869450  0.12566453  0.38433207  1
  Mg  Mg16  1  0.11541822  0.87642435  0.37528548  1
  Mg  Mg17  1  0.87441402  0.87076547  0.88726995  1
  Mg  Mg18  1  0.62662963  0.12076930  0.87432416  1
  Mg  Mg19  1  0.44090350  0.01295171  0.51362541  1
  Mg  Mg20  1  -0.00520658  0.19641485  0.52004244  1
  Mg  Mg21  1  0.24087597  0.74704923  0.51089010  1
  Mg  Mg22  1  0.76614308  0.55436663  0.46291510  1
  Mg  Mg23  1  0.48852268  0.20717009  -0.02025274  1
  Mg  Mg24  1  0.83631929  0.75897114  0.50233619  1
  Mg  Mg25  1  0.47767748  0.24139772  0.29879073  1
  Mg  Mg26  1  0.81629179  0.51146823  0.29371808  1
  Mg  Mg27  1  0.72815685  0.76022777  0.67580918  1
  Mg  Mg28  1  0.47740270  0.51031539  0.00998536  1
  Mg  Mg29  1  -0.04955784  -0.00834299  0.23447833  1
  Mg  Mg30  1  0.22850556  0.24082302  0.75608231  1
  Mg  Mg31  1  0.23566587  0.73519935  -0.03299345  1
  Ti  Ti32  1  0.86406682  0.62613440  0.87444618  1
  Ti  Ti33  1  0.12864889  0.86721464  0.13185004  1
  Ti  Ti34  1  0.62232337  0.37116701  0.12185541  1
  Ti  Ti35  1  0.12465591  0.37743238  0.38213830  1
  Ti  Ti36  1  0.61931889  0.37367759  0.38283456  1
  Ti  Ti37  1  0.12342669  0.87449890  0.88159640  1
  Ti  Ti38  1  0.12967896  0.13116512  0.12978604  1
  Ti  Ti39  1  0.61427375  0.12816027  0.11690887  1
  Ti  Ti40  1  0.86943181  0.12951106  0.13291857  1
  Ti  Ti41  1  0.63307905  0.87872439  0.36930263  1
  Ti  Ti42  1  0.37743559  0.11196978  0.86923834  1
  Ti  Ti43  1  0.85477969  0.62022688  0.63151158  1
  Ti  Ti44  1  0.36528058  0.62374665  0.87381730  1
  Ti  Ti45  1  0.62836791  0.12376334  0.61325436  1
  Ti  Ti46  1  0.86284672  0.86347321  0.12465992  1
  Ti  Ti47  1  0.35928816  0.63779568  0.13246735  1
  Ti  Ti48  1  0.37876656  0.12464679  0.12100300  1
  Ti  Ti49  1  0.86360124  0.12329504  0.87856196  1
  Ti  Ti50  1  0.12322378  0.62511901  0.87538613  1
  Ti  Ti51  1  0.13396851  0.61726205  0.36763606  1
  Ti  Ti52  1  0.63435226  0.86448997  0.86999868  1
  Ti  Ti53  1  0.86650498  0.62455351  0.12419229  1
  Ti  Ti54  1  0.87262656  0.37781451  0.87722332  1
  Ti  Ti55  1  0.38027867  0.86205230  0.62322682  1
  Ti  Ti56  1  0.88164965  0.88390019  0.36323719  1
  Ti  Ti57  1  0.11987115  0.36114893  0.88003838  1
  Ti  Ti58  1  0.38009638  0.62183484  0.38812476  1
  Ti  Ti59  1  0.13216553  0.36657271  0.11796785  1
  Ti  Ti60  1  0.12747119  0.63541811  0.12051651  1
  Ti  Ti61  1  0.61615698  0.61193517  0.38067527  1
  Ti  Ti62  1  0.36264043  0.12589057  0.63193485  1
  Ti  Ti63  1  0.63009164  0.13505038  0.37854405  1
  Ti  Ti64  1  0.37928882  0.61970692  0.63122266  1
  Ti  Ti65  1  0.12762660  0.12110269  0.37393295  1
  Ti  Ti66  1  0.36685644  0.37380045  0.63964904  1
  Ti  Ti67  1  0.39016737  0.36446995  0.10445721  1
  Ti  Ti68  1  0.87934707  0.37675061  0.61879966  1
  Ti  Ti69  1  0.39050296  0.37151523  0.88016384  1
  Ti  Ti70  1  0.12041600  0.11948280  0.87235980  1
  Ti  Ti71  1  0.36827330  0.86216163  0.87025471  1
  Ti  Ti72  1  0.61746004  0.87479288  0.13188108  1
  Ti  Ti73  1  0.61152393  0.61932120  0.12843548  1
  Bi  Bi74  1  0.47413693  0.73079389  -0.00356915  1
  Bi  Bi75  1  0.73371437  -0.01632302  -0.01134732  1
  Bi  Bi76  1  0.73804668  0.51419545  0.75642860  1
  Bi  Bi77  1  -0.02347760  -0.01723506  0.75024032  1
  Bi  Bi78  1  0.72528557  0.02325602  0.24877389  1
  Bi  Bi79  1  0.21962921  0.24919505  0.52027772  1
  Bi  Bi80  1  -0.01109067  0.24030438  0.27244048  1
  Bi  Bi81  1  0.71966833  0.73624198  0.00388946  1
  Bi  Bi82  1  0.03046816  0.48502252  0.23142227  1
  Bi  Bi83  1  0.24028501  -0.01390678  0.26660246  1
  Bi  Bi84  1  0.52174750  0.75970818  0.73413980  1
  Bi  Bi85  1  0.48994014  0.48106869  0.51428186  1
  Bi  Bi86  1  0.73476234  0.72182982  0.27859149  1
  Bi  Bi87  1  0.24853417  -0.01721824  0.75034870  1
  Bi  Bi88  1  0.25287430  0.22119985  -0.01032720  1
  Bi  Bi89  1  -0.01205311  0.73215518  -0.00129530  1
  Bi  Bi90  1  0.48094653  0.76512998  0.24189434  1
  Bi  Bi91  1  -0.04116506  0.74859621  0.73445947  1
  Bi  Bi92  1  0.76939078  0.24617360  0.50737585  1
  Bi  Bi93  1  0.76268293  -0.03737604  0.72443115  1
  Bi  Bi94  1  0.22099833  0.52222163  0.54144814  1
  Bi  Bi95  1  0.76483399  0.29683917  0.25605149  1
  Bi  Bi96  1  0.25346087  0.48997355  0.01160503  1
  Bi  Bi97  1  -0.03767278  0.53280010  0.49335809  1
  Bi  Bi98  1  0.73208839  0.49807476  0.01997647  1
  Bi  Bi99  1  0.51315398  0.24539249  0.74460081  1
  Bi  Bi100  1  0.24713487  0.47206652  0.76243802  1
  Bi  Bi101  1  -0.02990260  0.24920793  0.01227954  1
  Bi  Bi102  1  0.49699498  -0.02437236  -0.02333581  1
  Bi  Bi103  1  0.76490319  -0.03518418  0.51255890  1
  Bi  Bi104  1  0.25602545  0.24804723  0.27514978  1
  Bi  Bi105  1  0.52017419  0.50866365  0.74378136  1
  Bi  Bi106  1  0.71437540  0.25262908  -0.01311891  1
  Bi  Bi107  1  -0.01640400  0.49575190  0.00044925  1
  Bi  Bi108  1  0.23293876  -0.01812207  0.51104467  1
  Bi  Bi109  1  -0.03414000  0.71621742  0.28875435  1
  Bi  Bi110  1  0.27697643  0.48647202  0.25401435  1
  Bi  Bi111  1  0.74324256  0.26395567  0.74782249  1
  Bi  Bi112  1  0.24262669  -0.01707984  0.01819826  1
  Bi  Bi113  1  0.51816522  0.77403335  0.48381685  1
  Bi  Bi114  1  0.47715576  0.24747480  0.51201962  1
  Bi  Bi115  1  -0.01151872  0.23865894  0.75651707  1
  Bi  Bi116  1  0.49217367  0.02759118  0.27703948  1
  Bi  Bi117  1  0.25559108  0.76335214  0.29641930  1
  Bi  Bi118  1  0.51687109  0.01520964  0.72953231  1
  Bi  Bi119  1  0.49866764  0.46490210  0.25751312  1
  Bi  Bi120  1  0.21327723  0.72845372  0.72309937  1
  Bi  Bi121  1  -0.01052553  -0.00962434  0.02488699  1
  Bi  Bi122  1  0.00928550  0.47465607  0.74645567  1
  Bi  Bi123  1  0.04143700  0.72228473  0.51756793  1
  Bi  Bi124  1  -0.01191595  -0.02220465  0.52854435  1
  O  O125  1  0.16444743  0.11541582  -0.00709799  1
  O  O126  1  0.11772721  0.15414724  0.24326078  1
  O  O127  1  0.16069064  0.11340358  0.48877073  1
  O  O128  1  0.12436079  0.15716115  0.75771315  1
  O  O129  1  0.13474635  0.39966587  -0.00600636  1
  O  O130  1  0.11211880  0.36946411  0.23881598  1
  O  O131  1  0.15460877  0.38606240  0.49578759  1
  O  O132  1  0.09012232  0.35952295  0.75184140  1
  O  O133  1  0.15644277  0.63126252  0.00506478  1
  O  O134  1  0.09991400  0.64389748  0.25580957  1
  O  O135  1  0.11907505  0.60536321  0.49382787  1
  O  O136  1  0.10108154  0.66593649  0.76587726  1
  O  O137  1  0.11771476  0.91410713  -0.00053168  1
  O  O138  1  0.15329000  0.86397027  0.24638830  1
  O  O139  1  0.11230560  0.91166413  0.50005457  1
  O  O140  1  0.16397073  0.86596123  0.75796490  1
  O  O141  1  0.36176929  0.12882632  -0.00924042  1
  O  O142  1  0.41553055  0.14563931  0.23136760  1
  O  O143  1  0.37727507  0.13691951  0.50968206  1
  O  O144  1  0.39979942  0.11710738  0.74715365  1
  O  O145  1  0.34049440  0.38139232  -0.00882715  1
  O  O146  1  0.38292281  0.38105908  0.22336208  1
  O  O147  1  0.38618904  0.36953466  0.51067971  1
  O  O148  1  0.38617991  0.38195096  0.75834419  1
  O  O149  1  0.34386487  0.66724370  -0.00797548  1
  O  O150  1  0.38581890  0.64155728  0.24722643  1
  O  O151  1  0.37872167  0.58761701  0.49670812  1
  O  O152  1  0.37838774  0.61754495  0.74826908  1
  O  O153  1  0.40523692  0.87194520  -0.00864074  1
  O  O154  1  0.36699397  0.84726438  0.25773211  1
  O  O155  1  0.42146284  0.88290841  0.51060664  1
  O  O156  1  0.34978323  0.87389600  0.74623595  1
  O  O157  1  0.66234730  0.11365138  0.00780638  1
  O  O158  1  0.61355882  0.11869371  0.24232087  1
  O  O159  1  0.63569145  0.11647663  0.49507137  1
  O  O160  1  0.60554567  0.14007858  0.74536143  1
  O  O161  1  0.64909674  0.38925660  -0.00179012  1
  O  O162  1  0.60412489  0.36512227  0.23658420  1
  O  O163  1  0.60834060  0.38053927  0.49627145  1
  O  O164  1  0.62226756  0.33338763  0.75460780  1
  O  O165  1  0.64787848  0.60986176  -0.00046939  1
  O  O166  1  0.60764227  0.63905748  0.24266910  1
  O  O167  1  0.64672442  0.59379767  0.49134481  1
  O  O168  1  0.58051440  0.63614622  0.75434467  1
  O  O169  1  0.61176687  0.89669413  0.00585653  1
  O  O170  1  0.64871552  0.85359831  0.24694423  1
  O  O171  1  0.61043429  0.88017985  0.48799660  1
  O  O172  1  0.65443408  0.83805609  0.75646420  1
  O  O173  1  0.87205664  0.15106107  0.00580838  1
  O  O174  1  0.91725291  0.11479286  0.24266062  1
  O  O175  1  0.87210406  0.15519277  0.50160006  1
  O  O176  1  0.89005979  0.12253166  0.76120515  1
  O  O177  1  0.88031298  0.36173523  -0.00224649  1
  O  O178  1  0.86466023  0.39935155  0.25291211  1
  O  O179  1  0.87073571  0.34203264  0.50769799  1
  O  O180  1  0.89301645  0.39125537  0.75334077  1
  O  O181  1  0.86303800  0.65429260  -0.00510911  1
  O  O182  1  0.88740639  0.60259982  0.23926483  1
  O  O183  1  0.84503085  0.63536780  0.51133325  1
  O  O184  1  0.89891930  0.61803564  0.75233946  1
  O  O185  1  0.90912559  0.86857555  0.01207916  1
  O  O186  1  0.86765840  0.89350114  0.24208142  1
  O  O187  1  0.87108484  0.87831207  0.49126298  1
  O  O188  1  0.87575241  0.88946314  0.76060925  1
  O  O189  1  0.02008832  0.11639745  0.09893146  1
  O  O190  1  0.01664030  0.15834008  0.39427292  1
  O  O191  1  0.00426529  0.09655737  0.60517993  1
  O  O192  1  0.01004631  0.10640027  0.88530467  1
  O  O193  1  0.00908639  0.39936431  0.11393766  1
  O  O194  1  0.01291218  0.35710585  0.37849432  1
  O  O195  1  -0.00708641  0.41359433  0.61635848  1
  O  O196  1  0.00314980  0.40134139  0.88196946  1
  O  O197  1  0.00487321  0.61933366  0.09519178  1
  O  O198  1  0.00227950  0.63710313  0.39532618  1
  O  O199  1  -0.01856524  0.63278646  0.60643139  1
  O  O200  1  0.00981688  0.61599356  0.90803262  1
  O  O201  1  0.01973277  0.92457871  0.14461593  1
  O  O202  1  -0.00705637  0.84558940  0.36216140  1
  O  O203  1  0.00825317  0.90134373  0.64160282  1
  O  O204  1  0.01254870  0.89534991  0.85679943  1
  O  O205  1  0.26655053  0.16215023  0.12720196  1
  O  O206  1  0.25285604  0.11611560  0.33619676  1
  O  O207  1  0.25492834  0.16117425  0.64698946  1
  O  O208  1  0.26610087  0.16179976  0.85415454  1
  O  O209  1  0.24892462  0.38723368  0.12445294  1
  O  O210  1  0.25023890  0.38645397  0.34226824  1
  O  O211  1  0.25400713  0.33762787  0.65139768  1
  O  O212  1  0.23461833  0.35098292  0.83902473  1
  O  O213  1  0.24652824  0.64973439  0.14856526  1
  O  O214  1  0.24992618  0.59933875  0.35754239  1
  O  O215  1  0.26643330  0.64953842  0.60051252  1
  O  O216  1  0.24424457  0.66005752  0.85868857  1
  O  O217  1  0.24533686  0.86502761  0.09671061  1
  O  O218  1  0.25219650  0.88870326  0.37744893  1
  O  O219  1  0.26845247  0.85400300  0.58154386  1
  O  O220  1  0.25986827  0.85014121  0.90548301  1
  O  O221  1  0.50727003  0.11817477  0.08221296  1
  O  O222  1  0.50521775  0.13579774  0.36998814  1
  O  O223  1  0.50063172  0.08331790  0.60876900  1
  O  O224  1  0.49752617  0.10669172  0.89133434  1
  O  O225  1  0.49881657  0.40685617  0.09171143  1
  O  O226  1  0.49485027  0.35762956  0.35497075  1
  O  O227  1  0.49460489  0.40372835  0.62960078  1
  O  O228  1  0.48861482  0.41891017  0.90428315  1
  O  O229  1  0.50118204  0.61182486  0.09416593  1
  O  O230  1  0.49650340  0.64560761  0.38671881  1
  O  O231  1  0.49502467  0.58431857  0.61446420  1
  O  O232  1  0.47833957  0.60320766  0.91396601  1
  O  O233  1  0.50584681  0.88329870  0.15571262  1
  O  O234  1  0.50720769  0.84487185  0.36216725  1
  O  O235  1  0.49716418  0.89500358  0.65557297  1
  O  O236  1  0.51186194  0.89736788  0.86066491  1
  O  O237  1  0.75969749  0.13398813  0.15900525  1
  O  O238  1  0.74528689  0.11440647  0.35744111  1
  O  O239  1  0.74058305  0.16066337  0.62489091  1
  O  O240  1  0.75420897  0.15720284  0.86900968  1
  O  O241  1  0.74372858  0.36889739  0.12974783  1
  O  O242  1  0.73315410  0.38491066  0.36041120  1
  O  O243  1  0.75361754  0.34238323  0.63047263  1
  O  O244  1  0.75948199  0.35627494  0.86156176  1
  O  O245  1  0.75230561  0.63725370  0.12897407  1
  O  O246  1  0.73264087  0.59420871  0.34529886  1
  O  O247  1  0.74041941  0.63158355  0.66558048  1
  O  O248  1  0.75360659  0.62748940  0.85352413  1
  O  O249  1  0.75316752  0.85947149  0.10216696  1
  O  O250  1  0.74881039  0.89626909  0.38213155  1
  O  O251  1  0.74029745  0.87295872  0.61459710  1
  O  O252  1  0.74906550  0.85949052  0.90860830  1
  O  O253  1  0.16906810  0.01653804  0.13653215  1
  O  O254  1  0.12281565  0.00794749  0.34216234  1
  O  O255  1  0.16763218  0.00055813  0.63636735  1
  O  O256  1  0.15562413  0.00467947  0.85658938  1
  O  O257  1  0.12703469  0.25478810  0.09770686  1
  O  O258  1  0.16183960  0.25389820  0.38181839  1
  O  O259  1  0.09856213  0.24495767  0.58313702  1
  O  O260  1  0.11015565  0.25033575  0.90090269  1
  O  O261  1  0.13471952  0.51604949  0.14444328  1
  O  O262  1  0.11299721  0.49710645  0.35421849  1
  O  O263  1  0.15077549  0.49105576  0.65157174  1
  O  O264  1  0.14025777  0.51036032  0.85194970  1
  O  O265  1  0.10141669  0.75879075  0.11221610  1
  O  O266  1  0.15624746  0.74285622  0.40651089  1
  O  O267  1  0.13709254  0.75653986  0.60626507  1
  O  O268  1  0.11601204  0.76318789  0.91089034  1
  O  O269  1  0.36182996  0.00903909  0.12578794  1
  O  O270  1  0.40338106  0.00387712  0.38681924  1
  O  O271  1  0.35074376  0.00532258  0.61363762  1
  O  O272  1  0.36075432  -0.00277060  0.87437035  1
  O  O273  1  0.40967839  0.25565296  0.08846739  1
  O  O274  1  0.36416993  0.25003494  0.36241269  1
  O  O275  1  0.40699004  0.24920747  0.63181368  1
  O  O276  1  0.41356113  0.25948600  0.88633794  1
  O  O277  1  0.36561543  0.52069185  0.09309349  1
  O  O278  1  0.38697307  0.49956606  0.34765936  1
  O  O279  1  0.34238153  0.49349525  0.63239653  1
  O  O280  1  0.33384707  0.50992938  0.88451442  1
  O  O281  1  0.40182103  0.75004757  0.12055151  1
  O  O282  1  0.34066510  0.73757419  0.41092973  1
  O  O283  1  0.40936022  0.74456294  0.62722941  1
  O  O284  1  0.40396131  0.75195899  0.86107450  1
  O  O285  1  0.64163580  -0.00275728  0.13433451  1
  O  O286  1  0.61305860  -0.00452798  0.34992136  1
  O  O287  1  0.64037818  0.00640444  0.64586938  1
  O  O288  1  0.65489519  -0.00684443  0.87118672  1
  O  O289  1  0.62020460  0.24895355  0.10265655  1
  O  O290  1  0.62863761  0.24972098  0.37517215  1
  O  O291  1  0.57979992  0.24044839  0.61393613  1
  O  O292  1  0.59974406  0.24699138  0.91479219  1
  O  O293  1  0.63903122  0.50229859  0.12750897  1
  O  O294  1  0.58882417  0.49504056  0.36256761  1
  O  O295  1  0.63475275  0.49421938  0.66455650  1
  O  O296  1  0.63140951  0.49885998  0.84140078  1
  O  O297  1  0.61583614  0.75047245  0.10152530  1
  O  O298  1  0.64559966  0.74025266  0.38243889  1
  O  O299  1  0.60550227  0.74896294  0.62024581  1
  O  O300  1  0.61371391  0.75159804  0.90349253  1
  O  O301  1  0.87569830  0.00638217  0.11648751  1
  O  O302  1  0.90394622  -0.00166380  0.36652743  1
  O  O303  1  0.84779354  0.00632215  0.62431396  1
  O  O304  1  0.85439811  0.00940043  0.89816063  1
  O  O305  1  0.90063933  0.25083158  0.14000052  1
  O  O306  1  0.86934458  0.25099036  0.34444156  1
  O  O307  1  0.90706385  0.25594095  0.64567163  1
  O  O308  1  0.90532854  0.25530833  0.87193925  1
  O  O309  1  0.87130200  0.50922088  0.09417311  1
  O  O310  1  0.86234972  0.49357388  0.40808249  1
  O  O311  1  0.84887231  0.49929999  0.60715316  1
  O  O312  1  0.87005790  0.50347928  0.89738240  1
  O  O313  1  0.89148517  0.75097686  0.13833890  1
  O  O314  1  0.84859972  0.75570450  0.36666081  1
  O  O315  1  0.85229825  0.74565542  0.63769408  1
  O  O316  1  0.90259951  0.74513348  0.86297676  1
