# generated using pymatgen
data_Mg32Ti42(Bi17O64)3
_symmetry_space_group_name_H-M   'P 1'
_cell_length_a   15.98137297
_cell_length_b   15.94331601
_cell_length_c   15.96438296
_cell_angle_alpha   89.92816333
_cell_angle_beta   90.02960168
_cell_angle_gamma   90.00480242
_symmetry_Int_Tables_number   1
_chemical_formula_structural   Mg32Ti42(Bi17O64)3
_chemical_formula_sum   'Mg32 Ti42 Bi51 O192'
_cell_volume   4067.65843702
_cell_formula_units_Z   1
loop_
 _symmetry_equiv_pos_site_id
 _symmetry_equiv_pos_as_xyz
  1  'x, y, z'
loop_
 _atom_site_type_symbol
 _atom_site_label
 _atom_site_symmetry_multiplicity
 _atom_site_fract_x
 _atom_site_fract_y
 _atom_site_fract_z
 _atom_site_occupancy
  Mg  Mg0  1  0.87748814  0.64597909  0.86312608  1
  Mg  Mg1  1  0.86706679  0.86845135  0.12639218  1
  Mg  Mg2  1  0.87392055  0.88020797  0.65264639  1
  Mg  Mg3  1  0.87264826  0.37548900  0.62299584  1
  Mg  Mg4  1  0.87122329  0.12717491  0.62047467  1
  Mg  Mg5  1  0.38793705  0.12737292  0.87490338  1
  Mg  Mg6  1  0.86773950  0.62527561  0.62997337  1
  Mg  Mg7  1  0.12613876  0.13005051  0.61428806  1
  Mg  Mg8  1  0.12262339  0.62668911  0.87670337  1
  Mg  Mg9  1  0.36908563  0.61841162  0.86618982  1
  Mg  Mg10  1  0.12476448  0.12702070  0.88085978  1
  Mg  Mg11  1  0.13264749  0.87334969  0.63293529  1
  Mg  Mg12  1  0.38114608  0.12087885  0.61833077  1
  Mg  Mg13  1  0.62129902  0.62882684  0.12651598  1
  Mg  Mg14  1  0.38762055  0.12390483  0.35986648  1
  Mg  Mg15  1  0.38249301  0.87919024  0.88003327  1
  Mg  Mg16  1  0.12445933  0.62004892  0.37596654  1
  Mg  Mg17  1  0.62412542  0.63658871  0.86452361  1
  Mg  Mg18  1  0.62359280  0.37893807  0.86571848  1
  Mg  Mg19  1  0.75041543  0.27645182  0.50595967  1
  Mg  Mg20  1  0.43239759  0.74842662  0.18792508  1
  Mg  Mg21  1  0.45206190  -0.08199367  0.27779969  1
  Mg  Mg22  1  0.29929624  0.79405602  0.50034763  1
  Mg  Mg23  1  -0.01506476  -0.04276466  0.02743347  1
  Mg  Mg24  1  0.01644512  0.79706832  0.77429433  1
  Mg  Mg25  1  0.53894307  0.19608940  0.74510957  1
  Mg  Mg26  1  0.29801193  -0.05042943  0.21771682  1
  Mg  Mg27  1  0.75408161  0.81438938  0.79130496  1
  Mg  Mg28  1  0.74137397  0.00356597  0.73973136  1
  Mg  Mg29  1  0.31511289  0.56579758  0.20065153  1
  Mg  Mg30  1  0.47803225  -0.05068049  0.08299130  1
  Mg  Mg31  1  0.75738445  0.00555291  0.21798664  1
  Ti  Ti32  1  0.62610066  0.87398025  0.63551886  1
  Ti  Ti33  1  0.13070552  0.63080810  0.62584102  1
  Ti  Ti34  1  0.63123146  0.37548392  0.63010054  1
  Ti  Ti35  1  0.63446650  0.11669753  0.35708230  1
  Ti  Ti36  1  0.38121245  0.37167094  0.86055130  1
  Ti  Ti37  1  0.13263772  0.37189194  0.37277548  1
  Ti  Ti38  1  0.11912006  0.37321604  0.87517000  1
  Ti  Ti39  1  0.88089705  0.63482400  0.37126855  1
  Ti  Ti40  1  0.63232427  0.37220512  0.38030345  1
  Ti  Ti41  1  0.38821673  0.12977729  0.12800908  1
  Ti  Ti42  1  0.63383035  0.12193119  0.61701573  1
  Ti  Ti43  1  0.12806686  0.37084360  0.12490959  1
  Ti  Ti44  1  0.11118542  0.86844445  0.38820325  1
  Ti  Ti45  1  0.87412507  0.13119330  0.11497924  1
  Ti  Ti46  1  0.37113303  0.63381430  0.61814507  1
  Ti  Ti47  1  0.62822921  0.87944472  0.14673963  1
  Ti  Ti48  1  0.11820090  0.37591612  0.61025012  1
  Ti  Ti49  1  0.62201224  0.37587113  0.12093675  1
  Ti  Ti50  1  0.38008179  0.38110469  0.62013133  1
  Ti  Ti51  1  0.87936299  0.36938240  0.11754548  1
  Ti  Ti52  1  0.86260004  0.11881593  0.37108315  1
  Ti  Ti53  1  0.36439855  0.88647408  0.62870601  1
  Ti  Ti54  1  0.12778570  0.88799527  0.87976680  1
  Ti  Ti55  1  0.86954568  0.38115132  0.37866007  1
  Ti  Ti56  1  0.88399784  0.88408680  0.87470956  1
  Ti  Ti57  1  0.12056144  0.61026213  0.13112250  1
  Ti  Ti58  1  0.64182326  0.88639115  0.37281251  1
  Ti  Ti59  1  0.62472908  0.11216660  0.11671837  1
  Ti  Ti60  1  0.12082385  0.11180880  0.37569299  1
  Ti  Ti61  1  0.87493622  0.37824436  0.87237204  1
  Ti  Ti62  1  0.12238169  0.87997087  0.13993360  1
  Ti  Ti63  1  0.12647171  0.11470949  0.12102381  1
  Ti  Ti64  1  0.87196423  0.11910973  0.86890778  1
  Ti  Ti65  1  0.62412951  0.64286321  0.62427664  1
  Ti  Ti66  1  0.37210920  0.61826945  0.38115605  1
  Ti  Ti67  1  0.61708542  0.87863556  0.88260339  1
  Ti  Ti68  1  0.87939331  0.62863040  0.11956719  1
  Ti  Ti69  1  0.87635839  0.87760938  0.36694915  1
  Ti  Ti70  1  0.63359223  0.11468968  0.87662763  1
  Ti  Ti71  1  0.37610467  0.36804273  0.37601472  1
  Ti  Ti72  1  0.36928622  0.36599919  0.13598035  1
  Ti  Ti73  1  0.62624363  0.64280545  0.37492795  1
  Bi  Bi74  1  0.51764550  0.25194521  -0.03749350  1
  Bi  Bi75  1  0.49824082  0.49843613  0.26968530  1
  Bi  Bi76  1  0.01118458  0.23705990  0.73374558  1
  Bi  Bi77  1  0.51419821  0.25599340  0.51903982  1
  Bi  Bi78  1  0.28047605  -0.01247192  0.44065905  1
  Bi  Bi79  1  0.75669038  0.49937018  0.21642401  1
  Bi  Bi80  1  0.24534749  0.47276675  -0.01104748  1
  Bi  Bi81  1  0.26831328  0.75948677  0.29986780  1
  Bi  Bi82  1  0.02749338  0.73721547  0.25525861  1
  Bi  Bi83  1  0.27213907  0.22405864  -0.01086615  1
  Bi  Bi84  1  0.49629559  0.51610722  0.75216598  1
  Bi  Bi85  1  -0.01670553  0.51710284  0.51590313  1
  Bi  Bi86  1  0.03031474  0.02414620  0.74630591  1
  Bi  Bi87  1  0.26444768  0.03659921  0.77013341  1
  Bi  Bi88  1  0.24832114  0.75724134  0.79399477  1
  Bi  Bi89  1  -0.01894146  0.51031803  0.74834725  1
  Bi  Bi90  1  0.78052652  0.76141536  0.51881253  1
  Bi  Bi91  1  0.74961651  0.27167941  0.24199284  1
  Bi  Bi92  1  0.71342738  0.75629910  -0.00491265  1
  Bi  Bi93  1  0.47734307  0.71784750  0.00653947  1
  Bi  Bi94  1  0.00161182  0.00666771  0.52072886  1
  Bi  Bi95  1  -0.01799187  0.24928725  0.47992897  1
  Bi  Bi96  1  0.75241549  0.52411802  0.50152853  1
  Bi  Bi97  1  0.76577395  -0.00476680  0.00329437  1
  Bi  Bi98  1  0.01016949  0.23342432  0.25868371  1
  Bi  Bi99  1  0.23698617  0.52113238  0.50073308  1
  Bi  Bi100  1  0.74197600  0.51683542  0.76740837  1
  Bi  Bi101  1  0.73364678  0.51534311  -0.02591052  1
  Bi  Bi102  1  0.75233757  0.72135067  0.23553826  1
  Bi  Bi103  1  0.24705879  0.23208949  0.26503877  1
  Bi  Bi104  1  0.01581571  0.48187501  0.26448772  1
  Bi  Bi105  1  0.01886033  0.75904453  0.00254784  1
  Bi  Bi106  1  0.22646967  0.49639593  0.75244172  1
  Bi  Bi107  1  0.50860636  0.01616416  0.47558251  1
  Bi  Bi108  1  0.49130283  -0.00302011  0.74713875  1
  Bi  Bi109  1  0.29295470  -0.01162866  0.01693658  1
  Bi  Bi110  1  0.51922817  0.25181632  0.24096277  1
  Bi  Bi111  1  0.47565859  0.50237052  0.03153243  1
  Bi  Bi112  1  0.27629582  0.24848841  0.50806271  1
  Bi  Bi113  1  0.24860362  0.72785407  0.02488874  1
  Bi  Bi114  1  -0.02642910  -0.00674332  0.23684347  1
  Bi  Bi115  1  0.49743822  0.79087897  0.47346095  1
  Bi  Bi116  1  -0.00708885  0.76906312  0.54775020  1
  Bi  Bi117  1  0.25731943  0.24665881  0.72850399  1
  Bi  Bi118  1  0.46938036  0.75031122  0.76290297  1
  Bi  Bi119  1  0.75168892  0.25987560  -0.03146037  1
  Bi  Bi120  1  -0.01178788  0.51929646  -0.02008124  1
  Bi  Bi121  1  0.76764198  -0.01717327  0.51193405  1
  Bi  Bi122  1  0.51780022  0.51754252  0.50583806  1
  Bi  Bi123  1  0.76533260  0.23961194  0.72937846  1
  Bi  Bi124  1  0.01716449  0.23501447  0.00669923  1
  O  O125  1  0.09037153  0.12014742  0.00385897  1
  O  O126  1  0.13215406  0.14830270  0.24178436  1
  O  O127  1  0.09388699  0.11906949  0.48977089  1
  O  O128  1  0.12720396  0.13133183  0.74915543  1
  O  O129  1  0.12176666  0.40136681  0.00549109  1
  O  O130  1  0.11307779  0.35983785  0.24678334  1
  O  O131  1  0.12818016  0.38115782  0.49421918  1
  O  O132  1  0.13409841  0.37729276  0.75638494  1
  O  O133  1  0.09386184  0.62142983  0.01163481  1
  O  O134  1  0.13354067  0.64864468  0.24623541  1
  O  O135  1  0.11599739  0.59525293  0.50293932  1
  O  O136  1  0.15305740  0.61853291  0.74405133  1
  O  O137  1  0.08874246  0.88761619  -0.00214523  1
  O  O138  1  0.13462084  0.86046224  0.25305986  1
  O  O139  1  0.08203524  0.88005538  0.50071850  1
  O  O140  1  0.13913037  0.85489928  0.76114018  1
  O  O141  1  0.37491435  0.11673942  0.00548833  1
  O  O142  1  0.35972647  0.15669501  0.24023911  1
  O  O143  1  0.39001091  0.08944662  0.48813483  1
  O  O144  1  0.35338825  0.14674974  0.74617090  1
  O  O145  1  0.38074194  0.40781026  0.00073335  1
  O  O146  1  0.36633658  0.34597167  0.24743230  1
  O  O147  1  0.36397465  0.39201006  0.49195142  1
  O  O148  1  0.36657683  0.34355815  0.74314569  1
  O  O149  1  0.40133479  0.60279199  -0.01378885  1
  O  O150  1  0.36526846  0.66078408  0.25966351  1
  O  O151  1  0.38662383  0.58695989  0.49741384  1
  O  O152  1  0.36044607  0.65010610  0.73441119  1
  O  O153  1  0.40235653  0.91357418  -0.00366254  1
  O  O154  1  0.35917091  0.84176366  0.24595334  1
  O  O155  1  0.39591291  0.88924089  0.50739439  1
  O  O156  1  0.35811920  0.84506430  0.74101869  1
  O  O157  1  0.61247904  0.14109672  0.00541416  1
  O  O158  1  0.65697106  0.09068381  0.25051772  1
  O  O159  1  0.59888373  0.12924977  0.50729128  1
  O  O160  1  0.64982175  0.11741863  0.75775181  1
  O  O161  1  0.61754403  0.35418943  0.00801148  1
  O  O162  1  0.63255919  0.37330858  0.25755249  1
  O  O163  1  0.63086497  0.33257256  0.49644284  1
  O  O164  1  0.63069604  0.39535473  0.74076437  1
  O  O165  1  0.62661882  0.64574131  -0.00436096  1
  O  O166  1  0.64253534  0.61980396  0.26024572  1
  O  O167  1  0.59565058  0.63503023  0.50185257  1
  O  O168  1  0.63795101  0.60335919  0.73509393  1
  O  O169  1  0.60892963  0.85103690  -0.00006538  1
  O  O170  1  0.65921913  0.90172950  0.25849430  1
  O  O171  1  0.60907952  0.86843183  0.51263558  1
  O  O172  1  0.66039976  0.89532891  0.75101480  1
  O  O173  1  0.88288791  0.15874197  0.00205770  1
  O  O174  1  0.85280776  0.09185684  0.25161847  1
  O  O175  1  0.90556093  0.13616145  0.49275443  1
  O  O176  1  0.82950183  0.10717406  0.75731540  1
  O  O177  1  0.87561449  0.34784561  0.00569355  1
  O  O178  1  0.85272846  0.38438378  0.25793465  1
  O  O179  1  0.86819817  0.33393894  0.49656234  1
  O  O180  1  0.87308465  0.40383415  0.75909773  1
  O  O181  1  0.89936382  0.63486058  0.00566446  1
  O  O182  1  0.84440216  0.60607624  0.25823167  1
  O  O183  1  0.89350219  0.63532035  0.49109253  1
  O  O184  1  0.86832687  0.58915676  0.74812074  1
  O  O185  1  0.90349495  0.86249713  -0.00566826  1
  O  O186  1  0.85307495  0.91098445  0.25369840  1
  O  O187  1  0.89192036  0.85524298  0.49214301  1
  O  O188  1  0.83208335  0.91505516  0.76462043  1
  O  O189  1  -0.00984085  0.14464255  0.13836866  1
  O  O190  1  0.00442811  0.10918593  0.33810701  1
  O  O191  1  -0.00704807  0.12537866  0.65480269  1
  O  O192  1  -0.01470873  0.13493722  0.84530671  1
  O  O193  1  -0.00672350  0.36795918  0.13108246  1
  O  O194  1  -0.01071468  0.38705428  0.37399954  1
  O  O195  1  0.00444911  0.40530664  0.61605956  1
  O  O196  1  -0.00037819  0.39129163  0.87885644  1
  O  O197  1  -0.00831763  0.62644244  0.15538365  1
  O  O198  1  -0.00737158  0.61258323  0.34477801  1
  O  O199  1  0.00700043  0.59833310  0.63255232  1
  O  O200  1  -0.00224555  0.59455502  0.86424692  1
  O  O201  1  -0.00570489  0.88078688  0.14282701  1
  O  O202  1  -0.00540393  0.89411934  0.34849469  1
  O  O203  1  -0.00226289  0.85065908  0.65878828  1
  O  O204  1  -0.00273499  0.89454153  0.85007077  1
  O  O205  1  0.23988712  0.11650239  0.10544294  1
  O  O206  1  0.24114603  0.14369228  0.37577778  1
  O  O207  1  0.24983302  0.15585630  0.61051410  1
  O  O208  1  0.25237809  0.12321383  0.88430113  1
  O  O209  1  0.24842657  0.38665698  0.11663956  1
  O  O210  1  0.24659250  0.35542745  0.36790898  1
  O  O211  1  0.25335217  0.34340566  0.61628540  1
  O  O212  1  0.25291353  0.37019130  0.89579524  1
  O  O213  1  0.23922323  0.61262515  0.11014544  1
  O  O214  1  0.25337902  0.61103056  0.39140901  1
  O  O215  1  0.25424797  0.62356303  0.59468136  1
  O  O216  1  0.24767079  0.65084684  0.90043622  1
  O  O217  1  0.23538751  0.90514472  0.11844186  1
  O  O218  1  0.23389250  0.85551589  0.40889966  1
  O  O219  1  0.25662485  0.87222881  0.59564349  1
  O  O220  1  0.24332076  0.85817984  0.89763160  1
  O  O221  1  0.50117196  0.14041921  0.14449866  1
  O  O222  1  0.51312039  0.09179078  0.36058059  1
  O  O223  1  0.51041366  0.10754204  0.65598726  1
  O  O224  1  0.51117258  0.14575836  0.85654429  1
  O  O225  1  0.50091763  0.35836917  0.13905567  1
  O  O226  1  0.49711518  0.38847733  0.36593371  1
  O  O227  1  0.49806435  0.38040406  0.60293986  1
  O  O228  1  0.49699260  0.36376005  0.86984996  1
  O  O229  1  0.50149599  0.65758390  0.12664775  1
  O  O230  1  0.50259751  0.60046276  0.36824312  1
  O  O231  1  0.49898764  0.60244771  0.63345171  1
  O  O232  1  0.49969891  0.62714750  0.83376749  1
  O  O233  1  0.51060566  0.86512683  0.17246660  1
  O  O234  1  0.51662629  0.89034619  0.37652642  1
  O  O235  1  0.50891705  0.89472740  0.65089485  1
  O  O236  1  0.50916925  0.86908598  0.84545525  1
  O  O237  1  0.74579783  0.09980900  0.11310790  1
  O  O238  1  0.75336542  0.14369063  0.39600983  1
  O  O239  1  0.74486184  0.16799583  0.60186336  1
  O  O240  1  0.74868028  0.12341618  0.90721368  1
  O  O241  1  0.74456141  0.36824563  0.13272860  1
  O  O242  1  0.74810386  0.34517255  0.38559880  1
  O  O243  1  0.74489989  0.34605184  0.61962452  1
  O  O244  1  0.75124097  0.38447325  0.89409872  1
  O  O245  1  0.75191498  0.61894060  0.12815657  1
  O  O246  1  0.74395878  0.63426382  0.40099709  1
  O  O247  1  0.73951064  0.63260496  0.59766440  1
  O  O248  1  0.75528840  0.61200776  0.87473442  1
  O  O249  1  0.74519469  0.91250779  0.11753710  1
  O  O250  1  0.75487888  0.86529986  0.40375741  1
  O  O251  1  0.75052052  0.86895358  0.60177516  1
  O  O252  1  0.75516819  0.88028316  0.90931438  1
  O  O253  1  0.09782859  0.00454928  0.13735138  1
  O  O254  1  0.14445906  -0.00268479  0.37468824  1
  O  O255  1  0.10055464  0.00034579  0.62577968  1
  O  O256  1  0.13183840  0.00035020  0.85765372  1
  O  O257  1  0.12415642  0.25560698  0.10216672  1
  O  O258  1  0.09755710  0.25119622  0.37464492  1
  O  O259  1  0.09857609  0.25897934  0.62342883  1
  O  O260  1  0.11410207  0.25784587  0.89640200  1
  O  O261  1  0.11054284  0.49840801  0.14860958  1
  O  O262  1  0.12059682  0.49003342  0.35314594  1
  O  O263  1  0.15773813  0.49007123  0.63027284  1
  O  O264  1  0.15061593  0.49865167  0.87316637  1
  O  O265  1  0.11604869  0.75954271  0.11254110  1
  O  O266  1  0.09793382  0.75198903  0.38048928  1
  O  O267  1  0.12384723  0.74126282  0.61861748  1
  O  O268  1  0.08870386  0.75351046  0.87981738  1
  O  O269  1  0.37821312  0.00875430  0.13801195  1
  O  O270  1  0.35284359  -0.00562471  0.32587553  1
  O  O271  1  0.37193003  -0.00164020  0.66022487  1
  O  O272  1  0.37738072  0.00223917  0.84046091  1
  O  O273  1  0.36550204  0.25338192  0.09732174  1
  O  O274  1  0.38842683  0.25390217  0.39255648  1
  O  O275  1  0.38932073  0.24831551  0.59047170  1
  O  O276  1  0.37616080  0.25475553  0.90177637  1
  O  O277  1  0.39752060  0.49096106  0.14771824  1
  O  O278  1  0.37202704  0.50154798  0.32572695  1
  O  O279  1  0.37011887  0.49164909  0.64735926  1
  O  O280  1  0.37817025  0.49141301  0.83846034  1
  O  O281  1  0.36776815  0.75104859  0.07974505  1
  O  O282  1  0.36442230  0.73719926  0.40584748  1
  O  O283  1  0.38254880  0.74511657  0.59066826  1
  O  O284  1  0.38605572  0.75032438  0.87183922  1
  O  O285  1  0.59371836  -0.00305122  0.10694057  1
  O  O286  1  0.64888924  -0.00076080  0.40454126  1
  O  O287  1  0.66658405  0.00899076  0.62634283  1
  O  O288  1  0.62373019  -0.00016823  0.88856653  1
  O  O289  1  0.63147517  0.23908020  0.15701623  1
  O  O290  1  0.61072693  0.23464569  0.35097654  1
  O  O291  1  0.59235453  0.24760968  0.64298521  1
  O  O292  1  0.63512829  0.24938572  0.87429065  1
  O  O293  1  0.62344379  0.49272169  0.12314364  1
  O  O294  1  0.63344921  0.48575995  0.40088347  1
  O  O295  1  0.63418649  0.48931755  0.59311302  1
  O  O296  1  0.63370474  0.50444900  0.87984624  1
  O  O297  1  0.65789393  0.76414512  0.13768663  1
  O  O298  1  0.61519710  0.75575581  0.37132482  1
  O  O299  1  0.61494804  0.75459225  0.64658022  1
  O  O300  1  0.65649895  0.76201046  0.85925899  1
  O  O301  1  0.88894953  0.00990707  0.09518863  1
  O  O302  1  0.86709621  -0.00097549  0.40094575  1
  O  O303  1  0.87549275  0.00010739  0.60228040  1
  O  O304  1  0.88281936  0.00995960  0.91038755  1
  O  O305  1  0.85666000  0.24803952  0.15056624  1
  O  O306  1  0.90135390  0.23901172  0.35908933  1
  O  O307  1  0.88635643  0.25235983  0.66450880  1
  O  O308  1  0.85016728  0.25438291  0.86101854  1
  O  O309  1  0.86360420  0.49432046  0.12087633  1
  O  O310  1  0.85950216  0.49505876  0.39788865  1
  O  O311  1  0.86245591  0.49965676  0.59097731  1
  O  O312  1  0.86707078  0.49205713  0.91336688  1
  O  O313  1  0.85948855  0.74352022  0.14449554  1
  O  O314  1  0.88177494  0.75121137  0.34843422  1
  O  O315  1  0.87009995  0.74972208  0.62405546  1
  O  O316  1  0.87898573  0.76961257  0.83284007  1
