# generated using pymatgen
data_Mg32Ti42(Bi17O64)3
_symmetry_space_group_name_H-M   'P 1'
_cell_length_a   15.94615361
_cell_length_b   15.93279156
_cell_length_c   15.93291499
_cell_angle_alpha   89.94402775
_cell_angle_beta   90.04290490
_cell_angle_gamma   90.00137328
_symmetry_Int_Tables_number   1
_chemical_formula_structural   Mg32Ti42(Bi17O64)3
_chemical_formula_sum   'Mg32 Ti42 Bi51 O192'
_cell_volume   4048.02072956
_cell_formula_units_Z   1
loop_
 _symmetry_equiv_pos_site_id
 _symmetry_equiv_pos_as_xyz
  1  'x, y, z'
loop_
 _atom_site_type_symbol
 _atom_site_label
 _atom_site_symmetry_multiplicity
 _atom_site_fract_x
 _atom_site_fract_y
 _atom_site_fract_z
 _atom_site_occupancy
  Mg  Mg0  1  0.87121884  0.61338569  0.87335386  1
  Mg  Mg1  1  0.61829630  0.11549953  0.13615759  1
  Mg  Mg2  1  0.38284705  0.62653431  0.12920245  1
  Mg  Mg3  1  0.37997468  0.11566814  0.11119567  1
  Mg  Mg4  1  0.12977864  0.12579697  0.11039798  1
  Mg  Mg5  1  0.87180128  0.37150979  0.11724706  1
  Mg  Mg6  1  0.37427634  0.88166558  0.36597162  1
  Mg  Mg7  1  0.88120872  0.87702718  0.86665543  1
  Mg  Mg8  1  0.11822225  0.62319367  0.12276639  1
  Mg  Mg9  1  0.63588840  0.14340950  0.86817440  1
  Mg  Mg10  1  0.62273391  0.87726847  0.37036500  1
  Mg  Mg11  1  0.86791246  0.61978843  0.12944366  1
  Mg  Mg12  1  0.62803453  0.87431698  0.87360932  1
  Mg  Mg13  1  0.37926714  0.62735618  0.61088498  1
  Mg  Mg14  1  0.12877678  0.63360738  0.37624735  1
  Mg  Mg15  1  0.12327099  0.12662891  0.37618184  1
  Mg  Mg16  1  0.37179454  0.87574166  0.88426419  1
  Mg  Mg17  1  0.86922522  0.62744477  0.38691625  1
  Mg  Mg18  1  0.12232490  0.37115385  0.37522139  1
  Mg  Mg19  1  0.73096210  0.78297395  0.51376657  1
  Mg  Mg20  1  0.27556681  0.26118068  0.75567981  1
  Mg  Mg21  1  0.47110863  0.75293119  0.28140252  1
  Mg  Mg22  1  0.78868063  0.74719570  0.79153117  1
  Mg  Mg23  1  0.70689681  0.24200085  0.04632077  1
  Mg  Mg24  1  0.00312050  0.56099900  0.50963373  1
  Mg  Mg25  1  0.56675664  0.04170746  -0.01133949  1
  Mg  Mg26  1  0.78364662  0.01678488  0.56483467  1
  Mg  Mg27  1  0.49051094  0.03276702  0.28684241  1
  Mg  Mg28  1  0.02532408  0.29533090  -0.01237527  1
  Mg  Mg29  1  0.24481041  0.71597376  0.20955588  1
  Mg  Mg30  1  0.25502847  0.03844729  -0.04969740  1
  Mg  Mg31  1  0.29185132  0.75624797  0.70373347  1
  Ti  Ti32  1  0.38206827  0.87409104  0.13507077  1
  Ti  Ti33  1  0.13396027  0.62294557  0.87695826  1
  Ti  Ti34  1  0.61946582  0.36254408  0.37002876  1
  Ti  Ti35  1  0.63704326  0.63275634  0.37620869  1
  Ti  Ti36  1  0.36538202  0.12953496  0.63228033  1
  Ti  Ti37  1  0.13323217  0.38089561  0.63465972  1
  Ti  Ti38  1  0.36275735  0.37354033  0.37874180  1
  Ti  Ti39  1  0.37481661  0.36706777  0.12628778  1
  Ti  Ti40  1  0.61024370  0.88037547  0.12231161  1
  Ti  Ti41  1  0.62413167  0.63268097  0.13546081  1
  Ti  Ti42  1  0.62260089  0.11266258  0.62767746  1
  Ti  Ti43  1  0.88584960  0.37335132  0.87929423  1
  Ti  Ti44  1  0.62437145  0.64492620  0.61497082  1
  Ti  Ti45  1  0.13028425  0.87525820  0.36705134  1
  Ti  Ti46  1  0.38638484  0.61782659  0.87596375  1
  Ti  Ti47  1  0.12615612  0.85987971  0.86936104  1
  Ti  Ti48  1  0.13510774  0.38195045  0.86849811  1
  Ti  Ti49  1  0.36868632  0.37467079  0.63156969  1
  Ti  Ti50  1  0.87373264  0.12610933  0.11578314  1
  Ti  Ti51  1  0.86966806  0.86132590  0.63129885  1
  Ti  Ti52  1  0.13486570  0.86582837  0.12717493  1
  Ti  Ti53  1  0.62443893  0.12350142  0.37035721  1
  Ti  Ti54  1  0.38809937  0.37747674  0.88066701  1
  Ti  Ti55  1  0.63515131  0.37317046  0.88068770  1
  Ti  Ti56  1  0.88672815  0.38200239  0.61194618  1
  Ti  Ti57  1  0.38282895  0.88804331  0.62024290  1
  Ti  Ti58  1  0.12498164  0.87074196  0.63415641  1
  Ti  Ti59  1  0.12756680  0.63897528  0.63317072  1
  Ti  Ti60  1  0.36838277  0.62337446  0.37460136  1
  Ti  Ti61  1  0.62377282  0.37526147  0.13400312  1
  Ti  Ti62  1  0.87801024  0.14071358  0.88880044  1
  Ti  Ti63  1  0.88508023  0.37554947  0.37606915  1
  Ti  Ti64  1  0.37293915  0.13504620  0.38688743  1
  Ti  Ti65  1  0.85706450  0.63076024  0.61811925  1
  Ti  Ti66  1  0.63234907  0.88049336  0.62898042  1
  Ti  Ti67  1  0.87854545  0.12415024  0.37702572  1
  Ti  Ti68  1  0.12325693  0.37553302  0.11633987  1
  Ti  Ti69  1  0.38301959  0.13640692  0.87152909  1
  Ti  Ti70  1  0.13167905  0.11316690  0.63257075  1
  Ti  Ti71  1  0.85497575  0.87176047  0.38958988  1
  Ti  Ti72  1  0.11255351  0.12747440  0.87088422  1
  Ti  Ti73  1  0.62864893  0.61601930  0.86367891  1
  Bi  Bi74  1  0.73319028  0.77328510  0.22827212  1
  Bi  Bi75  1  -0.04453063  0.76690760  0.23780321  1
  Bi  Bi76  1  0.51397186  0.23277826  0.01897584  1
  Bi  Bi77  1  0.51596473  0.76496842  0.48332917  1
  Bi  Bi78  1  0.27704639  0.74698733  0.00900101  1
  Bi  Bi79  1  0.25613417  0.00744469  0.22486099  1
  Bi  Bi80  1  0.22887694  0.50340817  0.49819341  1
  Bi  Bi81  1  0.25928278  0.49954921  0.03259113  1
  Bi  Bi82  1  0.00249372  0.51574388  0.01525354  1
  Bi  Bi83  1  0.00342940  0.25183190  0.72132898  1
  Bi  Bi84  1  0.76322256  0.48326879  0.26333338  1
  Bi  Bi85  1  0.26754043  0.53624211  0.74294925  1
  Bi  Bi86  1  0.01527867  0.25129485  0.21487802  1
  Bi  Bi87  1  0.51157409  0.48413737  0.49163220  1
  Bi  Bi88  1  0.28090144  0.76466963  0.49108023  1
  Bi  Bi89  1  0.23524098  -0.00315334  0.47674967  1
  Bi  Bi90  1  -0.00850669  0.72589013  0.77329049  1
  Bi  Bi91  1  0.77046700  0.01107357  0.25806916  1
  Bi  Bi92  1  0.76466620  0.21870722  0.51595265  1
  Bi  Bi93  1  0.23917415  0.23542800  0.24673939  1
  Bi  Bi94  1  0.49778811  0.00630897  0.77110025  1
  Bi  Bi95  1  0.00558881  0.22649901  0.50537811  1
  Bi  Bi96  1  0.01149356  -0.02080783  -0.00592171  1
  Bi  Bi97  1  0.23899146  0.24012681  -0.03232424  1
  Bi  Bi98  1  0.00370383  0.75876142  0.48300252  1
  Bi  Bi99  1  0.49819508  -0.00334475  0.47907578  1
  Bi  Bi100  1  0.51502788  0.23455483  0.52166674  1
  Bi  Bi101  1  0.73602607  0.01033387  0.78437187  1
  Bi  Bi102  1  0.73890267  0.75032671  -0.00832867  1
  Bi  Bi103  1  0.25123692  -0.02737191  0.76525548  1
  Bi  Bi104  1  0.01393409  -0.00622395  0.22395960  1
  Bi  Bi105  1  0.76575992  0.50292108  0.01457136  1
  Bi  Bi106  1  0.77627185  -0.03566693  0.02780617  1
  Bi  Bi107  1  0.50888913  0.49746663  0.01986414  1
  Bi  Bi108  1  -0.00825854  0.50661866  0.74539952  1
  Bi  Bi109  1  0.22958804  0.51796867  0.25995231  1
  Bi  Bi110  1  0.51504444  0.74169571  -0.01632771  1
  Bi  Bi111  1  0.49104375  0.77571274  0.76658744  1
  Bi  Bi112  1  0.75279506  0.47553673  0.74574583  1
  Bi  Bi113  1  0.49256042  0.52070467  0.26229986  1
  Bi  Bi114  1  0.72043977  0.46112375  0.51551256  1
  Bi  Bi115  1  -0.03724214  0.02592713  0.74352154  1
  Bi  Bi116  1  -0.00526666  0.53741710  0.26845250  1
  Bi  Bi117  1  0.22512450  0.25973020  0.50653895  1
  Bi  Bi118  1  -0.02459161  0.77123805  0.01038249  1
  Bi  Bi119  1  0.77480761  0.24630283  0.23726435  1
  Bi  Bi120  1  0.52623277  0.28358820  0.73639180  1
  Bi  Bi121  1  -0.00407229  -0.02223528  0.50633648  1
  Bi  Bi122  1  0.78355414  0.24527895  0.73016054  1
  Bi  Bi123  1  0.48207219  0.24310890  0.24914789  1
  Bi  Bi124  1  0.52194365  0.50190334  0.70915793  1
  O  O125  1  0.16044295  0.11301317  -0.01175259  1
  O  O126  1  0.11678350  0.16516395  0.25238434  1
  O  O127  1  0.15666525  0.10690760  0.51252262  1
  O  O128  1  0.10390905  0.14135589  0.75215655  1
  O  O129  1  0.13977232  0.37311710  -0.00865993  1
  O  O130  1  0.11699142  0.34980812  0.23606165  1
  O  O131  1  0.15203986  0.38513810  0.51129448  1
  O  O132  1  0.10492246  0.35919962  0.75224430  1
  O  O133  1  0.10760839  0.61476817  -0.00787670  1
  O  O134  1  0.11342375  0.60779441  0.25084774  1
  O  O135  1  0.12872352  0.60098501  0.51285792  1
  O  O136  1  0.12132269  0.63562190  0.75136396  1
  O  O137  1  0.12369126  0.88275305  0.00562046  1
  O  O138  1  0.10262681  0.87240620  0.25663811  1
  O  O139  1  0.13106427  0.90754954  0.51029322  1
  O  O140  1  0.10895280  0.86093719  0.75048987  1
  O  O141  1  0.34291135  0.12387452  -0.01522256  1
  O  O142  1  0.40865145  0.12807879  0.25678774  1
  O  O143  1  0.34844341  0.12316316  0.50071775  1
  O  O144  1  0.39959038  0.12968689  0.74585151  1
  O  O145  1  0.35769516  0.36729712  -0.00697633  1
  O  O146  1  0.38633486  0.36811101  0.24286451  1
  O  O147  1  0.36039486  0.38246595  0.49623098  1
  O  O148  1  0.37513358  0.36030953  0.75044108  1
  O  O149  1  0.36481780  0.63863548  -0.00242147  1
  O  O150  1  0.41514431  0.63962943  0.25484315  1
  O  O151  1  0.33430271  0.62258353  0.48799839  1
  O  O152  1  0.37890241  0.62764878  0.75384786  1
  O  O153  1  0.35972384  0.85334955  0.00764597  1
  O  O154  1  0.40699905  0.85510019  0.24770172  1
  O  O155  1  0.35212386  0.88705884  0.50230058  1
  O  O156  1  0.36869121  0.85456868  0.73917204  1
  O  O157  1  0.63323306  0.15669654  -0.00864063  1
  O  O158  1  0.58548931  0.11117494  0.25680657  1
  O  O159  1  0.64092456  0.15155126  0.49580568  1
  O  O160  1  0.61491629  0.09607127  0.74536707  1
  O  O161  1  0.64357648  0.34535276  -0.00713159  1
  O  O162  1  0.61787822  0.39596724  0.24821919  1
  O  O163  1  0.61686325  0.37106362  0.49221922  1
  O  O164  1  0.60513578  0.40159497  0.75348130  1
  O  O165  1  0.62826552  0.65171805  0.00575008  1
  O  O166  1  0.61258987  0.59329599  0.25666299  1
  O  O167  1  0.64446650  0.67704586  0.49933488  1
  O  O168  1  0.61758663  0.60315152  0.74913919  1
  O  O169  1  0.62210653  0.83460549  -0.00062578  1
  O  O170  1  0.64088783  0.88425883  0.24068421  1
  O  O171  1  0.62122868  0.85138247  0.50826377  1
  O  O172  1  0.62296605  0.90868760  0.74361822  1
  O  O173  1  0.86145106  0.09890379  0.00101665  1
  O  O174  1  0.86766045  0.12434296  0.25251792  1
  O  O175  1  0.83791907  0.10567495  0.48920183  1
  O  O176  1  0.90305091  0.15293927  0.76292663  1
  O  O177  1  0.85272488  0.39765219  -0.00905749  1
  O  O178  1  0.85682930  0.36722918  0.25377265  1
  O  O179  1  0.86925774  0.38903834  0.49929658  1
  O  O180  1  0.89450938  0.33900068  0.75811731  1
  O  O181  1  0.87424089  0.59136138  -0.00186912  1
  O  O182  1  0.89836978  0.64122578  0.25609082  1
  O  O183  1  0.88191943  0.59404152  0.51124819  1
  O  O184  1  0.87016162  0.65857751  0.74248296  1
  O  O185  1  0.89664660  0.89054055  -0.00572133  1
  O  O186  1  0.85324844  0.85712258  0.26241302  1
  O  O187  1  0.86380812  0.91705769  0.50389160  1
  O  O188  1  0.87471813  0.83423861  0.74323633  1
  O  O189  1  -0.00868084  0.10295249  0.13070957  1
  O  O190  1  -0.00794423  0.11992481  0.40002160  1
  O  O191  1  0.01236616  0.12364507  0.60801423  1
  O  O192  1  0.00164248  0.09806917  0.89078286  1
  O  O193  1  -0.00006634  0.38091565  0.09540314  1
  O  O194  1  -0.00486182  0.38052216  0.37206162  1
  O  O195  1  0.00610330  0.38317354  0.61952903  1
  O  O196  1  0.00094620  0.38409160  0.89418624  1
  O  O197  1  -0.00673699  0.59062629  0.12676850  1
  O  O198  1  0.00412988  0.60808899  0.39247820  1
  O  O199  1  0.00597340  0.60437783  0.63197158  1
  O  O200  1  -0.00122532  0.60619479  0.84927576  1
  O  O201  1  0.00719448  0.89499133  0.12836070  1
  O  O202  1  0.00166678  0.88289587  0.40598232  1
  O  O203  1  -0.00730371  0.87427440  0.60364220  1
  O  O204  1  0.01253112  0.90647122  0.87805107  1
  O  O205  1  0.25488577  0.13057952  0.15321169  1
  O  O206  1  0.25784266  0.14354554  0.35159998  1
  O  O207  1  0.25270824  0.15027349  0.65571617  1
  O  O208  1  0.25824249  0.16624760  0.84810539  1
  O  O209  1  0.25249578  0.37638055  0.12500450  1
  O  O210  1  0.25192451  0.34289255  0.36730228  1
  O  O211  1  0.24720517  0.33781057  0.64709765  1
  O  O212  1  0.24529406  0.34249202  0.85595811  1
  O  O213  1  0.25043017  0.60667136  0.13421257  1
  O  O214  1  0.25607214  0.64360405  0.31987608  1
  O  O215  1  0.24915011  0.64615854  0.65019080  1
  O  O216  1  0.24771743  0.63658695  0.87389287  1
  O  O217  1  0.24630234  0.88228325  0.15530776  1
  O  O218  1  0.24686577  0.87175169  0.37230095  1
  O  O219  1  0.23936939  0.85592554  0.63778982  1
  O  O220  1  0.24321060  0.86198015  0.85763959  1
  O  O221  1  0.50209781  0.10907388  0.07838656  1
  O  O222  1  0.49925723  0.12983365  0.41378555  1
  O  O223  1  0.50419345  0.11392315  0.59850558  1
  O  O224  1  0.49913832  0.08908988  0.88481834  1
  O  O225  1  0.50249749  0.38497277  0.10504068  1
  O  O226  1  0.49885892  0.40185696  0.37519268  1
  O  O227  1  0.48636007  0.38784231  0.62373795  1
  O  O228  1  0.50105872  0.39214481  0.89099304  1
  O  O229  1  0.50731126  0.59842292  0.11664968  1
  O  O230  1  0.48567785  0.58807415  0.39123044  1
  O  O231  1  0.50587034  0.62491610  0.60576007  1
  O  O232  1  0.50094728  0.60426202  0.89514121  1
  O  O233  1  0.49739963  0.87600066  0.10710844  1
  O  O234  1  0.49704450  0.87627710  0.40108181  1
  O  O235  1  0.49806628  0.89058365  0.61998441  1
  O  O236  1  0.49749148  0.88932751  0.85465045  1
  O  O237  1  0.74572576  0.15027273  0.13247573  1
  O  O238  1  0.73827430  0.12132856  0.35076005  1
  O  O239  1  0.74653559  0.13859677  0.63025464  1
  O  O240  1  0.76386373  0.14113910  0.84759259  1
  O  O241  1  0.73877940  0.33675940  0.12958176  1
  O  O242  1  0.73653675  0.38393925  0.37491659  1
  O  O243  1  0.76276807  0.37686668  0.64448479  1
  O  O244  1  0.75126805  0.36821012  0.84339256  1
  O  O245  1  0.74172912  0.64484972  0.13780170  1
  O  O246  1  0.74487866  0.64258584  0.35692253  1
  O  O247  1  0.74525971  0.61602429  0.62545632  1
  O  O248  1  0.74318480  0.65164771  0.86672180  1
  O  O249  1  0.73920798  0.84755562  0.10793638  1
  O  O250  1  0.74582578  0.84288285  0.39881611  1
  O  O251  1  0.74874432  0.86478666  0.61573793  1
  O  O252  1  0.75346895  0.83720148  0.87646816  1
  O  O253  1  0.13202037  0.00458019  0.15299497  1
  O  O254  1  0.13923423  0.00114902  0.36896956  1
  O  O255  1  0.12654820  -0.00108950  0.65193590  1
  O  O256  1  0.16033401  0.00918861  0.86399377  1
  O  O257  1  0.09273817  0.24851199  0.09804904  1
  O  O258  1  0.11483343  0.24720405  0.41872111  1
  O  O259  1  0.11340077  0.24892764  0.59972540  1
  O  O260  1  0.10547978  0.24366589  0.89845659  1
  O  O261  1  0.13084080  0.49111807  0.10981554  1
  O  O262  1  0.15686035  0.49806199  0.37729473  1
  O  O263  1  0.15646292  0.49455574  0.64332581  1
  O  O264  1  0.14246223  0.49706273  0.86119332  1
  O  O265  1  0.14058996  0.74975739  0.13505576  1
  O  O266  1  0.11737691  0.75812910  0.40073300  1
  O  O267  1  0.10978675  0.75029136  0.60869266  1
  O  O268  1  0.10300378  0.74760926  0.88260123  1
  O  O269  1  0.36429375  -0.00812488  0.14062368  1
  O  O270  1  0.39577100  0.01004843  0.37163024  1
  O  O271  1  0.36110373  0.00316503  0.63364266  1
  O  O272  1  0.34423289  0.00320276  0.86375694  1
  O  O273  1  0.40023422  0.24905264  0.12389907  1
  O  O274  1  0.39866100  0.25477241  0.37340644  1
  O  O275  1  0.39392596  0.24693223  0.61265122  1
  O  O276  1  0.40538538  0.24911432  0.87362887  1
  O  O277  1  0.37830035  0.49348737  0.10500528  1
  O  O278  1  0.34443256  0.49823652  0.35506942  1
  O  O279  1  0.35050910  0.49507201  0.63401271  1
  O  O280  1  0.35891073  0.49811719  0.87523261  1
  O  O281  1  0.34082204  0.74815497  0.13304701  1
  O  O282  1  0.38511680  0.74495008  0.39025850  1
  O  O283  1  0.37162974  0.75601677  0.60066963  1
  O  O284  1  0.40556005  0.74489811  0.87168113  1
  O  O285  1  0.63504109  -0.00864171  0.09065460  1
  O  O286  1  0.59984406  0.00473588  0.38046113  1
  O  O287  1  0.65455678  0.00181535  0.59517208  1
  O  O288  1  0.65569064  0.00069789  0.89713129  1
  O  O289  1  0.59700683  0.25067329  0.13145025  1
  O  O290  1  0.61226765  0.25140272  0.35498916  1
  O  O291  1  0.60891680  0.23936171  0.63591427  1
  O  O292  1  0.61494232  0.26243640  0.84049399  1
  O  O293  1  0.63600502  0.49019902  0.09988280  1
  O  O294  1  0.63083059  0.51804786  0.41835531  1
  O  O295  1  0.61754346  0.51203744  0.60263310  1
  O  O296  1  0.64489550  0.50237122  0.89220778  1
  O  O297  1  0.60289617  0.74321674  0.15680198  1
  O  O298  1  0.57714385  0.73934496  0.35527582  1
  O  O299  1  0.62263098  0.75536357  0.65163497  1
  O  O300  1  0.58955246  0.74198679  0.86349832  1
  O  O301  1  0.84466416  0.00469538  0.13940077  1
  O  O302  1  0.86634090  -0.00556462  0.35322141  1
  O  O303  1  0.86368874  -0.01480491  0.65709605  1
  O  O304  1  0.86711424  0.00240911  0.84440376  1
  O  O305  1  0.88193777  0.24324787  0.13072095  1
  O  O306  1  0.86763629  0.24572850  0.38554522  1
  O  O307  1  0.87835138  0.25930922  0.61580282  1
  O  O308  1  0.90135409  0.24933292  0.91472761  1
  O  O309  1  0.83356674  0.49376188  0.13744144  1
  O  O310  1  0.86451548  0.49689552  0.35473782  1
  O  O311  1  0.87450885  0.49808640  0.65952374  1
  O  O312  1  0.87086164  0.48918619  0.83554666  1
  O  O313  1  0.89390803  0.74443498  0.11411801  1
  O  O314  1  0.89767154  0.75775329  0.39142961  1
  O  O315  1  0.85937800  0.74807626  0.58253477  1
  O  O316  1  0.90567063  0.74594282  0.89040928  1
