# generated using pymatgen
data_Mg32Ti42(Bi17O64)3
_symmetry_space_group_name_H-M   'P 1'
_cell_length_a   15.91440507
_cell_length_b   15.97889772
_cell_length_c   15.93342258
_cell_angle_alpha   90.09582883
_cell_angle_beta   90.07893231
_cell_angle_gamma   90.03354558
_symmetry_Int_Tables_number   1
_chemical_formula_structural   Mg32Ti42(Bi17O64)3
_chemical_formula_sum   'Mg32 Ti42 Bi51 O192'
_cell_volume   4051.77392283
_cell_formula_units_Z   1
loop_
 _symmetry_equiv_pos_site_id
 _symmetry_equiv_pos_as_xyz
  1  'x, y, z'
loop_
 _atom_site_type_symbol
 _atom_site_label
 _atom_site_symmetry_multiplicity
 _atom_site_fract_x
 _atom_site_fract_y
 _atom_site_fract_z
 _atom_site_occupancy
  Mg  Mg0  1  0.88266870  0.62667534  0.62099727  1
  Mg  Mg1  1  0.86935019  0.12382011  0.38603052  1
  Mg  Mg2  1  0.12428150  0.86944183  0.86811974  1
  Mg  Mg3  1  0.88292647  0.63275708  0.13235562  1
  Mg  Mg4  1  0.12563874  0.62148817  0.86430426  1
  Mg  Mg5  1  0.63871925  0.88232343  0.38314171  1
  Mg  Mg6  1  0.36559166  0.86821754  0.13105477  1
  Mg  Mg7  1  0.87451587  0.38396292  0.87496441  1
  Mg  Mg8  1  0.12040195  0.37169878  0.36084522  1
  Mg  Mg9  1  0.12469489  0.11847209  0.87738099  1
  Mg  Mg10  1  0.36748164  0.38199448  0.87673233  1
  Mg  Mg11  1  0.14097185  0.64535892  0.38782592  1
  Mg  Mg12  1  0.12590116  0.63924723  0.13048234  1
  Mg  Mg13  1  0.12153408  0.12547186  0.37904946  1
  Mg  Mg14  1  0.62839259  0.62707658  0.36820565  1
  Mg  Mg15  1  0.38245632  0.87532507  0.87077134  1
  Mg  Mg16  1  0.62401214  0.38435758  0.62708274  1
  Mg  Mg17  1  0.62531909  0.37684194  0.36825648  1
  Mg  Mg18  1  0.37499148  0.87039377  0.62799322  1
  Mg  Mg19  1  0.76344808  0.24912992  -0.05384590  1
  Mg  Mg20  1  0.46519549  0.74638326  0.77684695  1
  Mg  Mg21  1  0.04794713  0.00324759  0.72828626  1
  Mg  Mg22  1  0.74213851  0.00700779  0.70516069  1
  Mg  Mg23  1  0.44188437  0.21521200  0.20748414  1
  Mg  Mg24  1  0.28050765  0.54990680  0.49032816  1
  Mg  Mg25  1  0.01917673  0.56664260  0.28059793  1
  Mg  Mg26  1  0.01243768  0.79822643  0.23092685  1
  Mg  Mg27  1  0.26655297  0.50985940  0.69247339  1
  Mg  Mg28  1  0.28633001  0.80417589  0.46172714  1
  Mg  Mg29  1  0.73027788  -0.03714714  0.18342285  1
  Mg  Mg30  1  0.00248968  0.49410250  0.07302863  1
  Mg  Mg31  1  0.25696834  0.78994237  0.77717115  1
  Ti  Ti32  1  0.62652672  0.12419308  0.86910384  1
  Ti  Ti33  1  0.63048955  0.13360725  0.11791432  1
  Ti  Ti34  1  0.36723157  0.61649740  0.87385048  1
  Ti  Ti35  1  0.11743913  0.38381457  0.88068455  1
  Ti  Ti36  1  0.63408967  0.36617860  0.13098671  1
  Ti  Ti37  1  0.14410672  0.87582107  0.61391008  1
  Ti  Ti38  1  0.37549363  0.64369162  0.62888437  1
  Ti  Ti39  1  0.88665135  0.87545962  0.11415626  1
  Ti  Ti40  1  0.11203421  0.36109505  0.12324198  1
  Ti  Ti41  1  0.37537274  0.62337244  0.35772643  1
  Ti  Ti42  1  0.13548541  0.37749510  0.63157318  1
  Ti  Ti43  1  0.12673531  0.87892050  0.38198077  1
  Ti  Ti44  1  0.88315919  0.62456008  0.87141665  1
  Ti  Ti45  1  0.37270412  0.37397445  0.11858763  1
  Ti  Ti46  1  0.61351576  0.87137921  0.62795796  1
  Ti  Ti47  1  0.87796203  0.38672523  0.62354032  1
  Ti  Ti48  1  0.36955695  0.37854993  0.61168083  1
  Ti  Ti49  1  0.63018845  0.13907245  0.63098508  1
  Ti  Ti50  1  0.63094301  0.38709869  0.87951488  1
  Ti  Ti51  1  0.87793761  0.38595865  0.37469360  1
  Ti  Ti52  1  0.87112039  0.86095004  0.86580773  1
  Ti  Ti53  1  0.12051345  0.87673250  0.11505999  1
  Ti  Ti54  1  0.13292026  0.13011605  0.63232383  1
  Ti  Ti55  1  0.87995134  0.88216176  0.63208647  1
  Ti  Ti56  1  0.86699436  0.36467599  0.11957148  1
  Ti  Ti57  1  0.87624679  0.12791093  0.63376382  1
  Ti  Ti58  1  0.11300549  0.10724625  0.12008464  1
  Ti  Ti59  1  0.87067985  0.88299290  0.37733426  1
  Ti  Ti60  1  0.37471217  0.13538428  0.61852672  1
  Ti  Ti61  1  0.87027189  0.11055731  0.12261235  1
  Ti  Ti62  1  0.37421535  0.37733213  0.35822810  1
  Ti  Ti63  1  0.61444220  0.62824866  0.62578098  1
  Ti  Ti64  1  0.13507288  0.63067266  0.62024807  1
  Ti  Ti65  1  0.86922189  0.10906602  0.86200537  1
  Ti  Ti66  1  0.63039278  0.62298961  0.12789455  1
  Ti  Ti67  1  0.37776619  0.12701728  0.87018617  1
  Ti  Ti68  1  0.38929006  0.14160287  0.37753277  1
  Ti  Ti69  1  0.61404221  0.87411790  0.86064188  1
  Ti  Ti70  1  0.61861680  0.13022441  0.37686505  1
  Ti  Ti71  1  0.62774977  0.63197496  0.86884605  1
  Ti  Ti72  1  0.87538412  0.63081980  0.38380962  1
  Ti  Ti73  1  0.37405629  0.63020047  0.12390412  1
  Bi  Bi74  1  0.22482372  0.23231705  0.25253924  1
  Bi  Bi75  1  0.02192486  0.76915295  0.73696540  1
  Bi  Bi76  1  -0.00184334  0.02727536  0.51101360  1
  Bi  Bi77  1  0.48743421  0.51452028  0.76168462  1
  Bi  Bi78  1  0.00799852  0.27927129  0.50337733  1
  Bi  Bi79  1  0.51084935  0.27944189  0.49217153  1
  Bi  Bi80  1  0.74957876  0.28734920  0.74242440  1
  Bi  Bi81  1  0.26085795  0.01645856  0.49186085  1
  Bi  Bi82  1  0.77832734  0.50931441  0.24504062  1
  Bi  Bi83  1  0.21969695  0.49926086  0.02752783  1
  Bi  Bi84  1  0.00478295  -0.01908140  -0.04241838  1
  Bi  Bi85  1  0.29286634  0.01479419  0.24120984  1
  Bi  Bi86  1  0.74616281  0.27609044  0.49021160  1
  Bi  Bi87  1  0.74087815  0.75996444  0.73400342  1
  Bi  Bi88  1  -0.03599829  0.23755683  -0.01710510  1
  Bi  Bi89  1  0.77263758  0.76686764  0.24325997  1
  Bi  Bi90  1  0.49864184  0.50667158  0.47710290  1
  Bi  Bi91  1  0.75434777  0.53013526  0.73357108  1
  Bi  Bi92  1  0.25367270  0.77398345  0.26523792  1
  Bi  Bi93  1  0.26562741  0.00180335  0.76835492  1
  Bi  Bi94  1  0.73778437  -0.00334040  -0.02443516  1
  Bi  Bi95  1  0.50283607  0.27550952  -0.00104992  1
  Bi  Bi96  1  0.49561161  0.78166104  0.03270090  1
  Bi  Bi97  1  0.02623370  0.51487968  0.48398734  1
  Bi  Bi98  1  0.47385998  0.03821071  0.03745513  1
  Bi  Bi99  1  0.48197216  0.28241861  0.75059741  1
  Bi  Bi100  1  0.47325765  -0.02024434  0.48601337  1
  Bi  Bi101  1  0.24432033  0.73479031  -0.03405408  1
  Bi  Bi102  1  0.25497131  0.21218521  0.03390731  1
  Bi  Bi103  1  0.27016200  -0.03209736  -0.00044265  1
  Bi  Bi104  1  0.78224207  0.52633953  0.00073649  1
  Bi  Bi105  1  0.53567356  -0.01087660  0.23680068  1
  Bi  Bi106  1  0.51302443  0.49809257  0.22565432  1
  Bi  Bi107  1  -0.01932062  0.23108470  0.27075727  1
  Bi  Bi108  1  0.00976728  0.71611142  0.00659283  1
  Bi  Bi109  1  0.73262997  0.51440772  0.48863795  1
  Bi  Bi110  1  0.02195833  0.51061146  0.73607961  1
  Bi  Bi111  1  0.54715028  0.77938566  0.25022715  1
  Bi  Bi112  1  0.73786026  0.75995427  0.49375033  1
  Bi  Bi113  1  0.49003693  0.76233233  0.46463832  1
  Bi  Bi114  1  0.73176593  0.02156558  0.49525299  1
  Bi  Bi115  1  0.21193008  0.51872298  0.25769233  1
  Bi  Bi116  1  -0.00496024  0.00600917  0.27990388  1
  Bi  Bi117  1  0.50461057  0.01926945  0.74187974  1
  Bi  Bi118  1  0.76072796  0.21469914  0.25632592  1
  Bi  Bi119  1  0.50143189  0.52994911  0.00422024  1
  Bi  Bi120  1  -0.00676928  0.76018396  0.51109304  1
  Bi  Bi121  1  0.72200919  0.77179888  0.00798277  1
  Bi  Bi122  1  0.23639696  0.26461901  0.47569682  1
  Bi  Bi123  1  0.01738896  0.25259619  0.76560906  1
  Bi  Bi124  1  0.24296185  0.25588344  0.77869553  1
  O  O125  1  0.15145368  0.10733878  0.00461034  1
  O  O126  1  0.10784436  0.14796484  0.24070987  1
  O  O127  1  0.10934202  0.11626522  0.51138023  1
  O  O128  1  0.11076816  0.11980537  0.74750748  1
  O  O129  1  0.11333124  0.40409254  -0.00437431  1
  O  O130  1  0.12587031  0.34343531  0.23566104  1
  O  O131  1  0.13674176  0.36834142  0.51102475  1
  O  O132  1  0.09154421  0.36823296  0.74716651  1
  O  O133  1  0.13452949  0.64913287  -0.00028219  1
  O  O134  1  0.12745628  0.63055238  0.25549824  1
  O  O135  1  0.15392748  0.59154852  0.50571310  1
  O  O136  1  0.09380825  0.62978050  0.73821911  1
  O  O137  1  0.09868799  0.87758820  0.00128204  1
  O  O138  1  0.13945080  0.85938513  0.26223427  1
  O  O139  1  0.08491920  0.87391820  0.50253201  1
  O  O140  1  0.15113571  0.84952963  0.73315684  1
  O  O141  1  0.38307483  0.13554075  -0.01253987  1
  O  O142  1  0.39890777  0.10330327  0.26393104  1
  O  O143  1  0.36398713  0.15589921  0.50388001  1
  O  O144  1  0.37587792  0.08742182  0.73979871  1
  O  O145  1  0.38232241  0.34831719  0.00050761  1
  O  O146  1  0.37815603  0.40412050  0.24925978  1
  O  O147  1  0.36275756  0.34082290  0.50100153  1
  O  O148  1  0.39749032  0.39319558  0.74268319  1
  O  O149  1  0.38694238  0.63360920  -0.00646365  1
  O  O150  1  0.38548182  0.60748888  0.24514222  1
  O  O151  1  0.36166745  0.64841766  0.51416782  1
  O  O152  1  0.36607039  0.58022972  0.74400396  1
  O  O153  1  0.39578354  0.87629662  -0.00117101  1
  O  O154  1  0.33439240  0.88380493  0.25218789  1
  O  O155  1  0.39941364  0.85488424  0.50298293  1
  O  O156  1  0.33700862  0.88850184  0.74657694  1
  O  O157  1  0.62976634  0.12794899  0.00243996  1
  O  O158  1  0.60505923  0.10952537  0.26270898  1
  O  O159  1  0.64116488  0.13895594  0.51494455  1
  O  O160  1  0.63453031  0.08608098  0.75124972  1
  O  O161  1  0.61322661  0.35918255  0.00510969  1
  O  O162  1  0.61463438  0.39881751  0.24466886  1
  O  O163  1  0.62799881  0.35120019  0.50459386  1
  O  O164  1  0.64187868  0.38316481  0.75589689  1
  O  O165  1  0.62517989  0.63081071  -0.00762312  1
  O  O166  1  0.61167258  0.60200154  0.24307269  1
  O  O167  1  0.63970502  0.64469051  0.50806277  1
  O  O168  1  0.62704905  0.59667644  0.74740118  1
  O  O169  1  0.60685313  0.84670679  -0.01404983  1
  O  O170  1  0.63665549  0.89538313  0.25413120  1
  O  O171  1  0.61239018  0.83772731  0.51065647  1
  O  O172  1  0.66025331  0.88965562  0.74860459  1
  O  O173  1  0.84698346  0.15264339  0.01509363  1
  O  O174  1  0.88372369  0.12342588  0.24769917  1
  O  O175  1  0.88738637  0.12111475  0.51281325  1
  O  O176  1  0.86908142  0.08856176  0.75369136  1
  O  O177  1  0.85845674  0.33280877  0.00764949  1
  O  O178  1  0.87210674  0.40163936  0.25874591  1
  O  O179  1  0.87729757  0.34185042  0.50421712  1
  O  O180  1  0.86324920  0.38187470  0.74434118  1
  O  O181  1  0.85372092  0.64373862  0.00051265  1
  O  O182  1  0.89604677  0.59016811  0.25662332  1
  O  O183  1  0.86071229  0.65271658  0.49608606  1
  O  O184  1  0.88631842  0.60059152  0.75440901  1
  O  O185  1  0.90250059  0.85867733  0.00539846  1
  O  O186  1  0.82458890  0.89311572  0.26422130  1
  O  O187  1  0.90455304  0.86596371  0.50702701  1
  O  O188  1  0.84452529  0.87829938  0.75384852  1
  O  O189  1  -0.00785349  0.11453645  0.10809665  1
  O  O190  1  -0.00508818  0.13152098  0.36790839  1
  O  O191  1  -0.00425541  0.08629821  0.63797857  1
  O  O192  1  -0.01234841  0.12215980  0.89622648  1
  O  O193  1  -0.00604988  0.37303445  0.11631480  1
  O  O194  1  -0.00422765  0.35792995  0.38784222  1
  O  O195  1  0.00028710  0.38681769  0.60484106  1
  O  O196  1  -0.00523344  0.34210476  0.88131542  1
  O  O197  1  0.00183945  0.61616387  0.09992048  1
  O  O198  1  0.00551378  0.62695897  0.39423817  1
  O  O199  1  0.00920714  0.59525995  0.59631854  1
  O  O200  1  -0.00247091  0.64217102  0.88781542  1
  O  O201  1  -0.00363421  0.89912318  0.15572717  1
  O  O202  1  -0.00914273  0.86326331  0.33995971  1
  O  O203  1  -0.00388553  0.89706766  0.66979046  1
  O  O204  1  -0.00986329  0.86825529  0.86214109  1
  O  O205  1  0.23792246  0.13294462  0.14416419  1
  O  O206  1  0.25607884  0.14053517  0.36892182  1
  O  O207  1  0.24984930  0.13152894  0.63250692  1
  O  O208  1  0.25699453  0.13488437  0.85929737  1
  O  O209  1  0.24880678  0.39351446  0.10836096  1
  O  O210  1  0.25608417  0.35559022  0.36951784  1
  O  O211  1  0.24962864  0.36663959  0.65465215  1
  O  O212  1  0.23859971  0.37000246  0.86278232  1
  O  O213  1  0.25654597  0.60143315  0.12384811  1
  O  O214  1  0.25708369  0.59683980  0.36925167  1
  O  O215  1  0.24885547  0.63253458  0.64604334  1
  O  O216  1  0.25399540  0.60845280  0.88635861  1
  O  O217  1  0.23859004  0.86813873  0.09540651  1
  O  O218  1  0.23659080  0.90956602  0.40754328  1
  O  O219  1  0.24929358  0.85768937  0.57815372  1
  O  O220  1  0.25030752  0.87759765  0.89663247  1
  O  O221  1  0.50559553  0.14144563  0.12285553  1
  O  O222  1  0.49989183  0.12255347  0.41149285  1
  O  O223  1  0.50428562  0.11152340  0.63612872  1
  O  O224  1  0.50362437  0.12239669  0.85549043  1
  O  O225  1  0.49125485  0.33276871  0.13059384  1
  O  O226  1  0.49558336  0.38345116  0.39899729  1
  O  O227  1  0.49262322  0.37489461  0.60406027  1
  O  O228  1  0.51036824  0.34983732  0.87478166  1
  O  O229  1  0.50096007  0.62778193  0.11480053  1
  O  O230  1  0.49442693  0.61892014  0.38686287  1
  O  O231  1  0.49639375  0.60571728  0.63005297  1
  O  O232  1  0.49894879  0.64042906  0.84257898  1
  O  O233  1  0.49465873  0.86278915  0.14529340  1
  O  O234  1  0.51116042  0.85690448  0.36595947  1
  O  O235  1  0.50549473  0.89992318  0.64123776  1
  O  O236  1  0.50330422  0.85571712  0.83271911  1
  O  O237  1  0.74474163  0.10818022  0.15652614  1
  O  O238  1  0.74378364  0.12504829  0.37455668  1
  O  O239  1  0.75216987  0.12566991  0.64077683  1
  O  O240  1  0.74779404  0.09970954  0.88320006  1
  O  O241  1  0.74719244  0.39206159  0.13073058  1
  O  O242  1  0.75460901  0.38804326  0.39848594  1
  O  O243  1  0.75583380  0.35061368  0.61566312  1
  O  O244  1  0.74764653  0.36668637  0.88591849  1
  O  O245  1  0.75032675  0.60997059  0.13830904  1
  O  O246  1  0.75960423  0.59861543  0.36332604  1
  O  O247  1  0.75265957  0.63984210  0.64735931  1
  O  O248  1  0.74678488  0.60670335  0.86018500  1
  O  O249  1  0.76054017  0.86006553  0.11042910  1
  O  O250  1  0.75944351  0.88604778  0.42347481  1
  O  O251  1  0.76164243  0.83201764  0.61376173  1
  O  O252  1  0.74927395  0.87361587  0.90859914  1
  O  O253  1  0.13081651  -0.00222957  0.14311484  1
  O  O254  1  0.10009092  -0.00193402  0.37199525  1
  O  O255  1  0.14155006  -0.00846272  0.63348954  1
  O  O256  1  0.09936876  -0.00723040  0.85267311  1
  O  O257  1  0.12721922  0.25201614  0.08910430  1
  O  O258  1  0.12526190  0.24980008  0.39060598  1
  O  O259  1  0.11006757  0.24716771  0.63477703  1
  O  O260  1  0.12482129  0.24871482  0.86061504  1
  O  O261  1  0.11985560  0.49794451  0.12926365  1
  O  O262  1  0.10401736  0.49260262  0.34148092  1
  O  O263  1  0.14328533  0.49522990  0.65353243  1
  O  O264  1  0.10326237  0.49605168  0.85291398  1
  O  O265  1  0.09308511  0.76336192  0.13409429  1
  O  O266  1  0.17750481  0.76379357  0.39603009  1
  O  O267  1  0.10157815  0.74612306  0.61165607  1
  O  O268  1  0.16020124  0.74634715  0.86048039  1
  O  O269  1  0.36651991  -0.00196926  0.11922896  1
  O  O270  1  0.36851803  0.01594616  0.40417198  1
  O  O271  1  0.37049142  0.00519924  0.58467717  1
  O  O272  1  0.36308992  0.00459328  0.87904615  1
  O  O273  1  0.34033522  0.26077253  0.14863803  1
  O  O274  1  0.40035838  0.25372724  0.33565997  1
  O  O275  1  0.38061634  0.24734588  0.65185948  1
  O  O276  1  0.37616916  0.24724172  0.83856729  1
  O  O277  1  0.40441924  0.49193133  0.10488594  1
  O  O278  1  0.37551050  0.49720506  0.40555544  1
  O  O279  1  0.34004319  0.49025458  0.59148475  1
  O  O280  1  0.40552432  0.50213755  0.88397100  1
  O  O281  1  0.36356053  0.74120010  0.13294698  1
  O  O282  1  0.35900251  0.73934352  0.36908291  1
  O  O283  1  0.39748942  0.74661148  0.66789915  1
  O  O284  1  0.35556136  0.74081623  0.84743229  1
  O  O285  1  0.61484374  0.00745142  0.12537915  1
  O  O286  1  0.62407028  0.00453573  0.41030579  1
  O  O287  1  0.65483939  -0.01685500  0.60897369  1
  O  O288  1  0.61926897  -0.01198137  0.89492630  1
  O  O289  1  0.64741328  0.24945725  0.14197105  1
  O  O290  1  0.62166257  0.24741266  0.37628432  1
  O  O291  1  0.62299599  0.24739621  0.65590745  1
  O  O292  1  0.65086254  0.23428496  0.86912285  1
  O  O293  1  0.59796183  0.49401059  0.11052980  1
  O  O294  1  0.62041310  0.50242903  0.40680356  1
  O  O295  1  0.64588653  0.50807888  0.60651032  1
  O  O296  1  0.60960398  0.49786525  0.88687472  1
  O  O297  1  0.63196752  0.73934867  0.12969383  1
  O  O298  1  0.65376786  0.75187202  0.35041700  1
  O  O299  1  0.61504585  0.74728755  0.65938255  1
  O  O300  1  0.64102615  0.74624578  0.85429116  1
  O  O301  1  0.85457982  -0.00468241  0.11736913  1
  O  O302  1  0.89488230  -0.00363748  0.38302660  1
  O  O303  1  0.84301552  -0.01227369  0.62118740  1
  O  O304  1  0.87048545  -0.00881037  0.90319321  1
  O  O305  1  0.86514330  0.25384184  0.16103793  1
  O  O306  1  0.86299598  0.25447320  0.35584246  1
  O  O307  1  0.89288560  0.23776361  0.64882880  1
  O  O308  1  0.86404220  0.23108511  0.86868596  1
  O  O309  1  0.87742527  0.49078487  0.09806906  1
  O  O310  1  0.89291187  0.49960367  0.40970133  1
  O  O311  1  0.85495224  0.49588493  0.61066468  1
  O  O312  1  0.88055303  0.50633940  0.90546919  1
  O  O313  1  0.89798808  0.76158829  0.16797072  1
  O  O314  1  0.85826946  0.74782136  0.35569343  1
  O  O315  1  0.92159445  0.75140835  0.63508824  1
  O  O316  1  0.86010626  0.74639574  0.86189896  1
