# generated using pymatgen
data_Mg32Ti42(Bi17O64)3
_symmetry_space_group_name_H-M   'P 1'
_cell_length_a   15.95718156
_cell_length_b   15.94987731
_cell_length_c   15.93636011
_cell_angle_alpha   90.02334609
_cell_angle_beta   89.76050680
_cell_angle_gamma   89.98654535
_symmetry_Int_Tables_number   1
_chemical_formula_structural   Mg32Ti42(Bi17O64)3
_chemical_formula_sum   'Mg32 Ti42 Bi51 O192'
_cell_volume   4056.00821349
_cell_formula_units_Z   1
loop_
 _symmetry_equiv_pos_site_id
 _symmetry_equiv_pos_as_xyz
  1  'x, y, z'
loop_
 _atom_site_type_symbol
 _atom_site_label
 _atom_site_symmetry_multiplicity
 _atom_site_fract_x
 _atom_site_fract_y
 _atom_site_fract_z
 _atom_site_occupancy
  Mg  Mg0  1  0.88535176  0.37946825  0.38023875  1
  Mg  Mg1  1  0.86599693  0.38482197  0.87971462  1
  Mg  Mg2  1  0.61827968  0.88399557  0.61696247  1
  Mg  Mg3  1  0.12880882  0.62107167  0.64416636  1
  Mg  Mg4  1  0.87209233  0.37705641  0.62544639  1
  Mg  Mg5  1  0.87548884  0.88205807  0.87502663  1
  Mg  Mg6  1  0.87125059  0.62956428  0.63042021  1
  Mg  Mg7  1  0.12769224  0.13100154  0.37524287  1
  Mg  Mg8  1  0.37311248  0.13059686  0.63263025  1
  Mg  Mg9  1  0.62225000  0.87216827  0.13049968  1
  Mg  Mg10  1  0.12140006  0.13546994  0.12783613  1
  Mg  Mg11  1  0.11567343  0.88359660  0.36678737  1
  Mg  Mg12  1  0.37668066  0.12253414  0.36896136  1
  Mg  Mg13  1  0.13017689  0.37446503  0.87168467  1
  Mg  Mg14  1  0.87609167  0.38912948  0.11961842  1
  Mg  Mg15  1  0.63670579  0.63734059  0.12623974  1
  Mg  Mg16  1  0.62511835  0.63078395  0.87505903  1
  Mg  Mg17  1  0.38223228  0.63519581  0.62311036  1
  Mg  Mg18  1  0.87783462  0.88027591  0.13714691  1
  Mg  Mg19  1  0.50112386  0.22493425  0.79345999  1
  Mg  Mg20  1  0.80352861  0.29329886  0.24773198  1
  Mg  Mg21  1  0.04297015  0.03784669  0.49409548  1
  Mg  Mg22  1  0.01840326  0.27124622  0.27217897  1
  Mg  Mg23  1  -0.04865234  0.50036286  0.71884517  1
  Mg  Mg24  1  0.80136893  0.03318040  0.72387088  1
  Mg  Mg25  1  0.00752645  0.02600640  0.21965431  1
  Mg  Mg26  1  0.70972280  0.44062945  0.07496998  1
  Mg  Mg27  1  0.30438099  0.51937756  0.75983944  1
  Mg  Mg28  1  0.20459785  0.78083982  0.70908203  1
  Mg  Mg29  1  0.48964079  0.78557846  0.49896138  1
  Mg  Mg30  1  0.28488416  0.20176580  0.48286851  1
  Mg  Mg31  1  0.77720528  0.00869812  0.29987798  1
  Ti  Ti32  1  0.37374300  0.12898312  0.12688396  1
  Ti  Ti33  1  0.61314635  0.37020843  0.63074047  1
  Ti  Ti34  1  0.38437665  0.36724604  0.88108948  1
  Ti  Ti35  1  0.88404559  0.88123910  0.37642789  1
  Ti  Ti36  1  0.89054665  0.13538825  0.36570194  1
  Ti  Ti37  1  0.12153426  0.36496802  0.12637155  1
  Ti  Ti38  1  0.14225055  0.14524382  0.61288034  1
  Ti  Ti39  1  0.12870127  0.63778379  0.86736419  1
  Ti  Ti40  1  0.37321794  0.11916987  0.87497659  1
  Ti  Ti41  1  0.12605366  0.37490040  0.38743466  1
  Ti  Ti42  1  0.62999727  0.36765027  0.87503818  1
  Ti  Ti43  1  0.87391085  0.11811118  0.13737936  1
  Ti  Ti44  1  0.11668019  0.87752202  0.12846296  1
  Ti  Ti45  1  0.37284940  0.38115583  0.37934697  1
  Ti  Ti46  1  0.86993043  0.61766101  0.87205552  1
  Ti  Ti47  1  0.36299878  0.38360321  0.13044610  1
  Ti  Ti48  1  0.11801624  0.86875497  0.88390293  1
  Ti  Ti49  1  0.11946980  0.62570292  0.37920079  1
  Ti  Ti50  1  0.61643828  0.12286394  0.62023151  1
  Ti  Ti51  1  0.37503653  0.86156848  0.63320622  1
  Ti  Ti52  1  0.86586320  0.11533576  0.87337721  1
  Ti  Ti53  1  0.86115830  0.61608165  0.11593749  1
  Ti  Ti54  1  0.86871680  0.88174125  0.62578984  1
  Ti  Ti55  1  0.62766488  0.88114011  0.87114313  1
  Ti  Ti56  1  0.12285897  0.61133517  0.11913521  1
  Ti  Ti57  1  0.87933913  0.62991464  0.39050205  1
  Ti  Ti58  1  0.63740608  0.37306086  0.36669305  1
  Ti  Ti59  1  0.37954451  0.87729321  0.37482326  1
  Ti  Ti60  1  0.13107064  0.37368439  0.63543731  1
  Ti  Ti61  1  0.63950717  0.12959359  0.37271365  1
  Ti  Ti62  1  0.62795964  0.62880303  0.37913784  1
  Ti  Ti63  1  0.37287492  0.87261074  0.87850736  1
  Ti  Ti64  1  0.36306137  0.36480847  0.62950889  1
  Ti  Ti65  1  0.38393005  0.62924686  0.37616762  1
  Ti  Ti66  1  0.37395528  0.63592252  0.87504886  1
  Ti  Ti67  1  0.11943846  0.11882298  0.87926234  1
  Ti  Ti68  1  0.62353909  0.12028839  0.88523173  1
  Ti  Ti69  1  0.36858006  0.87209325  0.13104027  1
  Ti  Ti70  1  0.37057820  0.62585180  0.13466053  1
  Ti  Ti71  1  0.61944096  0.11716909  0.13486293  1
  Ti  Ti72  1  0.61720320  0.63277530  0.62060298  1
  Ti  Ti73  1  0.62096636  0.88311681  0.38162491  1
  Bi  Bi74  1  0.52272700  0.75524364  0.25727865  1
  Bi  Bi75  1  -0.01122907  0.74234532  0.02302733  1
  Bi  Bi76  1  0.00740685  0.48099871  0.24743973  1
  Bi  Bi77  1  0.50741833  0.27975289  0.02622220  1
  Bi  Bi78  1  -0.00289341  0.73152953  0.25442651  1
  Bi  Bi79  1  0.48696015  -0.00066508  0.74214668  1
  Bi  Bi80  1  0.74281767  0.27789275  0.50412700  1
  Bi  Bi81  1  0.49224396  0.01849008  0.26533302  1
  Bi  Bi82  1  0.25068943  0.24059609  0.76933678  1
  Bi  Bi83  1  0.49724767  0.51079279  0.49778265  1
  Bi  Bi84  1  0.23864031  0.76493207  0.27017331  1
  Bi  Bi85  1  0.48413209  0.26062554  0.50264526  1
  Bi  Bi86  1  0.24048174  0.25451904  0.26892795  1
  Bi  Bi87  1  0.73188571  0.50965272  0.77078875  1
  Bi  Bi88  1  0.75957699  0.76940303  0.26477771  1
  Bi  Bi89  1  0.23666509  0.26088390  -0.01007837  1
  Bi  Bi90  1  0.01317298  0.50672380  0.53969473  1
  Bi  Bi91  1  0.77752302  0.04386245  0.51817823  1
  Bi  Bi92  1  0.24654214  0.00480852  0.01245124  1
  Bi  Bi93  1  -0.01360444  0.00332571  0.00675138  1
  Bi  Bi94  1  0.77908153  0.50651829  0.27089340  1
  Bi  Bi95  1  0.75646471  0.25037446  0.04574146  1
  Bi  Bi96  1  0.74433894  0.50243864  0.53680697  1
  Bi  Bi97  1  0.01187287  0.48233167  -0.02111656  1
  Bi  Bi98  1  0.52364264  0.76931419  0.74878519  1
  Bi  Bi99  1  0.76268511  0.77942234  0.75241609  1
  Bi  Bi100  1  0.71916850  0.23280404  0.74371112  1
  Bi  Bi101  1  0.47146098  0.02013761  0.50886144  1
  Bi  Bi102  1  -0.03033870  0.25142308  -0.01870322  1
  Bi  Bi103  1  0.22798983  0.02170709  0.24121389  1
  Bi  Bi104  1  0.24309285  0.50935854  -0.02240094  1
  Bi  Bi105  1  0.50887757  0.28277773  0.24593554  1
  Bi  Bi106  1  0.22417609  -0.03448156  0.51000089  1
  Bi  Bi107  1  0.76659106  0.76741871  0.00321670  1
  Bi  Bi108  1  0.53002495  0.51836377  0.01324302  1
  Bi  Bi109  1  -0.02914885  0.23548481  0.53499041  1
  Bi  Bi110  1  0.76014953  0.76350722  0.50690200  1
  Bi  Bi111  1  0.01256685  0.02692710  0.70766783  1
  Bi  Bi112  1  0.54078600  0.50279413  0.24308628  1
  Bi  Bi113  1  -0.00970638  0.75293336  0.76223227  1
  Bi  Bi114  1  0.50301722  -0.01469156  0.01984494  1
  Bi  Bi115  1  0.02241420  0.78160935  0.53373226  1
  Bi  Bi116  1  0.74392794  -0.00211866  0.02811274  1
  Bi  Bi117  1  0.25790854  0.73786187  0.01775232  1
  Bi  Bi118  1  0.50091250  0.52691549  0.76122876  1
  Bi  Bi119  1  0.24129824  -0.02536116  0.77243451  1
  Bi  Bi120  1  0.26162721  0.50627090  0.53389930  1
  Bi  Bi121  1  0.22671649  0.74059448  0.51648713  1
  Bi  Bi122  1  0.52076685  0.74739226  0.00037889  1
  Bi  Bi123  1  -0.02063261  0.28385658  0.75611899  1
  Bi  Bi124  1  0.24001280  0.51261745  0.27261332  1
  O  O125  1  0.15964060  0.12763708  -0.00062288  1
  O  O126  1  0.10797668  0.09191198  0.25264905  1
  O  O127  1  0.16650564  0.16121347  0.50299823  1
  O  O128  1  0.09983087  0.12066478  0.75507341  1
  O  O129  1  0.12284791  0.34698518  0.00868006  1
  O  O130  1  0.13488476  0.40810186  0.24176242  1
  O  O131  1  0.10423234  0.37255588  0.49579036  1
  O  O132  1  0.14327569  0.37068521  0.74728940  1
  O  O133  1  0.15385229  0.63018883  -0.00349009  1
  O  O134  1  0.11539116  0.60673129  0.23909349  1
  O  O135  1  0.11525923  0.63791209  0.49161314  1
  O  O136  1  0.15011231  0.66669176  0.75863909  1
  O  O137  1  0.09980333  0.88506410  0.00541450  1
  O  O138  1  0.15805274  0.88441450  0.24611458  1
  O  O139  1  0.12596358  0.85760258  0.49023731  1
  O  O140  1  0.14453680  0.87388627  0.76357261  1
  O  O141  1  0.35993177  0.09976855  -0.00448093  1
  O  O142  1  0.40457314  0.12907550  0.24260964  1
  O  O143  1  0.35585181  0.09498179  0.49701752  1
  O  O144  1  0.41052941  0.14280514  0.75703800  1
  O  O145  1  0.39773545  0.38172974  -0.00231714  1
  O  O146  1  0.37023975  0.34850580  0.24475009  1
  O  O147  1  0.38035037  0.40445379  0.49391073  1
  O  O148  1  0.36171226  0.34323052  0.74101927  1
  O  O149  1  0.35011708  0.61201155  -0.00574481  1
  O  O150  1  0.38026601  0.63954180  0.24835146  1
  O  O151  1  0.38068109  0.59298294  0.49199165  1
  O  O152  1  0.38614056  0.62160269  0.75285054  1
  O  O153  1  0.39173324  0.88571220  -0.00857494  1
  O  O154  1  0.36358385  0.84749465  0.24374218  1
  O  O155  1  0.39863041  0.88540239  0.49228059  1
  O  O156  1  0.33493144  0.85503497  0.74550597  1
  O  O157  1  0.64798448  0.11943718  -0.00542159  1
  O  O158  1  0.60760219  0.11242689  0.24850995  1
  O  O159  1  0.65069477  0.11981903  0.49328076  1
  O  O160  1  0.60202401  0.15651125  0.74119550  1
  O  O161  1  0.62684253  0.38290660  -0.00769737  1
  O  O162  1  0.61001506  0.37329188  0.24964453  1
  O  O163  1  0.63185767  0.37846591  0.48787977  1
  O  O164  1  0.62380493  0.34947266  0.74298132  1
  O  O165  1  0.61088993  0.62993591  -0.00007228  1
  O  O166  1  0.60951139  0.63384777  0.25323731  1
  O  O167  1  0.62336091  0.59839988  0.49553064  1
  O  O168  1  0.61179103  0.62654426  0.74321579  1
  O  O169  1  0.59296740  0.87207311  -0.00977940  1
  O  O170  1  0.63454964  0.84151443  0.25570575  1
  O  O171  1  0.58585458  0.87635960  0.49250398  1
  O  O172  1  0.63344578  0.85882704  0.74933364  1
  O  O173  1  0.86123580  0.15325441  -0.00037098  1
  O  O174  1  0.89079709  0.07769348  0.24970891  1
  O  O175  1  0.85444671  0.15482155  0.48276787  1
  O  O176  1  0.90524719  0.09222388  0.76459567  1
  O  O177  1  0.86070147  0.34083229  0.00258916  1
  O  O178  1  0.87658353  0.40707836  0.24816272  1
  O  O179  1  0.87357760  0.34125723  0.49794756  1
  O  O180  1  0.89325675  0.39293852  0.75548119  1
  O  O181  1  0.87476165  0.65922805  -0.00387276  1
  O  O182  1  0.88008365  0.60385810  0.23530002  1
  O  O183  1  0.87829295  0.65692348  0.49907777  1
  O  O184  1  0.87101802  0.58946707  0.75738888  1
  O  O185  1  0.88501609  0.84062818  -0.00104788  1
  O  O186  1  0.83128303  0.89396440  0.26217542  1
  O  O187  1  0.87521736  0.84717639  0.49848624  1
  O  O188  1  0.83496234  0.90180692  0.74525820  1
  O  O189  1  -0.00599706  0.10284998  0.11338624  1
  O  O190  1  -0.00241357  0.11689516  0.40287026  1
  O  O191  1  0.01321534  0.11015380  0.59455456  1
  O  O192  1  0.00722068  0.12040376  0.91200940  1
  O  O193  1  0.00245609  0.40189497  0.12837626  1
  O  O194  1  0.00850679  0.38303559  0.34714644  1
  O  O195  1  0.00593860  0.40826817  0.63600262  1
  O  O196  1  0.00120304  0.36843064  0.89576405  1
  O  O197  1  0.00225520  0.61275370  0.09963824  1
  O  O198  1  -0.00287995  0.61876794  0.36745089  1
  O  O199  1  0.00193383  0.59727976  0.64395061  1
  O  O200  1  0.01007940  0.64743709  0.86454376  1
  O  O201  1  0.00749563  0.91732428  0.15368712  1
  O  O202  1  -0.00841850  0.87782291  0.34944060  1
  O  O203  1  -0.01326827  0.86914448  0.63270611  1
  O  O204  1  0.00291026  0.86103670  0.85501635  1
  O  O205  1  0.25616503  0.14070558  0.15546062  1
  O  O206  1  0.25417370  0.14851341  0.35337154  1
  O  O207  1  0.24902452  0.14530833  0.65811197  1
  O  O208  1  0.25708794  0.11378836  0.84673404  1
  O  O209  1  0.24924286  0.35037017  0.11478486  1
  O  O210  1  0.24878563  0.36288816  0.37017528  1
  O  O211  1  0.24611742  0.36598988  0.60366830  1
  O  O212  1  0.25785689  0.37639375  0.89846665  1
  O  O213  1  0.24494401  0.64962460  0.13098323  1
  O  O214  1  0.25144548  0.63645834  0.36256606  1
  O  O215  1  0.25537727  0.63435249  0.60680351  1
  O  O216  1  0.25809831  0.58713838  0.85891358  1
  O  O217  1  0.24809425  0.85443594  0.10014842  1
  O  O218  1  0.26397422  0.84595124  0.38127686  1
  O  O219  1  0.25859585  0.84613953  0.60461710  1
  O  O220  1  0.25361759  0.89537453  0.88959111  1
  O  O221  1  0.49776490  0.09593040  0.11040847  1
  O  O222  1  0.51026683  0.09189826  0.38419058  1
  O  O223  1  0.49959917  0.14140406  0.58545713  1
  O  O224  1  0.50861674  0.14136367  0.89216551  1
  O  O225  1  0.48868175  0.37017837  0.13129025  1
  O  O226  1  0.49453991  0.37704950  0.36266796  1
  O  O227  1  0.49571963  0.36798982  0.61391216  1
  O  O228  1  0.50137190  0.33462329  0.86211225  1
  O  O229  1  0.48303163  0.60044824  0.11427868  1
  O  O230  1  0.49926225  0.58949657  0.37506162  1
  O  O231  1  0.50240828  0.59172115  0.61464496  1
  O  O232  1  0.49042744  0.60950347  0.88160406  1
  O  O233  1  0.48604269  0.90026411  0.12950457  1
  O  O234  1  0.50305149  0.88306064  0.34314342  1
  O  O235  1  0.49452799  0.87842339  0.66264181  1
  O  O236  1  0.48982810  0.87522436  0.83858391  1
  O  O237  1  0.74703416  0.10900838  0.12839499  1
  O  O238  1  0.75479442  0.12747142  0.34662738  1
  O  O239  1  0.73858646  0.10936588  0.64383812  1
  O  O240  1  0.75555747  0.11046875  0.83312793  1
  O  O241  1  0.75476491  0.35051234  0.14301868  1
  O  O242  1  0.75308684  0.35342917  0.35346772  1
  O  O243  1  0.74732825  0.37086619  0.60932802  1
  O  O244  1  0.74371791  0.39764458  0.85663358  1
  O  O245  1  0.75855170  0.66888604  0.12356950  1
  O  O246  1  0.74745058  0.64234193  0.36602214  1
  O  O247  1  0.74030048  0.62142785  0.61727816  1
  O  O248  1  0.75167206  0.61040659  0.87088489  1
  O  O249  1  0.74786648  0.86715884  0.09918778  1
  O  O250  1  0.73868279  0.83644964  0.39105818  1
  O  O251  1  0.74497006  0.86341608  0.60248015  1
  O  O252  1  0.74202260  0.86414404  0.88808170  1
  O  O253  1  0.15573463  0.00072629  0.12131890  1
  O  O254  1  0.13257465  0.00391156  0.41329027  1
  O  O255  1  0.13586447  0.01653021  0.59809196  1
  O  O256  1  0.13092338  0.00019330  0.87720073  1
  O  O257  1  0.09300668  0.25838434  0.16469388  1
  O  O258  1  0.11753444  0.25879833  0.34665883  1
  O  O259  1  0.09624321  0.25609238  0.62995462  1
  O  O260  1  0.14734345  0.24151417  0.87346370  1
  O  O261  1  0.14147753  0.49991462  0.09920492  1
  O  O262  1  0.14512441  0.50390836  0.37971036  1
  O  O263  1  0.13969504  0.49890725  0.61062052  1
  O  O264  1  0.11768461  0.50618018  0.89177644  1
  O  O265  1  0.09707171  0.75864152  0.13391350  1
  O  O266  1  0.11880839  0.74399769  0.34781712  1
  O  O267  1  0.12402278  0.74543979  0.61715454  1
  O  O268  1  0.14254011  0.75587996  0.89790860  1
  O  O269  1  0.34080716  -0.00681478  0.12956700  1
  O  O270  1  0.37136050  -0.01065060  0.34834864  1
  O  O271  1  0.38663186  -0.00410374  0.64141898  1
  O  O272  1  0.38048222  -0.00229064  0.84823991  1
  O  O273  1  0.38973250  0.23983852  0.09912152  1
  O  O274  1  0.38109150  0.25067251  0.40550926  1
  O  O275  1  0.36839584  0.25217526  0.58048259  1
  O  O276  1  0.35365518  0.24190401  0.88366045  1
  O  O277  1  0.34717594  0.49678150  0.13749424  1
  O  O278  1  0.35762437  0.49534300  0.34942692  1
  O  O279  1  0.34627871  0.48989375  0.64435824  1
  O  O280  1  0.38853535  0.47724568  0.84475509  1
  O  O281  1  0.38151392  0.74561451  0.10046415  1
  O  O282  1  0.40923512  0.74046111  0.39547900  1
  O  O283  1  0.40997755  0.75537546  0.59986050  1
  O  O284  1  0.36853098  0.74947619  0.88624928  1
  O  O285  1  0.62565186  -0.00526128  0.10645076  1
  O  O286  1  0.66092052  -0.01192501  0.36050579  1
  O  O287  1  0.59668798  0.01025031  0.63047609  1
  O  O288  1  0.61707219  0.00057622  0.86846779  1
  O  O289  1  0.60173047  0.23261325  0.12203541  1
  O  O290  1  0.61554074  0.24400741  0.37136749  1
  O  O291  1  0.63867328  0.25039113  0.60707698  1
  O  O292  1  0.65516893  0.24653437  0.87307896  1
  O  O293  1  0.62327873  0.51061422  0.12416738  1
  O  O294  1  0.63978663  0.49533910  0.35154808  1
  O  O295  1  0.63719103  0.48829783  0.63375506  1
  O  O296  1  0.61030027  0.49193237  0.85186249  1
  O  O297  1  0.58569956  0.75222010  0.12139940  1
  O  O298  1  0.59212244  0.73808908  0.38883311  1
  O  O299  1  0.59983217  0.74391120  0.60860352  1
  O  O300  1  0.60434837  0.75499622  0.87502115  1
  O  O301  1  0.86826706  -0.00057512  0.09243243  1
  O  O302  1  0.85951925  -0.00591071  0.39687805  1
  O  O303  1  0.86946424  -0.00243291  0.61560591  1
  O  O304  1  0.87730641  0.00368410  0.91185354  1
  O  O305  1  0.86461639  0.23312108  0.14866416  1
  O  O306  1  0.90193662  0.24298297  0.32305703  1
  O  O307  1  0.89812427  0.25336222  0.64886304  1
  O  O308  1  0.89267866  0.24071728  0.86066400  1
  O  O309  1  0.82358725  0.50777337  0.09867135  1
  O  O310  1  0.85429867  0.51036897  0.38864161  1
  O  O311  1  0.87037802  0.50234380  0.60159172  1
  O  O312  1  0.89854117  0.50899502  0.90400321  1
  O  O313  1  0.91128773  0.75485406  0.14164497  1
  O  O314  1  0.88154259  0.74701961  0.34532785  1
  O  O315  1  0.87035472  0.75392541  0.66082974  1
  O  O316  1  0.87250732  0.74717733  0.83896718  1
