# generated using pymatgen
data_Mg32Ti42(Bi17O64)3
_symmetry_space_group_name_H-M   'P 1'
_cell_length_a   15.94533424
_cell_length_b   15.96529358
_cell_length_c   15.92251061
_cell_angle_alpha   90.06216438
_cell_angle_beta   89.92923865
_cell_angle_gamma   90.17520899
_symmetry_Int_Tables_number   1
_chemical_formula_structural   Mg32Ti42(Bi17O64)3
_chemical_formula_sum   'Mg32 Ti42 Bi51 O192'
_cell_volume   4053.40004075
_cell_formula_units_Z   1
loop_
 _symmetry_equiv_pos_site_id
 _symmetry_equiv_pos_as_xyz
  1  'x, y, z'
loop_
 _atom_site_type_symbol
 _atom_site_label
 _atom_site_symmetry_multiplicity
 _atom_site_fract_x
 _atom_site_fract_y
 _atom_site_fract_z
 _atom_site_occupancy
  Mg  Mg0  1  0.38409391  0.12097328  0.14653504  1
  Mg  Mg1  1  0.13123157  0.63038600  0.38678311  1
  Mg  Mg2  1  0.87741594  0.37938123  0.37606763  1
  Mg  Mg3  1  0.12540764  0.37448755  0.12968110  1
  Mg  Mg4  1  0.88342262  0.62884870  0.12544050  1
  Mg  Mg5  1  0.13168027  0.63820830  0.86354253  1
  Mg  Mg6  1  0.86607168  0.37730008  0.87756430  1
  Mg  Mg7  1  0.11651864  0.87960947  0.37498848  1
  Mg  Mg8  1  0.62409901  0.37744977  0.11873634  1
  Mg  Mg9  1  0.86836509  0.61510743  0.61453558  1
  Mg  Mg10  1  0.62998962  0.36900240  0.63405312  1
  Mg  Mg11  1  0.62129875  0.35499327  0.86783077  1
  Mg  Mg12  1  0.62783442  0.63422805  0.12795709  1
  Mg  Mg13  1  0.38325361  0.36715999  0.86951518  1
  Mg  Mg14  1  0.12847562  0.11857934  0.62745450  1
  Mg  Mg15  1  0.87435596  0.61980722  0.87602592  1
  Mg  Mg16  1  0.88460417  0.88551723  0.12432453  1
  Mg  Mg17  1  0.38633625  0.37117512  0.11634784  1
  Mg  Mg18  1  0.61855433  0.87277084  0.88258368  1
  Mg  Mg19  1  0.00669537  -0.00930549  0.74484531  1
  Mg  Mg20  1  0.25934449  0.02494998  0.05168853  1
  Mg  Mg21  1  0.29803864  -0.05298736  0.50316480  1
  Mg  Mg22  1  0.49344411  -0.06831662  0.25970623  1
  Mg  Mg23  1  0.81606507  0.73183419  0.74379443  1
  Mg  Mg24  1  0.52323740  0.48458054  -0.02847595  1
  Mg  Mg25  1  0.31417369  0.26161699  0.51393112  1
  Mg  Mg26  1  0.70587193  0.49783673  0.51315271  1
  Mg  Mg27  1  0.51729909  0.20642856  0.73834606  1
  Mg  Mg28  1  0.30100628  0.73386280  0.75561092  1
  Mg  Mg29  1  0.01229398  0.73674343  0.74454419  1
  Mg  Mg30  1  0.38651598  0.37280619  0.37133337  1
  Mg  Mg31  1  0.20249526  0.78490610  0.47782681  1
  Ti  Ti32  1  0.62692268  0.87000929  0.37153140  1
  Ti  Ti33  1  0.64517256  0.63395500  0.62993331  1
  Ti  Ti34  1  0.36367057  0.61648140  0.11784686  1
  Ti  Ti35  1  0.87671210  0.39178055  0.12114753  1
  Ti  Ti36  1  0.12739833  0.87024820  0.86488623  1
  Ti  Ti37  1  0.37419551  0.61518586  0.63469943  1
  Ti  Ti38  1  0.11757458  0.12777522  0.38811474  1
  Ti  Ti39  1  0.63203828  0.62326686  0.37747902  1
  Ti  Ti40  1  0.87778969  0.61758729  0.37588400  1
  Ti  Ti41  1  0.38251287  0.86346328  0.63455954  1
  Ti  Ti42  1  0.61967067  0.87057807  0.12361283  1
  Ti  Ti43  1  0.38937871  0.12932595  0.38920684  1
  Ti  Ti44  1  0.12520063  0.12637971  0.12771703  1
  Ti  Ti45  1  0.88029133  0.12880128  0.36951401  1
  Ti  Ti46  1  0.37376309  0.62067293  0.87678130  1
  Ti  Ti47  1  0.13110790  0.34998829  0.61254992  1
  Ti  Ti48  1  0.12601429  0.62115141  0.12369582  1
  Ti  Ti49  1  0.64832272  0.64390913  0.86799151  1
  Ti  Ti50  1  0.39171604  0.37313396  0.63309546  1
  Ti  Ti51  1  0.88561330  0.11768820  0.88120998  1
  Ti  Ti52  1  0.36761288  0.11853068  0.87336679  1
  Ti  Ti53  1  0.88285369  0.12250731  0.11048230  1
  Ti  Ti54  1  0.62300749  0.12577817  0.36457781  1
  Ti  Ti55  1  0.36512910  0.11778992  0.62661005  1
  Ti  Ti56  1  0.12182256  0.10481028  0.86169916  1
  Ti  Ti57  1  0.13315960  0.86968136  0.62161672  1
  Ti  Ti58  1  0.64055261  0.86706003  0.62170660  1
  Ti  Ti59  1  0.87256206  0.09965126  0.64693912  1
  Ti  Ti60  1  0.37374416  0.87073761  0.87687978  1
  Ti  Ti61  1  0.62411995  0.36939476  0.36591510  1
  Ti  Ti62  1  0.62533467  0.12844803  0.13458783  1
  Ti  Ti63  1  0.88698727  0.86510426  0.86385872  1
  Ti  Ti64  1  0.63710914  0.10839785  0.62754767  1
  Ti  Ti65  1  0.12661693  0.36642678  0.37366112  1
  Ti  Ti66  1  0.12925366  0.87638438  0.13325139  1
  Ti  Ti67  1  0.63146560  0.13175135  0.87343486  1
  Ti  Ti68  1  0.86354501  0.38729795  0.61005601  1
  Ti  Ti69  1  0.14441372  0.63731708  0.62438410  1
  Ti  Ti70  1  0.36604652  0.62468249  0.38758302  1
  Ti  Ti71  1  0.36476243  0.88236251  0.12913720  1
  Ti  Ti72  1  0.88085562  0.88048240  0.37161966  1
  Ti  Ti73  1  0.87887066  0.87103385  0.62241755  1
  Bi  Bi74  1  0.76736611  0.49820679  0.75330755  1
  Bi  Bi75  1  0.75289123  0.27346461  0.00398645  1
  Bi  Bi76  1  0.72885193  0.50532945  -0.00462501  1
  Bi  Bi77  1  0.50062780  -0.00948277  0.02722795  1
  Bi  Bi78  1  0.00381779  0.52414947  0.74954988  1
  Bi  Bi79  1  0.74166849  -0.02698745  0.77618094  1
  Bi  Bi80  1  0.26875548  0.46770369  0.49874829  1
  Bi  Bi81  1  0.23795979  0.47250135  0.77333202  1
  Bi  Bi82  1  0.01898260  0.49518845  0.27730072  1
  Bi  Bi83  1  0.26430287  0.46412582  0.23854787  1
  Bi  Bi84  1  -0.01202604  0.27223765  0.23757518  1
  Bi  Bi85  1  0.02490167  -0.01743214  0.00338556  1
  Bi  Bi86  1  0.76165565  0.75087109  0.47809947  1
  Bi  Bi87  1  0.03887609  0.47785787  -0.03935202  1
  Bi  Bi88  1  0.24851581  0.74586828  -0.01209914  1
  Bi  Bi89  1  0.02033519  -0.01002373  0.51892924  1
  Bi  Bi90  1  0.25357186  -0.01051960  0.74206600  1
  Bi  Bi91  1  0.01085319  0.72358376  0.26171290  1
  Bi  Bi92  1  -0.02523129  0.22305666  0.53255643  1
  Bi  Bi93  1  0.78189366  0.75720521  0.01191264  1
  Bi  Bi94  1  0.74353396  0.27438020  0.48729373  1
  Bi  Bi95  1  0.50551021  0.48893681  0.48166897  1
  Bi  Bi96  1  0.50406326  0.48788924  0.21305417  1
  Bi  Bi97  1  0.50874604  0.22793156  0.01818419  1
  Bi  Bi98  1  0.76646009  0.76783471  0.23554979  1
  Bi  Bi99  1  0.51463911  0.71761875  0.00017508  1
  Bi  Bi100  1  0.27227695  -0.01775691  0.30797923  1
  Bi  Bi101  1  0.52064078  0.22442521  0.53020734  1
  Bi  Bi102  1  0.76698150  0.27375166  0.24591977  1
  Bi  Bi103  1  0.49807968  0.00828463  0.77056140  1
  Bi  Bi104  1  0.76410333  0.01531207  0.23040950  1
  Bi  Bi105  1  0.27674437  0.23918396  0.02303471  1
  Bi  Bi106  1  0.47716107  0.72022877  0.24240770  1
  Bi  Bi107  1  0.25408961  0.45831301  -0.01258369  1
  Bi  Bi108  1  0.01968427  -0.00222952  0.26072257  1
  Bi  Bi109  1  -0.00160676  0.73040614  0.52320025  1
  Bi  Bi110  1  0.24063119  0.25539241  0.78198556  1
  Bi  Bi111  1  0.26396616  0.22438597  0.27698042  1
  Bi  Bi112  1  0.01139839  0.73410542  -0.01230062  1
  Bi  Bi113  1  0.75224109  0.01259354  0.47540571  1
  Bi  Bi114  1  0.00342287  0.28939639  0.76097079  1
  Bi  Bi115  1  0.04689361  0.25143032  -0.01397474  1
  Bi  Bi116  1  0.77363364  0.25158423  0.75332468  1
  Bi  Bi117  1  0.48637721  0.72575725  0.51649431  1
  Bi  Bi118  1  0.25241545  0.73792410  0.26635681  1
  Bi  Bi119  1  0.74339604  -0.01461230  -0.00666001  1
  Bi  Bi120  1  0.51410027  0.76478422  0.75596561  1
  Bi  Bi121  1  0.02561400  0.49295677  0.51626373  1
  Bi  Bi122  1  0.50120768  -0.03326854  0.48484643  1
  Bi  Bi123  1  0.74115150  0.52362467  0.23088425  1
  Bi  Bi124  1  0.53128247  0.49179143  0.75748107  1
  O  O125  1  0.13960289  0.15367932  -0.01098319  1
  O  O126  1  0.11083137  0.10663290  0.23961168  1
  O  O127  1  0.11049631  0.13847624  0.49829816  1
  O  O128  1  0.09660092  0.07896738  0.75177557  1
  O  O129  1  0.12507129  0.36292825  0.00178587  1
  O  O130  1  0.12993953  0.40675865  0.25403619  1
  O  O131  1  0.10872557  0.37151384  0.49357153  1
  O  O132  1  0.13597846  0.38879639  0.72379394  1
  O  O133  1  0.13589989  0.66175938  -0.00025577  1
  O  O134  1  0.10266843  0.61740289  0.24723989  1
  O  O135  1  0.14483152  0.67488411  0.51031571  1
  O  O136  1  0.09474398  0.62574525  0.74019889  1
  O  O137  1  0.09630970  0.85385990  -0.00380117  1
  O  O138  1  0.13734374  0.91507685  0.24509669  1
  O  O139  1  0.09312406  0.85470796  0.50518335  1
  O  O140  1  0.13736466  0.89626883  0.74696423  1
  O  O141  1  0.32981291  0.11133475  -0.01720301  1
  O  O142  1  0.37097139  0.12379891  0.26984841  1
  O  O143  1  0.36591330  0.14877673  0.50973804  1
  O  O144  1  0.41011884  0.12496081  0.74127104  1
  O  O145  1  0.35458124  0.36514999  -0.00684261  1
  O  O146  1  0.39423566  0.40110974  0.24559913  1
  O  O147  1  0.37600280  0.37520815  0.50667595  1
  O  O148  1  0.35133489  0.38214143  0.74229844  1
  O  O149  1  0.35283115  0.65191794  0.00118556  1
  O  O150  1  0.39736148  0.60607247  0.24355168  1
  O  O151  1  0.36048203  0.65235593  0.50154589  1
  O  O152  1  0.38843423  0.61326952  0.75364174  1
  O  O153  1  0.38560358  0.86889107  -0.00947492  1
  O  O154  1  0.36895654  0.90002765  0.24626873  1
  O  O155  1  0.39868665  0.86984032  0.51744616  1
  O  O156  1  0.32375567  0.86440604  0.74289805  1
  O  O157  1  0.63169348  0.14516337  -0.01008554  1
  O  O158  1  0.60761896  0.11249195  0.25102001  1
  O  O159  1  0.64675401  0.14884925  0.51046229  1
  O  O160  1  0.60074384  0.10639842  0.74566036  1
  O  O161  1  0.65448817  0.38384737  -0.00876010  1
  O  O162  1  0.61225967  0.39535857  0.25247679  1
  O  O163  1  0.64652821  0.37520953  0.50378979  1
  O  O164  1  0.63989828  0.40885403  0.75532290  1
  O  O165  1  0.64175998  0.65376431  -0.00151255  1
  O  O166  1  0.61424932  0.60726619  0.26309998  1
  O  O167  1  0.66369001  0.63535980  0.50759789  1
  O  O168  1  0.60465652  0.62883553  0.75480838  1
  O  O169  1  0.59646509  0.87098743  0.00763003  1
  O  O170  1  0.62325572  0.89597027  0.25511318  1
  O  O171  1  0.60089423  0.86816060  0.50461246  1
  O  O172  1  0.64154244  0.87764407  0.74447775  1
  O  O173  1  0.85870322  0.14788304  -0.00453527  1
  O  O174  1  0.87733660  0.09102987  0.24401352  1
  O  O175  1  0.86538725  0.14256924  0.48979290  1
  O  O176  1  0.89916289  0.07210513  0.75380310  1
  O  O177  1  0.86800377  0.35788574  0.00472312  1
  O  O178  1  0.87056133  0.36975088  0.24473159  1
  O  O179  1  0.87687209  0.34280674  0.49957102  1
  O  O180  1  0.85600897  0.38980593  0.73908775  1
  O  O181  1  0.86252766  0.64880604  -0.00139884  1
  O  O182  1  0.90672198  0.62632059  0.25625661  1
  O  O183  1  0.86405431  0.65566473  0.49363381  1
  O  O184  1  0.88488628  0.59383174  0.74250150  1
  O  O185  1  0.89182701  0.84639641  -0.01417489  1
  O  O186  1  0.84818904  0.89743263  0.25314126  1
  O  O187  1  0.88870870  0.84988440  0.50220300  1
  O  O188  1  0.83743630  0.87414877  0.74756407  1
  O  O189  1  -0.00423047  0.10267872  0.10190507  1
  O  O190  1  -0.00430981  0.13969112  0.36450557  1
  O  O191  1  -0.01093344  0.09863380  0.60628034  1
  O  O192  1  -0.00219178  0.10587531  0.89915920  1
  O  O193  1  -0.00592189  0.38035738  0.14111299  1
  O  O194  1  0.00549180  0.36781533  0.35212943  1
  O  O195  1  -0.00999119  0.39573224  0.62126235  1
  O  O196  1  -0.00930812  0.39511973  0.86174377  1
  O  O197  1  0.00980776  0.64972105  0.10914936  1
  O  O198  1  -0.00050716  0.65966995  0.38964802  1
  O  O199  1  -0.00205050  0.60605594  0.60056597  1
  O  O200  1  -0.00066817  0.58878416  0.87793172  1
  O  O201  1  0.00882206  0.90586196  0.13406575  1
  O  O202  1  -0.00781441  0.87096811  0.34601385  1
  O  O203  1  -0.01097963  0.91225655  0.64367081  1
  O  O204  1  -0.00940541  0.91174249  0.84577934  1
  O  O205  1  0.24574127  0.13543158  0.12998328  1
  O  O206  1  0.23564047  0.12189414  0.36626584  1
  O  O207  1  0.25675188  0.14377196  0.64742815  1
  O  O208  1  0.23998235  0.12165159  0.83489172  1
  O  O209  1  0.25409172  0.35997767  0.14830952  1
  O  O210  1  0.24968969  0.39324003  0.36986076  1
  O  O211  1  0.24413454  0.34160690  0.58840098  1
  O  O212  1  0.24450714  0.37172041  0.86462326  1
  O  O213  1  0.24857346  0.64359402  0.14553170  1
  O  O214  1  0.25583364  0.62029587  0.35209548  1
  O  O215  1  0.25274708  0.65397352  0.65932458  1
  O  O216  1  0.25516768  0.67241553  0.86329157  1
  O  O217  1  0.24970863  0.88610421  0.10482020  1
  O  O218  1  0.23942658  0.89223021  0.40807457  1
  O  O219  1  0.24166547  0.85125873  0.58520189  1
  O  O220  1  0.23996782  0.85271672  0.88597519  1
  O  O221  1  0.50099751  0.11527248  0.09817409  1
  O  O222  1  0.50320917  0.13358979  0.39698165  1
  O  O223  1  0.50652666  0.10873260  0.60023852  1
  O  O224  1  0.48311011  0.09560944  0.88940470  1
  O  O225  1  0.50417812  0.42144478  0.08949044  1
  O  O226  1  0.50966569  0.37978026  0.39482795  1
  O  O227  1  0.50078874  0.40532866  0.64164546  1
  O  O228  1  0.50207468  0.41017232  0.87205573  1
  O  O229  1  0.49289131  0.62621725  0.11192428  1
  O  O230  1  0.51035951  0.62773745  0.41049382  1
  O  O231  1  0.48989366  0.61536175  0.60388707  1
  O  O232  1  0.48469900  0.60346141  0.91725545  1
  O  O233  1  0.49610253  0.90157145  0.13938990  1
  O  O234  1  0.50780605  0.88761097  0.37242947  1
  O  O235  1  0.48949027  0.88866783  0.66455269  1
  O  O236  1  0.48980337  0.88521821  0.84918961  1
  O  O237  1  0.74158658  0.13692715  0.14088877  1
  O  O238  1  0.74769052  0.10518317  0.35977660  1
  O  O239  1  0.75204299  0.12793567  0.65330242  1
  O  O240  1  0.74524930  0.14112737  0.84999899  1
  O  O241  1  0.75343051  0.35478232  0.12866340  1
  O  O242  1  0.74819461  0.37049098  0.36641743  1
  O  O243  1  0.75630437  0.33374049  0.61952037  1
  O  O244  1  0.74903507  0.32502228  0.87112841  1
  O  O245  1  0.75382020  0.64086177  0.16274225  1
  O  O246  1  0.75617997  0.61553955  0.36059836  1
  O  O247  1  0.75221617  0.65824716  0.65760029  1
  O  O248  1  0.75515355  0.66987989  0.84524277  1
  O  O249  1  0.73878565  0.87340036  0.10927846  1
  O  O250  1  0.74527872  0.89046274  0.40069396  1
  O  O251  1  0.74907253  0.84325714  0.60235830  1
  O  O252  1  0.74921759  0.87684472  0.89319968  1
  O  O253  1  0.13773368  0.00922318  0.08425542  1
  O  O254  1  0.09743658  0.00791827  0.38398250  1
  O  O255  1  0.13561507  -0.00880148  0.59736681  1
  O  O256  1  0.13202031  -0.00636171  0.90182446  1
  O  O257  1  0.09477452  0.24344512  0.12697528  1
  O  O258  1  0.13716066  0.25291690  0.35262146  1
  O  O259  1  0.09592707  0.24477102  0.63644746  1
  O  O260  1  0.10531228  0.23428871  0.84438162  1
  O  O261  1  0.13184597  0.51104104  0.10419699  1
  O  O262  1  0.10400354  0.50625622  0.38882544  1
  O  O263  1  0.14238250  0.51900952  0.59139172  1
  O  O264  1  0.14925801  0.51311915  0.88444893  1
  O  O265  1  0.12990822  0.76585944  0.15533886  1
  O  O266  1  0.14760790  0.75629835  0.35679735  1
  O  O267  1  0.09268231  0.75772224  0.64614190  1
  O  O268  1  0.08557009  0.76025787  0.85233648  1
  O  O269  1  0.37077448  0.00078745  0.10515863  1
  O  O270  1  0.36645464  0.01281799  0.41009324  1
  O  O271  1  0.34568628  -0.00217609  0.61971609  1
  O  O272  1  0.35562502  -0.00815275  0.84465747  1
  O  O273  1  0.39165103  0.24145958  0.10387849  1
  O  O274  1  0.35041342  0.25035688  0.38411628  1
  O  O275  1  0.40420200  0.25672170  0.62685712  1
  O  O276  1  0.35744201  0.23779669  0.86655039  1
  O  O277  1  0.34741454  0.50626183  0.10591723  1
  O  O278  1  0.38444455  0.50620185  0.40504461  1
  O  O279  1  0.35000019  0.50326389  0.61342953  1
  O  O280  1  0.33881470  0.50979547  0.88354056  1
  O  O281  1  0.38436994  0.76017406  0.14619809  1
  O  O282  1  0.38034218  0.73641009  0.34465547  1
  O  O283  1  0.39382217  0.74731928  0.64594929  1
  O  O284  1  0.39438476  0.75206537  0.84947447  1
  O  O285  1  0.62679990  0.00894607  0.10453717  1
  O  O286  1  0.62173937  0.00913852  0.40202753  1
  O  O287  1  0.64494392  -0.00628234  0.61244906  1
  O  O288  1  0.63424148  0.00425366  0.87885411  1
  O  O289  1  0.59967262  0.24893321  0.11912020  1
  O  O290  1  0.63357503  0.24929336  0.36908780  1
  O  O291  1  0.59522962  0.24521869  0.64602215  1
  O  O292  1  0.58122773  0.23653778  0.84685343  1
  O  O293  1  0.65088738  0.50849677  0.12373972  1
  O  O294  1  0.62914685  0.50414417  0.40550043  1
  O  O295  1  0.64133189  0.51653607  0.62110707  1
  O  O296  1  0.63554215  0.52504172  0.89446418  1
  O  O297  1  0.60586003  0.75861535  0.14177501  1
  O  O298  1  0.63959775  0.75271439  0.37079422  1
  O  O299  1  0.59726503  0.75123941  0.62650947  1
  O  O300  1  0.59221449  0.74910400  0.87425225  1
  O  O301  1  0.84515301  0.00527145  0.10228168  1
  O  O302  1  0.87886942  -0.00179544  0.39823911  1
  O  O303  1  0.84638227  -0.00842582  0.60573215  1
  O  O304  1  0.84685554  0.00398948  0.89545981  1
  O  O305  1  0.88142181  0.23650382  0.14943387  1
  O  O306  1  0.86486637  0.24152549  0.34544206  1
  O  O307  1  0.89785882  0.22827992  0.64881838  1
  O  O308  1  0.89383901  0.23454589  0.83583772  1
  O  O309  1  0.85426655  0.50273293  0.12555175  1
  O  O310  1  0.90025287  0.50629071  0.38342360  1
  O  O311  1  0.82362357  0.49245839  0.58550376  1
  O  O312  1  0.82265943  0.49751714  0.87884005  1
  O  O313  1  0.86272347  0.76148329  0.13597080  1
  O  O314  1  0.84899780  0.76082393  0.35470405  1
  O  O315  1  0.90727600  0.75527199  0.65250913  1
  O  O316  1  0.90801375  0.75278681  0.83495078  1
